drugbank_target|Q12756 Kinesin-like protein KIF1A (DB03909; DB04395)
 OpenBabel12092120273D

  0  0  0     0  0            999 V3000
M  V30 BEGIN CTAB
M  V30 COUNTS 26674 26954 0 0 0
M  V30 BEGIN ATOM
M  V30 1 H -0.908 1.98254 -0.117106 0
M  V30 2 N 0 1.576 0 0
M  V30 3 C 0.933 2.03868 1.02534 0
M  V30 4 C 1.911 0.928543 1.3348 0
M  V30 5 O 3.095 1.19667 1.45644 0
M  V30 6 C 0.222 2.43627 2.35294 0
M  V30 7 C -0.732 3.65373 2.2001 0
M  V30 8 S 0.101 5.13292 1.52614 0
M  V30 9 C 1.257 5.56322 2.86805 0
M  V30 10 H 1.49 2.90518 0.631377 0
M  V30 11 H -0.977 1.52953 0.210867 0
M  V30 12 H 0.981 2.67203 3.11629 0
M  V30 13 H -0.358 1.57376 2.7183 0
M  V30 14 H -1.165 3.90944 3.18086 0
M  V30 15 H -1.563 3.418 1.51819 0
M  V30 16 H 0.729 5.58782 3.83104 0
M  V30 17 H 1.672 6.56266 2.65933 0
M  V30 18 H 2.08 4.83886 2.90714 0
M  V30 19 N 1.4781 -0.272755 1.55222 0
M  V30 20 C 2.4411 -1.32041 1.87344 0
M  V30 21 C 3.4411 -1.42342 0.74803 0
M  V30 22 O 4.6311 -1.41488 1.0162 0
M  V30 23 C 1.7631 -2.70173 2.07893 0
M  V30 24 H 2.9561 -1.04789 2.80997 0
M  V30 25 H 0.5091 -0.51083 1.47717 0
M  V30 26 H 1.2441 -3.02605 1.16622 0
M  V30 27 H 1.0291 -2.64082 2.89833 0
M  V30 28 H 2.5191 -3.45869 2.34017 0
M  V30 29 N 2.9562 -1.48159 -0.537278 0
M  V30 30 C 4.2042 -1.55497 -1.29094 0
M  V30 31 C 4.5252 -0.227454 -1.93669 0
M  V30 32 O 3.7952 0.750386 -1.80959 0
M  V30 33 H 2.3752 -0.572832 -0.47945 0
M  V30 34 H 5.0372 -1.84579 -0.625818 0
M  V30 35 H 4.1332 -2.33216 -2.07405 0
M  V30 36 N 4.4343 0.785586 -1.36625 0
M  V30 37 C 5.3973 1.87999 -1.31107 0
M  V30 38 C 6.3973 1.59316 -0.217959 0
M  V30 39 O 7.5873 1.67656 -0.472977 0
M  V30 40 C 4.7193 3.24861 -1.03334 0
M  V30 41 H 5.9123 1.94307 -2.2844 0
M  V30 42 H 3.4653 0.983813 -1.21453 0
M  V30 43 H 4.2003 3.24235 -0.0647432 0
M  V30 44 H 3.9853 3.4707 -1.82441 0
M  V30 45 H 5.4753 4.04929 -1.02088 0
M  V30 46 N 5.9124 1.20967 1.01018 0
M  V30 47 C 7.1374 1.0503 1.78839 0
M  V30 48 C 7.5624 -0.395752 1.8389 0
M  V30 49 O 6.9204 -1.28529 1.27867 0
M  V30 50 C 6.9684 1.64602 3.2084 0
M  V30 51 O 6.0724 0.887988 4.02726 0
M  V30 52 H 5.4134 0.369987 0.551367 0
M  V30 53 H 7.9434 1.60399 1.27018 0
M  V30 54 H 7.9534 1.68607 3.71532 0
M  V30 55 H 6.6284 2.69841 3.16479 0
M  V30 56 H 5.2054 0.922648 3.61305 0
M  V30 57 N 7.3905 -1.2043 1.01659 0
M  V30 58 C 8.6365 -1.90079 0.706963 0
M  V30 59 C 8.9695 -1.78648 -0.761474 0
M  V30 60 O 8.2445 -1.17069 -1.55323 0
M  V30 61 C 8.5275 -3.41469 1.14327 0
M  V30 62 C 8.3805 -3.61833 2.67201 0
M  V30 63 C 9.6995 -4.34261 0.714529 0
M  V30 64 H 6.8185 -0.690254 0.2583 0
M  V30 65 H 9.4605 -1.41826 1.26433 0
M  V30 66 H 7.6105 -3.82696 0.669056 0
M  V30 67 H 9.2825 -3.2986 3.22475 0
M  V30 68 H 7.5255 -3.05304 3.08175 0
M  V30 69 H 8.1965 -4.67955 2.92783 0
M  V30 70 H 10.6725 -4.00682 1.12221 0
M  V30 71 H 9.5485 -5.38806 1.04784 0
M  V30 72 H 9.8095 -4.40431 -0.383799 0
M  V30 73 N 8.8686 -0.792821 -1.36206 0
M  V30 74 C 9.8156 -0.191653 -2.30003 0
M  V30 75 C 10.7856 0.666453 -1.52143 0
M  V30 76 O 11.9706 0.61442 -1.80636 0
M  V30 77 C 9.1106 0.664848 -3.38635 0
M  V30 78 C 8.2236 -0.212175 -4.31479 0
M  V30 79 C 7.3586 0.651022 -5.27196 0
M  V30 80 C 6.3976 -0.227247 -6.11678 0
M  V30 81 N 5.5346 0.595127 -6.99573 0
M  V30 82 H 10.3746 -0.996978 -2.80828 0
M  V30 83 H 7.9116 -0.503206 -1.38225 0
M  V30 84 H 9.8696 1.17645 -4.00269 0
M  V30 85 H 8.4996 1.43557 -2.89122 0
M  V30 86 H 7.5516 -0.841777 -3.70969 0
M  V30 87 H 8.8636 -0.888751 -4.90818 0
M  V30 88 H 8.0176 1.2283 -5.94136 0
M  V30 89 H 6.7566 1.36121 -4.68319 0
M  V30 90 H 5.7616 -0.816904 -5.43697 0
M  V30 91 H 6.9866 -0.93509 -6.72631 0
M  V30 92 H 4.9326 1.28955 -6.432 0
M  V30 93 H 4.8496 -0.0236952 -7.55996 0
M  V30 94 H 6.1176 1.15613 -7.70879 0
M  V30 95 N 10.3467 1.47872 -0.545128 0
M  V30 96 C 11.5927 2.02793 -0.0166104 0
M  V30 97 C 11.9257 1.41987 1.32489 0
M  V30 98 O 11.2007 0.571045 1.85928 0
M  V30 99 C 11.4837 3.59989 0.0893294 0
M  V30 100 C 11.3367 4.3125 -1.27841 0
M  V30 101 C 12.6557 4.32606 0.808724 0
M  V30 102 H 9.7747 0.736962 -0.00751035 0
M  V30 103 H 12.4167 1.76433 -0.705085 0
M  V30 104 H 10.5667 3.82579 0.675681 0
M  V30 105 H 12.2387 4.20035 -1.90704 0
M  V30 106 H 10.4817 3.92076 -1.85632 0
M  V30 107 H 11.1527 5.39736 -1.15713 0
M  V30 108 H 13.6287 4.14936 0.310992 0
M  V30 109 H 12.5047 5.42251 0.851782 0
M  V30 110 H 12.7657 4.00963 1.86229 0
M  V30 111 N 11.8248 0.280983 1.55075 0
M  V30 112 C 12.7878 -0.590896 2.21452 0
M  V30 113 C 13.7878 -1.07682 1.19421 0
M  V30 114 O 14.9778 -0.97605 1.44288 0
M  V30 115 C 12.1098 -1.81587 2.88511 0
M  V30 116 H 13.3028 -0.0112554 2.99898 0
M  V30 117 H 10.8558 0.0316438 1.56268 0
M  V30 118 H 11.5908 -2.43587 2.14093 0
M  V30 119 H 11.3758 -1.4753 3.63287 0
M  V30 120 H 12.8658 -2.43575 3.39206 0
M  V30 121 N 13.3029 -1.57598 0.00835791 0
M  V30 122 C 14.5489 -1.91211 -0.675732 0
M  V30 123 C 14.8819 -0.883139 -1.72958 0
M  V30 124 O 14.1569 0.097016 -1.94258 0
M  V30 125 C 14.4399 -3.35379 -1.31123 0
M  V30 126 C 14.2929 -4.48999 -0.268356 0
M  V30 127 C 15.6119 -3.7912 -2.23508 0
M  V30 128 H 12.7309 -0.695374 -0.244179 0
M  V30 129 H 15.3729 -1.89901 0.0613655 0
M  V30 130 H 13.5229 -3.36626 -1.93946 0
M  V30 131 H 15.1949 -4.59887 0.360844 0
M  V30 132 H 13.4379 -4.31873 0.408482 0
M  V30 133 H 14.1089 -5.46851 -0.752218 0
M  V30 134 H 16.5849 -3.79477 -1.70693 0
M  V30 135 H 15.4609 -4.80729 -2.64936 0
M  V30 136 H 15.7219 -3.13455 -3.11766 0
M  V30 137 N 14.781 0.264519 -1.55364 0
M  V30 138 C 16.197 0.61215 -1.47394 0
M  V30 139 C 16.397 1.89134 -0.695018 0
M  V30 140 O 15.453 2.51563 -0.217275 0
M  V30 141 C 16.766 0.731235 -2.91674 0
M  V30 142 C 18.314 0.82473 -3.01939 0
M  V30 143 C 18.789 0.975522 -4.4749 0
M  V30 144 N 20.28 1.04083 -4.51354 0
M  V30 145 C 21.015 1.17646 -5.61201 0
M  V30 146 N 20.511 1.27874 -6.80896 0
M  V30 147 N 22.304 1.20823 -5.48961 0
M  V30 148 H 14.455 -0.575456 -2.04456 0
M  V30 149 H 16.718 -0.196099 -0.927496 0
M  V30 150 H 16.424 -0.138392 -3.51428 0
M  V30 151 H 16.298 1.60883 -3.41169 0
M  V30 152 H 18.685 1.68482 -2.42276 0
M  V30 153 H 18.766 -0.0776479 -2.55682 0
M  V30 154 H 18.41 0.120058 -5.07758 0
M  V30 155 H 18.34 1.89268 -4.91412 0
M  V30 156 H 20.831 0.973846 -3.65136 0
M  V30 157 H 21.144 1.38081 -7.60364 0
M  V30 158 H 19.489 1.24863 -6.83692 0
M  V30 159 H 22.68 1.12469 -4.54388 0
M  V30 160 H 22.853 1.31049 -6.3461 0
M  V30 161 N 16.2591 1.48442 0.529413 0
M  V30 162 C 17.5051 1.5672 1.28711 0
M  V30 163 C 17.8381 0.2406 1.92704 0
M  V30 164 O 17.1131 -0.753454 1.79313 0
M  V30 165 C 17.3961 2.70587 2.37603 0
M  V30 166 C 17.2491 4.12953 1.78297 0
M  V30 167 C 18.5681 2.80212 3.39366 0
M  V30 168 H 15.6871 0.570474 0.466613 0
M  V30 169 H 18.3291 1.80617 0.589706 0
M  V30 170 H 16.4791 2.50342 2.97088 0
M  V30 171 H 18.1511 4.44639 1.22858 0
M  V30 172 H 16.3941 4.19927 1.0883 0
M  V30 173 H 17.0651 4.88448 2.57144 0
M  V30 174 H 19.5411 2.98553 2.89836 0
M  V30 175 H 18.4171 3.61611 4.12951 0
M  V30 176 H 18.6781 1.88393 3.99951 0
M  V30 177 N 17.7372 -0.778329 1.37039 0
M  V30 178 C 19.1532 -1.07796 1.17695 0
M  V30 179 C 19.3532 -2.01498 0.00860115 0
M  V30 180 O 18.4092 -2.43901 -0.653352 0
M  V30 181 C 19.7222 -1.68178 2.49272 0
M  V30 182 C 21.2702 -1.80467 2.55735 0
M  V30 183 C 21.7452 -2.44263 3.87427 0
M  V30 184 N 23.2362 -2.51721 3.88833 0
M  V30 185 C 23.9712 -3.01919 4.87476 0
M  V30 186 N 23.4672 -3.5234 5.96513 0
M  V30 187 N 25.2602 -3.00733 4.74885 0
M  V30 188 H 17.4112 -0.156032 2.11826 0
M  V30 189 H 19.6742 -0.131844 0.938787 0
M  V30 190 H 19.3802 -1.06796 3.35093 0
M  V30 191 H 19.2542 -2.67554 2.65885 0
M  V30 192 H 21.6412 -2.40984 1.70325 0
M  V30 193 H 21.7222 -0.798656 2.43013 0
M  V30 194 H 21.3662 -1.84388 4.73248 0
M  V30 195 H 21.2962 -3.45458 3.9745 0
M  V30 196 H 23.7872 -2.1603 3.10063 0
M  V30 197 H 24.1002 -3.89027 6.67741 0
M  V30 198 H 22.4452 -3.50462 6.00168 0
M  V30 199 H 25.6362 -2.60638 3.88826 0
M  V30 200 H 25.8092 -3.39545 5.51918 0
M  V30 201 N 19.2153 -1.21501 -1.00376 0
M  V30 202 C 20.6263 -1.03146 -1.55621 0
M  V30 203 C 20.9773 0.408375 -1.91903 0
M  V30 204 O 20.1023 1.29177 -1.73616 0
M  V30 205 C 20.6973 -1.86612 -2.82775 0
M  V30 206 C 19.2563 -1.72586 -3.34501 0
M  V30 207 C 18.4033 -1.83747 -2.07683 0
M  V30 208 H 21.3543 -1.35505 -0.826081 0
M  V30 209 H 21.3753 -1.3771 -3.54706 0
M  V30 210 H 20.8873 -2.91399 -2.56336 0
M  V30 211 H 18.9883 -0.704877 -3.65872 0
M  V30 212 H 19.1013 -2.54623 -4.05837 0
M  V30 213 H 17.4653 -1.27069 -2.20739 0
M  V30 214 H 18.2483 -2.90044 -1.83655 0
M  V30 215 N 20.6934 1.19889 -1.02296 0
M  V30 216 C 21.9404 1.8942 -0.715972 0
M  V30 217 C 22.2684 1.79251 0.754944 0
M  V30 218 O 21.5234 1.17526 1.56481 0
M  V30 219 C 21.8224 3.39883 -1.10518 0
M  V30 220 C 21.4884 3.70254 -2.57337 0
M  V30 221 C 20.1504 3.78254 -2.97452 0
M  V30 222 C 22.5024 3.84052 -3.52354 0
M  V30 223 C 19.8304 3.97514 -4.31509 0
M  V30 224 C 22.1824 4.04824 -4.86108 0
M  V30 225 C 20.8464 4.11054 -5.25919 0
M  V30 226 H 20.1164 0.693138 -0.261993 0
M  V30 227 H 22.7634 1.42012 -1.28472 0
M  V30 228 H 21.0684 3.8915 -0.454953 0
M  V30 229 H 22.7654 3.9199 -0.845261 0
M  V30 230 H 19.3554 3.64632 -2.25258 0
M  V30 231 H 23.5394 3.77221 -3.22518 0
M  V30 232 H 18.7954 4.00574 -4.61898 0
M  V30 233 H 22.9694 4.14442 -5.59653 0
M  V30 234 H 20.5964 4.2573 -6.29808 0
M  V30 235 N 22.1715 0.800033 1.35784 0
M  V30 236 C 23.1195 0.193851 2.31791 0
M  V30 237 C 24.1135 -0.652744 1.56319 0
M  V30 238 O 25.3195 -0.546641 1.71499 0
M  V30 239 H 21.6945 0.04392 0.750716 0
M  V30 240 H 23.6655 1.01883 2.80468 0
M  V30 241 C 22.4145 -0.648338 3.41602 0
M  V30 242 H 21.7375 -0.00624665 3.998 0
M  V30 243 H 23.1775 -1.03898 4.11073 0
M  V30 244 C 21.6365 -1.8111 2.84079 0
M  V30 245 O 22.1665 -2.90825 2.77099 0
M  V30 246 N 20.3725 -1.62056 2.41218 0
M  V30 247 H 19.9195 -0.728123 2.47095 0
M  V30 248 H 19.8775 -2.40013 2.03079 0
M  V30 249 N 23.6496 -1.47581 0.552962 0
M  V30 250 C 24.8746 -2.07378 0.0300593 0
M  V30 251 C 25.2996 -1.40355 -1.25229 0
M  V30 252 O 24.6576 -0.477099 -1.7491 0
M  V30 253 C 24.7056 -3.60274 -0.153231 0
M  V30 254 O 23.8096 -3.94041 -1.21678 0
M  V30 255 H 23.1506 -0.662158 0.0494182 0
M  V30 256 H 25.6806 -1.89662 0.767434 0
M  V30 257 H 25.6906 -4.0633 -0.368761 0
M  V30 258 H 24.3656 -4.08455 0.783397 0
M  V30 259 H 22.9426 -3.59735 -0.982079 0
M  V30 260 N 25.1277 -0.289203 -1.54924 0
M  V30 261 C 26.5437 0.0645403 -1.59469 0
M  V30 262 C 26.7437 1.53419 -1.30632 0
M  V30 263 O 25.7997 2.2852 -1.074 0
M  V30 264 C 27.1127 -0.32278 -2.98963 0
M  V30 265 C 28.6607 -0.270564 -3.11828 0
M  V30 266 C 29.1357 -0.632532 -4.53611 0
M  V30 267 N 30.6267 -0.584617 -4.59496 0
M  V30 268 C 31.3617 -0.837314 -5.67254 0
M  V30 269 N 30.8577 -1.15536 -6.83098 0
M  V30 270 N 32.6507 -0.765166 -5.56868 0
M  V30 271 H 24.8017 -1.24714 -1.71931 0
M  V30 272 H 27.0647 -0.504809 -0.802416 0
M  V30 273 H 26.7707 -1.34541 -3.24948 0
M  V30 274 H 26.6447 0.32944 -3.75759 0
M  V30 275 H 29.0317 0.742805 -2.85598 0
M  V30 276 H 29.1127 -0.957242 -2.37214 0
M  V30 277 H 28.7567 -1.64365 -4.80569 0
M  V30 278 H 28.6867 0.07609 -5.26545 0
M  V30 279 H 31.1777 -0.349248 -3.76283 0
M  V30 280 H 31.4907 -1.33447 -7.61191 0
M  V30 281 H 29.8357 -1.19328 -6.84679 0
M  V30 282 H 33.0267 -0.516432 -4.65243 0
M  V30 283 H 33.1997 -0.965477 -6.40767 0
M  V30 284 N 26.6058 1.57591 -0.0167156 0
M  V30 285 C 27.5158 2.1291 0.98521 0
M  V30 286 C 28.5318 1.07834 1.36557 0
M  V30 287 O 29.7078 1.39826 1.44951 0
M  V30 288 C 26.7728 2.63512 2.25305 0
M  V30 289 C 25.8338 3.83256 1.93426 0
M  V30 290 C 25.0668 4.31435 3.14165 0
M  V30 291 O 25.2898 3.78851 4.26413 0
M  V30 292 O 24.2238 5.23416 2.97186 0
M  V30 293 H 28.0498 2.98772 0.544888 0
M  V30 294 H 25.6348 1.48012 0.203141 0
M  V30 295 H 27.5168 2.96183 2.99756 0
M  V30 296 H 26.1918 1.8074 2.68542 0
M  V30 297 H 25.0988 3.55531 1.16398 0
M  V30 298 H 26.4318 4.67153 1.55013 0
M  V30 299 N 28.0839 -0.256276 1.55502 0
M  V30 300 C 29.0169 -1.34321 1.84481 0
M  V30 301 C 29.9949 -1.46802 0.699131 0
M  V30 302 O 31.1789 -1.63165 0.943904 0
M  V30 303 C 28.3059 -2.71779 2.02123 0
M  V30 304 C 27.3519 -2.76496 3.24734 0
M  V30 305 S 28.1849 -2.3405 4.81644 0
M  V30 306 C 29.3409 -3.73452 5.02279 0
M  V30 307 H 29.5739 -1.09539 2.76385 0
M  V30 308 H 27.1069 -0.45678 1.47489 0
M  V30 309 H 29.0649 -3.50932 2.12972 0
M  V30 310 H 27.7259 -2.93803 1.11078 0
M  V30 311 H 26.9189 -3.77424 3.34016 0
M  V30 312 H 26.5209 -2.05379 3.12563 0
M  V30 313 H 28.8129 -4.6887 4.89047 0
M  V30 314 H 29.7559 -3.6911 6.04287 0
M  V30 315 H 30.1639 -3.6553 4.30172 0
M  V30 316 N 29.562 -1.4872 -0.521534 0
M  V30 317 C 30.787 -1.61101 -1.30618 0
M  V30 318 C 31.212 -0.274611 -1.86085 0
M  V30 319 O 30.57 0.754937 -1.64834 0
M  V30 320 C 30.618 -2.66709 -2.4269 0
M  V30 321 O 29.722 -2.24456 -3.45967 0
M  V30 322 H 29.063 -0.539921 -0.386499 0
M  V30 323 H 31.593 -1.94767 -0.626645 0
M  V30 324 H 31.603 -2.88245 -2.88754 0
M  V30 325 H 30.278 -3.63727 -2.01682 0
M  V30 326 H 28.855 -2.13168 -3.05964 0
M  V30 327 N 31.0401 0.771051 -1.3745 0
M  V30 328 C 32.4561 1.07171 -1.18265 0
M  V30 329 C 32.6561 2.01491 -0.019287 0
M  V30 330 O 31.7121 2.44244 0.640408 0
M  V30 331 C 33.0251 1.66854 -2.50161 0
M  V30 332 C 34.5731 1.79109 -2.56689 0
M  V30 333 C 35.0481 2.42205 -3.88717 0
M  V30 334 N 36.5391 2.49655 -3.90162 0
M  V30 335 C 37.2741 2.9933 -4.8907 0
M  V30 336 N 36.7701 3.49172 -5.98374 0
M  V30 337 N 38.5631 2.9821 -4.76474 0
M  V30 338 H 30.7141 0.144796 -2.11906 0
M  V30 339 H 32.9771 0.126863 -0.939473 0
M  V30 340 H 32.6831 1.05017 -3.35655 0
M  V30 341 H 32.5571 2.6614 -2.673 0
M  V30 342 H 34.9441 2.40077 -1.71601 0
M  V30 343 H 35.0251 0.785757 -2.43433 0
M  V30 344 H 34.6691 1.81875 -4.74219 0
M  V30 345 H 34.5991 3.43345 -3.99276 0
M  V30 346 H 37.0901 2.14383 -3.11205 0
M  V30 347 H 37.4031 3.8548 -6.69795 0
M  V30 348 H 35.7481 3.47275 -6.02018 0
M  V30 349 H 38.9391 2.58572 -3.90203 0
M  V30 350 H 39.1121 3.36613 -5.53711 0
M  V30 351 N 32.5182 1.22032 0.997298 0
M  V30 352 C 33.7952 0.950823 1.70935 0
M  V30 353 C 34.1752 -0.535292 2.042 0
M  V30 354 O 33.5232 -1.50217 1.72183 0
M  V30 355 C 33.7332 1.84386 2.96315 0
M  V30 356 C 35.0812 2.09732 3.69185 0
M  V30 357 O 36.1052 1.81798 3.06314 0
M  V30 358 O 34.9642 2.57018 4.82291 0
M  V30 359 H 32.0582 0.357204 0.745878 0
M  V30 360 H 34.6042 1.32997 1.05404 0
M  V30 361 H 33.3762 2.84928 2.68201 0
M  V30 362 H 32.9992 1.46602 3.69586 0
M  V30 363 N 33.9963 -1.19345 1.0293 0
M  V30 364 C 35.2213 -1.93538 0.745511 0
M  V30 365 C 35.6463 -1.75007 -0.689511 0
M  V30 366 O 35.0043 -1.05265 -1.47611 0
M  V30 367 C 35.0523 -3.43336 1.10239 0
M  V30 368 O 34.1563 -4.11806 0.221289 0
M  V30 369 H 33.4973 -0.604193 0.275404 0
M  V30 370 H 36.0273 -1.5141 1.37609 0
M  V30 371 H 36.0373 -3.94004 1.05947 0
M  V30 372 H 34.7123 -3.56146 2.14786 0
M  V30 373 H 33.2893 -3.715 0.322842 0
M  V30 374 N 35.4744 -0.807222 -1.35358 0
M  V30 375 C 36.4214 -0.216037 -2.29787 0
M  V30 376 C 37.3914 0.650278 -1.52842 0
M  V30 377 O 38.5764 0.595227 -1.81278 0
M  V30 378 C 35.7164 0.628893 -3.39321 0
M  V30 379 C 34.8294 -0.257927 -4.31229 0
M  V30 380 C 33.9644 0.595069 -5.27856 0
M  V30 381 C 33.0034 -0.292111 -6.11403 0
M  V30 382 N 32.1404 0.520895 -7.00165 0
M  V30 383 H 36.9804 -1.02671 -2.79755 0
M  V30 384 H 34.5174 -0.517839 -1.37684 0
M  V30 385 H 36.4754 1.13393 -4.01494 0
M  V30 386 H 35.1054 1.40482 -2.90628 0
M  V30 387 H 34.1574 -0.881076 -3.70056 0
M  V30 388 H 35.4694 -0.940759 -4.89848 0
M  V30 389 H 34.6234 1.16522 -5.95405 0
M  V30 390 H 33.3624 1.31146 -4.69736 0
M  V30 391 H 32.3674 -0.874525 -5.428 0
M  V30 392 H 33.5924 -1.00638 -6.71602 0
M  V30 393 H 31.5384 1.22125 -6.44532 0
M  V30 394 H 31.4554 -0.103877 -7.55929 0
M  V30 395 H 32.7234 1.0743 -7.72062 0
M  V30 396 N 36.9525 1.47285 -0.560781 0
M  V30 397 C 38.1925 2.0436 -0.0404627 0
M  V30 398 C 38.5565 1.42534 1.28639 0
M  V30 399 O 39.7575 1.90677 1.89462 0
M  V30 400 C 38.0285 3.57369 0.0471856 0
M  V30 401 S 39.5875 4.3579 0.513109 0
M  V30 402 H 36.4055 0.710492 -0.0268674 0
M  V30 403 H 39.0075 1.80611 -0.748323 0
M  V30 404 H 37.7115 3.9989 -0.922817 0
M  V30 405 H 37.2425 3.8562 0.778491 0
M  V30 406 H 39.2575 4.63476 1.77212 0
M  V30 407 N 38.4306 0.297415 1.54768 0
M  V30 408 C 39.6796 -0.313669 1.99246 0
M  V30 409 C 39.9926 -1.55281 1.18942 0
M  V30 410 O 41.1986 -2.23825 1.5367 0
M  V30 411 C 39.6546 -0.609407 3.54703 0
M  V30 412 C 39.2626 0.611192 4.43811 0
M  V30 413 C 41.0066 -1.18188 4.07715 0
M  V30 414 C 38.9136 0.288805 5.90694 0
M  V30 415 H 37.8436 -0.120979 0.744231 0
M  V30 416 H 40.4946 0.40556 1.78962 0
M  V30 417 H 38.8766 -1.38813 3.70873 0
M  V30 418 H 40.0506 1.3875 4.39414 0
M  V30 419 H 38.3656 1.10205 4.01552 0
M  V30 420 H 40.9626 -1.43727 5.15021 0
M  V30 421 H 41.3056 -2.12299 3.58099 0
M  V30 422 H 41.8386 -0.464944 3.95074 0
M  V30 423 H 38.5776 1.19838 6.44453 0
M  V30 424 H 38.0976 -0.450305 5.98107 0
M  V30 425 H 39.7766 -0.110933 6.46905 0
M  V30 426 N 39.9087 -1.5758 0.0250728 0
M  V30 427 C 41.1577 -1.90811 -0.653767 0
M  V30 428 C 41.4707 -0.90273 -1.73523 0
M  V30 429 O 42.6767 -1.12614 -2.47043 0
M  V30 430 C 41.1327 -3.38804 -1.21409 0
M  V30 431 C 40.7407 -4.47692 -0.166126 0
M  V30 432 C 42.4847 -3.81108 -1.86967 0
M  V30 433 C 40.3917 -5.86779 -0.737856 0
M  V30 434 H 39.3217 -0.712063 -0.247956 0
M  V30 435 H 41.9727 -1.83281 0.0897137 0
M  V30 436 H 40.3547 -3.41252 -2.00905 0
M  V30 437 H 41.5287 -4.56797 0.606079 0
M  V30 438 H 39.8437 -4.14565 0.390466 0
M  V30 439 H 42.4407 -4.82375 -2.30692 0
M  V30 440 H 42.7837 -3.15953 -2.71071 0
M  V30 441 H 43.3167 -3.81065 -1.14167 0
M  V30 442 H 40.0557 -6.55468 0.0649577 0
M  V30 443 H 39.5757 -5.81288 -1.47864 0
M  V30 444 H 41.2547 -6.35223 -1.22884 0
M  V30 445 N 41.3868 0.248026 -1.55636 0
M  V30 446 C 42.3188 1.32993 -1.8667 0
M  V30 447 C 43.3318 1.44345 -0.752877 0
M  V30 448 O 44.5208 1.45715 -1.03098 0
M  V30 449 C 41.6208 2.70863 -2.03682 0
M  V30 450 C 40.7938 2.81792 -3.34532 0
M  V30 451 C 39.8528 4.005 -3.41301 0
M  V30 452 O 38.8788 3.9008 -4.14519 0
M  V30 453 N 40.0808 5.13618 -2.70512 0
M  V30 454 H 42.8458 1.06707 -2.8006 0
M  V30 455 H 40.4068 0.438129 -1.55859 0
M  V30 456 H 42.3988 3.48612 -2.05553 0
M  V30 457 H 40.9688 2.89862 -1.17041 0
M  V30 458 H 40.1888 1.90729 -3.44987 0
M  V30 459 H 41.4768 2.86043 -4.20781 0
M  V30 460 H 40.8748 5.24975 -2.10755 0
M  V30 461 H 39.4318 5.89505 -2.78077 0
M  V30 462 N 42.8649 1.48995 0.513639 0
M  V30 463 C 43.7979 1.59319 1.63379 0
M  V30 464 C 44.7759 0.442816 1.56454 0
M  V30 465 O 45.9599 0.656655 1.76693 0
M  V30 466 C 43.0869 1.5364 3.01848 0
M  V30 467 C 42.1329 2.7372 3.27078 0
M  V30 468 S 42.9659 4.35528 3.1157 0
M  V30 469 C 44.1219 4.32473 4.52458 0
M  V30 470 H 44.3549 2.54079 1.54374 0
M  V30 471 H 41.8879 1.3773 0.697849 0
M  V30 472 H 43.8459 1.51049 3.81699 0
M  V30 473 H 42.5069 0.601898 3.08279 0
M  V30 474 H 41.6999 2.6593 4.28132 0
M  V30 475 H 41.3019 2.73657 2.54927 0
M  V30 476 H 43.5939 4.03414 5.44301 0
M  V30 477 H 44.5369 5.33762 4.65299 0
M  V30 478 H 44.9449 3.62718 4.32546 0
M  V30 479 N 44.343 -0.763751 1.37857 0
M  V30 480 C 45.568 -1.55805 1.36893 0
M  V30 481 C 45.993 -1.88054 -0.0416135 0
M  V30 482 O 45.351 -1.49825 -1.02089 0
M  V30 483 C 45.399 -2.84012 2.22192 0
M  V30 484 O 44.503 -3.78732 1.63204 0
M  V30 485 H 43.844 -0.471638 0.46739 0
M  V30 486 H 46.374 -0.944657 1.81487 0
M  V30 487 H 46.384 -3.33037 2.35691 0
M  V30 488 H 45.059 -2.59869 3.24716 0
M  V30 489 H 43.636 -3.37402 1.58791 0
M  V30 490 N 45.8211 -1.22559 -0.990812 0
M  V30 491 C 47.0691 -1.04933 -1.72724 0
M  V30 492 C 47.3901 0.416158 -1.90508 0
M  V30 493 O 46.6601 1.29918 -1.46622 0
M  V30 494 H 45.2401 -0.385296 -0.639965 0
M  V30 495 H 47.9021 -1.54105 -1.19322 0
M  V30 496 H 46.9981 -1.52886 -2.72089 0
M  V30 497 N 47.2992 1.18797 -1.03562 0
M  V30 498 C 48.5242 1.9314 -0.755764 0
M  V30 499 C 48.9492 1.7537 0.68022 0
M  V30 500 O 48.3072 1.06046 1.47051 0
M  V30 501 C 48.3552 3.42747 -1.12058 0
M  V30 502 O 47.4592 4.11683 -0.243124 0
M  V30 503 H 46.8002 0.602724 -0.278604 0
M  V30 504 H 49.3302 1.50678 -1.3841 0
M  V30 505 H 49.3402 3.93437 -1.08035 0
M  V30 506 H 48.0152 3.55002 -2.16672 0
M  V30 507 H 46.5922 3.71323 -0.342539 0
M  V30 508 N 48.7773 0.814389 1.34928 0
M  V30 509 C 50.0053 0.411136 2.02774 0
M  V30 510 C 50.4203 -0.980316 1.61354 0
M  V30 511 O 49.7773 -1.63299 0.814847 0
M  V30 512 C 49.8283 0.493865 3.58111 0
M  V30 513 O 49.5493 1.83047 3.98027 0
M  V30 514 C 51.0503 0.0844174 4.4322 0
M  V30 515 H 48.2703 0.166037 0.650133 0
M  V30 516 H 50.8143 1.10018 1.72384 0
M  V30 517 H 48.9693 -0.147006 3.87121 0
M  V30 518 H 49.3833 1.79872 4.92693 0
M  V30 519 H 50.8573 0.193404 5.51661 0
M  V30 520 H 51.3343 -0.97113 4.28329 0
M  V30 521 H 51.9403 0.69875 4.19521 0
M  V30 522 N 50.2554 -1.46986 0.568584 0
M  V30 523 C 51.4834 -2.0683 0.0539956 0
M  V30 524 C 51.8984 -1.41953 -1.24478 0
M  V30 525 O 51.2554 -0.519933 -1.74937 0
M  V30 526 C 51.3064 -3.61254 -0.133362 0
M  V30 527 O 51.0274 -4.237 1.11399 0
M  V30 528 C 52.5284 -4.37992 -0.683927 0
M  V30 529 H 49.7484 -0.669058 0.0510141 0
M  V30 530 H 52.2924 -1.88824 0.785234 0
M  V30 531 H 50.4474 -3.78735 -0.81477 0
M  V30 532 H 50.8614 -5.16388 0.91888 0
M  V30 533 H 52.3354 -5.46684 -0.764263 0
M  V30 534 H 52.8124 -4.05058 -1.69778 0
M  V30 535 H 53.4184 -4.25283 -0.0378494 0
M  V30 536 N 51.7335 -0.305618 -1.54608 0
M  V30 537 C 52.9615 0.304775 -2.04643 0
M  V30 538 C 53.3765 1.47167 -1.18268 0
M  V30 539 O 52.7335 1.81296 -0.209328 0
M  V30 540 C 52.7845 0.756564 -3.53495 0
M  V30 541 O 52.5055 -0.36389 -4.36586 0
M  V30 542 C 54.0065 1.43163 -4.19546 0
M  V30 543 H 51.2265 0.0655481 -0.667791 0
M  V30 544 H 53.7705 -0.446592 -1.99564 0
M  V30 545 H 51.9255 1.45794 -3.58919 0
M  V30 546 H 52.3395 -0.0113121 -5.24499 0
M  V30 547 H 53.8135 1.69886 -5.25207 0
M  V30 548 H 54.2905 2.37318 -3.69563 0
M  V30 549 H 54.8965 0.773307 -4.18211 0
M  V30 550 N 53.2116 1.57565 -0.0334293 0
M  V30 551 C 54.4606 1.91155 0.643639 0
M  V30 552 C 54.7736 0.91192 1.73042 0
M  V30 553 O 55.9796 1.13923 2.46442 0
M  V30 554 C 54.4356 3.39443 1.1961 0
M  V30 555 C 54.0436 4.47774 0.142381 0
M  V30 556 C 55.7876 3.82094 1.84944 0
M  V30 557 C 53.6946 5.87162 0.706727 0
M  V30 558 H 52.6246 0.713368 0.244176 0
M  V30 559 H 55.2756 1.8323 -0.0994323 0
M  V30 560 H 53.6576 3.42313 1.99092 0
M  V30 561 H 54.8316 4.56469 -0.630296 0
M  V30 562 H 53.1466 4.14352 -0.412446 0
M  V30 563 H 55.7436 4.83591 2.2813 0
M  V30 564 H 56.0866 3.17386 2.69392 0
M  V30 565 H 56.6196 3.81665 1.12145 0
M  V30 566 H 53.3586 6.55424 -0.0997178 0
M  V30 567 H 52.8786 5.82064 1.44779 0
M  V30 568 H 54.5576 6.35866 1.19514 0
M  V30 569 N 54.6897 -0.239769 1.55765 0
M  V30 570 C 55.9357 -0.968234 1.78194 0
M  V30 571 C 56.2687 -1.84701 0.599938 0
M  V30 572 O 55.5437 -1.9031 -0.401524 0
M  V30 573 C 55.8267 -1.8227 3.10564 0
M  V30 574 C 55.6797 -0.971633 4.3918 0
M  V30 575 C 56.9987 -2.80388 3.39221 0
M  V30 576 H 54.1177 -0.350572 0.648281 0
M  V30 577 H 56.7597 -0.238259 1.885 0
M  V30 578 H 54.9097 -2.44507 3.01908 0
M  V30 579 H 56.5817 -0.367408 4.59835 0
M  V30 580 H 54.8247 -0.276276 4.32919 0
M  V30 581 H 55.4957 -1.60346 5.28198 0
M  V30 582 H 57.9717 -2.28287 3.47885 0
M  V30 583 H 56.8477 -3.3729 4.33044 0
M  V30 584 H 57.1087 -3.57212 2.60484 0
M  V30 585 N 56.1678 -1.49265 -0.50573 0
M  V30 586 C 57.1158 -1.66065 -1.62866 0
M  V30 587 C 58.1098 -0.526636 -1.61006 0
M  V30 588 O 59.3158 -0.706126 -1.65571 0
M  V30 589 H 55.6908 -0.52356 -0.539805 0
M  V30 590 H 57.6618 -2.60329 -1.45848 0
M  V30 591 C 56.4108 -1.74008 -3.01026 0
M  V30 592 H 55.7338 -2.6064 -3.03161 0
M  V30 593 H 57.1738 -1.89798 -3.79147 0
M  V30 594 C 55.6328 -0.483868 -3.33407 0
M  V30 595 O 56.1628 0.392548 -3.99777 0
M  V30 596 N 54.3688 -0.348236 -2.88506 0
M  V30 597 H 53.9158 -1.06242 -2.34671 0
M  V30 598 H 53.8738 0.491204 -3.10539 0
M  V30 599 N 57.6459 0.756429 -1.3826 0
M  V30 600 C 59.0569 1.33359 -1.30661 0
M  V30 601 C 59.4079 1.96161 0.0388875 0
M  V30 602 O 58.5329 1.94874 0.940918 0
M  V30 603 C 59.1279 2.42477 -2.36622 0
M  V30 604 C 57.6869 2.95922 -2.3261 0
M  V30 605 C 56.8339 1.69275 -2.19639 0
M  V30 606 H 59.7849 0.55552 -1.4866 0
M  V30 607 H 59.8059 3.22345 -2.02174 0
M  V30 608 H 59.3179 1.96739 -3.34538 0
M  V30 609 H 57.4189 3.45996 -1.38267 0
M  V30 610 H 57.5319 3.50494 -3.26636 0
M  V30 611 H 55.8959 1.92793 -1.66442 0
M  V30 612 H 56.6789 1.25619 -3.19491 0
M  V30 613 N 59.124 1.23083 0.984299 0
M  V30 614 C 60.071 1.00854 2.07598 0
M  V30 615 C 61.041 -0.0726709 1.65941 0
M  V30 616 O 62.226 0.0786535 1.90638 0
M  V30 617 C 59.366 0.601645 3.39815 0
M  V30 618 C 58.479 1.75456 3.94765 0
M  V30 619 C 57.614 1.29482 5.15177 0
M  V30 620 C 56.653 2.41873 5.62284 0
M  V30 621 N 55.79 1.96885 6.73929 0
M  V30 622 H 60.63 1.943 2.25946 0
M  V30 623 H 58.167 0.968001 1.10762 0
M  V30 624 H 60.125 0.346854 4.15756 0
M  V30 625 H 58.755 -0.295803 3.21442 0
M  V30 626 H 57.807 2.12346 3.15616 0
M  V30 627 H 59.119 2.59965 4.25699 0
M  V30 628 H 58.273 0.997923 5.98437 0
M  V30 629 H 57.012 0.420046 4.85888 0
M  V30 630 H 56.017 2.72342 4.77608 0
M  V30 631 H 57.242 3.29881 5.93595 0
M  V30 632 H 55.188 1.11782 6.46406 0
M  V30 633 H 55.105 2.74956 7.04227 0
M  V30 634 H 56.373 1.70289 7.60672 0
M  V30 635 N 60.6021 -1.18246 1.0419 0
M  V30 636 C 61.5341 -2.2142 0.592088 0
M  V30 637 C 62.5471 -1.59233 -0.338909 0
M  V30 638 O 63.7361 -1.78002 -0.133231 0
M  V30 639 C 60.8361 -3.38546 -0.154854 0
M  V30 640 C 60.0091 -4.3031 0.784328 0
M  V30 641 C 59.0681 -5.26138 0.0804583 0
M  V30 642 O 58.0941 -5.64738 0.711292 0
M  V30 643 N 59.2961 -5.68261 -1.18574 0
M  V30 644 H 62.0611 -2.60636 1.47949 0
M  V30 645 H 59.6221 -1.33044 0.922544 0
M  V30 646 H 61.6141 -3.99678 -0.635606 0
M  V30 647 H 60.1841 -2.98012 -0.943811 0
M  V30 648 H 59.4041 -3.66764 1.44491 0
M  V30 649 H 60.6921 -4.8852 1.42218 0
M  V30 650 H 60.0901 -5.38957 -1.71876 0
M  V30 651 H 58.6471 -6.31584 -1.61074 0
M  V30 652 N 62.0802 -0.821533 -1.34494 0
M  V30 653 C 63.4912 -0.467956 -1.8074 0
M  V30 654 C 63.8422 1.01151 -1.68116 0
M  V30 655 O 62.9672 1.78707 -1.22036 0
M  V30 656 C 63.5622 -0.842627 -3.28154 0
M  V30 657 C 62.1212 -0.541439 -3.72485 0
M  V30 658 C 61.2682 -1.06028 -2.56229 0
M  V30 659 H 64.2192 -1.01183 -1.22261 0
M  V30 660 H 64.2402 -0.145876 -3.8022 0
M  V30 661 H 63.7522 -1.91945 -3.37311 0
M  V30 662 H 61.8532 0.526034 -3.68868 0
M  V30 663 H 61.9662 -1.08453 -4.66663 0
M  V30 664 H 60.3302 -0.481892 -2.501 0
M  V30 665 H 61.1132 -2.14352 -2.68157 0
M  V30 666 N 63.5583 1.46682 -0.576371 0
M  V30 667 C 64.5053 2.30241 0.160499 0
M  V30 668 C 65.4753 1.40233 0.890162 0
M  V30 669 O 66.6603 1.69186 0.882084 0
M  V30 670 C 63.8003 3.24578 1.1723 0
M  V30 671 C 62.9133 4.29684 0.446736 0
M  V30 672 C 62.0483 5.11154 1.44551 0
M  V30 673 C 61.0873 6.08015 0.70599 0
M  V30 674 N 60.2243 6.82376 1.65251 0
M  V30 675 H 65.0643 2.92727 -0.558127 0
M  V30 676 H 62.6013 1.44272 -0.287056 0
M  V30 677 H 64.5593 3.77711 1.77172 0
M  V30 678 H 63.1893 2.63916 1.85872 0
M  V30 679 H 62.2413 3.79458 -0.267594 0
M  V30 680 H 63.5533 4.98626 -0.131686 0
M  V30 681 H 62.7073 5.68533 2.11791 0
M  V30 682 H 61.4463 4.42158 2.05786 0
M  V30 683 H 60.4513 5.49796 0.0197725 0
M  V30 684 H 61.6763 6.79028 0.09912 0
M  V30 685 H 59.6223 6.16094 2.25308 0
M  V30 686 H 59.5393 7.47556 1.12673 0
M  V30 687 H 60.8073 7.44316 2.31546 0
M  V30 688 N 65.0364 0.313813 1.54444 0
M  V30 689 C 65.9464 -0.565714 2.27677 0
M  V30 690 C 66.9624 -1.13754 1.31666 0
M  V30 691 O 68.1384 -1.15959 1.64668 0
M  V30 692 C 65.2034 -1.71528 3.01296 0
M  V30 693 C 64.2644 -1.17624 4.12872 0
M  V30 694 C 63.4974 -2.27102 4.8297 0
M  V30 695 O 63.7204 -3.47256 4.52514 0
M  V30 696 O 62.6544 -1.9307 5.70094 0
M  V30 697 H 66.4804 0.0287296 3.03686 0
M  V30 698 H 64.0654 0.0798312 1.49187 0
M  V30 699 H 65.9474 -2.38476 3.4743 0
M  V30 700 H 64.6224 -2.29608 2.2817 0
M  V30 701 H 63.5294 -0.472124 3.71109 0
M  V30 702 H 64.8624 -0.640695 4.88012 0
M  V30 703 N 66.5145 -1.57545 0.0417849 0
M  V30 704 C 67.7425 -1.96624 -0.643928 0
M  V30 705 C 68.1575 -0.918897 -1.64929 0
M  V30 706 O 67.5145 0.0979323 -1.82237 0
M  V30 707 C 67.5655 -3.35781 -1.33914 0
M  V30 708 O 67.2865 -4.365 -0.374048 0
M  V30 709 C 68.7875 -3.89566 -2.1155 0
M  V30 710 H 66.0075 -0.647316 -0.176702 0
M  V30 711 H 68.5515 -2.04229 0.105304 0
M  V30 712 H 66.7065 -3.29357 -2.03968 0
M  V30 713 H 67.1205 -5.17248 -0.869179 0
M  V30 714 H 68.5945 -4.89242 -2.55628 0
M  V30 715 H 69.0715 -3.24488 -2.9598 0
M  V30 716 H 69.6775 -3.99298 -1.46427 0
M  V30 717 N 67.9926 0.231505 -1.5589 0
M  V30 718 C 69.4036 0.799327 -1.68724 0
M  V30 719 C 69.7546 1.85398 -0.642022 0
M  V30 720 O 68.8796 2.1539 0.208784 0
M  V30 721 C 69.4746 1.45664 -3.05888 0
M  V30 722 C 68.0336 1.97197 -3.20609 0
M  V30 723 C 67.1806 0.828552 -2.64632 0
M  V30 724 H 70.1316 0.00702616 -1.58698 0
M  V30 725 H 70.1526 2.32517 -3.01191 0
M  V30 726 H 69.6646 0.688808 -3.81939 0
M  V30 727 H 67.7656 2.76813 -2.4941 0
M  V30 728 H 67.8786 2.15878 -4.27707 0
M  V30 729 H 66.2426 1.23321 -2.22854 0
M  V30 730 H 67.0256 0.0735544 -3.43221 0
M  V30 731 N 69.4707 1.49531 0.497807 0
M  V30 732 C 70.4177 1.66436 1.59899 0
M  V30 733 C 71.3877 0.505793 1.58212 0
M  V30 734 O 72.5727 0.733202 1.7615 0
M  V30 735 C 69.7127 1.7399 2.98029 0
M  V30 736 C 68.8257 3.01172 3.09708 0
M  V30 737 C 67.9607 2.99686 4.38591 0
M  V30 738 C 66.9997 4.21434 4.43914 0
M  V30 739 N 66.1367 4.1784 5.64229 0
M  V30 740 H 70.9767 2.60459 1.44793 0
M  V30 741 H 68.5137 1.29137 0.704423 0
M  V30 742 H 70.4717 1.76352 3.78095 0
M  V30 743 H 69.1017 0.834301 3.11832 0
M  V30 744 H 68.1537 3.08408 2.22685 0
M  V30 745 H 69.4657 3.91165 3.09502 0
M  V30 746 H 68.6197 3.00628 5.2698 0
M  V30 747 H 67.3587 2.07477 4.41367 0
M  V30 748 H 66.3637 4.20733 3.53926 0
M  V30 749 H 67.5887 5.14839 4.42851 0
M  V30 750 H 65.5347 3.28469 5.67841 0
M  V30 751 H 65.4517 5.01571 5.65652 0
M  V30 752 H 66.7197 4.22889 6.54817 0
M  V30 753 N 70.9488 -0.749086 1.3866 0
M  V30 754 C 72.1738 -1.54344 1.38538 0
M  V30 755 C 72.5988 -1.88088 -0.0216655 0
M  V30 756 O 71.9568 -1.50899 -1.00494 0
M  V30 757 C 72.0048 -2.8164 2.25192 0
M  V30 758 O 71.1088 -3.7698 1.67212 0
M  V30 759 H 70.4498 -0.466654 0.472367 0
M  V30 760 H 72.9798 -0.925355 1.82478 0
M  V30 761 H 72.9898 -3.30519 2.3921 0
M  V30 762 H 71.6648 -2.56411 3.27454 0
M  V30 763 H 70.2418 -3.35699 1.6236 0
M  V30 764 N 72.4269 -1.23603 -0.977757 0
M  V30 765 C 73.6739 -1.06971 -1.71941 0
M  V30 766 C 74.0019 0.393009 -1.90488 0
M  V30 767 O 73.2569 1.30719 -1.4564 0
M  V30 768 C 73.5559 -1.7433 -3.11999 0
M  V30 769 C 73.2219 -3.24252 -3.13323 0
M  V30 770 C 71.8839 -3.65156 -3.13392 0
M  V30 771 C 74.2359 -4.20141 -3.08433 0
M  V30 772 C 71.5639 -5.00403 -3.0629 0
M  V30 773 C 73.9159 -5.55384 -3.02873 0
M  V30 774 C 72.5799 -5.95647 -3.01265 0
M  V30 775 H 71.8499 -0.391433 -0.629175 0
M  V30 776 H 74.4969 -1.53572 -1.14403 0
M  V30 777 H 72.8019 -1.20096 -3.7294 0
M  V30 778 H 74.4989 -1.58936 -3.68158 0
M  V30 779 H 71.0889 -2.91692 -3.14029 0
M  V30 780 H 75.2729 -3.89547 -3.07517 0
M  V30 781 H 70.5289 -5.3081 -3.03399 0
M  V30 782 H 74.7029 -6.29398 -2.98046 0
M  V30 783 H 72.3299 -7.0041 -2.95516 0
M  V30 784 N 73.905 1.17692 -1.04816 0
M  V30 785 C 75.13 1.92327 -0.776207 0
M  V30 786 C 75.555 1.76082 0.661581 0
M  V30 787 O 74.913 1.076 1.45917 0
M  V30 788 C 74.961 3.41539 -1.15687 0
M  V30 789 O 74.065 4.11402 -0.286775 0
M  V30 790 H 73.406 0.599735 -0.284981 0
M  V30 791 H 75.936 1.49201 -1.4 0
M  V30 792 H 75.946 3.92269 -1.12202 0
M  V30 793 H 74.621 3.52684 -2.20425 0
M  V30 794 H 73.198 3.70939 -0.381903 0
M  V30 795 N 75.3831 0.828654 1.34056 0
M  V30 796 C 76.6301 0.419458 1.98108 0
M  V30 797 C 76.9581 -1.01886 1.65679 0
M  V30 798 O 76.2131 -1.72539 0.923512 0
M  V30 799 C 76.5121 0.575226 3.52741 0
M  V30 800 C 76.1781 1.98012 4.05095 0
M  V30 801 C 74.8401 2.36442 4.19104 0
M  V30 802 C 77.1921 2.89824 4.33188 0
M  V30 803 C 74.5201 3.66009 4.58535 0
M  V30 804 C 76.8721 4.1886 4.74066 0
M  V30 805 C 75.5361 4.5726 4.86281 0
M  V30 806 H 74.8061 0.153491 0.724929 0
M  V30 807 H 77.4531 1.05371 1.59904 0
M  V30 808 H 75.7581 -0.142385 3.91541 0
M  V30 809 H 77.4551 0.239057 4.00287 0
M  V30 810 H 74.0451 1.67162 3.94658 0
M  V30 811 H 78.2291 2.61375 4.21897 0
M  V30 812 H 73.4851 3.95579 4.66184 0
M  V30 813 H 77.6591 4.90086 4.94761 0
M  V30 814 H 75.2861 5.57707 5.16592 0
M  V30 815 N 76.8612 -1.46375 0.584142 0
M  V30 816 C 78.1382 -1.956 0.0033388 0
M  V30 817 C 78.5182 -1.52679 -1.45782 0
M  V30 818 O 77.8662 -0.77816 -2.14842 0
M  V30 819 C 78.0762 -3.48551 0.176891 0
M  V30 820 C 79.4242 -4.24576 0.0454609 0
M  V30 821 O 80.4482 -3.56043 0.105801 0
M  V30 822 O 79.3072 -5.46427 -0.0890376 0
M  V30 823 H 76.4012 -0.825547 -0.0490066 0
M  V30 824 H 78.9472 -1.56652 0.65256 0
M  V30 825 H 77.7192 -3.72683 1.1926 0
M  V30 826 H 77.3422 -3.94332 -0.508695 0
M  V30 827 N 78.3393 -0.321999 -1.54275 0
M  V30 828 C 79.5693 0.282642 -2.04658 0
M  V30 829 C 79.9773 1.46453 -1.19784 0
M  V30 830 O 79.3203 1.82367 -0.220932 0
M  V30 831 C 79.3823 0.781857 -3.50895 0
M  V30 832 C 79.0463 -0.277517 -4.56157 0
M  V30 833 C 80.0433 -1.11307 -5.07845 0
M  V30 834 C 77.7283 -0.425256 -5.00497 0
M  V30 835 C 79.7223 -2.08211 -6.02434 0
M  V30 836 C 77.4093 -1.39771 -5.94901 0
M  V30 837 C 78.4073 -2.2246 -6.45756 0
M  V30 838 O 78.0953 -3.18054 -7.38307 0
M  V30 839 H 77.8273 0.0622636 -0.673126 0
M  V30 840 H 80.3813 -0.465792 -2.00049 0
M  V30 841 H 78.6113 1.58118 -3.52896 0
M  V30 842 H 80.3003 1.30467 -3.84361 0
M  V30 843 H 81.0663 -1.00991 -4.74369 0
M  V30 844 H 76.9453 0.20847 -4.60528 0
M  V30 845 H 80.4893 -2.72791 -6.42052 0
M  V30 846 H 76.3863 -1.50152 -6.27794 0
M  V30 847 H 77.1543 -3.13275 -7.56175 0
M  V30 848 N 79.8174 1.5752 -0.0501392 0
M  V30 849 C 81.0424 1.97376 0.636997 0
M  V30 850 C 81.4674 0.927466 1.63645 0
M  V30 851 O 80.8254 -0.10941 1.8097 0
M  V30 852 C 80.8734 3.36304 1.30123 0
M  V30 853 O 79.9774 3.34156 2.41689 0
M  V30 854 H 79.3184 0.642998 0.165679 0
M  V30 855 H 81.8484 2.04258 -0.118233 0
M  V30 856 H 81.8584 3.73008 1.65315 0
M  V30 857 H 80.5334 4.11993 0.568746 0
M  V30 858 H 79.1104 3.09196 2.08451 0
M  V30 859 N 81.2955 -0.223234 1.56011 0
M  V30 860 C 82.5255 -0.963413 1.82762 0
M  V30 861 C 82.9335 -1.78516 0.626804 0
M  V30 862 O 82.2765 -1.78974 -0.414014 0
M  V30 863 C 82.3385 -1.93126 3.0322 0
M  V30 864 C 82.0025 -1.2942 4.38291 0
M  V30 865 C 82.9995 -0.684916 5.15369 0
M  V30 866 C 80.6845 -1.30647 4.85012 0
M  V30 867 C 82.6785 -0.0963971 6.37327 0
M  V30 868 C 80.3655 -0.71411 6.06913 0
M  V30 869 C 81.3635 -0.110123 6.82911 0
M  V30 870 O 81.0515 0.47303 8.02507 0
M  V30 871 H 80.7835 -0.288011 0.611576 0
M  V30 872 H 83.3375 -0.244103 2.03944 0
M  V30 873 H 81.5675 -2.68952 2.77852 0
M  V30 874 H 83.2565 -2.53685 3.16857 0
M  V30 875 H 84.0225 -0.667774 4.80381 0
M  V30 876 H 79.9015 -1.76598 4.25833 0
M  V30 877 H 83.4455 0.375657 6.96588 0
M  V30 878 H 79.3425 -0.728659 6.41374 0
M  V30 879 H 80.1105 0.367186 8.17676 0
M  V30 880 N 82.7736 -1.49793 -0.48987 0
M  V30 881 C 84.0196 -1.61049 -1.24236 0
M  V30 882 C 84.3746 -0.298412 -1.90072 0
M  V30 883 O 83.6676 0.702262 -1.78266 0
M  V30 884 C 83.8616 -2.71488 -2.32441 0
M  V30 885 C 83.6906 -4.13308 -1.77218 0
M  V30 886 C 82.4606 -4.79955 -1.58023 0
M  V30 887 C 84.6586 -4.98176 -1.27772 0
M  V30 888 N 82.6406 -6.06052 -0.978465 0
M  V30 889 C 84.0116 -6.14843 -0.798 0
M  V30 890 C 86.0666 -4.84091 -1.16449 0
M  V30 891 C 84.7696 -7.18975 -0.216245 0
M  V30 892 C 86.7956 -5.88382 -0.596698 0
M  V30 893 C 86.1576 -7.04285 -0.127262 0
M  V30 894 H 82.2566 -0.643611 -0.444172 0
M  V30 895 H 84.8406 -1.86842 -0.54754 0
M  V30 896 H 83.0116 -2.47449 -2.99372 0
M  V30 897 H 84.7436 -2.72205 -2.99477 0
M  V30 898 H 81.4986 -4.36936 -1.82712 0
M  V30 899 H 81.9226 -6.73407 -0.696534 0
M  V30 900 H 86.5646 -3.94786 -1.5134 0
M  V30 901 H 84.2826 -8.0797 0.144903 0
M  V30 902 H 87.8686 -5.79545 -0.511716 0
M  V30 903 H 86.7486 -7.83606 0.30523 0
M  V30 904 N 84.2517 0.741722 -1.39055 0
M  V30 905 C 85.4767 1.53607 -1.39354 0
M  V30 906 C 85.9017 1.88096 0.0116905 0
M  V30 907 O 85.2597 1.5143 0.996924 0
M  V30 908 C 85.3077 2.80441 -2.26682 0
M  V30 909 O 84.4117 3.76088 -1.69208 0
M  V30 910 H 83.7527 0.464142 -0.474835 0
M  V30 911 H 86.2827 0.915665 -1.82967 0
M  V30 912 H 86.2927 3.29246 -2.40959 0
M  V30 913 H 84.9677 2.5467 -3.2881 0
M  V30 914 H 83.5447 3.34833 -1.64138 0
M  V30 915 N 85.7298 1.2412 0.971189 0
M  V30 916 C 86.6798 0.997551 2.05019 0
M  V30 917 C 87.6638 -0.0597747 1.60789 0
M  V30 918 O 88.8558 0.153516 1.76333 0
M  V30 919 C 85.9848 0.600557 3.38006 0
M  V30 920 C 85.0708 1.69377 3.88809 0
M  V30 921 N 85.4618 2.92586 4.12586 0
M  V30 922 C 83.7598 1.57048 4.17435 0
M  V30 923 C 84.4608 3.63431 4.54195 0
M  V30 924 N 83.4368 2.90979 4.59165 0
M  V30 925 H 87.2388 1.93316 2.21374 0
M  V30 926 H 84.7528 1.14194 1.1547 0
M  V30 927 H 86.7498 0.40725 4.14906 0
M  V30 928 H 85.4098 -0.327903 3.2304 0
M  V30 929 H 86.4208 3.288 4.00139 0
M  V30 930 H 83.0978 0.709798 4.11422 0
M  V30 931 H 84.4878 4.69102 4.81033 0
M  V30 932 N 87.2079 -1.17134 1.05439 0
M  V30 933 C 88.4359 -1.91372 0.786414 0
M  V30 934 C 88.8509 -1.76955 -0.658202 0
M  V30 935 O 88.2079 -1.10838 -1.44987 0
M  V30 936 C 88.2589 -3.42356 1.1608 0
M  V30 937 O 87.9799 -3.56332 2.54871 0
M  V30 938 C 89.4809 -4.33663 0.919322 0
M  V30 939 H 86.7009 -0.607118 0.285743 0
M  V30 940 H 89.2449 -1.48525 1.40572 0
M  V30 941 H 87.3999 -3.82939 0.586191 0
M  V30 942 H 87.8139 -4.49896 2.69618 0
M  V30 943 H 89.2879 -5.38099 1.231 0
M  V30 944 H 89.7649 -4.38959 -0.145359 0
M  V30 945 H 90.3709 -3.98796 1.47789 0
M  V30 946 N 88.686 -0.835752 -1.33615 0
M  V30 947 C 89.911 -0.442389 -2.02627 0
M  V30 948 C 90.336 0.947735 -1.62479 0
M  V30 949 O 89.694 1.61907 -0.815826 0
M  V30 950 C 89.742 -0.567216 -3.56111 0
M  V30 951 O 88.846 0.407799 -4.10379 0
M  V30 952 H 88.187 -0.180278 -0.639059 0
M  V30 953 H 90.717 -1.12972 -1.70583 0
M  V30 954 H 90.727 -0.447708 -4.05536 0
M  V30 955 H 89.402 -1.58103 -3.84677 0
M  V30 956 H 87.979 0.246107 -3.72087 0
M  V30 957 N 90.1641 1.46063 -0.591896 0
M  V30 958 C 91.5751 1.85944 -0.167822 0
M  V30 959 C 91.9261 1.49429 1.27143 0
M  V30 960 O 91.0511 0.913515 1.96173 0
M  V30 961 C 91.6461 3.37489 -0.297794 0
M  V30 962 C 90.2051 3.76332 0.0714732 0
M  V30 963 C 89.3521 2.7006 -0.629509 0
M  V30 964 H 92.3031 1.37087 -0.799555 0
M  V30 965 H 92.3241 3.77532 0.474349 0
M  V30 966 H 91.8361 3.64034 -1.3454 0
M  V30 967 H 89.9371 3.55405 1.11886 0
M  V30 968 H 90.0501 4.78088 -0.311245 0
M  V30 969 H 88.4141 2.54607 -0.0687867 0
M  V30 970 H 89.1971 2.99444 -1.67894 0
M  V30 971 N 91.6422 0.330177 1.54103 0
M  V30 972 C 92.5522 -0.541534 2.28264 0
M  V30 973 C 93.5682 -1.12351 1.32866 0
M  V30 974 O 94.7442 -1.14206 1.65888 0
M  V30 975 C 91.8092 -1.68322 3.03098 0
M  V30 976 C 90.8702 -1.13238 4.14096 0
M  V30 977 C 90.1032 -2.21966 4.85352 0
M  V30 978 O 90.3262 -3.42437 4.56172 0
M  V30 979 O 89.2602 -1.87013 5.7211 0
M  V30 980 H 93.0862 0.060938 3.03639 0
M  V30 981 H 90.6712 0.09565 1.49093 0
M  V30 982 H 92.5532 -2.34777 3.49939 0
M  V30 983 H 91.2282 -2.27176 2.30593 0
M  V30 984 H 90.1352 -0.432736 3.71589 0
M  V30 985 H 91.4682 -0.588898 4.88664 0
M  V30 986 N 93.1203 -1.57491 0.0584922 0
M  V30 987 C 94.3973 -1.84346 -0.653918 0
M  V30 988 C 94.7773 -0.948355 -1.88599 0
M  V30 989 O 94.1253 -0.0112403 -2.28497 0
M  V30 990 C 94.3353 -3.34239 -1.00425 0
M  V30 991 C 95.6833 -4.01431 -1.38342 0
M  V30 992 O 96.7073 -3.38907 -1.09637 0
M  V30 993 O 95.5663 -5.11683 -1.91943 0
M  V30 994 H 92.6603 -0.761112 -0.323478 0
M  V30 995 H 95.2063 -1.6947 0.0884125 0
M  V30 996 H 93.9783 -3.91089 -0.128625 0
M  V30 997 H 93.6013 -3.54329 -1.80378 0
M  V30 998 N 94.5984 0.214957 -1.56127 0
M  V30 999 C 95.8474 0.936451 -1.78643 0
M  V30 1000 C 96.1604 1.85237 -0.628229 0
M  V30 1001 O 97.3664 2.613 -0.737186 0
M  V30 1002 C 95.8224 1.7154 -3.16389 0
M  V30 1003 C 95.4304 0.845299 -4.39953 0
M  V30 1004 C 97.1744 2.42772 -3.48227 0
M  V30 1005 C 95.0814 1.62198 -5.68723 0
M  V30 1006 H 94.0114 0.353401 -0.666051 0
M  V30 1007 H 96.6624 0.190169 -1.82512 0
M  V30 1008 H 95.0444 2.50484 -3.06715 0
M  V30 1009 H 96.2184 0.0959353 -4.607 0
M  V30 1010 H 94.5334 0.244789 -4.1568 0
M  V30 1011 H 97.1304 3.01394 -4.41663 0
M  V30 1012 H 97.4734 3.15984 -2.71035 0
M  V30 1013 H 98.0064 1.70813 -3.5926 0
M  V30 1014 H 94.7454 0.933011 -6.48826 0
M  V30 1015 H 94.2654 2.34579 -5.52026 0
M  V30 1016 H 95.9444 2.18095 -6.09133 0
M  V30 1017 N 96.0765 1.50051 0.48192 0
M  V30 1018 C 97.0245 1.68635 1.60203 0
M  V30 1019 C 98.0185 0.552184 1.60148 0
M  V30 1020 O 99.2245 0.732377 1.64427 0
M  V30 1021 H 95.5995 0.532081 0.531407 0
M  V30 1022 H 97.5705 2.62616 1.41688 0
M  V30 1023 C 96.3195 1.78775 2.9822 0
M  V30 1024 H 95.6425 2.6543 2.98976 0
M  V30 1025 H 97.0825 1.95806 3.7608 0
M  V30 1026 C 95.5415 0.536849 3.32595 0
M  V30 1027 O 96.0715 -0.328897 4.00351 0
M  V30 1028 N 94.2775 0.394091 2.87915 0
M  V30 1029 H 93.8245 1.09962 2.32951 0
M  V30 1030 H 93.7825 -0.441737 3.11281 0
M  V30 1031 N 97.5546 -0.734337 1.39446 0
M  V30 1032 C 98.7846 -1.52137 1.39778 0
M  V30 1033 C 99.1926 -1.89198 -0.00929312 0
M  V30 1034 O 98.5356 -1.54666 -0.991168 0
M  V30 1035 C 98.5976 -2.83762 2.20724 0
M  V30 1036 C 98.2616 -2.69131 3.69347 0
M  V30 1037 C 99.2586 -2.37635 4.62413 0
M  V30 1038 C 96.9436 -2.85982 4.1294 0
M  V30 1039 C 98.9376 -2.23172 5.97054 0
M  V30 1040 C 96.6246 -2.71137 5.47657 0
M  V30 1041 C 97.6226 -2.39777 6.39528 0
M  V30 1042 O 97.3106 -2.25026 7.71763 0
M  V30 1043 H 97.0426 -0.476717 0.479288 0
M  V30 1044 H 99.5966 -0.915012 1.83893 0
M  V30 1045 H 97.8266 -3.4666 1.71359 0
M  V30 1046 H 99.5156 -3.45383 2.13226 0
M  V30 1047 H 100.282 -2.24267 4.30034 0
M  V30 1048 H 96.1606 -3.09383 3.41765 0
M  V30 1049 H 99.7046 -1.98617 6.68728 0
M  V30 1050 H 95.6016 -2.84083 5.79626 0
M  V30 1051 H 96.3696 -2.40091 7.82495 0
M  V30 1052 N 99.0327 -1.24633 -0.964593 0
M  V30 1053 C 99.9957 -1.0424 -2.04124 0
M  V30 1054 C 100.996 0.00137563 -1.608 0
M  V30 1055 O 102.186 -0.239883 -1.7254 0
M  V30 1056 C 99.3177 -0.580588 -3.3592 0
M  V30 1057 H 100.511 -1.99803 -2.23649 0
M  V30 1058 H 98.0637 -1.06899 -1.14027 0
M  V30 1059 H 98.7987 0.3781 -3.22088 0
M  V30 1060 H 98.5837 -1.33398 -3.6871 0
M  V30 1061 H 100.074 -0.459034 -4.15069 0
M  V30 1062 N 100.511 1.16574 -1.06058 0
M  V30 1063 C 101.736 1.91493 -0.796562 0
M  V30 1064 C 102.161 1.76773 0.642868 0
M  V30 1065 O 101.519 1.09142 1.44768 0
M  V30 1066 C 101.567 3.40293 -1.19303 0
M  V30 1067 O 100.671 4.11074 -0.330394 0
M  V30 1068 H 100.012 0.596678 -0.291326 0
M  V30 1069 H 102.542 1.47708 -1.41575 0
M  V30 1070 H 102.552 3.91057 -1.16356 0
M  V30 1071 H 101.227 3.50326 -2.24153 0
M  V30 1072 H 99.8038 3.70513 -0.421225 0
M  V30 1073 N 101.989 0.842826 1.3317 0
M  V30 1074 C 102.921 0.236245 2.27979 0
M  V30 1075 C 103.934 -0.585282 1.51915 0
M  V30 1076 O 105.123 -0.411705 1.73687 0
M  V30 1077 C 102.223 -0.685717 3.3189 0
M  V30 1078 C 101.396 0.0973448 4.37292 0
M  V30 1079 C 100.455 -0.748565 5.20848 0
M  V30 1080 O 99.4809 -0.186339 5.68895 0
M  V30 1081 N 100.683 -2.06527 5.42519 0
M  V30 1082 H 103.448 1.05088 2.80672 0
M  V30 1083 H 101.009 0.701667 1.45905 0
M  V30 1084 H 103.001 -1.25669 3.84694 0
M  V30 1085 H 101.571 -1.40105 2.79445 0
M  V30 1086 H 100.791 0.849706 3.84933 0
M  V30 1087 H 102.079 0.635643 5.04814 0
M  V30 1088 H 101.477 -2.54554 5.05192 0
M  V30 1089 H 100.034 -2.58464 5.98364 0
M  V30 1090 N 103.467 -1.45747 0.599634 0
M  V30 1091 C 104.414 -2.30467 -0.123849 0
M  V30 1092 C 105.384 -1.41632 -0.86774 0
M  V30 1093 O 106.569 -1.70568 -0.855056 0
M  V30 1094 C 103.709 -3.26402 -1.12051 0
M  V30 1095 C 102.822 -4.3034 -0.37832 0
M  V30 1096 C 101.957 -5.13389 -1.364 0
M  V30 1097 C 100.996 -6.09061 -0.609171 0
M  V30 1098 N 100.133 -6.84918 -1.54374 0
M  V30 1099 H 104.973 -2.91802 0.604627 0
M  V30 1100 H 102.51 -1.43797 0.309972 0
M  V30 1101 H 104.468 -3.80482 -1.7114 0
M  V30 1102 H 103.098 -2.66839 -1.8165 0
M  V30 1103 H 102.15 -3.78984 0.327929 0
M  V30 1104 H 103.462 -4.98354 0.210997 0
M  V30 1105 H 102.616 -5.7183 -2.02719 0
M  V30 1106 H 101.355 -4.45376 -1.98725 0
M  V30 1107 H 100.36 -5.49758 0.0676979 0
M  V30 1108 H 101.585 -6.79099 0.00891991 0
M  V30 1109 H 99.531 -6.19601 -2.15478 0
M  V30 1110 H 99.448 -7.49254 -1.00766 0
M  V30 1111 H 100.716 -7.47906 -2.19676 0
M  V30 1112 N 104.945 -0.338344 -1.53925 0
M  V30 1113 C 105.877 0.555117 -2.22376 0
M  V30 1114 C 106.89 1.06812 -1.22862 0
M  V30 1115 O 108.079 0.979163 -1.49247 0
M  V30 1116 C 105.179 1.77609 -2.88631 0
M  V30 1117 C 104.352 1.39927 -4.14414 0
M  V30 1118 C 103.411 2.47936 -4.64127 0
M  V30 1119 O 102.437 2.11461 -5.28463 0
M  V30 1120 N 103.639 3.79107 -4.39612 0
M  V30 1121 H 106.404 -0.0310778 -2.99684 0
M  V30 1122 H 103.965 -0.162226 -1.61085 0
M  V30 1123 H 105.957 2.49287 -3.18807 0
M  V30 1124 H 104.527 2.26978 -2.14941 0
M  V30 1125 H 103.747 0.513481 -3.90841 0
M  V30 1126 H 105.035 1.12341 -4.96243 0
M  V30 1127 H 104.433 4.11531 -3.88148 0
M  V30 1128 H 102.99 4.4697 -4.74406 0
M  V30 1129 N 106.423 1.57458 -0.0668435 0
M  V30 1130 C 107.669 1.93587 0.6043 0
M  V30 1131 C 108.002 0.946722 1.69561 0
M  V30 1132 O 107.277 -0.0248516 1.94484 0
M  V30 1133 C 107.56 3.40014 1.18585 0
M  V30 1134 C 107.413 4.49685 0.101529 0
M  V30 1135 C 108.732 3.87154 2.09284 0
M  V30 1136 H 105.851 0.703958 0.218202 0
M  V30 1137 H 108.493 1.89542 -0.131804 0
M  V30 1138 H 106.643 3.43592 1.81319 0
M  V30 1139 H 108.315 4.5823 -0.531279 0
M  V30 1140 H 106.558 4.30059 -0.568487 0
M  V30 1141 H 107.229 5.49266 0.54874 0
M  V30 1142 H 109.705 3.85551 1.56491 0
M  V30 1143 H 108.581 4.90231 2.46911 0
M  V30 1144 H 108.842 3.2481 2.99918 0
M  V30 1145 N 107.901 -0.206675 1.56239 0
M  V30 1146 C 109.131 -0.943975 1.83773 0
M  V30 1147 C 109.539 -1.77841 0.645703 0
M  V30 1148 O 108.882 -1.79403 -0.395008 0
M  V30 1149 C 108.944 -1.899 3.05251 0
M  V30 1150 C 108.608 -1.24764 4.39639 0
M  V30 1151 C 109.605 -0.630216 5.16066 0
M  V30 1152 C 107.29 -1.25496 4.8637 0
M  V30 1153 C 109.284 -0.0287946 6.37393 0
M  V30 1154 C 106.971 -0.649698 6.07637 0
M  V30 1155 C 107.969 -0.0376845 6.8299 0
M  V30 1156 O 107.657 0.55812 8.0196 0
M  V30 1157 H 107.389 -0.281508 0.614597 0
M  V30 1158 H 109.943 -0.222458 2.04192 0
M  V30 1159 H 108.173 -2.6599 2.80689 0
M  V30 1160 H 109.862 -2.5031 3.1953 0
M  V30 1161 H 110.628 -0.616785 4.81062 0
M  V30 1162 H 106.507 -1.72072 4.27683 0
M  V30 1163 H 110.051 0.449518 6.9615 0
M  V30 1164 H 105.948 -0.660592 6.42111 0
M  V30 1165 H 106.716 0.453891 8.17241 0
M  V30 1166 N 109.379 -1.50304 -0.473955 0
M  V30 1167 C 110.795 -1.37667 -0.807466 0
M  V30 1168 C 110.995 -0.430555 -1.96846 0
M  V30 1169 O 110.051 0.127874 -2.52176 0
M  V30 1170 C 111.364 -2.78974 -1.12223 0
M  V30 1171 C 112.912 -2.87868 -1.22885 0
M  V30 1172 C 113.387 -4.30003 -1.57676 0
M  V30 1173 N 114.878 -4.3294 -1.64673 0
M  V30 1174 C 115.613 -5.3991 -1.93091 0
M  V30 1175 N 115.109 -6.57092 -2.1955 0
M  V30 1176 N 116.902 -5.27351 -1.94569 0
M  V30 1177 H 109.053 -2.10394 0.291212 0
M  V30 1178 H 111.316 -0.945575 0.0677609 0
M  V30 1179 H 111.022 -3.50031 -0.342229 0
M  V30 1180 H 110.896 -3.16038 -2.05913 0
M  V30 1181 H 113.283 -2.17032 -1.99953 0
M  V30 1182 H 113.364 -2.54352 -0.271814 0
M  V30 1183 H 113.008 -5.01375 -0.81149 0
M  V30 1184 H 112.938 -4.61004 -2.54525 0
M  V30 1185 H 115.429 -3.48441 -1.46277 0
M  V30 1186 H 115.742 -7.34425 -2.405 0
M  V30 1187 H 114.087 -6.60272 -2.16948 0
M  V30 1188 H 117.278 -4.34801 -1.73394 0
M  V30 1189 H 117.451 -6.10805 -2.16381 0
M  V30 1190 N 110.857 0.726932 -1.39834 0
M  V30 1191 C 112.134 1.47902 -1.28001 0
M  V30 1192 C 112.514 2.1083 0.106789 0
M  V30 1193 O 111.862 1.99242 1.11869 0
M  V30 1194 C 112.072 2.52392 -2.41038 0
M  V30 1195 C 113.42 3.18546 -2.80737 0
M  V30 1196 O 114.444 2.62708 -2.40547 0
M  V30 1197 O 113.303 4.19604 -3.50135 0
M  V30 1198 H 110.397 0.657163 -0.502062 0
M  V30 1199 H 112.943 0.760071 -1.51727 0
M  V30 1200 H 111.715 2.04329 -3.33715 0
M  V30 1201 H 111.338 3.31837 -2.19021 0
M  V30 1202 N 112.336 1.25143 0.95797 0
M  V30 1203 C 113.585 1.0909 1.69654 0
M  V30 1204 C 113.898 -0.368548 1.92097 0
M  V30 1205 O 115.104 -0.649455 2.63618 0
M  V30 1206 C 113.56 1.90395 3.05414 0
M  V30 1207 C 113.168 3.4081 2.90779 0
M  V30 1208 C 114.912 1.82901 3.83076 0
M  V30 1209 C 112.819 4.14423 4.21909 0
M  V30 1210 H 111.749 0.404625 0.636235 0
M  V30 1211 H 114.4 1.4931 1.06672 0
M  V30 1212 H 112.782 1.42996 3.69281 0
M  V30 1213 H 113.956 3.95859 2.35865 0
M  V30 1214 H 112.271 3.49361 2.26575 0
M  V30 1215 H 114.868 2.35196 4.80195 0
M  V30 1216 H 115.211 0.796224 4.08615 0
M  V30 1217 H 115.744 2.28033 3.25954 0
M  V30 1218 H 112.483 5.18102 4.01561 0
M  V30 1219 H 112.003 3.64159 4.76601 0
M  V30 1220 H 113.682 4.21956 4.90471 0
M  V30 1221 N 113.814 -1.1601 1.06675 0
M  V30 1222 C 115.062 -1.86264 0.784229 0
M  V30 1223 C 115.383 -1.82328 -0.691488 0
M  V30 1224 O 114.653 -1.25947 -1.50047 0
M  V30 1225 H 113.233 -0.689621 0.28711 0
M  V30 1226 H 115.895 -1.40664 1.34906 0
M  V30 1227 H 114.991 -2.91595 1.11259 0
M  V30 1228 N 115.292 -0.849877 -1.32721 0
M  V30 1229 C 116.202 -0.293791 -2.32753 0
M  V30 1230 C 117.218 0.585906 -1.63839 0
M  V30 1231 O 118.394 0.487413 -1.95413 0
M  V30 1232 C 115.459 0.512752 -3.42887 0
M  V30 1233 C 114.52 -0.39252 -4.27502 0
M  V30 1234 C 113.753 0.375625 -5.32377 0
M  V30 1235 O 113.976 1.60613 -5.4732 0
M  V30 1236 O 112.91 -0.256094 -6.01355 0
M  V30 1237 H 116.736 -1.12242 -2.82197 0
M  V30 1238 H 114.321 -0.612685 -1.36259 0
M  V30 1239 H 116.203 0.970704 -4.10067 0
M  V30 1240 H 114.878 1.31826 -2.95641 0
M  V30 1241 H 113.785 -0.898547 -3.63149 0
M  V30 1242 H 115.118 -1.16309 -4.7826 0
M  V30 1243 N 116.77 1.45427 -0.607355 0
M  V30 1244 C 117.68 2.34325 0.113463 0
M  V30 1245 C 118.696 1.51226 0.860617 0
M  V30 1246 O 119.872 1.84029 0.818255 0
M  V30 1247 C 116.937 3.28839 1.09844 0
M  V30 1248 C 115.998 4.27844 0.353271 0
M  V30 1249 C 115.231 5.17842 1.29133 0
M  V30 1250 O 115.454 5.11264 2.52913 0
M  V30 1251 O 114.388 5.96713 0.788523 0
M  V30 1252 H 118.214 2.97364 -0.617094 0
M  V30 1253 H 115.799 1.44807 -0.367619 0
M  V30 1254 H 117.681 3.8708 1.66575 0
M  V30 1255 H 116.356 2.68365 1.81003 0
M  V30 1256 H 115.263 3.7322 -0.256494 0
M  V30 1257 H 116.596 4.91173 -0.317822 0
M  V30 1258 N 118.248 0.346503 1.53744 0
M  V30 1259 C 119.181 -0.552023 2.21423 0
M  V30 1260 C 120.159 -1.09798 1.19929 0
M  V30 1261 O 121.343 -1.1577 1.4876 0
M  V30 1262 C 118.47 -1.75972 2.89398 0
M  V30 1263 C 117.516 -1.34295 4.04805 0
M  V30 1264 S 118.349 -0.360263 5.34287 0
M  V30 1265 C 119.505 -1.57473 6.05767 0
M  V30 1266 H 119.738 0.0228119 2.97291 0
M  V30 1267 H 117.271 0.130579 1.53847 0
M  V30 1268 H 119.229 -2.45256 3.2918 0
M  V30 1269 H 117.89 -2.30578 2.1329 0
M  V30 1270 H 117.083 -2.24349 4.51313 0
M  V30 1271 H 116.685 -0.729555 3.66815 0
M  V30 1272 H 118.977 -2.50875 6.29339 0
M  V30 1273 H 119.92 -1.15138 6.98676 0
M  V30 1274 H 120.328 -1.77212 5.35963 0
M  V30 1275 N 119.726 -1.57421 0.075193 0
M  V30 1276 C 120.656 -2.15942 -0.888324 0
M  V30 1277 C 121.637 -1.08737 -1.30806 0
M  V30 1278 O 122.822 -1.36787 -1.37851 0
M  V30 1279 C 119.952 -2.72379 -2.1547 0
M  V30 1280 C 118.906 -3.8478 -1.87425 0
M  V30 1281 C 118.232 -4.27834 -3.20721 0
M  V30 1282 C 119.532 -5.08869 -1.17684 0
M  V30 1283 H 121.226 -2.96705 -0.400799 0
M  V30 1284 H 118.772 -1.42723 -0.191342 0
M  V30 1285 H 120.725 -3.11965 -2.83295 0
M  V30 1286 H 119.449 -1.88841 -2.6647 0
M  V30 1287 H 118.108 -3.45703 -1.22004 0
M  V30 1288 H 117.756 -3.41214 -3.6957 0
M  V30 1289 H 117.456 -5.03605 -3.02746 0
M  V30 1290 H 118.98 -4.70039 -3.89738 0
M  V30 1291 H 120.394 -5.4575 -1.75584 0
M  V30 1292 H 118.791 -5.8994 -1.09956 0
M  V30 1293 H 119.861 -4.84648 -0.156453 0
M  V30 1294 N 121.204 0.198386 -1.56346 0
M  V30 1295 C 122.136 1.26987 -1.90806 0
M  V30 1296 C 123.149 1.41877 -0.798419 0
M  V30 1297 O 124.338 1.42362 -1.07682 0
M  V30 1298 C 121.438 2.64246 -2.12196 0
M  V30 1299 C 120.611 2.71007 -3.43328 0
M  V30 1300 C 119.67 3.89439 -3.5387 0
M  V30 1301 O 118.696 3.76695 -4.26719 0
M  V30 1302 N 119.898 5.04752 -2.86715 0
M  V30 1303 H 122.663 0.977433 -2.83313 0
M  V30 1304 H 120.224 0.388322 -1.57174 0
M  V30 1305 H 122.216 3.41896 -2.1654 0
M  V30 1306 H 120.786 2.85992 -1.26204 0
M  V30 1307 H 120.006 1.79657 -3.50881 0
M  V30 1308 H 121.294 2.72512 -4.29668 0
M  V30 1309 H 120.692 5.18004 -2.2735 0
M  V30 1310 H 119.249 5.8036 -2.96691 0
M  V30 1311 N 122.682 1.50554 0.465978 0
M  V30 1312 C 123.632 1.66177 1.56106 0
M  V30 1313 C 124.616 0.516265 1.52393 0
M  V30 1314 O 125.808 0.770906 1.5933 0
M  V30 1315 C 122.937 1.76396 2.94515 0
M  V30 1316 C 122.023 2.9664 3.03093 0
M  V30 1317 N 122.414 4.20245 2.81474 0
M  V30 1318 C 120.712 2.95304 3.34233 0
M  V30 1319 C 121.413 5.01259 2.95151 0
M  V30 1320 N 120.389 4.35318 3.25576 0
M  V30 1321 H 124.191 2.59434 1.38099 0
M  V30 1322 H 121.705 1.47808 0.6728 0
M  V30 1323 H 123.702 1.85694 3.73261 0
M  V30 1324 H 122.362 0.843017 3.13565 0
M  V30 1325 H 123.373 4.4966 2.56956 0
M  V30 1326 H 120.05 2.12729 3.59239 0
M  V30 1327 H 121.44 6.09564 2.82632 0
M  V30 1328 N 124.16 -0.719506 1.40217 0
M  V30 1329 C 125.123 -1.8153 1.39927 0
M  V30 1330 C 126.123 -1.58095 0.293723 0
M  V30 1331 O 127.313 -1.65209 0.552429 0
M  V30 1332 C 124.445 -3.19561 1.18716 0
M  V30 1333 H 125.638 -1.83186 2.37451 0
M  V30 1334 H 123.191 -0.924746 1.26008 0
M  V30 1335 H 123.926 -3.23557 0.219366 0
M  V30 1336 H 123.711 -3.3797 1.98793 0
M  V30 1337 H 125.201 -3.99598 1.21291 0
M  V30 1338 N 125.638 -1.25649 -0.95132 0
M  V30 1339 C 126.885 -1.10594 -1.69633 0
M  V30 1340 C 127.213 0.352515 -1.91279 0
M  V30 1341 O 126.468 1.27601 -1.4838 0
M  V30 1342 C 126.767 -1.80909 -3.08231 0
M  V30 1343 C 126.433 -3.30825 -3.06375 0
M  V30 1344 C 125.095 -3.71722 -3.05576 0
M  V30 1345 C 127.447 -4.26589 -2.99452 0
M  V30 1346 C 124.775 -5.06788 -2.95606 0
M  V30 1347 C 127.127 -5.61683 -2.91024 0
M  V30 1348 C 125.791 -6.01904 -2.88562 0
M  V30 1349 H 125.061 -0.404691 -0.620731 0
M  V30 1350 H 127.708 -1.55964 -1.11119 0
M  V30 1351 H 126.013 -1.27979 -3.70309 0
M  V30 1352 H 127.71 -1.6671 -3.64704 0
M  V30 1353 H 124.3 -2.98287 -3.07771 0
M  V30 1354 H 128.484 -3.95982 -2.99185 0
M  V30 1355 H 123.74 -5.37126 -2.92071 0
M  V30 1356 H 127.914 -6.35578 -2.84629 0
M  V30 1357 H 125.541 -7.06521 -2.80593 0
M  V30 1358 N 127.117 1.15442 -1.07289 0
M  V30 1359 C 128.027 2.23786 -0.704057 0
M  V30 1360 C 129.043 1.7166 0.284413 0
M  V30 1361 O 130.219 2.00972 0.131205 0
M  V30 1362 C 127.284 3.46535 -0.106792 0
M  V30 1363 C 126.345 4.13654 -1.14842 0
M  V30 1364 C 125.578 5.30544 -0.57956 0
M  V30 1365 O 125.801 5.67187 0.604585 0
M  V30 1366 O 124.735 5.87154 -1.32414 0
M  V30 1367 H 128.561 2.57664 -1.60757 0
M  V30 1368 H 126.146 1.23152 -0.845803 0
M  V30 1369 H 128.028 4.20804 0.224048 0
M  V30 1370 H 126.703 3.14407 0.770049 0
M  V30 1371 H 125.61 3.4131 -1.5316 0
M  V30 1372 H 126.943 4.49861 -1.99714 0
M  V30 1373 N 128.595 0.856903 1.32268 0
M  V30 1374 C 129.843 0.460474 1.96784 0
M  V30 1375 C 130.164 -0.987701 1.68135 0
M  V30 1376 O 129.434 -1.69058 0.989765 0
M  V30 1377 H 128.014 0.167289 0.728027 0
M  V30 1378 H 130.676 1.09383 1.61312 0
M  V30 1379 H 129.772 0.60739 3.06133 0
M  V30 1380 N 130.073 -1.45103 0.615059 0
M  V30 1381 C 131.303 -2.06254 0.119596 0
M  V30 1382 C 131.711 -1.4591 -1.20445 0
M  V30 1383 O 131.054 -0.570384 -1.7462 0
M  V30 1384 C 131.116 -3.59396 -0.0865591 0
M  V30 1385 C 130.78 -4.42116 1.15683 0
M  V30 1386 C 131.777 -4.7662 2.07676 0
M  V30 1387 C 129.462 -4.82749 1.38775 0
M  V30 1388 C 131.456 -5.50622 3.21082 0
M  V30 1389 C 129.143 -5.56504 2.52481 0
M  V30 1390 C 130.141 -5.90358 3.43463 0
M  V30 1391 O 129.829 -6.62615 4.55189 0
M  V30 1392 H 129.561 -0.672423 0.0694512 0
M  V30 1393 H 132.115 -1.87219 0.844885 0
M  V30 1394 H 130.345 -3.76859 -0.866823 0
M  V30 1395 H 132.034 -4.02365 -0.534555 0
M  V30 1396 H 132.8 -4.4578 1.91063 0
M  V30 1397 H 128.679 -4.55829 0.688545 0
M  V30 1398 H 132.223 -5.76965 3.92119 0
M  V30 1399 H 128.12 -5.86759 2.69043 0
M  V30 1400 H 128.888 -6.81071 4.53966 0
M  V30 1401 N 131.551 -0.354651 -1.53558 0
M  V30 1402 C 132.499 0.512195 -2.26891 0
M  V30 1403 C 133.493 1.09263 -1.29452 0
M  V30 1404 O 134.699 1.03709 -1.47121 0
M  V30 1405 H 131.074 0.183878 -0.729173 0
M  V30 1406 H 133.045 -0.128202 -2.98124 0
M  V30 1407 C 131.794 1.64563 -3.06291 0
M  V30 1408 H 131.117 1.20829 -3.81104 0
M  V30 1409 H 132.557 2.22711 -3.60799 0
M  V30 1410 C 131.016 2.58158 -2.16462 0
M  V30 1411 O 131.546 3.60695 -1.76811 0
M  V30 1412 N 129.752 2.27096 -1.81317 0
M  V30 1413 H 129.299 1.43751 -2.1376 0
M  V30 1414 H 129.257 2.89975 -1.21498 0
M  V30 1415 N 133.029 1.57378 -0.0835403 0
M  V30 1416 C 134.275 1.94217 0.583733 0
M  V30 1417 C 134.608 0.964653 1.68547 0
M  V30 1418 O 133.883 -0.00422258 1.945 0
M  V30 1419 C 134.166 3.41253 1.14972 0
M  V30 1420 C 134.019 4.49768 0.0538277 0
M  V30 1421 C 135.338 3.89352 2.05166 0
M  V30 1422 H 132.457 0.706233 0.210724 0
M  V30 1423 H 135.099 1.89392 -0.1519 0
M  V30 1424 H 133.249 3.45496 1.77665 0
M  V30 1425 H 134.921 4.57641 -0.579851 0
M  V30 1426 H 133.164 4.29432 -0.614068 0
M  V30 1427 H 133.835 5.49817 0.490452 0
M  V30 1428 H 136.311 3.87189 1.52393 0
M  V30 1429 H 135.187 4.92822 2.41698 0
M  V30 1430 H 135.448 3.27973 2.96456 0
M  V30 1431 N 134.507 -0.190092 1.56449 0
M  V30 1432 C 135.747 -0.916414 1.82705 0
M  V30 1433 C 136.111 -1.80235 0.661763 0
M  V30 1434 O 137.312 -2.56484 0.80433 0
M  V30 1435 C 135.583 -1.70691 3.14005 0
M  V30 1436 S 137.142 -2.48457 3.61683 0
M  V30 1437 H 133.96 -0.307281 0.64117 0
M  V30 1438 H 136.562 -0.179433 1.94675 0
M  V30 1439 H 135.266 -1.04677 3.96826 0
M  V30 1440 H 134.797 -2.48562 3.04927 0
M  V30 1441 H 136.812 -3.72756 3.27517 0
M  V30 1442 N 135.985 -1.50799 -0.457987 0
M  V30 1443 C 137.234 -1.6168 -1.20593 0
M  V30 1444 C 137.547 -0.32888 -1.92815 0
M  V30 1445 O 138.753 -0.316773 -2.69646 0
M  V30 1446 C 137.209 -2.8545 -2.19195 0
M  V30 1447 C 136.817 -4.21168 -1.52715 0
M  V30 1448 C 138.561 -3.05681 -2.94549 0
M  V30 1449 C 136.468 -5.3611 -2.4968 0
M  V30 1450 H 135.398 -0.602134 -0.453818 0
M  V30 1451 H 138.049 -1.77245 -0.475031 0
M  V30 1452 H 136.431 -2.63472 -2.95632 0
M  V30 1453 H 137.605 -4.53449 -0.819775 0
M  V30 1454 H 135.92 -4.06648 -0.895922 0
M  V30 1455 H 138.517 -3.88727 -3.67145 0
M  V30 1456 H 138.86 -2.17929 -3.54701 0
M  V30 1457 H 139.393 -3.27901 -2.25223 0
M  V30 1458 H 136.132 -6.26057 -1.94249 0
M  V30 1459 H 135.652 -5.0823 -3.18532 0
M  V30 1460 H 137.331 -5.6722 -3.11241 0
M  V30 1461 N 137.463 0.71206 -1.40597 0
M  V30 1462 C 138.71 1.47197 -1.39065 0
M  V30 1463 C 139.038 1.94499 0.00583891 0
M  V30 1464 O 138.293 1.68752 0.99102 0
M  V30 1465 C 138.592 2.71039 -2.32965 0
M  V30 1466 C 138.258 2.42484 -3.80148 0
M  V30 1467 C 136.92 2.34406 -4.20247 0
M  V30 1468 C 139.272 2.18598 -4.73143 0
M  V30 1469 C 136.6 2.00516 -5.51371 0
M  V30 1470 C 138.952 1.8622 -6.0457 0
M  V30 1471 C 137.616 1.76626 -6.43708 0
M  V30 1472 H 136.886 0.538634 -0.508876 0
M  V30 1473 H 139.533 0.815325 -1.73276 0
M  V30 1474 H 137.838 3.41558 -1.91951 0
M  V30 1475 H 139.535 3.29138 -2.29061 0
M  V30 1476 H 136.125 2.49659 -3.4838 0
M  V30 1477 H 140.309 2.23793 -4.42979 0
M  V30 1478 H 135.565 1.91628 -5.80593 0
M  V30 1479 H 139.739 1.66752 -6.76141 0
M  V30 1480 H 137.366 1.50133 -7.45228 0
M  V30 1481 N 138.941 1.26152 0.944643 0
M  V30 1482 C 139.904 1.07474 2.0244 0
M  V30 1483 C 140.904 0.0242064 1.60782 0
M  V30 1484 O 142.094 0.267302 1.72137 0
M  V30 1485 C 139.226 0.633956 3.34953 0
M  V30 1486 H 140.419 2.03336 2.20442 0
M  V30 1487 H 137.972 1.087 1.12312 0
M  V30 1488 H 138.707 -0.326811 3.22649 0
M  V30 1489 H 138.492 1.39247 3.66542 0
M  V30 1490 H 139.982 0.52501 4.14287 0
M  V30 1491 N 140.419 -1.14872 1.07899 0
M  V30 1492 C 141.649 -1.89386 0.825631 0
M  V30 1493 C 142.057 -1.78565 -0.625406 0
M  V30 1494 O 141.4 -1.13918 -1.44113 0
M  V30 1495 C 141.462 -3.40206 1.16191 0
M  V30 1496 C 141.126 -3.74812 2.61467 0
M  V30 1497 C 142.123 -3.75367 3.59716 0
M  V30 1498 C 139.808 -4.0495 2.97189 0
M  V30 1499 C 141.802 -4.05574 4.9172 0
M  V30 1500 C 139.489 -4.34821 4.29388 0
M  V30 1501 C 140.487 -4.35116 5.26463 0
M  V30 1502 O 140.175 -4.64267 6.56286 0
M  V30 1503 H 139.907 -0.606894 0.297751 0
M  V30 1504 H 142.461 -1.46438 1.44031 0
M  V30 1505 H 140.691 -3.8358 0.490214 0
M  V30 1506 H 142.38 -3.96018 0.890193 0
M  V30 1507 H 143.146 -3.52176 3.33462 0
M  V30 1508 H 139.025 -4.03876 2.22273 0
M  V30 1509 H 142.569 -4.05719 5.67484 0
M  V30 1510 H 138.466 -4.5748 4.55392 0
M  V30 1511 H 139.234 -4.82007 6.61522 0
M  V30 1512 N 141.898 -0.863906 -1.31812 0
M  V30 1513 C 143.146 -0.470904 -1.96537 0
M  V30 1514 C 143.467 0.978771 -1.68657 0
M  V30 1515 O 142.737 1.6853 -0.998717 0
M  V30 1516 H 141.317 -0.171148 -0.72713 0
M  V30 1517 H 143.979 -1.10236 -1.60729 0
M  V30 1518 H 143.075 -0.623616 -3.05806 0
M  V30 1519 N 143.376 1.44774 -0.622745 0
M  V30 1520 C 144.308 2.28856 0.125485 0
M  V30 1521 C 145.321 1.40811 0.817069 0
M  V30 1522 O 146.51 1.65044 0.679918 0
M  V30 1523 C 143.61 3.16963 1.19949 0
M  V30 1524 C 142.783 4.33374 0.592064 0
M  V30 1525 C 141.842 5.02577 1.55893 0
M  V30 1526 O 140.868 5.58873 1.07933 0
M  V30 1527 N 142.07 5.03256 2.89334 0
M  V30 1528 H 144.835 2.93713 -0.596068 0
M  V30 1529 H 142.396 1.55129 -0.463303 0
M  V30 1530 H 144.388 3.60123 1.84644 0
M  V30 1531 H 142.958 2.53913 1.82337 0
M  V30 1532 H 142.178 3.93509 -0.233322 0
M  V30 1533 H 143.466 5.08527 0.166738 0
M  V30 1534 H 142.864 4.58836 3.30887 0
M  V30 1535 H 141.421 5.50232 3.49412 0
M  V30 1536 N 144.854 0.36279 1.53368 0
M  V30 1537 C 146.082 -0.228613 2.05633 0
M  V30 1538 C 146.497 -1.42676 1.23649 0
M  V30 1539 O 145.854 -1.80394 0.27647 0
M  V30 1540 C 145.905 -0.624845 3.56059 0
M  V30 1541 O 145.626 0.525675 4.34935 0
M  V30 1542 C 147.127 -1.27493 4.24571 0
M  V30 1543 H 144.347 -0.0407183 0.669763 0
M  V30 1544 H 146.891 0.520352 1.97769 0
M  V30 1545 H 145.046 -1.32373 3.64083 0
M  V30 1546 H 145.46 0.205969 5.24095 0
M  V30 1547 H 146.934 -1.50277 5.31151 0
M  V30 1548 H 147.411 -2.23439 3.78116 0
M  V30 1549 H 148.017 -0.617558 4.20792 0
M  V30 1550 N 146.332 -1.57332 0.0918853 0
M  V30 1551 C 147.58 -1.93853 -0.571446 0
M  V30 1552 C 147.901 -0.974212 -1.6892 0
M  V30 1553 O 147.171 -0.0257254 -1.95883 0
M  V30 1554 H 145.751 -0.715666 -0.214082 0
M  V30 1555 H 148.413 -1.94287 0.154464 0
M  V30 1556 H 147.509 -2.96191 -0.983729 0
M  V30 1557 N 147.81 0.181792 -1.56548 0
M  V30 1558 C 148.773 1.20894 -1.94724 0
M  V30 1559 C 149.773 1.37738 -0.829747 0
M  V30 1560 O 150.963 1.35323 -1.09697 0
M  V30 1561 C 148.095 2.57593 -2.23291 0
M  V30 1562 H 149.288 0.882275 -2.86629 0
M  V30 1563 H 146.841 0.423838 -1.50444 0
M  V30 1564 H 147.576 2.95291 -1.34067 0
M  V30 1565 H 147.361 2.46735 -3.04736 0
M  V30 1566 H 148.851 3.31637 -2.53785 0
M  V30 1567 N 149.288 1.51039 0.449983 0
M  V30 1568 C 150.536 1.62759 1.19808 0
M  V30 1569 C 150.857 0.339981 1.92013 0
M  V30 1570 O 150.127 -0.643606 1.85026 0
M  V30 1571 H 148.707 0.599811 0.445237 0
M  V30 1572 H 151.369 1.87914 0.517138 0
M  V30 1573 H 150.465 2.44911 1.93455 0
M  V30 1574 N 150.766 -0.704594 1.40972 0
M  V30 1575 C 151.713 -1.81862 1.42109 0
M  V30 1576 C 152.683 -1.63781 0.276593 0
M  V30 1577 O 153.868 -1.84759 0.4763 0
M  V30 1578 C 151.008 -3.19669 1.30022 0
M  V30 1579 C 150.121 -3.49246 2.54267 0
M  V30 1580 C 149.256 -4.76618 2.3454 0
M  V30 1581 C 148.295 -4.99133 3.54306 0
M  V30 1582 N 147.432 -6.17726 3.33706 0
M  V30 1583 H 152.272 -1.80226 2.37324 0
M  V30 1584 H 149.809 -0.880238 1.17857 0
M  V30 1585 H 151.767 -3.99263 1.21018 0
M  V30 1586 H 150.397 -3.20506 0.384192 0
M  V30 1587 H 149.449 -2.64125 2.73756 0
M  V30 1588 H 150.761 -3.61788 3.43381 0
M  V30 1589 H 149.915 -5.64249 2.22952 0
M  V30 1590 H 148.654 -4.66305 1.42867 0
M  V30 1591 H 147.659 -4.09953 3.66359 0
M  V30 1592 H 148.884 -5.11311 4.4692 0
M  V30 1593 H 146.83 -6.08642 2.44725 0
M  V30 1594 H 146.747 -6.30995 4.16391 0
M  V30 1595 H 148.015 -7.08115 3.25873 0
M  V30 1596 N 152.244 -1.26651 -0.937939 0
M  V30 1597 C 153.469 -1.15279 -1.72411 0
M  V30 1598 C 153.894 0.287866 -1.85884 0
M  V30 1599 O 153.252 1.20855 -1.35143 0
M  V30 1600 C 153.3 -1.83028 -3.10698 0
M  V30 1601 O 152.404 -1.12128 -3.96864 0
M  V30 1602 H 151.745 -0.401504 -0.528858 0
M  V30 1603 H 154.275 -1.67531 -1.1745 0
M  V30 1604 H 154.285 -1.89981 -3.6107 0
M  V30 1605 H 152.96 -2.87833 -3.00208 0
M  V30 1606 H 151.537 -1.13173 -3.55312 0
M  V30 1607 N 153.722 1.14298 -1.08507 0
M  V30 1608 C 154.952 1.88945 -0.835663 0
M  V30 1609 C 155.36 1.78894 0.615928 0
M  V30 1610 O 154.703 1.1468 1.43506 0
M  V30 1611 C 154.765 3.39585 -1.17994 0
M  V30 1612 C 154.429 3.7342 -2.63451 0
M  V30 1613 C 155.426 3.73454 -3.61702 0
M  V30 1614 C 153.111 4.03368 -2.99332 0
M  V30 1615 C 155.105 4.02961 -4.93864 0
M  V30 1616 C 152.792 4.32538 -4.31687 0
M  V30 1617 C 153.79 4.32318 -5.28763 0
M  V30 1618 O 153.478 4.6078 -6.58739 0
M  V30 1619 H 153.21 0.605307 -0.300965 0
M  V30 1620 H 155.764 1.45673 -1.44806 0
M  V30 1621 H 153.994 3.83315 -0.51055 0
M  V30 1622 H 155.683 3.9554 -0.911182 0
M  V30 1623 H 156.449 3.50403 -3.35325 0
M  V30 1624 H 152.328 4.02692 -2.24411 0
M  V30 1625 H 155.872 4.02704 -5.69627 0
M  V30 1626 H 151.769 4.55059 -4.57812 0
M  V30 1627 H 152.537 4.78492 -6.64069 0
M  V30 1628 N 155.201 0.870884 1.31352 0
M  V30 1629 C 156.429 0.49677 2.00848 0
M  V30 1630 C 156.844 -0.910998 1.65367 0
M  V30 1631 O 156.201 -1.59696 0.883374 0
M  V30 1632 C 156.252 0.645308 3.55694 0
M  V30 1633 O 155.973 1.99764 3.89905 0
M  V30 1634 C 157.474 0.272326 4.42463 0
M  V30 1635 H 154.694 0.193462 0.642506 0
M  V30 1636 H 157.238 1.1723 1.67563 0
M  V30 1637 H 155.393 0.0173176 3.87396 0
M  V30 1638 H 155.807 2.00607 4.84621 0
M  V30 1639 H 157.281 0.427208 5.50344 0
M  V30 1640 H 157.758 -0.788587 4.32062 0
M  V30 1641 H 158.364 0.876054 4.1618 0
M  V30 1642 N 156.679 -1.44442 0.630414 0
M  V30 1643 C 157.612 -2.27862 -0.124247 0
M  V30 1644 C 158.59 -1.38495 -0.851931 0
M  V30 1645 O 159.774 -1.67935 -0.856166 0
M  V30 1646 C 156.901 -3.17407 -1.18197 0
M  V30 1647 C 155.947 -4.22875 -0.554892 0
M  V30 1648 S 156.78 -5.31485 0.654489 0
M  V30 1649 C 157.936 -6.246 -0.40326 0
M  V30 1650 H 158.169 -2.91519 0.583435 0
M  V30 1651 H 155.702 -1.48618 0.418565 0
M  V30 1652 H 157.66 -3.69549 -1.78728 0
M  V30 1653 H 156.321 -2.52971 -1.86184 0
M  V30 1654 H 155.514 -4.85542 -1.35148 0
M  V30 1655 H 155.116 -3.73992 -0.0242105 0
M  V30 1656 H 157.408 -6.65375 -1.27602 0
M  V30 1657 H 158.351 -7.07851 0.187813 0
M  V30 1658 H 158.759 -5.59775 -0.728837 0
M  V30 1659 N 158.157 -0.370918 -1.53173 0
M  V30 1660 C 159.09 0.516727 -2.22273 0
M  V30 1661 C 160.068 1.07877 -1.21661 0
M  V30 1662 O 161.252 1.13389 -1.50583 0
M  V30 1663 C 158.379 1.71346 -2.92161 0
M  V30 1664 C 157.425 1.27838 -4.0689 0
M  V30 1665 S 158.258 0.275217 -5.34792 0
M  V30 1666 C 159.414 1.47816 -6.08195 0
M  V30 1667 H 159.647 -0.0701054 -2.97217 0
M  V30 1668 H 157.18 -0.155038 -1.5362 0
M  V30 1669 H 159.138 2.39988 -3.3304 0
M  V30 1670 H 157.799 2.27156 -2.16931 0
M  V30 1671 H 156.992 2.17141 -4.54825 0
M  V30 1672 H 156.594 0.671105 -3.6793 0
M  V30 1673 H 158.886 2.40831 -6.33251 0
M  V30 1674 H 159.829 1.04008 -7.0042 0
M  V30 1675 H 160.237 1.68663 -5.38714 0
M  V30 1676 N 159.635 1.57281 -0.100228 0
M  V30 1677 C 160.883 1.94153 0.561157 0
M  V30 1678 C 161.204 0.983157 1.68401 0
M  V30 1679 O 160.474 0.0361132 1.95867 0
M  V30 1680 H 159.054 0.716791 0.210283 0
M  V30 1681 H 161.716 1.94202 -0.164765 0
M  V30 1682 H 160.812 2.96709 0.968008 0
M  V30 1683 N 161.113 -0.173488 1.56642 0
M  V30 1684 C 162.06 -1.21482 1.96242 0
M  V30 1685 C 163.03 -1.44104 0.826027 0
M  V30 1686 O 164.215 -1.5688 1.08597 0
M  V30 1687 C 161.355 -2.54964 2.32567 0
M  V30 1688 C 160.468 -2.39739 3.59373 0
M  V30 1689 C 159.603 -3.66072 3.84921 0
M  V30 1690 C 158.642 -3.45771 5.05083 0
M  V30 1691 N 157.779 -4.64169 5.26775 0
M  V30 1692 H 162.619 -0.870123 2.85014 0
M  V30 1693 H 160.156 -0.418245 1.41029 0
M  V30 1694 H 162.114 -3.32758 2.5165 0
M  V30 1695 H 160.744 -2.87433 1.46908 0
M  V30 1696 H 159.796 -1.53131 3.48217 0
M  V30 1697 H 161.108 -2.20683 4.47326 0
M  V30 1698 H 160.262 -4.52303 4.0436 0
M  V30 1699 H 159.001 -3.88105 2.9534 0
M  V30 1700 H 158.006 -2.57927 4.85545 0
M  V30 1701 H 159.231 -3.25163 5.96193 0
M  V30 1702 H 157.177 -4.86425 4.40144 0
M  V30 1703 H 157.094 -4.48019 6.08946 0
M  V30 1704 H 158.362 -5.51689 5.5069 0
M  V30 1705 N 162.591 -1.51276 -0.441967 0
M  V30 1706 C 163.523 -1.68444 -1.55433 0
M  V30 1707 C 164.536 -0.565187 -1.52674 0
M  V30 1708 O 165.725 -0.839356 -1.57534 0
M  V30 1709 C 162.825 -1.67966 -2.94348 0
M  V30 1710 C 161.998 -2.964 -3.21661 0
M  V30 1711 C 161.057 -2.88171 -4.40277 0
M  V30 1712 O 160.083 -3.62119 -4.39157 0
M  V30 1713 N 161.285 -2.03706 -5.43584 0
M  V30 1714 H 164.05 -2.644 -1.41112 0
M  V30 1715 H 161.611 -1.49104 -0.630838 0
M  V30 1716 H 163.603 -1.60035 -3.71713 0
M  V30 1717 H 162.173 -0.796225 -3.0229 0
M  V30 1718 H 161.393 -3.18234 -2.32638 0
M  V30 1719 H 162.681 -3.81427 -3.36736 0
M  V30 1720 H 162.079 -1.42995 -5.47329 0
M  V30 1721 H 160.636 -2.01658 -6.1982 0
M  V30 1722 N 164.069 0.697108 -1.41344 0
M  V30 1723 C 164.979 1.84088 -1.45427 0
M  V30 1724 C 165.995 1.70545 -0.34501 0
M  V30 1725 O 167.171 1.92488 -0.592492 0
M  V30 1726 C 164.236 3.20056 -1.33286 0
M  V30 1727 C 163.297 3.45718 -2.54514 0
M  V30 1728 C 162.53 4.75199 -2.42944 0
M  V30 1729 O 162.753 5.51579 -1.45318 0
M  V30 1730 O 161.687 5.0161 -3.32672 0
M  V30 1731 H 165.513 1.836 -2.41919 0
M  V30 1732 H 163.098 0.849966 -1.22866 0
M  V30 1733 H 164.98 4.01236 -1.28794 0
M  V30 1734 H 163.655 3.2123 -0.39909 0
M  V30 1735 H 162.562 2.64474 -2.64583 0
M  V30 1736 H 163.895 3.49356 -3.46715 0
M  V30 1737 N 165.547 1.27147 0.931209 0
M  V30 1738 C 166.494 1.09568 2.03134 0
M  V30 1739 C 167.464 -0.00222433 1.661 0
M  V30 1740 O 168.649 0.159439 1.90133 0
M  V30 1741 C 165.789 0.745231 3.36957 0
M  V30 1742 C 164.902 1.92041 3.86968 0
M  V30 1743 C 164.037 1.51216 5.09222 0
M  V30 1744 C 163.076 2.65504 5.5152 0
M  V30 1745 N 162.213 2.25291 6.64972 0
M  V30 1746 H 167.053 2.03708 2.17502 0
M  V30 1747 H 164.59 1.01411 1.06556 0
M  V30 1748 H 166.548 0.522878 4.1391 0
M  V30 1749 H 165.178 -0.159202 3.22407 0
M  V30 1750 H 164.23 2.25541 3.06326 0
M  V30 1751 H 165.542 2.77787 4.1429 0
M  V30 1752 H 164.696 1.25084 5.93666 0
M  V30 1753 H 163.435 0.625749 4.83669 0
M  V30 1754 H 162.44 2.92354 4.65628 0
M  V30 1755 H 163.665 3.54761 5.7907 0
M  V30 1756 H 161.611 1.39098 6.41083 0
M  V30 1757 H 161.528 3.04577 6.91931 0
M  V30 1758 H 162.796 2.02398 7.52765 0
M  V30 1759 N 167.025 -1.13721 1.09112 0
M  V30 1760 C 168.302 -1.81155 0.737706 0
M  V30 1761 C 168.682 -1.96253 -0.777683 0
M  V30 1762 O 168.03 -1.52807 -1.69889 0
M  V30 1763 C 168.24 -3.16392 1.47299 0
M  V30 1764 C 169.588 -3.91787 1.63671 0
M  V30 1765 O 170.612 -3.26005 1.43524 0
M  V30 1766 O 169.471 -5.0977 1.96969 0
M  V30 1767 H 166.565 -0.783518 0.26463 0
M  V30 1768 H 169.111 -1.20676 1.19312 0
M  V30 1769 H 167.883 -3.0061 2.50498 0
M  V30 1770 H 167.506 -3.8457 1.00953 0
M  V30 1771 N 168.503 -0.877838 -1.30888 0
M  V30 1772 C 169.435 -0.296607 -2.27273 0
M  V30 1773 C 170.448 0.544799 -1.53414 0
M  V30 1774 O 171.637 0.365511 -1.74718 0
M  V30 1775 C 168.737 0.597481 -3.33592 0
M  V30 1776 C 167.91 -0.213251 -4.3688 0
M  V30 1777 C 166.969 0.610208 -5.2265 0
M  V30 1778 O 165.995 0.035441 -5.69189 0
M  V30 1779 N 167.197 1.92071 -5.47804 0
M  V30 1780 H 169.962 -1.12492 -2.77787 0
M  V30 1781 H 167.523 -0.740105 -1.43993 0
M  V30 1782 H 169.515 1.15425 -3.87891 0
M  V30 1783 H 168.085 1.32647 -2.83061 0
M  V30 1784 H 167.305 -0.951466 -3.82545 0
M  V30 1785 H 168.593 -0.769262 -5.02951 0
M  V30 1786 H 167.991 2.4107 -5.11763 0
M  V30 1787 H 166.548 2.42508 -6.05007 0
M  V30 1788 N 169.982 1.44106 -0.638065 0
M  V30 1789 C 170.914 2.28976 0.101205 0
M  V30 1790 C 171.927 1.4167 0.802088 0
M  V30 1791 O 173.116 1.65755 0.662375 0
M  V30 1792 C 170.216 3.18217 1.16581 0
M  V30 1793 C 169.389 4.33978 0.546066 0
M  V30 1794 C 168.448 5.04202 1.50554 0
M  V30 1795 O 167.474 5.59986 1.01999 0
M  V30 1796 N 168.676 5.06296 2.8398 0
M  V30 1797 H 171.441 2.93064 -0.627186 0
M  V30 1798 H 169.002 1.54629 -0.479731 0
M  V30 1799 H 170.994 3.62061 1.80815 0
M  V30 1800 H 169.564 2.55833 1.79634 0
M  V30 1801 H 168.784 3.93239 -0.275046 0
M  V30 1802 H 170.072 5.08675 0.112793 0
M  V30 1803 H 169.47 4.62319 3.26002 0
M  V30 1804 H 168.027 5.53907 3.43556 0
M  V30 1805 N 171.46 0.379036 1.52974 0
M  V30 1806 C 172.708 -0.206014 2.01047 0
M  V30 1807 C 173.029 -1.48175 1.26765 0
M  V30 1808 O 172.299 -1.92085 0.384743 0
M  V30 1809 H 170.879 -0.0791184 0.742798 0
M  V30 1810 H 173.541 0.508366 1.88153 0
M  V30 1811 H 172.637 -0.423501 3.09213 0
M  V30 1812 N 172.938 -1.57226 0.108567 0
M  V30 1813 C 174.187 -1.94008 -0.551703 0
M  V30 1814 C 174.5 -0.993442 -1.68494 0
M  V30 1815 O 175.706 -1.25551 -2.40726 0
M  V30 1816 C 174.162 -3.44763 -1.03279 0
M  V30 1817 C 173.77 -4.47943 0.0714193 0
M  V30 1818 C 175.514 -3.90483 -1.66503 0
M  V30 1819 C 173.421 -5.89865 -0.425779 0
M  V30 1820 H 172.351 -0.724206 -0.209863 0
M  V30 1821 H 175.002 -1.82547 0.186741 0
M  V30 1822 H 173.384 -3.51422 -1.82533 0
M  V30 1823 H 174.558 -4.52942 0.847365 0
M  V30 1824 H 172.873 -4.11913 0.609669 0
M  V30 1825 H 175.47 -4.93925 -2.04798 0
M  V30 1826 H 175.813 -3.29877 -2.53942 0
M  V30 1827 H 176.346 -3.86581 -0.938074 0
M  V30 1828 H 173.085 -6.54202 0.412316 0
M  V30 1829 H 172.605 -5.88309 -1.16843 0
M  V30 1830 H 174.284 -6.40844 -0.890397 0
M  V30 1831 N 174.416 0.165178 -1.56732 0
M  V30 1832 C 175.665 0.879143 -1.81532 0
M  V30 1833 C 175.978 1.83144 -0.686842 0
M  V30 1834 O 177.184 2.58823 -0.819944 0
M  V30 1835 C 175.64 1.61388 -3.21686 0
M  V30 1836 C 175.248 0.704904 -4.4242 0
M  V30 1837 C 176.992 2.3157 -3.55774 0
M  V30 1838 C 174.899 1.44022 -5.73595 0
M  V30 1839 H 173.829 0.332033 -0.676957 0
M  V30 1840 H 176.48 0.132008 -1.83025 0
M  V30 1841 H 174.862 2.40599 -3.14529 0
M  V30 1842 H 176.036 -0.0506815 -4.60772 0
M  V30 1843 H 174.351 0.112419 -4.16248 0
M  V30 1844 H 176.948 2.8719 -4.51028 0
M  V30 1845 H 177.291 3.07201 -2.8095 0
M  V30 1846 H 177.824 1.59297 -3.64513 0
M  V30 1847 H 174.563 0.72612 -6.51466 0
M  V30 1848 H 174.083 2.16898 -5.5921 0
M  V30 1849 H 175.762 1.98606 -6.15764 0
M  V30 1850 N 175.894 1.51508 0.433938 0
M  V30 1851 C 177.305 1.56784 1.01369 0
M  V30 1852 C 177.656 0.393349 1.92217 0
M  V30 1853 O 176.781 -0.489441 2.10792 0
M  V30 1854 C 177.376 2.84144 1.8452 0
M  V30 1855 C 175.935 2.9198 2.37539 0
M  V30 1856 C 175.082 2.51482 1.16843 0
M  V30 1857 H 178.033 1.57236 0.215081 0
M  V30 1858 H 178.054 2.68098 2.70007 0
M  V30 1859 H 177.566 3.69607 1.18373 0
M  V30 1860 H 175.667 2.10955 3.0713 0
M  V30 1861 H 175.78 3.95704 2.70103 0
M  V30 1862 H 174.144 2.04758 1.51481 0
M  V30 1863 H 174.927 3.39293 0.523015 0
M  V30 1864 N 177.372 -0.689602 1.41712 0
M  V30 1865 C 178.304 -1.815 1.39966 0
M  V30 1866 C 179.317 -1.59995 0.300917 0
M  V30 1867 O 180.506 -1.69387 0.563039 0
M  V30 1868 C 177.606 -3.18364 1.16179 0
M  V30 1869 C 176.779 -3.66847 2.38206 0
M  V30 1870 C 175.838 -4.82398 2.10186 0
M  V30 1871 O 174.864 -4.93706 2.83272 0
M  V30 1872 N 176.066 -5.70064 1.0958 0
M  V30 1873 H 178.831 -1.83488 2.36965 0
M  V30 1874 H 176.392 -0.872149 1.36401 0
M  V30 1875 H 178.384 -3.93301 0.953756 0
M  V30 1876 H 176.954 -3.11365 0.27756 0
M  V30 1877 H 176.174 -2.82751 2.74673 0
M  V30 1878 H 177.462 -3.95978 3.19498 0
M  V30 1879 H 176.86 -5.63565 0.491019 0
M  V30 1880 H 175.417 -6.44874 0.947656 0
M  V30 1881 N 178.85 -1.27639 -0.924453 0
M  V30 1882 C 179.78 -1.13166 -2.04244 0
M  V30 1883 C 180.761 -0.032256 -1.70069 0
M  V30 1884 O 181.946 -0.207328 -1.9309 0
M  V30 1885 C 179.076 -0.781496 -3.38393 0
M  V30 1886 C 178.03 -1.83449 -3.86692 0
M  V30 1887 C 177.356 -1.33822 -5.17683 0
M  V30 1888 C 178.656 -3.23917 -4.09726 0
M  V30 1889 H 180.35 -2.06689 -2.1661 0
M  V30 1890 H 177.896 -0.995136 -1.04082 0
M  V30 1891 H 179.849 -0.667057 -4.16087 0
M  V30 1892 H 178.573 0.189439 -3.2605 0
M  V30 1893 H 177.232 -1.93789 -3.11193 0
M  V30 1894 H 176.88 -0.35665 -5.01734 0
M  V30 1895 H 176.58 -2.04224 -5.50968 0
M  V30 1896 H 178.104 -1.23679 -5.97943 0
M  V30 1897 H 179.518 -3.16559 -4.77978 0
M  V30 1898 H 177.915 -3.92059 -4.54324 0
M  V30 1899 H 178.985 -3.68729 -3.14908 0
M  V30 1900 N 180.328 1.1314 -1.09713 0
M  V30 1901 C 181.568 1.8613 -0.844683 0
M  V30 1902 C 181.932 1.81765 0.618491 0
M  V30 1903 O 183.133 2.50024 0.98699 0
M  V30 1904 C 181.404 3.30151 -1.36877 0
M  V30 1905 S 182.963 4.206 -1.25064 0
M  V30 1906 H 179.781 0.642056 -0.305427 0
M  V30 1907 H 182.383 1.36343 -1.4011 0
M  V30 1908 H 181.087 3.30883 -2.42786 0
M  V30 1909 H 180.618 3.85 -0.808614 0
M  V30 1910 H 182.633 4.95783 -0.203486 0
M  V30 1911 N 181.806 0.884767 1.30421 0
M  V30 1912 C 182.716 0.355398 2.31892 0
M  V30 1913 C 183.732 -0.542261 1.65335 0
M  V30 1914 O 184.908 -0.435432 1.96637 0
M  V30 1915 C 181.973 -0.421661 3.44126 0
M  V30 1916 C 181.034 0.505727 4.26311 0
M  V30 1917 C 180.267 -0.234343 5.33185 0
M  V30 1918 O 180.49 -1.46045 5.51386 0
M  V30 1919 O 179.424 0.415443 6.00465 0
M  V30 1920 H 183.25 1.19685 2.79122 0
M  V30 1921 H 180.835 0.648596 1.34587 0
M  V30 1922 H 182.717 -0.861641 4.12497 0
M  V30 1923 H 181.392 -1.23942 2.99032 0
M  V30 1924 H 180.299 0.994513 3.60639 0
M  V30 1925 H 181.632 1.28948 4.75009 0
M  V30 1926 N 183.284 -1.43765 0.645699 0
M  V30 1927 C 184.561 -1.9541 0.0862963 0
M  V30 1928 C 184.941 -1.58725 -1.39175 0
M  V30 1929 O 184.289 -0.868581 -2.11348 0
M  V30 1930 C 184.499 -3.47488 0.324565 0
M  V30 1931 C 185.847 -4.24001 0.225497 0
M  V30 1932 O 186.871 -3.55274 0.256715 0
M  V30 1933 O 185.73 -5.46313 0.142801 0
M  V30 1934 H 182.824 -0.826882 -0.0139483 0
M  V30 1935 H 185.37 -1.53743 0.718415 0
M  V30 1936 H 184.142 -3.67289 1.3496 0
M  V30 1937 H 183.765 -3.96135 -0.340987 0
M  V30 1938 N 184.763 -0.387143 -1.52771 0
M  V30 1939 C 185.693 0.440551 -2.29306 0
M  V30 1940 C 186.674 1.06535 -1.32606 0
M  V30 1941 O 187.859 1.07853 -1.61497 0
M  V30 1942 C 184.989 1.56919 -3.09829 0
M  V30 1943 C 183.943 1.07054 -4.14395 0
M  V30 1944 C 183.269 2.29109 -4.83129 0
M  V30 1945 C 184.569 0.140015 -5.22112 0
M  V30 1946 H 186.263 -0.198026 -2.98744 0
M  V30 1947 H 183.809 -0.09668 -1.43675 0
M  V30 1948 H 185.762 2.15503 -3.62128 0
M  V30 1949 H 184.486 2.23532 -2.3812 0
M  V30 1950 H 183.145 0.507247 -3.63074 0
M  V30 1951 H 182.793 2.94227 -4.0797 0
M  V30 1952 H 182.493 1.96406 -5.53804 0
M  V30 1953 H 184.017 2.88339 -5.38231 0
M  V30 1954 H 185.431 0.633978 -5.69784 0
M  V30 1955 H 183.828 -0.0971485 -6.00021 0
M  V30 1956 H 184.898 -0.811711 -4.78058 0
M  V30 1957 N 186.241 1.57166 -0.116904 0
M  V30 1958 C 187.488 1.95123 0.541603 0
M  V30 1959 C 187.816 1.00006 1.6682 0
M  V30 1960 O 187.071 0.0235658 1.95686 0
M  V30 1961 C 187.37 3.39508 1.11664 0
M  V30 1962 C 187.036 4.50762 0.111606 0
M  V30 1963 C 185.698 4.80918 -0.164758 0
M  V30 1964 C 188.05 5.18036 -0.573438 0
M  V30 1965 C 185.378 5.75666 -1.13249 0
M  V30 1966 C 187.73 6.13824 -1.52978 0
M  V30 1967 C 186.394 6.42374 -1.81415 0
M  V30 1968 H 185.664 0.714005 0.198187 0
M  V30 1969 H 188.311 1.9048 -0.197365 0
M  V30 1970 H 186.616 3.40835 1.93232 0
M  V30 1971 H 188.313 3.66189 1.63422 0
M  V30 1972 H 184.903 4.27272 0.337192 0
M  V30 1973 H 189.087 4.94896 -0.373092 0
M  V30 1974 H 184.343 5.96092 -1.35958 0
M  V30 1975 H 188.517 6.65039 -2.06629 0
M  V30 1976 H 186.144 7.15599 -2.56557 0
M  V30 1977 N 187.719 -0.156864 1.56817 0
M  V30 1978 C 188.944 -0.890331 1.87318 0
M  V30 1979 C 189.369 -1.74394 0.704855 0
M  V30 1980 O 188.727 -1.77972 -0.345786 0
M  V30 1981 C 188.775 -1.73102 3.16336 0
M  V30 1982 O 187.879 -2.83422 2.99576 0
M  V30 1983 H 187.22 -0.24857 0.615718 0
M  V30 1984 H 189.75 -0.150649 2.04045 0
M  V30 1985 H 189.76 -2.12803 3.48107 0
M  V30 1986 H 188.435 -1.10412 4.00976 0
M  V30 1987 H 187.012 -2.47199 2.7919 0
M  V30 1988 N 189.197 -1.51736 -0.425897 0
M  V30 1989 C 190.613 -1.40166 -0.76326 0
M  V30 1990 C 190.813 -0.492962 -1.95377 0
M  V30 1991 O 189.869 0.0475815 -2.52455 0
M  V30 1992 C 191.182 -2.82403 -1.03291 0
M  V30 1993 C 192.73 -2.91632 -1.13665 0
M  V30 1994 C 193.205 -4.34801 -1.43916 0
M  V30 1995 N 194.696 -4.3796 -1.50816 0
M  V30 1996 C 195.431 -5.4578 -1.75817 0
M  V30 1997 N 194.927 -6.63744 -1.98534 0
M  V30 1998 N 196.72 -5.33274 -1.77694 0
M  V30 1999 H 188.871 -2.09361 0.358 0
M  V30 2000 H 191.134 -0.942941 0.0978094 0
M  V30 2001 H 190.84 -3.50943 -0.230696 0
M  V30 2002 H 190.714 -3.22428 -1.95754 0
M  V30 2003 H 193.101 -2.23284 -1.92947 0
M  V30 2004 H 193.182 -2.55088 -0.190756 0
M  V30 2005 H 192.826 -5.03703 -0.65157 0
M  V30 2006 H 192.756 -4.68868 -2.39729 0
M  V30 2007 H 195.247 -3.52919 -1.35118 0
M  V30 2008 H 195.56 -7.41704 -2.17013 0
M  V30 2009 H 193.905 -6.66839 -1.95832 0
M  V30 2010 H 197.096 -4.40098 -1.59473 0
M  V30 2011 H 197.269 -6.1738 -1.9684 0
M  V30 2012 N 190.675 0.682077 -1.42076 0
M  V30 2013 C 191.924 1.43786 -1.41451 0
M  V30 2014 C 192.237 1.95574 -0.0317074 0
M  V30 2015 O 193.443 2.71326 0.0971462 0
M  V30 2016 C 191.899 2.60071 -2.48779 0
M  V30 2017 C 191.507 2.15013 -3.93031 0
M  V30 2018 C 193.251 3.37626 -2.57311 0
M  V30 2019 C 191.158 3.28336 -4.91883 0
M  V30 2020 H 190.088 0.540143 -0.526082 0
M  V30 2021 H 192.739 0.739157 -1.67955 0
M  V30 2022 H 191.121 3.32275 -2.15429 0
M  V30 2023 H 192.295 1.5001 -4.35699 0
M  V30 2024 H 190.61 1.50416 -3.88284 0
M  V30 2025 H 193.207 4.22012 -3.28345 0
M  V30 2026 H 193.55 3.83727 -1.61429 0
M  V30 2027 H 194.083 2.72488 -2.89819 0
M  V30 2028 H 190.822 2.87234 -5.89217 0
M  V30 2029 H 190.342 3.92145 -4.53853 0
M  V30 2030 H 192.021 3.93913 -5.13265 0
M  V30 2031 N 192.153 1.28127 0.917671 0
M  V30 2032 C 193.101 1.11569 2.04096 0
M  V30 2033 C 194.095 0.0360242 1.69362 0
M  V30 2034 O 195.301 0.194501 1.78946 0
M  V30 2035 H 191.676 0.344097 0.668656 0
M  V30 2036 H 193.647 2.06711 2.15205 0
M  V30 2037 C 192.396 0.790197 3.38602 0
M  V30 2038 H 191.719 1.61293 3.6582 0
M  V30 2039 H 193.159 0.714271 4.1794 0
M  V30 2040 C 191.618 -0.505897 3.3308 0
M  V30 2041 O 192.148 -1.53736 3.71117 0
M  V30 2042 N 190.354 -0.505193 2.86175 0
M  V30 2043 H 189.901 0.334621 2.55417 0
M  V30 2044 H 189.859 -1.37243 2.82863 0
M  V30 2045 N 193.631 -1.12557 1.10312 0
M  V30 2046 C 194.908 -1.80363 0.756878 0
M  V30 2047 C 195.288 -1.97067 -0.756824 0
M  V30 2048 O 194.636 -1.54601 -1.68259 0
M  V30 2049 C 194.846 -3.14812 1.50647 0
M  V30 2050 C 196.194 -3.90029 1.67817 0
M  V30 2051 O 197.218 -3.24464 1.46974 0
M  V30 2052 O 196.077 -5.07652 2.02365 0
M  V30 2053 H 193.171 -0.780667 0.272926 0
M  V30 2054 H 195.717 -1.19404 1.20586 0
M  V30 2055 H 194.489 -2.97936 2.53672 0
M  V30 2056 H 194.112 -3.83478 1.05026 0
M  V30 2057 N 195.109 -0.891671 -1.2995 0
M  V30 2058 C 196.337 -0.52866 -2.00032 0
M  V30 2059 C 196.752 0.884574 -1.66795 0
M  V30 2060 O 196.109 1.5827 -0.908669 0
M  V30 2061 C 196.16 -0.701814 -3.54622 0
M  V30 2062 O 195.881 -2.05942 -3.86678 0
M  V30 2063 C 197.382 -0.342683 -4.41973 0
M  V30 2064 H 194.602 -0.203659 -0.639347 0
M  V30 2065 H 197.146 -1.19881 -1.65677 0
M  V30 2066 H 195.301 -0.0789468 -3.8732 0
M  V30 2067 H 195.715 -2.08291 -4.81368 0
M  V30 2068 H 197.189 -0.514709 -5.49595 0
M  V30 2069 H 197.666 0.71975 -4.33262 0
M  V30 2070 H 198.272 -0.942154 -4.14733 0
M  V30 2071 N 196.587 1.43421 -0.653314 0
M  V30 2072 C 197.815 2.06163 -0.174491 0
M  V30 2073 C 198.23 1.48969 1.1599 0
M  V30 2074 O 197.587 0.621042 1.71608 0
M  V30 2075 C 197.638 3.61417 -0.0774865 0
M  V30 2076 O 197.359 4.16485 -1.35912 0
M  V30 2077 C 198.86 4.41235 0.427402 0
M  V30 2078 H 196.08 0.664946 -0.0899353 0
M  V30 2079 H 198.624 1.83924 -0.893988 0
M  V30 2080 H 196.779 3.82841 0.59257 0
M  V30 2081 H 197.193 5.10153 -1.21839 0
M  V30 2082 H 198.667 5.5021 0.44423 0
M  V30 2083 H 199.144 4.14268 1.45873 0
M  V30 2084 H 199.75 4.2478 -0.210167 0
M  V30 2085 N 198.065 0.39524 1.52563 0
M  V30 2086 C 199.013 -0.451859 2.28169 0
M  V30 2087 C 200.007 -1.05792 1.32304 0
M  V30 2088 O 201.213 -0.997718 1.49818 0
M  V30 2089 H 197.588 -0.164481 0.733792 0
M  V30 2090 H 199.559 0.207199 2.9768 0
M  V30 2091 C 198.308 -1.56385 3.10546 0
M  V30 2092 H 197.631 -1.10682 3.84174 0
M  V30 2093 H 199.071 -2.13067 3.66577 0
M  V30 2094 C 197.53 -2.52328 2.23231 0
M  V30 2095 O 198.06 -3.5588 1.86312 0
M  V30 2096 N 196.266 -2.22209 1.87274 0
M  V30 2097 H 195.813 -1.38033 2.17496 0
M  V30 2098 H 195.771 -2.86652 1.29143 0
M  V30 2099 N 199.544 -1.57102 0.125237 0
M  V30 2100 C 200.821 -1.86953 -0.575142 0
M  V30 2101 C 201.201 -1.02749 -1.84407 0
M  V30 2102 O 200.549 -0.108144 -2.28244 0
M  V30 2103 C 200.759 -3.38198 -0.861583 0
M  V30 2104 C 202.107 -4.06937 -1.21192 0
M  V30 2105 O 203.131 -3.43252 -0.951645 0
M  V30 2106 O 201.99 -5.19364 -1.70068 0
M  V30 2107 H 199.084 -0.774147 -0.290906 0
M  V30 2108 H 201.63 -1.68942 0.160211 0
M  V30 2109 H 200.402 -3.91282 0.0373647 0
M  V30 2110 H 200.025 -3.61661 -1.65188 0
M  V30 2111 N 201.022 0.148545 -1.56898 0
M  V30 2112 C 201.97 1.20265 -1.99096 0
M  V30 2113 C 202.964 1.44559 -0.883123 0
M  V30 2114 O 204.17 1.4487 -1.0683 0
M  V30 2115 H 200.545 0.404786 -0.63376 0
M  V30 2116 H 202.516 0.82004 -2.86911 0
M  V30 2117 C 201.265 2.52886 -2.3863 0
M  V30 2118 H 200.588 2.35021 -3.23427 0
M  V30 2119 H 202.028 3.25274 -2.7198 0
M  V30 2120 C 200.487 3.13315 -1.23837 0
M  V30 2121 O 201.017 3.98077 -0.538268 0
M  V30 2122 N 199.223 2.72742 -1.00301 0
M  V30 2123 H 198.77 2.03912 -1.5741 0
M  V30 2124 H 198.728 3.13507 -0.236838 0
M  V30 2125 N 202.5 1.5196 0.417844 0
M  V30 2126 C 203.433 1.69387 1.52916 0
M  V30 2127 C 204.411 0.541419 1.53321 0
M  V30 2128 O 205.595 0.767695 1.72159 0
M  V30 2129 C 202.722 1.72525 2.91467 0
M  V30 2130 C 201.768 2.93967 3.09008 0
M  V30 2131 S 202.601 4.54461 2.83242 0
M  V30 2132 C 203.757 4.60372 4.24038 0
M  V30 2133 H 203.99 2.63382 1.37903 0
M  V30 2134 H 201.523 1.41889 0.608845 0
M  V30 2135 H 203.481 1.75018 3.7132 0
M  V30 2136 H 202.142 0.796733 3.03827 0
M  V30 2137 H 201.335 2.92619 4.10353 0
M  V30 2138 H 200.937 2.89316 2.37007 0
M  V30 2139 H 203.229 4.37213 5.17544 0
M  V30 2140 H 204.172 5.62273 4.30412 0
M  V30 2141 H 204.58 3.89492 4.08602 0
M  V30 2142 N 203.978 -0.674533 1.42435 0
M  V30 2143 C 205.203 -1.46784 1.46524 0
M  V30 2144 C 205.628 -1.87938 0.078066 0
M  V30 2145 O 204.986 -1.56014 -0.92354 0
M  V30 2146 C 205.034 -2.69307 2.39805 0
M  V30 2147 O 204.138 -3.67587 1.86959 0
M  V30 2148 H 203.479 -0.440959 0.496439 0
M  V30 2149 H 206.009 -0.827326 1.87127 0
M  V30 2150 H 206.019 -3.17374 2.56393 0
M  V30 2151 H 204.694 -2.38692 3.40586 0
M  V30 2152 H 203.271 -3.2662 1.79927 0
M  V30 2153 N 205.456 -1.28612 -0.910864 0
M  V30 2154 C 206.686 -1.1862 -1.69153 0
M  V30 2155 C 207.094 0.257324 -1.87442 0
M  V30 2156 O 206.437 1.18543 -1.40332 0
M  V30 2157 C 206.499 -1.81606 -3.10257 0
M  V30 2158 C 206.163 -3.30864 -3.15243 0
M  V30 2159 C 207.16 -4.27256 -2.96223 0
M  V30 2160 C 204.845 -3.71871 -3.37664 0
M  V30 2161 C 206.839 -5.62631 -2.99541 0
M  V30 2162 C 204.526 -5.07371 -3.40614 0
M  V30 2163 C 205.524 -6.02561 -3.21573 0
M  V30 2164 O 205.212 -7.35589 -3.2429 0
M  V30 2165 H 204.944 -0.412633 -0.535453 0
M  V30 2166 H 207.498 -1.70306 -1.14827 0
M  V30 2167 H 205.728 -1.24418 -3.66138 0
M  V30 2168 H 207.417 -1.66092 -3.70362 0
M  V30 2169 H 208.183 -3.9691 -2.78725 0
M  V30 2170 H 204.062 -2.98241 -3.5153 0
M  V30 2171 H 207.606 -6.36907 -2.84597 0
M  V30 2172 H 203.503 -5.37366 -3.57642 0
M  V30 2173 H 204.271 -7.44252 -3.40633 0
M  V30 2174 N 206.934 1.1197 -1.10907 0
M  V30 2175 C 208.159 1.87942 -0.877064 0
M  V30 2176 C 208.584 1.79341 0.567314 0
M  V30 2177 O 207.942 1.15184 1.40009 0
M  V30 2178 C 207.99 3.34926 -1.33629 0
M  V30 2179 O 207.094 4.09303 -0.504447 0
M  V30 2180 H 206.435 0.583785 -0.316371 0
M  V30 2181 H 208.965 1.4157 -1.47712 0
M  V30 2182 H 208.975 3.8577 -1.32837 0
M  V30 2183 H 207.65 3.40504 -2.3881 0
M  V30 2184 H 206.227 3.68393 -0.577993 0
M  V30 2185 N 208.412 0.89855 1.29475 0
M  V30 2186 C 209.658 0.524658 1.95896 0
M  V30 2187 C 209.991 -0.926468 1.70676 0
M  V30 2188 O 209.266 -1.65665 1.01908 0
M  V30 2189 C 209.549 0.81633 3.50725 0
M  V30 2190 C 209.402 2.31907 3.85408 0
M  V30 2191 C 210.721 0.302038 4.39062 0
M  V30 2192 H 207.84 0.19209 0.711527 0
M  V30 2193 H 210.482 1.12502 1.53112 0
M  V30 2194 H 208.632 0.305369 3.87298 0
M  V30 2195 H 210.304 2.89949 3.58786 0
M  V30 2196 H 208.547 2.78027 3.32992 0
M  V30 2197 H 209.218 2.47373 4.93468 0
M  V30 2198 H 211.694 0.739551 4.09475 0
M  V30 2199 H 210.57 0.535331 5.46283 0
M  V30 2200 H 210.831 -0.797216 4.34853 0
M  V30 2201 N 209.89 -1.43072 0.660911 0
M  V30 2202 C 210.8 -2.34585 -0.0264163 0
M  V30 2203 C 211.816 -1.54316 -0.803898 0
M  V30 2204 O 212.992 -1.86939 -0.749391 0
M  V30 2205 C 210.057 -3.32689 -0.975639 0
M  V30 2206 C 209.118 -4.2886 -0.194236 0
M  V30 2207 C 208.351 -5.22278 -1.09825 0
M  V30 2208 O 208.574 -5.20299 -2.33763 0
M  V30 2209 O 207.508 -5.99228 -0.566513 0
M  V30 2210 H 211.334 -2.94869 0.727034 0
M  V30 2211 H 208.919 -1.43342 0.42111 0
M  V30 2212 H 210.801 -3.92995 -1.52094 0
M  V30 2213 H 209.476 -2.74898 -1.70918 0
M  V30 2214 H 208.383 -3.72011 0.394835 0
M  V30 2215 H 209.716 -4.89655 0.499899 0
M  V30 2216 N 211.368 -0.403325 -1.52352 0
M  V30 2217 C 212.614 0.174605 -2.02047 0
M  V30 2218 C 212.947 1.45282 -1.28867 0
M  V30 2219 O 212.222 1.90483 -0.393257 0
M  V30 2220 C 212.505 0.428238 -3.57545 0
M  V30 2221 C 212.358 -0.866248 -4.4138 0
M  V30 2222 C 213.677 1.21287 -4.23057 0
M  V30 2223 H 210.796 0.0619851 -0.734389 0
M  V30 2224 H 213.438 -0.53565 -1.82293 0
M  V30 2225 H 211.588 1.03327 -3.74507 0
M  V30 2226 H 213.26 -1.50265 -4.3614 0
M  V30 2227 H 211.503 -1.47851 -4.07827 0
M  V30 2228 H 212.174 -0.643249 -5.48239 0
M  V30 2229 H 214.65 0.700703 -4.10158 0
M  V30 2230 H 213.526 1.35909 -5.31808 0
M  V30 2231 H 213.787 2.23193 -3.81625 0
M  V30 2232 N 212.846 1.57033 -0.133567 0
M  V30 2233 C 214.071 2.00475 0.531477 0
M  V30 2234 C 214.496 1.01291 1.58499 0
M  V30 2235 O 213.854 -0.0133279 1.81295 0
M  V30 2236 C 213.902 3.42729 1.12113 0
M  V30 2237 O 213.006 3.46498 2.23636 0
M  V30 2238 H 212.347 0.650876 0.131362 0
M  V30 2239 H 214.877 2.03344 -0.22634 0
M  V30 2240 H 214.887 3.81246 1.4531 0
M  V30 2241 H 213.562 4.14428 0.349557 0
M  V30 2242 H 212.139 3.19811 1.91769 0
M  V30 2243 N 214.325 -0.140222 1.56975 0
M  V30 2244 C 215.555 -0.865181 1.87612 0
M  V30 2245 C 215.963 -1.74942 0.72055 0
M  V30 2246 O 215.306 -1.80917 -0.318561 0
M  V30 2247 C 215.368 -1.76782 3.13031 0
M  V30 2248 C 215.032 -1.06005 4.44536 0
M  V30 2249 C 216.029 -0.410768 5.18275 0
M  V30 2250 C 213.714 -1.04754 4.91255 0
M  V30 2251 C 215.708 0.241572 6.36942 0
M  V30 2252 C 213.395 -0.391394 6.09845 0
M  V30 2253 C 214.393 0.252029 6.82535 0
M  V30 2254 O 214.081 0.897757 7.98871 0
M  V30 2255 H 213.813 -0.255188 0.625983 0
M  V30 2256 H 216.367 -0.135653 2.04952 0
M  V30 2257 H 214.597 -2.53846 2.91718 0
M  V30 2258 H 216.286 -2.36533 3.29859 0
M  V30 2259 H 217.052 -0.412195 4.83245 0
M  V30 2260 H 212.931 -1.53777 4.34596 0
M  V30 2261 H 216.475 0.744375 6.93617 0
M  V30 2262 H 212.372 -0.387656 6.44335 0
M  V30 2263 H 213.14 0.800102 8.1458 0
M  V30 2264 N 215.803 -1.52179 -0.40978 0
M  V30 2265 C 216.736 -1.70196 -1.52015 0
M  V30 2266 C 217.714 -0.549542 -1.53032 0
M  V30 2267 O 218.898 -0.776815 -1.71749 0
M  V30 2268 C 216.025 -1.74069 -2.90547 0
M  V30 2269 C 215.071 -2.95601 -3.07445 0
M  V30 2270 S 215.904 -4.55956 -2.80827 0
M  V30 2271 C 217.06 -4.62614 -4.21591 0
M  V30 2272 H 217.293 -2.64109 -1.36504 0
M  V30 2273 H 214.826 -1.4221 -0.601312 0
M  V30 2274 H 216.784 -1.76985 -3.70387 0
M  V30 2275 H 215.445 -0.812835 -3.034 0
M  V30 2276 H 214.638 -2.94791 -4.08796 0
M  V30 2277 H 214.24 -2.90569 -2.35469 0
M  V30 2278 H 216.532 -4.39951 -5.15218 0
M  V30 2279 H 217.475 -5.64548 -4.27424 0
M  V30 2280 H 217.883 -3.91654 -4.06531 0
M  V30 2281 N 217.281 0.66697 -1.42791 0
M  V30 2282 C 218.191 1.80962 -1.49299 0
M  V30 2283 C 219.207 1.69775 -0.381108 0
M  V30 2284 O 220.383 1.91188 -0.633188 0
M  V30 2285 C 217.448 3.17156 -1.40045 0
M  V30 2286 C 216.509 3.40242 -2.6179 0
M  V30 2287 C 215.742 4.69939 -2.52969 0
M  V30 2288 O 215.965 5.48372 -1.56985 0
M  V30 2289 O 214.899 4.94441 -3.43237 0
M  V30 2290 H 218.725 1.78427 -2.45759 0
M  V30 2291 H 216.31 0.823713 -1.24641 0
M  V30 2292 H 218.192 3.98413 -1.37276 0
M  V30 2293 H 216.867 3.20312 -0.467138 0
M  V30 2294 H 215.774 2.58802 -2.70134 0
M  V30 2295 H 217.107 3.41923 -3.54047 0
M  V30 2296 N 218.759 1.29093 0.90403 0
M  V30 2297 C 220.008 1.16187 1.64874 0
M  V30 2298 C 220.321 -0.286742 1.93487 0
M  V30 2299 O 221.527 -0.537062 2.66135 0
M  V30 2300 C 219.983 2.03177 2.97064 0
M  V30 2301 C 219.591 3.52836 2.76062 0
M  V30 2302 C 221.335 1.98984 3.74974 0
M  V30 2303 C 219.242 4.31945 4.03952 0
M  V30 2304 H 218.172 0.431246 0.618501 0
M  V30 2305 H 220.823 1.53699 1.00243 0
M  V30 2306 H 219.205 1.5853 3.62883 0
M  V30 2307 H 220.379 4.05507 2.18863 0
M  V30 2308 H 218.694 3.58656 2.11553 0
M  V30 2309 H 221.291 2.55351 4.69787 0
M  V30 2310 H 221.634 0.968815 4.0487 0
M  V30 2311 H 222.167 2.41652 3.15989 0
M  V30 2312 H 218.906 5.34667 3.79225 0
M  V30 2313 H 218.426 3.84045 4.60727 0
M  V30 2314 H 220.105 4.42379 4.72133 0
M  V30 2315 N 220.237 -1.11381 1.11499 0
M  V30 2316 C 221.467 -1.86663 0.885464 0
M  V30 2317 C 221.875 -1.80464 -0.568281 0
M  V30 2318 O 221.218 -1.18445 -1.40415 0
M  V30 2319 C 221.28 -3.36337 1.26956 0
M  V30 2320 C 220.944 -3.66304 2.73259 0
M  V30 2321 C 221.941 -3.63733 3.71476 0
M  V30 2322 C 219.626 -3.9529 3.09921 0
M  V30 2323 C 221.62 -3.89725 5.04374 0
M  V30 2324 C 219.307 -4.20941 4.43004 0
M  V30 2325 C 220.305 -4.18147 5.40039 0
M  V30 2326 O 219.993 -4.43153 6.70724 0
M  V30 2327 H 219.725 -0.597114 0.316908 0
M  V30 2328 H 222.279 -1.41782 1.48617 0
M  V30 2329 H 220.509 -3.81826 0.611999 0
M  V30 2330 H 222.198 -3.92986 1.01573 0
M  V30 2331 H 222.964 -3.41389 3.44498 0
M  V30 2332 H 218.843 -3.966 2.35009 0
M  V30 2333 H 222.387 -3.8746 5.80104 0
M  V30 2334 H 218.284 -4.42761 4.69716 0
M  V30 2335 H 219.052 -4.60717 6.76522 0
M  V30 2336 N 221.715 -0.905404 -1.28997 0
M  V30 2337 C 222.955 -0.541232 -1.97104 0
M  V30 2338 C 223.319 0.896841 -1.69767 0
M  V30 2339 O 224.52 1.36817 -2.31375 0
M  V30 2340 C 222.791 -0.832134 -3.47578 0
M  V30 2341 S 224.35 -0.573127 -4.35041 0
M  V30 2342 H 221.168 -0.200576 -0.682122 0
M  V30 2343 H 223.77 -1.16906 -1.56694 0
M  V30 2344 H 222.474 -1.87687 -3.64968 0
M  V30 2345 H 222.005 -0.192636 -3.92928 0
M  V30 2346 H 224.02 0.579297 -4.92807 0
M  V30 2347 N 223.193 1.4272 -0.668489 0
M  V30 2348 C 224.103 2.34596 0.0139753 0
M  V30 2349 C 225.119 1.5474 0.795703 0
M  V30 2350 O 226.295 1.87334 0.739466 0
M  V30 2351 C 223.36 3.33202 0.957982 0
M  V30 2352 C 222.421 4.28957 0.17149 0
M  V30 2353 C 221.654 5.22853 1.07053 0
M  V30 2354 O 221.877 5.21531 2.31001 0
M  V30 2355 O 220.811 5.9952 0.534727 0
M  V30 2356 H 224.637 2.9448 -0.742661 0
M  V30 2357 H 222.222 1.43117 -0.428705 0
M  V30 2358 H 224.104 3.93796 1.50008 0
M  V30 2359 H 222.779 2.758 1.69458 0
M  V30 2360 H 221.686 3.71796 -0.414558 0
M  V30 2361 H 223.019 4.89383 -0.52586 0
M  V30 2362 N 224.671 0.411399 1.52136 0
M  V30 2363 C 226.087 0.0623865 1.59478 0
M  V30 2364 C 226.287 -1.42554 1.4241 0
M  V30 2365 O 225.343 -2.19263 1.2522 0
M  V30 2366 C 226.656 0.559331 2.95452 0
M  V30 2367 C 228.204 0.517503 3.08692 0
M  V30 2368 C 228.679 0.990994 4.4715 0
M  V30 2369 N 230.17 0.947908 4.53397 0
M  V30 2370 C 230.905 1.28544 5.58806 0
M  V30 2371 N 230.401 1.69454 6.71757 0
M  V30 2372 N 232.194 1.20526 5.49026 0
M  V30 2373 H 224.345 1.37982 1.61477 0
M  V30 2374 H 226.608 0.566977 0.759764 0
M  V30 2375 H 226.314 1.59938 3.1323 0
M  V30 2376 H 226.188 -0.0298014 3.77188 0
M  V30 2377 H 228.575 -0.513505 2.90598 0
M  V30 2378 H 228.656 1.14272 2.28857 0
M  V30 2379 H 228.3 2.02034 4.65988 0
M  V30 2380 H 228.23 0.34257 5.25485 0
M  V30 2381 H 230.721 0.647157 3.72317 0
M  V30 2382 H 231.034 1.93513 7.48179 0
M  V30 2383 H 229.379 1.73359 6.73032 0
M  V30 2384 H 232.57 0.884505 4.59667 0
M  V30 2385 H 232.743 1.47161 6.31069 0
M  V30 2386 N 226.149 -1.5696 0.141893 0
M  V30 2387 C 227.395 -1.9625 -0.511248 0
M  V30 2388 C 227.728 -1.02654 -1.64851 0
M  V30 2389 O 227.003 -0.0679676 -1.94381 0
M  V30 2390 C 227.286 -3.45285 -1.02227 0
M  V30 2391 C 227.139 -4.49658 0.113138 0
M  V30 2392 C 228.458 -3.96698 -1.90574 0
M  V30 2393 H 225.577 -0.713567 -0.184367 0
M  V30 2394 H 228.219 -1.88698 0.222087 0
M  V30 2395 H 226.369 -3.51852 -1.64719 0
M  V30 2396 H 228.041 -4.55174 0.749302 0
M  V30 2397 H 226.284 -4.26857 0.773026 0
M  V30 2398 H 226.955 -5.51258 -0.286053 0
M  V30 2399 H 229.431 -3.92578 -1.37918 0
M  V30 2400 H 228.307 -5.01453 -2.2324 0
M  V30 2401 H 228.568 -3.3875 -2.84079 0
M  V30 2402 N 227.627 0.131896 -1.57047 0
M  V30 2403 C 229.043 0.485031 -1.52051 0
M  V30 2404 C 229.243 1.82563 -0.85281 0
M  V30 2405 O 228.299 2.48817 -0.429694 0
M  V30 2406 C 229.612 0.481409 -2.96821 0
M  V30 2407 C 231.16 0.565868 -3.07842 0
M  V30 2408 C 231.635 0.592762 -4.54148 0
M  V30 2409 N 233.126 0.654564 -4.58552 0
M  V30 2410 C 233.861 0.696608 -5.69153 0
M  V30 2411 N 233.357 0.697078 -6.89284 0
M  V30 2412 N 235.15 0.738639 -5.57226 0
M  V30 2413 H 227.301 -0.746664 -1.98843 0
M  V30 2414 H 229.564 -0.273999 -0.90754 0
M  V30 2415 H 229.27 -0.435731 -3.4899 0
M  V30 2416 H 229.144 1.3139 -3.53577 0
M  V30 2417 H 231.531 1.47343 -2.55684 0
M  V30 2418 H 231.612 -0.29406 -2.54104 0
M  V30 2419 H 231.256 -0.310701 -5.06949 0
M  V30 2420 H 231.186 1.46939 -5.05684 0
M  V30 2421 H 233.677 0.660887 -3.72076 0
M  V30 2422 H 233.99 0.731426 -7.69331 0
M  V30 2423 H 232.335 0.66471 -6.91814 0
M  V30 2424 H 235.526 0.735545 -4.62285 0
M  V30 2425 H 235.699 0.767938 -6.43434 0
M  V30 2426 N 229.106 1.52395 0.401703 0
M  V30 2427 C 230.383 1.57387 1.16141 0
M  V30 2428 C 230.763 0.359359 2.08019 0
M  V30 2429 O 230.111 -0.65326 2.18963 0
M  V30 2430 C 230.321 2.90631 1.93221 0
M  V30 2431 C 231.669 3.43904 2.49028 0
M  V30 2432 O 232.693 2.92421 2.03393 0
M  V30 2433 O 231.552 4.33823 3.32356 0
M  V30 2434 H 228.646 0.634262 0.530698 0
M  V30 2435 H 231.192 1.64725 0.407883 0
M  V30 2436 H 229.964 3.70473 1.25958 0
M  V30 2437 H 229.587 2.8662 2.75563 0
M  V30 2438 N 230.584 -0.659388 1.43143 0
M  V30 2439 C 231.514 -1.78422 1.50625 0
M  V30 2440 C 232.495 -1.66216 0.361443 0
M  V30 2441 O 233.68 -1.85404 0.577834 0
M  V30 2442 C 230.81 -3.16815 1.42287 0
M  V30 2443 C 229.764 -3.43777 2.54954 0
M  V30 2444 C 229.09 -4.81905 2.31671 0
M  V30 2445 C 230.39 -3.39134 3.97222 0
M  V30 2446 H 232.084 -1.72417 2.44771 0
M  V30 2447 H 229.63 -0.828084 1.17808 0
M  V30 2448 H 231.583 -3.95253 1.46127 0
M  V30 2449 H 230.307 -3.23534 0.446435 0
M  V30 2450 H 228.966 -2.67707 2.50457 0
M  V30 2451 H 228.614 -4.85294 1.32284 0
M  V30 2452 H 228.314 -5.00906 3.07192 0
M  V30 2453 H 229.838 -5.62609 2.37284 0
M  V30 2454 H 231.252 -4.07518 4.03239 0
M  V30 2455 H 229.649 -3.69671 4.72719 0
M  V30 2456 H 230.719 -2.37426 4.22797 0
M  V30 2457 N 232.062 -1.29571 -0.897171 0
M  V30 2458 C 232.992 -1.17473 -2.01798 0
M  V30 2459 C 233.973 -0.068323 -1.69963 0
M  V30 2460 O 235.158 -0.248239 -1.92607 0
M  V30 2461 C 232.288 -0.853099 -3.36659 0
M  V30 2462 C 231.242 -1.9161 -3.82713 0
M  V30 2463 C 230.568 -1.44773 -5.14728 0
M  V30 2464 C 231.868 -3.32535 -4.02763 0
M  V30 2465 H 233.562 -2.11237 -2.12177 0
M  V30 2466 H 231.108 -1.01699 -1.01948 0
M  V30 2467 H 233.061 -0.755165 -4.14578 0
M  V30 2468 H 231.785 0.120236 -3.26379 0
M  V30 2469 H 230.444 -2.00346 -3.07013 0
M  V30 2470 H 230.092 -0.462995 -5.00865 0
M  V30 2471 H 229.792 -2.15865 -5.46513 0
M  V30 2472 H 231.316 -1.36334 -5.95185 0
M  V30 2473 H 232.73 -3.26626 -4.71156 0
M  V30 2474 H 231.127 -4.01607 -4.45905 0
M  V30 2475 H 232.197 -3.75326 -3.07016 0
M  V30 2476 N 233.54 1.10788 -1.12088 0
M  V30 2477 C 234.488 2.19111 -0.780587 0
M  V30 2478 C 235.482 1.67818 0.230961 0
M  V30 2479 O 236.688 1.79777 0.0895427 0
M  V30 2480 H 233.063 0.714477 -0.234578 0
M  V30 2481 H 235.034 2.45055 -1.70266 0
M  V30 2482 C 233.783 3.46818 -0.24747 0
M  V30 2483 H 233.106 3.86646 -1.01712 0
M  V30 2484 H 234.546 4.23973 -0.0476291 0
M  V30 2485 C 233.005 3.20968 1.02378 0
M  V30 2486 O 233.535 3.42298 2.10226 0
M  V30 2487 N 231.741 2.74658 0.949271 0
M  V30 2488 H 231.288 2.57501 0.0715173 0
M  V30 2489 H 231.246 2.57739 1.80049 0
M  V30 2490 N 235.018 0.912232 1.28515 0
M  V30 2491 C 236.429 0.591352 1.77087 0
M  V30 2492 C 236.78 -0.8933 1.74684 0
M  V30 2493 O 235.905 -1.69876 1.34056 0
M  V30 2494 C 236.5 1.06668 3.2157 0
M  V30 2495 C 235.059 0.79675 3.67871 0
M  V30 2496 C 234.206 1.23427 2.48316 0
M  V30 2497 H 237.157 1.09365 1.15 0
M  V30 2498 H 237.178 0.407455 3.78312 0
M  V30 2499 H 236.69 2.14726 3.23287 0
M  V30 2500 H 234.791 -0.270679 3.71616 0
M  V30 2501 H 234.904 1.40343 4.58084 0
M  V30 2502 H 233.268 0.653036 2.46186 0
M  V30 2503 H 234.051 2.32316 2.52753 0
M  V30 2504 N 236.496 -1.42363 0.676048 0
M  V30 2505 C 237.443 -2.308 -0.00150904 0
M  V30 2506 C 238.413 -1.46032 -0.791444 0
M  V30 2507 O 239.598 -1.74861 -0.76344 0
M  V30 2508 C 236.738 -3.31883 -0.945919 0
M  V30 2509 C 235.851 -4.31741 -0.149675 0
M  V30 2510 C 234.986 -5.19898 -1.08995 0
M  V30 2511 C 234.025 -6.11434 -0.285465 0
M  V30 2512 N 233.162 -6.92138 -1.17851 0
M  V30 2513 H 238.002 -2.88187 0.758455 0
M  V30 2514 H 235.539 -1.41952 0.38576 0
M  V30 2515 H 237.497 -3.89019 -1.50731 0
M  V30 2516 H 236.127 -2.76093 -1.6725 0
M  V30 2517 H 235.179 -3.76713 0.528359 0
M  V30 2518 H 236.491 -4.96534 0.474866 0
M  V30 2519 H 235.645 -5.81772 -1.72123 0
M  V30 2520 H 234.384 -4.55284 -1.74837 0
M  V30 2521 H 233.389 -5.48627 0.359018 0
M  V30 2522 H 234.614 -6.78097 0.368883 0
M  V30 2523 H 232.56 -6.30152 -1.82332 0
M  V30 2524 H 232.477 -7.53542 -0.609082 0
M  V30 2525 H 233.745 -7.58499 -1.79722 0
M  V30 2526 N 237.974 -0.419461 -1.51915 0
M  V30 2527 C 238.922 0.415502 -2.28859 0
M  V30 2528 C 239.916 1.03674 -1.3397 0
M  V30 2529 O 241.122 0.973757 -1.51387 0
M  V30 2530 H 237.497 0.152786 -0.736315 0
M  V30 2531 H 239.468 -0.254531 -2.97312 0
M  V30 2532 C 238.217 1.51425 -3.12995 0
M  V30 2533 H 237.54 1.04556 -3.85886 0
M  V30 2534 H 238.98 2.07208 -3.6992 0
M  V30 2535 C 237.439 2.48745 -2.27217 0
M  V30 2536 O 237.969 3.52871 -1.9195 0
M  V30 2537 N 236.175 2.19202 -1.90785 0
M  V30 2538 H 235.722 1.34556 -2.19664 0
M  V30 2539 H 235.68 2.84561 -1.33687 0
M  V30 2540 N 239.452 1.56882 -0.150215 0
M  V30 2541 C 240.399 2.16922 0.788244 0
M  V30 2542 C 241.369 1.10303 1.24187 0
M  V30 2543 O 242.554 1.38359 1.31383 0
M  V30 2544 C 239.694 2.79754 2.02068 0
M  V30 2545 C 238.807 4.00775 1.61257 0
M  V30 2546 C 237.942 4.51595 2.79705 0
M  V30 2547 C 236.981 5.65074 2.35282 0
M  V30 2548 N 236.118 6.10499 3.4675 0
M  V30 2549 H 240.958 2.96779 0.269444 0
M  V30 2550 H 238.495 1.46599 0.12128 0
M  V30 2551 H 240.453 3.14329 2.74323 0
M  V30 2552 H 239.083 2.02536 2.51354 0
M  V30 2553 H 238.135 3.72158 0.787553 0
M  V30 2554 H 239.447 4.82978 1.24633 0
M  V30 2555 H 238.601 4.88242 3.60145 0
M  V30 2556 H 237.34 3.68406 3.19576 0
M  V30 2557 H 236.345 5.28 1.53283 0
M  V30 2558 H 237.57 6.50052 1.96493 0
M  V30 2559 H 235.516 5.30243 3.86236 0
M  V30 2560 H 235.433 6.87637 3.14152 0
M  V30 2561 H 236.701 6.51791 4.27537 0
M  V30 2562 N 240.93 -0.123565 1.57115 0
M  V30 2563 C 242.178 -0.83051 1.84247 0
M  V30 2564 C 242.499 -1.80629 0.73471 0
M  V30 2565 O 241.769 -1.94403 -0.241688 0
M  V30 2566 H 240.349 -0.309694 0.679778 0
M  V30 2567 H 243.011 -0.111976 1.94578 0
M  V30 2568 H 242.107 -1.37852 2.80006 0
M  V30 2569 N 242.408 -1.52605 -0.393616 0
M  V30 2570 C 243.356 -1.77688 -1.50099 0
M  V30 2571 C 244.35 -0.644615 -1.56656 0
M  V30 2572 O 245.556 -0.826997 -1.59877 0
M  V30 2573 H 241.931 -0.562159 -0.499481 0
M  V30 2574 H 243.902 -2.7043 -1.26135 0
M  V30 2575 C 242.651 -1.95858 -2.87289 0
M  V30 2576 H 241.974 -2.8241 -2.82992 0
M  V30 2577 H 243.414 -2.174 -3.64024 0
M  V30 2578 C 241.873 -0.729848 -3.28899 0
M  V30 2579 O 242.403 0.0949217 -4.01588 0
M  V30 2580 N 240.609 -0.561283 -2.85128 0
M  V30 2581 H 240.156 -1.23357 -2.26143 0
M  V30 2582 H 240.114 0.2595 -3.13327 0
M  V30 2583 N 243.887 0.651787 -1.4349 0
M  V30 2584 C 244.817 1.77621 -1.51569 0
M  V30 2585 C 245.798 1.66022 -0.370253 0
M  V30 2586 O 246.983 1.85095 -0.587658 0
M  V30 2587 C 244.113 3.16056 -1.43966 0
M  V30 2588 C 243.067 3.4242 -2.56774 0
M  V30 2589 C 242.393 4.8067 -2.34223 0
M  V30 2590 C 243.693 3.37023 -3.99015 0
M  V30 2591 H 245.387 1.71117 -2.45681 0
M  V30 2592 H 242.933 0.821825 -1.18246 0
M  V30 2593 H 244.886 3.94472 -1.48221 0
M  V30 2594 H 243.61 3.23293 -0.463586 0
M  V30 2595 H 242.269 2.66375 -2.51873 0
M  V30 2596 H 241.917 4.84585 -1.34856 0
M  V30 2597 H 241.617 4.9927 -3.09844 0
M  V30 2598 H 243.141 5.61342 -2.40265 0
M  V30 2599 H 244.555 4.05374 -4.05395 0
M  V30 2600 H 242.952 3.67159 -4.74673 0
M  V30 2601 H 244.022 2.3518 -4.2405 0
M  V30 2602 N 245.365 1.30045 0.890287 0
M  V30 2603 C 246.781 1.08261 1.17268 0
M  V30 2604 C 246.981 -0.160063 2.00863 0
M  V30 2605 O 246.037 -0.855181 2.37577 0
M  V30 2606 C 247.35 2.34323 1.8845 0
M  V30 2607 C 248.898 2.39735 2.01237 0
M  V30 2608 C 249.373 3.65625 2.7583 0
M  V30 2609 N 250.864 3.66402 2.83379 0
M  V30 2610 C 251.599 4.60498 3.41657 0
M  V30 2611 N 251.095 5.64933 4.01026 0
M  V30 2612 N 252.888 4.48051 3.39421 0
M  V30 2613 H 245.039 2.09777 0.332762 0
M  V30 2614 H 247.302 0.92446 0.209948 0
M  V30 2615 H 247.008 3.2498 1.34465 0
M  V30 2616 H 246.882 2.4256 2.88867 0
M  V30 2617 H 249.269 1.4956 2.54393 0
M  V30 2618 H 249.35 2.35476 0.999232 0
M  V30 2619 H 248.994 4.56156 2.23347 0
M  V30 2620 H 248.924 3.67144 3.77509 0
M  V30 2621 H 251.415 2.90896 2.41222 0
M  V30 2622 H 251.728 6.32841 4.43545 0
M  V30 2623 H 250.073 5.68732 3.99461 0
M  V30 2624 H 253.264 3.65649 2.92264 0
M  V30 2625 H 253.437 5.21565 3.84544 0
M  V30 2626 N 246.843 -1.10192 1.12674 0
M  V30 2627 C 248.089 -1.82475 0.884915 0
M  V30 2628 C 248.422 -1.85093 -0.58773 0
M  V30 2629 O 247.697 -1.3134 -1.43457 0
M  V30 2630 C 247.98 -3.29018 1.46353 0
M  V30 2631 C 247.833 -3.34718 3.00473 0
M  V30 2632 C 249.152 -4.25473 1.12519 0
M  V30 2633 H 246.271 -0.662492 0.322915 0
M  V30 2634 H 248.913 -1.2913 1.39375 0
M  V30 2635 H 247.063 -3.74576 1.03077 0
M  V30 2636 H 248.735 -2.97622 3.52447 0
M  V30 2637 H 246.978 -2.74541 3.35872 0
M  V30 2638 H 247.649 -4.37918 3.36053 0
M  V30 2639 H 250.125 -3.88161 1.499 0
M  V30 2640 H 249.001 -5.26365 1.55663 0
M  V30 2641 H 249.262 -4.42084 0.0377407 0
M  V30 2642 N 248.321 -0.919034 -1.28029 0
M  V30 2643 C 249.737 -0.617972 -1.4715 0
M  V30 2644 C 249.937 0.835242 -1.83374 0
M  V30 2645 O 248.993 1.61388 -1.94191 0
M  V30 2646 C 250.306 -1.56041 -2.57044 0
M  V30 2647 C 251.854 -1.56769 -2.7091 0
M  V30 2648 C 252.329 -2.49688 -3.83953 0
M  V30 2649 N 253.82 -2.47845 -3.91314 0
M  V30 2650 C 254.555 -3.16437 -4.78179 0
M  V30 2651 N 254.051 -3.94376 -5.69596 0
M  V30 2652 N 255.844 -3.05498 -4.71834 0
M  V30 2653 H 247.995 -1.85866 -1.02798 0
M  V30 2654 H 250.258 -0.797506 -0.512531 0
M  V30 2655 H 249.964 -2.59671 -2.372 0
M  V30 2656 H 249.838 -1.29551 -3.54255 0
M  V30 2657 H 252.225 -0.538745 -2.90141 0
M  V30 2658 H 252.306 -1.87305 -1.74214 0
M  V30 2659 H 251.95 -3.52688 -3.65477 0
M  V30 2660 H 251.88 -2.16453 -4.80058 0
M  V30 2661 H 254.371 -1.91234 -3.25941 0
M  V30 2662 H 254.684 -4.43721 -6.32718 0
M  V30 2663 H 253.029 -3.98481 -5.69419 0
M  V30 2664 H 256.22 -2.44108 -3.99411 0
M  V30 2665 H 256.393 -3.59225 -5.39316 0
M  V30 2666 N 249.799 1.42003 -0.683588 0
M  V30 2667 C 250.709 2.34597 -0.0109075 0
M  V30 2668 C 251.725 1.55576 0.779245 0
M  V30 2669 O 252.901 1.88107 0.719555 0
M  V30 2670 C 249.966 3.34199 0.922588 0
M  V30 2671 C 249.027 4.29115 0.125984 0
M  V30 2672 C 248.26 5.23959 1.01502 0
M  V30 2673 O 248.483 5.23952 2.25456 0
M  V30 2674 O 247.417 6.00053 0.47111 0
M  V30 2675 H 251.243 2.93675 -0.773853 0
M  V30 2676 H 248.828 1.42654 -0.443861 0
M  V30 2677 H 250.71 3.95365 1.45823 0
M  V30 2678 H 249.385 2.77582 1.66523 0
M  V30 2679 H 248.292 3.71335 -0.453969 0
M  V30 2680 H 249.625 4.88798 -0.577736 0
M  V30 2681 N 251.277 0.427512 1.51691 0
M  V30 2682 C 252.227 -0.406604 2.24345 0
M  V30 2683 C 253.211 -0.998276 1.26187 0
M  V30 2684 O 254.403 -0.918045 1.51331 0
M  V30 2685 C 251.532 -1.51266 3.08177 0
M  V30 2686 C 250.618 -0.930868 4.13758 0
M  V30 2687 N 251.009 -0.0773552 5.05741 0
M  V30 2688 C 249.307 -1.19948 4.29568 0
M  V30 2689 C 250.008 0.248344 5.8117 0
M  V30 2690 N 248.984 -0.365535 5.4237 0
M  V30 2691 H 252.786 0.251581 2.92821 0
M  V30 2692 H 250.3 0.239003 1.60632 0
M  V30 2693 H 252.297 -2.123 3.58796 0
M  V30 2694 H 250.957 -2.17328 2.41244 0
M  V30 2695 H 251.968 0.288351 5.17097 0
M  V30 2696 H 248.645 -1.85832 3.73862 0
M  V30 2697 H 250.035 0.942286 6.6526 0
M  V30 2698 N 252.755 -1.56801 0.158532 0
M  V30 2699 C 254.166 -1.83189 -0.360366 0
M  V30 2700 C 254.517 -1.07778 -1.63946 0
M  V30 2701 O 253.642 -0.326718 -2.13919 0
M  V30 2702 C 254.237 -3.32297 -0.660595 0
M  V30 2703 C 252.796 -3.59227 -1.12398 0
M  V30 2704 C 251.943 -2.76877 -0.153097 0
M  V30 2705 H 254.894 -1.54008 0.383031 0
M  V30 2706 H 254.915 -3.4908 -1.51405 0
M  V30 2707 H 254.427 -3.87156 0.270527 0
M  V30 2708 H 252.528 -3.09766 -2.07064 0
M  V30 2709 H 252.641 -4.67632 -1.04197 0
M  V30 2710 H 251.005 -2.46319 -0.647983 0
M  V30 2711 H 251.788 -3.34511 0.77182 0
M  V30 2712 N 254.233 0.115231 -1.57178 0
M  V30 2713 C 255.163 1.1423 -2.03651 0
M  V30 2714 C 256.144 1.42967 -0.921655 0
M  V30 2715 O 257.329 1.53343 -1.19162 0
M  V30 2716 C 254.459 2.4675 -2.44401 0
M  V30 2717 C 253.413 2.32467 -3.59365 0
M  V30 2718 C 252.739 3.69984 -3.86026 0
M  V30 2719 C 254.039 1.78203 -4.90959 0
M  V30 2720 H 255.733 0.755749 -2.89705 0
M  V30 2721 H 253.279 0.362093 -1.39373 0
M  V30 2722 H 255.232 3.18854 -2.75517 0
M  V30 2723 H 253.956 2.87302 -1.55322 0
M  V30 2724 H 252.615 1.62811 -3.28463 0
M  V30 2725 H 252.263 4.08028 -2.94147 0
M  V30 2726 H 251.963 3.61279 -4.63412 0
M  V30 2727 H 253.487 4.43587 -4.19599 0
M  V30 2728 H 254.901 2.40128 -5.20587 0
M  V30 2729 H 253.298 1.8031 -5.72371 0
M  V30 2730 H 254.368 0.739876 -4.79222 0
M  V30 2731 N 255.711 1.52812 0.385517 0
M  V30 2732 C 256.641 1.80808 1.47752 0
M  V30 2733 C 257.622 0.660318 1.5676 0
M  V30 2734 O 258.807 0.908246 1.71652 0
M  V30 2735 C 255.937 1.98008 2.85324 0
M  V30 2736 C 254.891 3.13709 2.91154 0
M  V30 2737 C 254.217 3.16169 4.31209 0
M  V30 2738 C 255.517 4.52709 2.60483 0
M  V30 2739 H 257.211 2.72253 1.24573 0
M  V30 2740 H 254.757 1.31003 0.597839 0
M  V30 2741 H 256.71 2.16176 3.61726 0
M  V30 2742 H 255.434 1.03255 3.09848 0
M  V30 2743 H 254.093 2.95329 2.17201 0
M  V30 2744 H 253.741 2.19092 4.52778 0
M  V30 2745 H 253.441 3.93894 4.36029 0
M  V30 2746 H 254.965 3.36496 5.09512 0
M  V30 2747 H 256.379 4.71173 3.26602 0
M  V30 2748 H 254.776 5.32528 2.76648 0
M  V30 2749 H 255.846 4.59186 1.55809 0
M  V30 2750 N 257.189 -0.644168 1.43834 0
M  V30 2751 C 258.437 -1.40117 1.45642 0
M  V30 2752 C 258.758 -1.94814 0.0852413 0
M  V30 2753 O 258.028 -1.74988 -0.880688 0
M  V30 2754 H 256.608 -0.52005 0.536243 0
M  V30 2755 H 259.27 -0.7591 1.7951 0
M  V30 2756 H 258.366 -2.23902 2.17427 0
M  V30 2757 N 258.668 -1.30515 -0.883378 0
M  V30 2758 C 260.079 -1.17509 -1.45081 0
M  V30 2759 C 260.43 0.223605 -1.94922 0
M  V30 2760 O 259.555 1.12041 -1.85137 0
M  V30 2761 C 260.15 -2.12715 -2.63701 0
M  V30 2762 C 258.709 -2.03682 -3.16529 0
M  V30 2763 C 257.856 -2.02706 -1.89224 0
M  V30 2764 H 260.807 -1.42762 -0.693165 0
M  V30 2765 H 260.828 -1.70891 -3.39965 0
M  V30 2766 H 260.34 -3.14505 -2.27395 0
M  V30 2767 H 258.441 -1.05039 -3.57488 0
M  V30 2768 H 258.554 -2.92146 -3.7972 0
M  V30 2769 H 256.918 -1.4753 -2.07622 0
M  V30 2770 H 257.701 -3.06229 -1.55174 0
M  V30 2771 N 260.146 1.09593 -1.13257 0
M  V30 2772 C 261.376 1.85231 -0.915049 0
M  V30 2773 C 261.784 1.81345 0.539498 0
M  V30 2774 O 261.127 1.20664 1.38513 0
M  V30 2775 C 261.189 3.34275 -1.3229 0
M  V30 2776 C 260.853 3.6191 -2.79052 0
M  V30 2777 C 261.85 3.57777 -3.77216 0
M  V30 2778 C 259.535 3.90309 -3.16171 0
M  V30 2779 C 261.529 3.81652 -5.1051 0
M  V30 2780 C 259.216 4.13839 -4.49644 0
M  V30 2781 C 260.214 4.09502 -5.46623 0
M  V30 2782 O 259.902 4.32426 -6.77689 0
M  V30 2783 H 259.634 0.591997 -0.326367 0
M  V30 2784 H 262.188 1.394 -1.50854 0
M  V30 2785 H 260.418 3.80805 -0.672667 0
M  V30 2786 H 262.107 3.9132 -1.07812 0
M  V30 2787 H 262.873 3.35865 -3.49885 0
M  V30 2788 H 258.752 3.92811 -2.41289 0
M  V30 2789 H 262.296 3.78182 -5.86195 0
M  V30 2790 H 258.193 4.35232 -4.767 0
M  V30 2791 H 258.961 4.49896 -6.83766 0
M  V30 2792 N 261.624 0.925811 1.2754 0
M  V30 2793 C 262.87 0.566092 1.94739 0
M  V30 2794 C 263.203 -0.890057 1.72603 0
M  V30 2795 O 262.478 -1.63467 1.05399 0
M  V30 2796 C 262.761 0.89054 3.48915 0
M  V30 2797 C 262.614 2.4003 3.80402 0
M  V30 2798 C 263.933 0.395101 4.38323 0
M  V30 2799 H 261.052 0.20714 0.707292 0
M  V30 2800 H 263.694 1.15725 1.50691 0
M  V30 2801 H 261.844 0.387452 3.86563 0
M  V30 2802 H 263.516 2.97494 3.52555 0
M  V30 2803 H 261.759 2.85028 3.2702 0
M  V30 2804 H 262.43 2.57785 4.8811 0
M  V30 2805 H 264.906 0.826241 4.07814 0
M  V30 2806 H 263.782 0.651086 5.45025 0
M  V30 2807 H 264.043 -0.704798 4.36446 0
M  V30 2808 N 263.102 -1.41638 0.69111 0
M  V30 2809 C 264.012 -2.34588 0.0233487 0
M  V30 2810 C 265.028 -1.55987 -0.770984 0
M  V30 2811 O 266.204 -1.88486 -0.709569 0
M  V30 2812 C 263.269 -3.34684 -0.904851 0
M  V30 2813 C 262.33 -4.29176 -0.103225 0
M  V30 2814 C 261.563 -5.2449 -0.987216 0
M  V30 2815 O 261.786 -5.2514 -2.22674 0
M  V30 2816 O 260.72 -6.00295 -0.439281 0
M  V30 2817 H 264.546 -2.93261 0.789416 0
M  V30 2818 H 262.131 -1.42417 0.45142 0
M  V30 2819 H 264.013 -3.96133 -1.43724 0
M  V30 2820 H 262.688 -2.78461 -1.65049 0
M  V30 2821 H 261.595 -3.71089 0.473655 0
M  V30 2822 H 262.928 -4.88484 0.60365 0
M  V30 2823 N 264.58 -0.43555 -1.51462 0
M  V30 2824 C 265.857 0.191364 -1.94662 0
M  V30 2825 C 266.237 1.60254 -1.37411 0
M  V30 2826 O 265.585 2.2152 -0.560458 0
M  V30 2827 C 265.795 0.17091 -3.48581 0
M  V30 2828 C 267.143 0.377357 -4.2292 0
M  V30 2829 O 268.167 0.249104 -3.55328 0
M  V30 2830 O 267.026 0.63247 -5.42828 0
M  V30 2831 H 264.12 0.130932 -0.816569 0
M  V30 2832 H 266.666 -0.4934 -1.62369 0
M  V30 2833 H 265.438 -0.815738 -3.82703 0
M  V30 2834 H 265.061 0.898659 -3.87311 0
M  V30 2835 N 266.058 1.56714 -0.166846 0
M  V30 2836 C 266.988 2.20754 0.760913 0
M  V30 2837 C 267.969 1.16178 1.24244 0
M  V30 2838 O 269.154 1.44592 1.29641 0
M  V30 2839 C 266.284 2.84478 1.99223 0
M  V30 2840 C 265.238 3.95053 1.64672 0
M  V30 2841 C 264.564 4.45805 2.95232 0
M  V30 2842 C 265.864 5.14865 0.878155 0
M  V30 2843 H 267.558 2.98537 0.22713 0
M  V30 2844 H 265.104 1.43596 0.107805 0
M  V30 2845 H 267.057 3.27951 2.64624 0
M  V30 2846 H 265.781 2.04056 2.55007 0
M  V30 2847 H 264.44 3.52228 1.01641 0
M  V30 2848 H 264.088 3.62181 3.49047 0
M  V30 2849 H 263.788 5.204 2.7287 0
M  V30 2850 H 265.312 4.91962 3.6167 0
M  V30 2851 H 266.726 5.55059 1.43466 0
M  V30 2852 H 265.123 5.95348 0.753738 0
M  V30 2853 H 266.193 4.84735 -0.126377 0
M  V30 2854 N 267.536 -0.106894 1.57237 0
M  V30 2855 C 268.761 -0.830287 1.90055 0
M  V30 2856 C 269.186 -1.72064 0.75998 0
M  V30 2857 O 268.544 -1.78982 -0.288991 0
M  V30 2858 C 268.592 -1.6295 3.21683 0
M  V30 2859 O 267.696 -2.73748 3.08441 0
M  V30 2860 H 267.037 -0.228855 0.623315 0
M  V30 2861 H 269.567 -0.085658 2.04421 0
M  V30 2862 H 269.577 -2.01621 3.54701 0
M  V30 2863 H 268.252 -0.975989 4.04286 0
M  V30 2864 H 266.829 -2.38192 2.86913 0
M  V30 2865 N 269.014 -1.53014 -0.377408 0
M  V30 2866 C 269.961 -1.78616 -1.46168 0
M  V30 2867 C 270.931 -0.629917 -1.53692 0
M  V30 2868 O 272.116 -0.870861 -1.69766 0
M  V30 2869 C 269.256 -1.97123 -2.8326 0
M  V30 2870 C 268.369 -3.24831 -2.84796 0
M  V30 2871 C 267.504 -3.33591 -4.13389 0
M  V30 2872 C 266.543 -4.55377 -4.09021 0
M  V30 2873 N 265.68 -4.61355 -5.29241 0
M  V30 2874 H 270.52 -2.71142 -1.23637 0
M  V30 2875 H 268.057 -1.34326 -0.599577 0
M  V30 2876 H 270.015 -2.05839 -3.62886 0
M  V30 2877 H 268.645 -1.07946 -3.04216 0
M  V30 2878 H 267.697 -3.25128 -1.97474 0
M  V30 2879 H 269.009 -4.14523 -2.77439 0
M  V30 2880 H 268.163 -3.41554 -5.01424 0
M  V30 2881 H 266.902 -2.41894 -4.23484 0
M  V30 2882 H 265.907 -4.47527 -3.19373 0
M  V30 2883 H 267.132 -5.48402 -4.00539 0
M  V30 2884 H 265.078 -3.72554 -5.39944 0
M  V30 2885 H 264.995 -5.44935 -5.24006 0
M  V30 2886 H 266.263 -4.73586 -6.19141 0
M  V30 2887 N 270.492 0.636531 -1.44174 0
M  V30 2888 C 271.422 1.76003 -1.53444 0
M  V30 2889 C 272.403 1.65619 -0.387841 0
M  V30 2890 O 273.588 1.84461 -0.607257 0
M  V30 2891 C 270.718 3.14511 -1.4731 0
M  V30 2892 C 269.672 3.39677 -2.60391 0
M  V30 2893 C 268.998 4.78159 -2.39308 0
M  V30 2894 C 270.298 3.32772 -4.02567 0
M  V30 2895 H 271.992 1.68501 -2.47483 0
M  V30 2896 H 269.538 0.809237 -1.19111 0
M  V30 2897 H 271.491 3.92878 -1.52397 0
M  V30 2898 H 270.215 3.22783 -0.49785 0
M  V30 2899 H 268.874 2.63688 -2.54684 0
M  V30 2900 H 268.522 4.83128 -1.39988 0
M  V30 2901 H 268.222 4.95956 -3.15122 0
M  V30 2902 H 269.746 5.58762 -2.46205 0
M  V30 2903 H 271.16 4.01051 -4.09672 0
M  V30 2904 H 269.557 3.62104 -4.7854 0
M  V30 2905 H 270.627 2.30669 -4.2652 0
M  V30 2906 N 271.97 1.30982 0.876444 0
M  V30 2907 C 272.933 1.18054 1.96459 0
M  V30 2908 C 273.933 0.109399 1.60427 0
M  V30 2909 O 275.123 0.358173 1.70478 0
M  V30 2910 C 272.255 0.810616 3.31122 0
M  V30 2911 H 273.448 2.14735 2.09354 0
M  V30 2912 H 271.001 1.145 1.06392 0
M  V30 2913 H 271.736 -0.155322 3.23928 0
M  V30 2914 H 271.521 1.58481 3.58645 0
M  V30 2915 H 273.011 0.743876 4.10921 0
M  V30 2916 N 273.449 -1.08991 1.13837 0
M  V30 2917 C 274.695 -1.81526 0.90422 0
M  V30 2918 C 275.028 -1.85706 -0.568066 0
M  V30 2919 O 274.303 -1.32855 -1.42056 0
M  V30 2920 C 274.586 -3.27447 1.49835 0
M  V30 2921 C 274.439 -3.31512 3.04006 0
M  V30 2922 C 275.758 -4.24256 1.17025 0
M  V30 2923 H 272.877 -0.659029 0.329923 0
M  V30 2924 H 275.519 -1.27644 1.40737 0
M  V30 2925 H 273.669 -3.73462 1.07044 0
M  V30 2926 H 275.341 -2.93867 3.55584 0
M  V30 2927 H 273.584 -2.70963 3.38765 0
M  V30 2928 H 274.255 -4.34329 3.40679 0
M  V30 2929 H 276.731 -3.86549 1.54009 0
M  V30 2930 H 275.607 -5.24684 1.61237 0
M  V30 2931 H 275.868 -4.42019 0.0846274 0
M  V30 2932 N 274.927 -0.932562 -1.27047 0
M  V30 2933 C 276.155 -0.592031 -1.98249 0
M  V30 2934 C 276.57 0.831062 -1.69525 0
M  V30 2935 O 275.927 1.55299 -0.958561 0
M  V30 2936 C 275.978 -0.814279 -3.5221 0
M  V30 2937 O 275.699 -2.18139 -3.7993 0
M  V30 2938 C 277.2 -0.483121 -4.4066 0
M  V30 2939 H 274.42 -0.223896 -0.632544 0
M  V30 2940 H 276.964 -1.25091 -1.61779 0
M  V30 2941 H 275.119 -0.20213 -3.86872 0
M  V30 2942 H 275.533 -2.235 -4.74498 0
M  V30 2943 H 277.007 -0.689298 -5.47679 0
M  V30 2944 H 277.484 0.581546 -4.35333 0
M  V30 2945 H 278.09 -1.07362 -4.11526 0
M  V30 2946 N 276.405 1.4127 -0.698611 0
M  V30 2947 C 277.63 2.06024 -0.238512 0
M  V30 2948 C 278.055 1.5224 1.10475 0
M  V30 2949 O 277.413 0.650623 1.69223 0
M  V30 2950 C 277.461 3.59988 -0.209952 0
M  V30 2951 O 276.565 4.04282 0.814235 0
M  V30 2952 H 275.906 0.653829 -0.115775 0
M  V30 2953 H 278.436 1.8098 -0.954326 0
M  V30 2954 H 278.446 4.07979 -0.0418436 0
M  V30 2955 H 277.121 3.98503 -1.1903 0
M  V30 2956 H 275.698 3.6779 0.615234 0
M  V30 2957 N 277.883 0.443576 1.51229 0
M  V30 2958 C 279.113 -0.119117 2.06256 0
M  V30 2959 C 279.521 -1.36471 1.31043 0
M  V30 2960 O 278.864 -1.80034 0.365151 0
M  V30 2961 C 278.926 -0.500546 3.55998 0
M  V30 2962 C 278.59 0.639125 4.52509 0
M  V30 2963 C 279.587 1.51311 4.97394 0
M  V30 2964 C 277.272 0.821632 4.95535 0
M  V30 2965 C 279.266 2.55425 5.83984 0
M  V30 2966 C 276.953 1.86603 5.81913 0
M  V30 2967 C 277.951 2.73072 6.26036 0
M  V30 2968 O 277.639 3.75718 7.10698 0
M  V30 2969 H 277.371 -0.00857665 0.675946 0
M  V30 2970 H 279.925 0.623288 1.95715 0
M  V30 2971 H 278.155 -1.29575 3.64345 0
M  V30 2972 H 279.844 -0.995116 3.93513 0
M  V30 2973 H 280.61 1.38367 4.64844 0
M  V30 2974 H 276.489 0.158149 4.60729 0
M  V30 2975 H 280.033 3.22949 6.18344 0
M  V30 2976 H 275.93 1.99564 6.13876 0
M  V30 2977 H 276.698 3.72374 7.2889 0
M  V30 2978 N 279.361 -1.56624 0.175154 0
M  V30 2979 C 280.309 -2.19468 -0.770495 0
M  V30 2980 C 281.303 -1.15985 -1.23466 0
M  V30 2981 O 282.509 -1.34176 -1.19987 0
M  V30 2982 H 278.884 -0.703095 -0.266761 0
M  V30 2983 H 280.855 -2.97613 -0.216542 0
M  V30 2984 C 279.604 -2.85264 -1.98796 0
M  V30 2985 H 278.927 -3.64623 -1.63983 0
M  V30 2986 H 280.367 -3.327 -2.62843 0
M  V30 2987 C 278.826 -1.85239 -2.81404 0
M  V30 2988 O 279.356 -1.34024 -3.78682 0
M  V30 2989 N 277.562 -1.53911 -2.46495 0
M  V30 2990 H 277.109 -1.95751 -1.67449 0
M  V30 2991 H 277.067 -0.872382 -3.02054 0
M  V30 2992 N 280.839 0.0985539 -1.57292 0
M  V30 2993 C 282.116 0.834155 -1.76921 0
M  V30 2994 C 282.496 1.97101 -0.755928 0
M  V30 2995 O 281.844 2.27474 0.216245 0
M  V30 2996 C 282.054 1.33194 -3.22584 0
M  V30 2997 C 283.402 1.77611 -3.85668 0
M  V30 2998 O 284.426 1.42825 -3.26312 0
M  V30 2999 O 283.285 2.4192 -4.90038 0
M  V30 3000 H 280.379 0.397628 -0.725135 0
M  V30 3001 H 282.925 0.0807044 -1.69508 0
M  V30 3002 H 281.697 0.517248 -3.87866 0
M  V30 3003 H 281.32 2.1475 -3.34616 0
M  V30 3004 N 282.317 1.53212 0.369288 0
M  V30 3005 C 283.566 1.68436 1.10961 0
M  V30 3006 C 283.879 0.440738 1.9057 0
M  V30 3007 O 285.085 0.473446 2.6734 0
M  V30 3008 C 283.541 2.97744 2.0218 0
M  V30 3009 C 283.149 4.29355 1.279 0
M  V30 3010 C 284.893 3.22334 2.76226 0
M  V30 3011 C 282.8 5.49755 2.17999 0
M  V30 3012 H 281.73 0.627568 0.41794 0
M  V30 3013 H 284.381 1.79713 0.370884 0
M  V30 3014 H 282.763 2.8026 2.79768 0
M  V30 3015 H 283.937 4.57458 0.554007 0
M  V30 3016 H 282.252 4.11179 0.657311 0
M  V30 3017 H 284.849 4.09471 3.43857 0
M  V30 3018 H 285.192 2.38238 3.41392 0
M  V30 3019 H 285.725 3.40475 2.05723 0
M  V30 3020 H 282.464 6.36318 1.57417 0
M  V30 3021 H 281.984 5.25937 2.88359 0
M  V30 3022 H 283.663 5.84401 2.77641 0
M  V30 3023 N 283.795 -0.628877 1.44509 0
M  V30 3024 C 284.727 -1.754 1.47538 0
M  V30 3025 C 285.74 -1.58575 0.368506 0
M  V30 3026 O 286.929 -1.66847 0.634376 0
M  V30 3027 C 284.029 -3.1315 1.29577 0
M  V30 3028 C 283.202 -3.56413 2.53551 0
M  V30 3029 C 282.261 -4.7305 2.30457 0
M  V30 3030 O 281.287 -4.81247 3.03957 0
M  V30 3031 N 282.489 -5.64903 1.3366 0
M  V30 3032 H 285.254 -1.73272 2.44534 0
M  V30 3033 H 282.815 -0.813512 1.39977 0
M  V30 3034 H 284.807 -3.88902 1.11971 0
M  V30 3035 H 283.377 -3.09908 0.409371 0
M  V30 3036 H 282.597 -2.70847 2.86419 0
M  V30 3037 H 283.885 -3.82071 3.36005 0
M  V30 3038 H 283.283 -5.60975 0.729604 0
M  V30 3039 H 281.84 -6.40275 1.22032 0
M  V30 3040 N 285.273 -1.31445 -0.869486 0
M  V30 3041 C 286.55 -1.11795 -1.60503 0
M  V30 3042 C 286.93 0.327168 -2.08549 0
M  V30 3043 O 286.278 1.32135 -1.8642 0
M  V30 3044 C 286.488 -2.13258 -2.76265 0
M  V30 3045 C 287.836 -2.45805 -3.46215 0
M  V30 3046 O 288.86 -2.11688 -2.86473 0
M  V30 3047 O 287.719 -3.04228 -4.5399 0
M  V30 3048 H 284.813 -0.430421 -0.706163 0
M  V30 3049 H 287.359 -1.42925 -0.914907 0
M  V30 3050 H 286.131 -3.10461 -2.3818 0
M  V30 3051 H 285.754 -1.83035 -3.52964 0
M  V30 3052 N 286.751 1.08385 -1.14413 0
M  V30 3053 C 287.681 2.17321 -0.854044 0
M  V30 3054 C 288.662 1.69024 0.191049 0
M  V30 3055 O 289.847 1.94141 0.0476779 0
M  V30 3056 C 286.977 3.45719 -0.330983 0
M  V30 3057 C 285.931 4.07409 -1.31155 0
M  V30 3058 C 285.257 5.30762 -0.64778 0
M  V30 3059 C 286.557 4.48665 -2.67388 0
M  V30 3060 H 288.251 2.41845 -1.76498 0
M  V30 3061 H 285.797 1.16233 -0.850051 0
M  V30 3062 H 287.75 4.21241 -0.115645 0
M  V30 3063 H 286.474 3.2075 0.615381 0
M  V30 3064 H 285.133 3.33919 -1.51306 0
M  V30 3065 H 284.781 5.02078 0.304398 0
M  V30 3066 H 284.481 5.72992 -1.30207 0
M  V30 3067 H 286.005 6.08998 -0.441972 0
M  V30 3068 H 287.419 5.15364 -2.51143 0
M  V30 3069 H 285.816 5.01814 -3.29093 0
M  V30 3070 H 286.886 3.60543 -3.24248 0
M  V30 3071 N 288.23 0.939286 1.26551 0
M  V30 3072 C 289.163 0.391702 2.24813 0
M  V30 3073 C 290.141 -0.518421 1.54114 0
M  V30 3074 O 291.325 -0.456299 1.82894 0
M  V30 3075 C 288.452 -0.437382 3.35864 0
M  V30 3076 C 287.498 0.410946 4.24516 0
M  V30 3077 S 288.331 1.83372 5.03125 0
M  V30 3078 C 289.487 1.01264 6.17654 0
M  V30 3079 H 289.72 1.22448 2.70913 0
M  V30 3080 H 287.253 0.742269 1.35387 0
M  V30 3081 H 289.211 -0.909837 4.0029 0
M  V30 3082 H 287.872 -1.24482 2.8838 0
M  V30 3083 H 287.065 -0.224191 5.03501 0
M  V30 3084 H 286.667 0.818014 3.64945 0
M  V30 3085 H 288.959 0.254023 6.77024 0
M  V30 3086 H 289.902 1.77589 6.85469 0
M  V30 3087 H 290.31 0.549532 5.61819 0
M  V30 3088 N 289.708 -1.40897 0.706093 0
M  V30 3089 C 290.985 -1.94868 0.169099 0
M  V30 3090 C 291.365 -1.64485 -1.32318 0
M  V30 3091 O 290.713 -0.95744 -2.07474 0
M  V30 3092 C 290.923 -3.45798 0.471654 0
M  V30 3093 C 292.271 -4.22663 0.405127 0
M  V30 3094 O 293.295 -3.53865 0.407168 0
M  V30 3095 O 292.154 -5.45216 0.374383 0
M  V30 3096 H 289.248 -0.82673 0.0211352 0
M  V30 3097 H 291.794 -1.50558 0.782976 0
M  V30 3098 H 290.566 -3.61235 1.50416 0
M  V30 3099 H 290.189 -3.97225 -0.172666 0
M  V30 3100 N 291.186 -0.45159 -1.50991 0
M  V30 3101 C 292.411 0.110667 -2.07105 0
M  V30 3102 C 292.836 1.3446 -1.31538 0
M  V30 3103 O 292.194 1.77743 -0.357365 0
M  V30 3104 C 292.242 0.397238 -3.58405 0
M  V30 3105 O 291.346 1.48124 -3.84881 0
M  V30 3106 H 290.687 -0.00439271 -0.663985 0
M  V30 3107 H 293.217 -0.637026 -1.9443 0
M  V30 3108 H 293.227 0.64351 -4.02893 0
M  V30 3109 H 291.902 -0.504553 -4.12828 0
M  V30 3110 H 290.479 1.22381 -3.52246 0
M  V30 3111 N 292.664 1.56529 -0.183458 0
M  V30 3112 C 293.912 1.96855 0.457452 0
M  V30 3113 C 294.233 1.07104 1.62953 0
M  V30 3114 O 293.503 0.139887 1.954 0
M  V30 3115 H 292.083 0.72693 0.171992 0
M  V30 3116 H 294.745 1.93056 -0.267476 0
M  V30 3117 H 293.841 3.01423 0.809368 0
M  V30 3118 N 294.142 -0.090211 1.57342 0
M  V30 3119 C 295.09 -1.12792 2.03422 0
M  V30 3120 C 296.084 -1.41182 0.936166 0
M  V30 3121 O 297.29 -1.40805 1.12133 0
M  V30 3122 H 293.665 -0.380986 0.648347 0
M  V30 3123 H 295.636 -0.71299 2.89757 0
M  V30 3124 C 294.385 -2.43855 2.47851 0
M  V30 3125 H 293.708 -2.22855 3.31927 0
M  V30 3126 H 295.148 -3.14955 2.83865 0
M  V30 3127 C 293.607 -3.08503 1.3538 0
M  V30 3128 O 294.137 -3.95805 0.685641 0
M  V30 3129 N 292.343 -2.68831 1.10355 0
M  V30 3130 H 291.89 -1.97929 1.64869 0
M  V30 3131 H 291.848 -3.12412 0.353031 0
M  V30 3132 N 295.62 -1.53406 -0.361157 0
M  V30 3133 C 296.567 -1.80156 -1.44265 0
M  V30 3134 C 297.537 -0.646183 -1.53015 0
M  V30 3135 O 298.722 -0.888818 -1.68833 0
M  V30 3136 C 295.862 -2.00116 -2.81154 0
M  V30 3137 C 294.975 -3.27833 -2.81335 0
M  V30 3138 C 294.11 -3.37957 -4.09828 0
M  V30 3139 C 293.149 -4.59689 -4.04168 0
M  V30 3140 N 292.286 -4.66942 -5.24318 0
M  V30 3141 H 297.126 -2.72438 -1.20754 0
M  V30 3142 H 294.663 -1.34954 -0.585296 0
M  V30 3143 H 296.621 -2.09677 -3.60682 0
M  V30 3144 H 295.251 -1.11167 -3.03054 0
M  V30 3145 H 294.303 -3.27204 -1.94014 0
M  V30 3146 H 295.615 -4.17442 -2.73027 0
M  V30 3147 H 294.769 -3.46853 -4.97773 0
M  V30 3148 H 293.508 -2.46372 -4.20894 0
M  V30 3149 H 292.513 -4.50889 -3.14609 0
M  V30 3150 H 293.738 -5.5262 -3.947 0
M  V30 3151 H 291.684 -3.7826 -5.35962 0
M  V30 3152 H 291.601 -5.50462 -5.18197 0
M  V30 3153 H 292.869 -4.80127 -6.14084 0
M  V30 3154 N 297.098 0.621204 -1.44841 0
M  V30 3155 C 298.061 1.71459 -1.521 0
M  V30 3156 C 299.061 1.55696 -0.401933 0
M  V30 3157 O 300.251 1.61011 -0.664925 0
M  V30 3158 C 297.383 3.10624 -1.40447 0
M  V30 3159 H 298.576 1.66394 -2.49506 0
M  V30 3160 H 296.129 0.835745 -1.3208 0
M  V30 3161 H 296.864 3.21277 -0.441737 0
M  V30 3162 H 296.649 3.23473 -2.21602 0
M  V30 3163 H 298.139 3.90293 -1.4853 0
M  V30 3164 N 298.576 1.31904 0.862503 0
M  V30 3165 C 299.992 1.10724 1.14945 0
M  V30 3166 C 300.192 -0.117421 2.01158 0
M  V30 3167 O 299.248 -0.804595 2.39338 0
M  V30 3168 C 300.561 2.38267 1.83437 0
M  V30 3169 C 302.109 2.43949 1.96106 0
M  V30 3170 C 302.584 3.71394 2.68013 0
M  V30 3171 N 304.075 3.72331 2.75543 0
M  V30 3172 C 304.81 4.67641 3.31812 0
M  V30 3173 N 304.306 5.73313 3.88953 0
M  V30 3174 N 306.099 4.5515 3.29841 0
M  V30 3175 H 298.25 2.10436 0.288191 0
M  V30 3176 H 300.513 0.928705 0.190292 0
M  V30 3177 H 300.219 3.27759 1.27542 0
M  V30 3178 H 300.093 2.48633 2.83657 0
M  V30 3179 H 302.48 1.54922 2.51164 0
M  V30 3180 H 302.561 2.37543 0.949059 0
M  V30 3181 H 302.205 4.60791 2.13621 0
M  V30 3182 H 302.135 3.75069 3.69636 0
M  V30 3183 H 304.626 2.95947 2.34997 0
M  V30 3184 H 304.939 6.42107 4.30022 0
M  V30 3185 H 303.284 5.77077 3.87308 0
M  V30 3186 H 306.475 3.71766 2.84443 0
M  V30 3187 H 306.648 5.29604 3.73394 0
M  V30 3188 N 300.054 -1.07777 1.14986 0
M  V30 3189 C 301.282 -1.84018 0.945773 0
M  V30 3190 C 301.697 -1.81897 -0.505863 0
M  V30 3191 O 301.054 -1.22726 -1.35072 0
M  V30 3192 C 301.105 -3.31287 1.44677 0
M  V30 3193 O 300.826 -3.33449 2.84154 0
M  V30 3194 C 302.327 -4.24311 1.28355 0
M  V30 3195 H 299.547 -0.580716 0.336169 0
M  V30 3196 H 302.091 -1.36077 1.52654 0
M  V30 3197 H 300.246 -3.76594 0.908625 0
M  V30 3198 H 300.66 -4.25427 3.06777 0
M  V30 3199 H 302.134 -5.2573 1.68261 0
M  V30 3200 H 302.611 -4.38612 0.227184 0
M  V30 3201 H 303.217 -3.84836 1.81056 0
M  V30 3202 N 301.532 -0.945985 -1.26051 0
M  V30 3203 C 302.778 -0.597002 -1.93814 0
M  V30 3204 C 303.111 0.862484 -1.73997 0
M  V30 3205 O 302.386 1.61769 -1.07986 0
M  V30 3206 C 302.669 -0.945937 -3.47454 0
M  V30 3207 C 302.522 -2.46052 -3.76535 0
M  V30 3208 C 303.841 -0.464785 -4.37639 0
M  V30 3209 H 300.96 -0.218366 -0.703907 0
M  V30 3210 H 303.602 -1.18107 -1.48831 0
M  V30 3211 H 301.752 -0.448902 -3.85898 0
M  V30 3212 H 303.424 -3.03065 -3.47778 0
M  V30 3213 H 301.667 -2.90194 -3.22444 0
M  V30 3214 H 302.338 -2.65517 -4.83947 0
M  V30 3215 H 304.814 -0.891016 -4.06448 0
M  V30 3216 H 303.69 -0.737712 -5.4392 0
M  V30 3217 H 303.951 0.635274 -4.37512 0
M  V30 3218 N 303.011 1.40521 -0.713556 0
M  V30 3219 C 303.974 2.29098 -0.0684347 0
M  V30 3220 C 304.974 1.45268 0.689472 0
M  V30 3221 O 306.164 1.66205 0.521677 0
M  V30 3222 C 303.296 3.28446 0.913024 0
M  V30 3223 H 304.489 2.87645 -0.84855 0
M  V30 3224 H 302.042 1.48809 -0.47809 0
M  V30 3225 H 302.777 2.74913 1.72027 0
M  V30 3226 H 302.562 3.90327 0.372472 0
M  V30 3227 H 304.052 3.94777 1.36165 0
M  V30 3228 N 304.489 0.459591 1.5075 0
M  V30 3229 C 305.452 -0.329093 2.26825 0
M  V30 3230 C 306.452 -0.930481 1.31144 0
M  V30 3231 O 307.642 -0.801453 1.54669 0
M  V30 3232 C 304.774 -1.46768 3.07688 0
M  V30 3233 H 305.967 0.337924 2.9799 0
M  V30 3234 H 303.52 0.213336 1.54837 0
M  V30 3235 H 304.255 -2.17009 2.40993 0
M  V30 3236 H 304.04 -1.04238 3.77991 0
M  V30 3237 H 305.53 -2.02433 3.65254 0
M  V30 3238 N 305.967 -1.56429 0.191757 0
M  V30 3239 C 307.195 -2.01867 -0.453586 0
M  V30 3240 C 307.61 -1.07191 -1.5542 0
M  V30 3241 O 306.967 -0.0762108 -1.82341 0
M  V30 3242 C 307.018 -3.47017 -1.013 0
M  V30 3243 O 306.739 -4.38078 0.0437005 0
M  V30 3244 C 308.24 -4.07956 -1.73456 0
M  V30 3245 H 305.46 -0.661211 -0.114199 0
M  V30 3246 H 308.004 -2.02295 0.299483 0
M  V30 3247 H 306.159 -3.47298 -1.71647 0
M  V30 3248 H 306.573 -5.23178 -0.372212 0
M  V30 3249 H 308.047 -5.1138 -2.07833 0
M  V30 3250 H 308.524 -3.51222 -2.63704 0
M  V30 3251 H 309.13 -4.11437 -1.07702 0
M  V30 3252 N 307.445 0.0818655 -1.57387 0
M  V30 3253 C 308.393 1.11712 -2.04018 0
M  V30 3254 C 309.387 1.40683 -0.94364 0
M  V30 3255 O 310.593 1.40209 -1.12878 0
M  V30 3256 H 306.968 0.377542 -0.650358 0
M  V30 3257 H 308.939 0.697614 -2.90131 0
M  V30 3258 C 307.688 2.42537 -2.49141 0
M  V30 3259 H 307.011 2.21092 -3.33104 0
M  V30 3260 H 308.451 3.13446 -2.85531 0
M  V30 3261 C 306.91 3.0778 -1.37014 0
M  V30 3262 O 307.44 3.95436 -0.706621 0
M  V30 3263 N 305.646 2.68242 -1.11779 0
M  V30 3264 H 305.193 1.97052 -1.65917 0
M  V30 3265 H 305.151 3.1222 -0.369594 0
M  V30 3266 N 308.923 1.53595 0.353017 0
M  V30 3267 C 309.856 1.7572 1.45594 0
M  V30 3268 C 310.834 0.605961 1.50887 0
M  V30 3269 O 312.018 0.840023 1.68748 0
M  V30 3270 C 309.145 1.84732 2.83887 0
M  V30 3271 C 308.191 3.06808 2.96262 0
M  V30 3272 S 309.024 4.66065 2.63711 0
M  V30 3273 C 310.18 4.77943 4.04131 0
M  V30 3274 H 310.413 2.68994 1.26608 0
M  V30 3275 H 307.946 1.44343 0.548117 0
M  V30 3276 H 309.904 1.9061 3.63563 0
M  V30 3277 H 308.565 0.92488 3.00175 0
M  V30 3278 H 307.758 3.09761 3.97573 0
M  V30 3279 H 307.36 2.99108 2.24523 0
M  V30 3280 H 309.652 4.5877 4.98534 0
M  V30 3281 H 310.595 5.80022 4.06177 0
M  V30 3282 H 311.003 4.06472 3.91715 0
M  V30 3283 N 310.401 -0.613514 1.45168 0
M  V30 3284 C 311.349 -1.74572 1.53712 0
M  V30 3285 C 312.343 -1.64426 0.407505 0
M  V30 3286 O 313.549 -1.70291 0.583176 0
M  V30 3287 H 309.924 -0.576641 0.48269 0
M  V30 3288 H 311.895 -1.64492 2.48968 0
M  V30 3289 C 310.644 -3.12943 1.51532 0
M  V30 3290 H 309.967 -3.21407 2.37776 0
M  V30 3291 H 311.407 -3.9201 1.61569 0
M  V30 3292 C 309.866 -3.36053 0.238798 0
M  V30 3293 O 310.396 -3.95837 -0.6838 0
M  V30 3294 N 308.602 -2.9028 0.136359 0
M  V30 3295 H 308.149 -2.41811 0.887999 0
M  V30 3296 H 308.107 -3.06116 -0.716944 0
M  V30 3297 N 311.879 -1.3236 -0.855495 0
M  V30 3298 C 312.789 -1.23221 -1.99634 0
M  V30 3299 C 313.805 -0.145983 -1.73387 0
M  V30 3300 O 314.981 -0.366502 -1.98037 0
M  V30 3301 C 312.046 -0.954782 -3.33294 0
M  V30 3302 C 311.107 -2.12937 -3.72769 0
M  V30 3303 C 310.34 -1.86508 -5.00051 0
M  V30 3304 O 310.563 -0.807231 -5.64659 0
M  V30 3305 O 309.497 -2.72591 -5.36636 0
M  V30 3306 H 313.323 -2.19126 -2.1028 0
M  V30 3307 H 310.908 -1.12241 -0.986018 0
M  V30 3308 H 312.79 -0.816519 -4.13414 0
M  V30 3309 H 311.465 -0.0258854 -3.2369 0
M  V30 3310 H 310.372 -2.3231 -2.93228 0
M  V30 3311 H 311.705 -3.04102 -3.87018 0
M  V30 3312 N 313.357 1.07166 -1.15556 0
M  V30 3313 C 314.585 1.83514 -0.955519 0
M  V30 3314 C 315 1.82163 0.49621 0
M  V30 3315 O 314.357 1.23441 1.34419 0
M  V30 3316 C 314.408 3.30515 -1.46432 0
M  V30 3317 O 314.129 3.31937 -2.85918 0
M  V30 3318 C 315.63 4.23625 -1.30603 0
M  V30 3319 H 312.85 0.578926 -0.339244 0
M  V30 3320 H 315.394 1.35265 -1.53374 0
M  V30 3321 H 313.549 3.76106 -0.928584 0
M  V30 3322 H 313.963 4.23794 -3.09029 0
M  V30 3323 H 315.437 5.24831 -1.71047 0
M  V30 3324 H 315.914 4.38485 -0.250441 0
M  V30 3325 H 316.52 3.83871 -1.83094 0
M  V30 3326 N 314.835 0.952656 1.25548 0
M  V30 3327 C 316.06 0.623025 1.97821 0
M  V30 3328 C 316.485 -0.7976 1.70352 0
M  V30 3329 O 315.843 -1.53905 0.958283 0
M  V30 3330 C 315.891 0.885532 3.49558 0
M  V30 3331 O 314.995 -0.0366641 4.12384 0
M  V30 3332 H 314.336 0.237082 0.620232 0
M  V30 3333 H 316.866 1.27871 1.59719 0
M  V30 3334 H 316.876 0.811009 3.99858 0
M  V30 3335 H 315.551 1.92094 3.6888 0
M  V30 3336 H 314.128 0.0898954 3.72792 0
M  V30 3337 N 316.313 -1.40141 0.720998 0
M  V30 3338 C 317.538 -2.05618 0.271258 0
M  V30 3339 C 317.963 -1.53978 -1.08039 0
M  V30 3340 O 317.321 -0.677463 -1.68167 0
M  V30 3341 C 317.369 -3.59609 0.267197 0
M  V30 3342 O 316.473 -4.05526 -0.749814 0
M  V30 3343 H 315.814 -0.651904 0.126162 0
M  V30 3344 H 318.344 -1.79439 0.982997 0
M  V30 3345 H 318.354 -4.0786 0.106744 0
M  V30 3346 H 317.029 -3.96559 1.25354 0
M  V30 3347 H 315.606 -3.68722 -0.556644 0
M  V30 3348 N 317.792 -0.46758 -1.50504 0
M  V30 3349 C 319.208 -0.121533 -1.59137 0
M  V30 3350 C 319.408 1.3717 -1.47603 0
M  V30 3351 O 318.464 2.14464 -1.33272 0
M  V30 3352 C 319.777 -0.6686 -2.93173 0
M  V30 3353 C 321.325 -0.631716 -3.06559 0
M  V30 3354 C 321.8 -1.15627 -4.43164 0
M  V30 3355 N 323.291 -1.11553 -4.49567 0
M  V30 3356 C 324.026 -1.49195 -5.5365 0
M  V30 3357 N 323.522 -1.94269 -6.65005 0
M  V30 3358 N 325.315 -1.4082 -5.44175 0
M  V30 3359 H 317.466 -1.4388 -1.56245 0
M  V30 3360 H 319.729 -0.594784 -0.738198 0
M  V30 3361 H 319.435 -1.71453 -3.07078 0
M  V30 3362 H 319.309 -0.11021 -3.77039 0
M  V30 3363 H 321.696 0.405297 -2.92304 0
M  V30 3364 H 321.777 -1.22687 -2.24458 0
M  V30 3365 H 321.421 -2.1919 -4.58168 0
M  V30 3366 H 321.351 -0.537365 -5.23851 0
M  V30 3367 H 323.842 -0.784895 -3.69659 0
M  V30 3368 H 324.155 -2.21148 -7.40482 0
M  V30 3369 H 322.5 -1.98219 -6.66134 0
M  V30 3370 H 325.691 -1.0545 -4.56068 0
M  V30 3371 H 325.864 -1.70481 -6.25172 0
M  V30 3372 N 319.27 1.56325 -0.20005 0
M  V30 3373 C 320.495 2.02548 0.44597 0
M  V30 3374 C 320.92 1.07922 1.5406 0
M  V30 3375 O 320.278 0.0635775 1.81188 0
M  V30 3376 C 320.326 3.47175 0.974761 0
M  V30 3377 O 319.43 3.55671 2.08739 0
M  V30 3378 H 318.771 0.655862 0.103638 0
M  V30 3379 H 321.301 2.02201 -0.312381 0
M  V30 3380 H 321.311 3.87067 1.2901 0
M  V30 3381 H 319.986 4.15538 0.17347 0
M  V30 3382 H 318.563 3.27657 1.78032 0
M  V30 3383 N 320.748 -0.0735177 1.57428 0
M  V30 3384 C 321.698 -1.09442 2.00016 0
M  V30 3385 C 322.682 -1.34575 0.881947 0
M  V30 3386 O 323.874 -1.34905 1.14585 0
M  V30 3387 C 321.003 -2.40865 2.4462 0
M  V30 3388 C 320.089 -2.19014 3.63172 0
M  V30 3389 N 320.48 -1.67087 4.77405 0
M  V30 3390 C 318.778 -2.49494 3.69688 0
M  V30 3391 C 319.479 -1.6001 5.5926 0
M  V30 3392 N 318.455 -2.05999 5.03056 0
M  V30 3393 H 322.257 -0.686227 2.85776 0
M  V30 3394 H 319.771 -0.280617 1.59957 0
M  V30 3395 H 321.768 -3.14763 2.73368 0
M  V30 3396 H 320.428 -2.82403 1.60246 0
M  V30 3397 H 321.439 -1.35975 4.99731 0
M  V30 3398 H 318.116 -2.94409 2.96023 0
M  V30 3399 H 319.506 -1.2073 6.60964 0
M  V30 3400 N 322.226 -1.5378 -0.344866 0
M  V30 3401 C 323.189 -1.80981 -1.40637 0
M  V30 3402 C 324.189 -0.680816 -1.45676 0
M  V30 3403 O 325.379 -0.949095 -1.46075 0
M  V30 3404 C 322.511 -1.95063 -2.79577 0
M  V30 3405 H 323.704 -2.75803 -1.17783 0
M  V30 3406 H 321.257 -1.45173 -0.579181 0
M  V30 3407 H 321.992 -1.02379 -3.07716 0
M  V30 3408 H 321.777 -2.77198 -2.77315 0
M  V30 3409 H 323.267 -2.17629 -3.56409 0
M  V30 3410 N 323.704 0.605807 -1.45491 0
M  V30 3411 C 324.95 1.36679 -1.49823 0
M  V30 3412 C 325.283 1.93693 -0.140175 0
M  V30 3413 O 324.558 1.75158 0.845581 0
M  V30 3414 C 324.841 2.51337 -2.57879 0
M  V30 3415 C 324.694 1.99508 -4.03134 0
M  V30 3416 C 326.013 3.53463 -2.62205 0
M  V30 3417 H 323.132 0.495617 -0.545466 0
M  V30 3418 H 325.774 0.682732 -1.7731 0
M  V30 3419 H 323.924 3.09691 -2.34571 0
M  V30 3420 H 325.596 1.45789 -4.37656 0
M  V30 3421 H 323.839 1.30496 -4.13707 0
M  V30 3422 H 324.51 2.82169 -4.74431 0
M  V30 3423 H 326.986 3.04953 -2.83095 0
M  V30 3424 H 325.862 4.31178 -3.39672 0
M  V30 3425 H 326.123 4.09197 -1.67363 0
M  V30 3426 N 325.182 1.32811 0.848464 0
M  V30 3427 C 326.429 1.23724 1.60308 0
M  V30 3428 C 326.757 -0.1994 1.93475 0
M  V30 3429 O 326.012 -1.15406 1.5805 0
M  V30 3430 C 326.311 2.04831 2.92881 0
M  V30 3431 C 325.977 3.54125 2.79117 0
M  V30 3432 C 324.639 3.94829 2.7507 0
M  V30 3433 C 326.991 4.49036 2.64606 0
M  V30 3434 C 324.319 5.28675 2.544 0
M  V30 3435 C 326.671 5.83033 2.4547 0
M  V30 3436 C 325.335 6.22931 2.39819 0
M  V30 3437 H 324.605 0.452737 0.586609 0
M  V30 3438 H 327.252 1.64301 0.983743 0
M  V30 3439 H 325.557 1.57001 3.58968 0
M  V30 3440 H 327.254 1.95164 3.50303 0
M  V30 3441 H 323.844 3.21801 2.83094 0
M  V30 3442 H 328.028 4.18505 2.66772 0
M  V30 3443 H 323.284 5.58637 2.48465 0
M  V30 3444 H 327.458 6.56186 2.33222 0
M  V30 3445 H 325.085 7.26584 2.23562 0
M  V30 3446 N 326.66 -1.06551 1.16123 0
M  V30 3447 C 327.608 -2.16063 0.861371 0
M  V30 3448 C 328.602 -1.6856 -0.168517 0
M  V30 3449 O 329.808 -1.79986 -0.0227579 0
M  V30 3450 H 326.183 -0.705278 0.260934 0
M  V30 3451 H 328.154 -2.38567 1.79244 0
M  V30 3452 C 326.903 -3.45661 0.376018 0
M  V30 3453 H 326.226 -3.82604 1.15992 0
M  V30 3454 H 327.666 -4.23504 0.204951 0
M  V30 3455 C 326.125 -3.24546 -0.903954 0
M  V30 3456 O 326.655 -3.49865 -1.97377 0
M  V30 3457 N 324.861 -2.77992 -0.846679 0
M  V30 3458 H 324.408 -2.57589 0.0241017 0
M  V30 3459 H 324.366 -2.64244 -1.70359 0
M  V30 3460 N 328.138 -0.959301 -1.25041 0
M  V30 3461 C 329.387 -0.612254 -1.92183 0
M  V30 3462 C 329.7 0.855347 -1.75907 0
M  V30 3463 O 330.906 1.31256 -2.37664 0
M  V30 3464 C 329.362 -1.04435 -3.44414 0
M  V30 3465 C 328.97 -2.53482 -3.69393 0
M  V30 3466 C 330.714 -0.770055 -4.17457 0
M  V30 3467 C 328.621 -2.90468 -5.15153 0
M  V30 3468 H 327.551 -0.225279 -0.719559 0
M  V30 3469 H 330.202 -1.16438 -1.41825 0
M  V30 3470 H 328.584 -0.4206 -3.9376 0
M  V30 3471 H 329.758 -3.20916 -3.30681 0
M  V30 3472 H 328.073 -2.78432 -3.0962 0
M  V30 3473 H 330.67 -1.02249 -5.24832 0
M  V30 3474 H 331.013 0.293611 -4.15263 0
M  V30 3475 H 331.546 -1.35437 -3.74034 0
M  V30 3476 H 328.285 -3.95871 -5.22462 0
M  V30 3477 H 327.805 -2.27711 -5.54894 0
M  V30 3478 H 329.484 -2.79914 -5.83315 0
M  V30 3479 N 329.616 1.39756 -0.72842 0
M  V30 3480 C 330.865 1.99879 -0.270407 0
M  V30 3481 C 331.178 1.58449 1.14688 0
M  V30 3482 O 332.384 2.11362 1.70407 0
M  V30 3483 C 330.84 3.57292 -0.43252 0
M  V30 3484 C 330.448 4.07688 -1.85727 0
M  V30 3485 C 332.192 4.24485 -0.0359507 0
M  V30 3486 C 330.099 5.5765 -1.96928 0
M  V30 3487 H 329.029 0.747689 -0.0973472 0
M  V30 3488 H 331.68 1.59837 -0.901355 0
M  V30 3489 H 330.062 3.95097 0.267219 0
M  V30 3490 H 331.236 3.81231 -2.58843 0
M  V30 3491 H 329.551 3.53135 -2.20646 0
M  V30 3492 H 332.148 5.34609 -0.0987484 0
M  V30 3493 H 332.491 4.03915 1.00787 0
M  V30 3494 H 333.024 3.9183 -0.686604 0
M  V30 3495 H 329.763 5.8309 -2.99476 0
M  V30 3496 H 329.283 5.8593 -1.28241 0
M  V30 3497 H 330.962 6.22957 -1.74737 0
M  V30 3498 N 331.094 0.475555 1.50254 0
M  V30 3499 C 332.341 -0.0778919 2.0235 0
M  V30 3500 C 332.669 -1.39319 1.35722 0
M  V30 3501 O 331.924 -1.89888 0.473395 0
M  V30 3502 C 332.223 -0.305114 3.56095 0
M  V30 3503 C 331.889 0.92903 4.41225 0
M  V30 3504 C 330.551 1.26739 4.6421 0
M  V30 3505 C 332.903 1.75054 4.90923 0
M  V30 3506 C 330.231 2.42724 5.34137 0
M  V30 3507 C 332.583 2.9017 5.62125 0
M  V30 3508 C 331.247 3.24416 5.83362 0
M  V30 3509 H 330.517 -0.0285027 0.740452 0
M  V30 3510 H 333.164 0.630543 1.80821 0
M  V30 3511 H 331.469 -1.09584 3.76163 0
M  V30 3512 H 333.166 -0.747377 3.93974 0
M  V30 3513 H 329.756 0.655428 4.23559 0
M  V30 3514 H 333.94 1.50231 4.73016 0
M  V30 3515 H 329.196 2.69525 5.48786 0
M  V30 3516 H 333.37 3.54169 5.99614 0
M  V30 3517 H 330.997 4.14396 6.37323 0
M  V30 3518 N 332.573 -1.56217 0.208337 0
M  V30 3519 C 333.801 -2.02337 -0.43215 0
M  V30 3520 C 334.216 -1.08834 -1.54275 0
M  V30 3521 O 333.573 -0.0955462 -1.8225 0
M  V30 3522 C 333.624 -3.48072 -0.976138 0
M  V30 3523 O 333.345 -4.38007 0.0901621 0
M  V30 3524 C 334.846 -4.09773 -1.69119 0
M  V30 3525 H 332.066 -0.662385 -0.10718 0
M  V30 3526 H 334.61 -2.01966 0.320923 0
M  V30 3527 H 332.765 -3.49099 -1.67954 0
M  V30 3528 H 333.179 -5.23543 -0.316701 0
M  V30 3529 H 334.653 -5.13556 -2.02397 0
M  V30 3530 H 335.13 -3.53999 -2.59964 0
M  V30 3531 H 335.736 -4.12556 -1.03332 0
M  V30 3532 N 334.051 0.0651679 -1.57465 0
M  V30 3533 C 334.983 1.10359 -2.00882 0
M  V30 3534 C 335.996 1.346 -0.915788 0
M  V30 3535 O 337.185 1.32723 -1.1936 0
M  V30 3536 C 334.285 2.45312 -2.33828 0
M  V30 3537 C 333.458 2.40934 -3.65061 0
M  V30 3538 C 332.517 3.58047 -3.85602 0
M  V30 3539 O 331.543 3.39175 -4.57109 0
M  V30 3540 N 332.745 4.78637 -3.28462 0
M  V30 3541 H 335.51 0.733807 -2.90578 0
M  V30 3542 H 333.071 0.253719 -1.599 0
M  V30 3543 H 335.063 3.22314 -2.44737 0
M  V30 3544 H 333.633 2.74267 -1.49988 0
M  V30 3545 H 332.853 1.49273 -3.64844 0
M  V30 3546 H 334.141 2.35117 -4.51218 0
M  V30 3547 H 333.539 4.96872 -2.70433 0
M  V30 3548 H 332.096 5.53127 -3.44809 0
M  V30 3549 N 335.529 1.53961 0.336706 0
M  V30 3550 C 336.476 1.82428 1.41381 0
M  V30 3551 C 337.446 0.670444 1.51968 0
M  V30 3552 O 338.631 0.915565 1.67398 0
M  V30 3553 C 335.771 2.04564 2.77934 0
M  V30 3554 C 334.884 3.32267 2.76084 0
M  V30 3555 C 334.019 3.44434 4.04399 0
M  V30 3556 C 333.058 4.66061 3.96804 0
M  V30 3557 N 332.195 4.75224 5.16823 0
M  V30 3558 H 337.035 2.74324 1.16405 0
M  V30 3559 H 334.572 1.35869 0.563752 0
M  V30 3560 H 336.53 2.15388 3.57301 0
M  V30 3561 H 335.16 1.15974 3.01247 0
M  V30 3562 H 334.212 3.3025 1.88784 0
M  V30 3563 H 335.524 4.21733 2.66351 0
M  V30 3564 H 334.678 3.54728 4.92192 0
M  V30 3565 H 333.417 2.53037 4.16921 0
M  V30 3566 H 332.422 4.55838 3.07396 0
M  V30 3567 H 333.647 5.58829 3.85858 0
M  V30 3568 H 331.593 3.86739 5.29876 0
M  V30 3569 H 331.51 5.58636 5.09374 0
M  V30 3570 H 332.778 4.89835 6.06367 0
M  V30 3571 N 337.007 -0.598083 1.45811 0
M  V30 3572 C 338.423 -0.919847 1.30426 0
M  V30 3573 C 338.623 -1.99759 0.264303 0
M  V30 3574 O 337.679 -2.50221 -0.338472 0
M  V30 3575 C 338.992 -1.35176 2.68603 0
M  V30 3576 C 340.54 -1.46546 2.76574 0
M  V30 3577 C 341.015 -1.9311 4.15298 0
M  V30 3578 N 342.506 -2.00328 4.1764 0
M  V30 3579 C 343.241 -2.37599 5.21856 0
M  V30 3580 N 342.737 -2.73771 6.36413 0
M  V30 3581 N 344.53 -2.38021 5.09218 0
M  V30 3582 H 336.681 0.114111 2.12093 0
M  V30 3583 H 338.944 -0.0116121 0.947929 0
M  V30 3584 H 338.65 -0.633969 3.45939 0
M  V30 3585 H 338.524 -2.3164 2.97696 0
M  V30 3586 H 340.911 -2.17415 1.99537 0
M  V30 3587 H 340.992 -0.483727 2.51185 0
M  V30 3588 H 340.636 -1.22824 4.92825 0
M  V30 3589 H 340.566 -2.92213 4.38086 0
M  V30 3590 H 343.057 -1.74925 3.34977 0
M  V30 3591 H 343.37 -3.0112 7.11721 0
M  V30 3592 H 341.715 -2.71445 6.39799 0
M  V30 3593 H 344.906 -2.09174 4.18765 0
M  V30 3594 H 345.079 -2.66741 5.90554 0
M  V30 3595 N 338.485 -1.33259 -0.841409 0
M  V30 3596 C 339.435 -1.19872 -1.93945 0
M  V30 3597 C 340.419 -0.102269 -1.60575 0
M  V30 3598 O 341.611 -0.330114 -1.73894 0
M  V30 3599 C 338.74 -0.937517 -3.30251 0
M  V30 3600 C 337.826 -2.07629 -3.69799 0
M  V30 3601 N 338.217 -3.32604 -3.81062 0
M  V30 3602 C 336.515 -1.98242 -3.9952 0
M  V30 3603 C 337.216 -4.07275 -4.15333 0
M  V30 3604 N 336.192 -3.35691 -4.27566 0
M  V30 3605 H 339.994 -2.14604 -2.00805 0
M  V30 3606 H 337.508 -1.2523 -1.03398 0
M  V30 3607 H 339.505 -0.822545 -4.08705 0
M  V30 3608 H 338.165 0.00128798 -3.247 0
M  V30 3609 H 339.176 -3.67382 -3.65035 0
M  V30 3610 H 335.853 -1.12005 -4.02195 0
M  V30 3611 H 337.243 -5.1511 -4.31406 0
M  V30 3612 N 339.963 1.05934 -1.16686 0
M  V30 3613 C 341.24 1.75643 -0.860747 0
M  V30 3614 C 341.62 2.01144 0.640641 0
M  V30 3615 O 340.968 1.64147 1.58959 0
M  V30 3616 C 341.178 3.05493 -1.68745 0
M  V30 3617 C 342.526 3.79581 -1.90271 0
M  V30 3618 O 343.55 3.15344 -1.65641 0
M  V30 3619 O 342.409 4.9499 -2.31618 0
M  V30 3620 H 339.503 0.763426 -0.317977 0
M  V30 3621 H 342.049 1.1217 -1.27342 0
M  V30 3622 H 340.821 2.8264 -2.70611 0
M  V30 3623 H 340.444 3.76702 -1.27206 0
M  V30 3624 N 341.441 0.965919 1.2453 0
M  V30 3625 C 342.404 0.499547 2.2369 0
M  V30 3626 C 343.404 -0.40294 1.5567 0
M  V30 3627 O 344.594 -0.19865 1.73064 0
M  V30 3628 C 341.726 -0.276792 3.39774 0
M  V30 3629 H 342.919 1.37613 2.66463 0
M  V30 3630 H 340.472 0.750324 1.37112 0
M  V30 3631 H 341.207 -1.17055 3.02438 0
M  V30 3632 H 340.992 0.370826 3.90343 0
M  V30 3633 H 342.482 -0.592175 4.1338 0
M  V30 3634 N 342.919 -1.39368 0.735821 0
M  V30 3635 C 343.829 -2.34395 0.0979693 0
M  V30 3636 C 344.845 -1.58361 -0.720968 0
M  V30 3637 O 346.021 -1.90648 -0.649245 0
M  V30 3638 C 343.086 -3.37393 -0.797916 0
M  V30 3639 C 342.147 -4.29287 0.0333662 0
M  V30 3640 C 341.38 -5.27365 -0.819854 0
M  V30 3641 O 341.603 -5.31959 -2.05855 0
M  V30 3642 O 340.537 -6.01389 -0.248079 0
M  V30 3643 H 344.363 -2.90601 0.882315 0
M  V30 3644 H 341.948 -1.40909 0.4965 0
M  V30 3645 H 343.83 -4.00505 -1.31048 0
M  V30 3646 H 342.505 -2.83571 -1.56106 0
M  V30 3647 H 341.412 -3.69395 0.591475 0
M  V30 3648 H 342.745 -4.86317 0.758752 0
M  V30 3649 N 344.397 -0.483516 -1.5 0
M  V30 3650 C 345.625 0.0644831 -2.06799 0
M  V30 3651 C 346.04 1.32399 -1.34596 0
M  V30 3652 O 345.397 1.77626 -0.418946 0
M  V30 3653 C 345.448 0.339927 -3.59898 0
M  V30 3654 O 345.169 -0.869635 -4.29382 0
M  V30 3655 C 346.67 0.933515 -4.33359 0
M  V30 3656 H 343.89 -0.0126333 -0.670881 0
M  V30 3657 H 346.434 -0.675864 -1.93009 0
M  V30 3658 H 344.589 1.03022 -3.7345 0
M  V30 3659 H 345.003 -0.62179 -5.20801 0
M  V30 3660 H 346.477 1.07593 -5.41413 0
M  V30 3661 H 346.954 1.92685 -3.94676 0
M  V30 3662 H 347.56 0.281221 -4.24369 0
M  V30 3663 N 345.875 1.56104 -0.216619 0
M  V30 3664 C 346.823 2.21434 0.712036 0
M  V30 3665 C 347.817 1.19218 1.20348 0
M  V30 3666 O 349.023 1.3731 1.16387 0
M  V30 3667 H 345.398 0.70992 0.248026 0
M  V30 3668 H 347.369 2.98083 0.137558 0
M  V30 3669 C 346.118 2.90434 1.91163 0
M  V30 3670 H 345.441 3.68842 1.54258 0
M  V30 3671 H 346.881 3.39552 2.5393 0
M  V30 3672 C 345.34 1.92635 2.76394 0
M  V30 3673 O 345.87 1.44017 3.74996 0
M  V30 3674 N 344.076 1.60392 2.42328 0
M  V30 3675 H 343.623 2.00122 1.622 0
M  V30 3676 H 343.581 0.952159 2.99635 0
M  V30 3677 N 347.353 -0.0568162 1.57498 0
M  V30 3678 C 348.602 -0.752001 1.87157 0
M  V30 3679 C 348.915 -1.77978 0.811375 0
M  V30 3680 O 350.121 -2.52559 0.996293 0
M  V30 3681 C 348.577 -1.38844 3.3204 0
M  V30 3682 C 348.185 -0.398456 4.46225 0
M  V30 3683 C 349.929 -2.06512 3.70882 0
M  V30 3684 C 347.836 -1.04166 5.82154 0
M  V30 3685 H 346.766 -0.28461 0.698222 0
M  V30 3686 H 349.417 -0.00561272 1.83499 0
M  V30 3687 H 347.799 -2.1836 3.30356 0
M  V30 3688 H 348.973 0.367977 4.59328 0
M  V30 3689 H 347.288 0.174592 4.16034 0
M  V30 3690 H 349.885 -2.55437 4.6974 0
M  V30 3691 H 350.228 -2.87117 3.01445 0
M  V30 3692 H 350.761 -1.33808 3.7462 0
M  V30 3693 H 347.5 -0.275614 6.5492 0
M  V30 3694 H 347.02 -1.7786 5.72823 0
M  V30 3695 H 348.699 -1.55715 6.27982 0
M  V30 3696 N 348.832 -1.54138 -0.328536 0
M  V30 3697 C 350.06 -1.76062 -1.08673 0
M  V30 3698 C 350.475 -0.506852 -1.81869 0
M  V30 3699 O 349.832 0.522223 -1.74869 0
M  V30 3700 C 349.883 -2.95054 -2.08866 0
M  V30 3701 O 349.604 -4.15583 -1.38644 0
M  V30 3702 C 351.105 -3.2915 -2.96943 0
M  V30 3703 H 348.325 -0.587889 -0.323461 0
M  V30 3704 H 350.869 -2.0101 -0.376175 0
M  V30 3705 H 349.024 -2.72394 -2.75464 0
M  V30 3706 H 349.438 -4.82481 -2.05699 0
M  V30 3707 H 350.912 -4.15723 -3.63151 0
M  V30 3708 H 351.389 -2.461 -3.63774 0
M  V30 3709 H 351.995 -3.53871 -2.35914 0
M  V30 3710 N 350.31 0.590341 -1.46126 0
M  V30 3711 C 351.538 1.37504 -1.54597 0
M  V30 3712 C 351.953 1.87897 -0.184447 0
M  V30 3713 O 351.31 1.63192 0.816984 0
M  V30 3714 C 351.361 2.56779 -2.54454 0
M  V30 3715 O 351.082 2.08476 -3.85317 0
M  V30 3716 C 352.583 3.49427 -2.72792 0
M  V30 3717 H 349.803 0.420325 -0.523037 0
M  V30 3718 H 352.347 0.718383 -1.91467 0
M  V30 3719 H 350.502 3.1845 -2.20609 0
M  V30 3720 H 350.916 2.86097 -4.396 0
M  V30 3721 H 352.39 4.29619 -3.466 0
M  V30 3722 H 352.867 4.00876 -1.79429 0
M  V30 3723 H 353.473 2.93598 -3.07702 0
M  V30 3724 N 351.788 1.33704 0.83433 0
M  V30 3725 C 352.698 1.26382 1.97648 0
M  V30 3726 C 353.714 0.173548 1.73132 0
M  V30 3727 O 354.89 0.397962 1.97429 0
M  V30 3728 C 351.955 1.00769 3.31733 0
M  V30 3729 C 351.016 2.1884 3.69334 0
M  V30 3730 C 350.249 1.9444 4.9702 0
M  V30 3731 O 350.472 0.896961 5.63303 0
M  V30 3732 O 349.406 2.81093 5.32231 0
M  V30 3733 H 353.232 2.22444 2.06767 0
M  V30 3734 H 350.817 1.13795 0.968037 0
M  V30 3735 H 352.699 0.882186 4.12062 0
M  V30 3736 H 351.374 0.0773783 3.23608 0
M  V30 3737 H 350.281 2.36946 2.89495 0
M  V30 3738 H 351.614 3.10221 3.82131 0
M  V30 3739 N 353.266 -1.05314 1.17247 0
M  V30 3740 C 354.213 -2.13031 0.888058 0
M  V30 3741 C 355.183 -1.65253 -0.167537 0
M  V30 3742 O 356.368 -1.90775 -0.0305974 0
M  V30 3743 C 353.508 -3.42702 0.406147 0
M  V30 3744 C 352.621 -4.04161 1.52572 0
M  V30 3745 C 351.756 -5.21744 0.997808 0
M  V30 3746 C 350.795 -5.75207 2.09291 0
M  V30 3747 N 349.932 -6.84094 1.57986 0
M  V30 3748 H 354.772 -2.36698 1.81048 0
M  V30 3749 H 352.309 -1.16121 0.903013 0
M  V30 3750 H 354.267 -4.17059 0.108305 0
M  V30 3751 H 352.897 -3.19222 -0.479313 0
M  V30 3752 H 351.949 -3.27253 1.93931 0
M  V30 3753 H 353.261 -4.39881 2.35172 0
M  V30 3754 H 352.415 -6.03168 0.653739 0
M  V30 3755 H 351.154 -4.87495 0.141232 0
M  V30 3756 H 350.159 -4.92414 2.44557 0
M  V30 3757 H 351.384 -6.11505 2.95362 0
M  V30 3758 H 349.33 -6.51745 0.74598 0
M  V30 3759 H 349.247 -7.18811 2.34195 0
M  V30 3760 H 350.515 -7.69172 1.26468 0
M  V30 3761 N 354.744 -0.972509 -1.24016 0
M  V30 3762 C 355.99 -0.637978 -1.92504 0
M  V30 3763 C 356.323 0.825383 -1.75787 0
M  V30 3764 O 355.598 1.59442 -1.11393 0
M  V30 3765 C 355.881 -1.01942 -3.45369 0
M  V30 3766 C 355.734 -2.53983 -3.71231 0
M  V30 3767 C 357.053 -0.55751 -4.36555 0
M  V30 3768 H 354.172 -0.233248 -0.699117 0
M  V30 3769 H 356.814 -1.21238 -1.46292 0
M  V30 3770 H 354.964 -0.530656 -3.84859 0
M  V30 3771 H 356.636 -3.10374 -3.41271 0
M  V30 3772 H 354.879 -2.96968 -3.16216 0
M  V30 3773 H 355.55 -2.75723 -4.78206 0
M  V30 3774 H 358.026 -0.977029 -4.04467 0
M  V30 3775 H 356.902 -0.85292 -5.42233 0
M  V30 3776 H 357.163 0.542328 -4.38761 0
M  V30 3777 N 356.222 1.38976 -0.743202 0
M  V30 3778 C 357.447 2.05161 -0.303936 0
M  V30 3779 C 357.872 1.55677 1.05576 0
M  V30 3780 O 357.23 0.704131 1.67068 0
M  V30 3781 C 357.278 3.59138 -0.324373 0
M  V30 3782 O 356.382 4.06668 0.685204 0
M  V30 3783 H 355.723 0.649815 -0.136518 0
M  V30 3784 H 358.253 1.77852 -1.01142 0
M  V30 3785 H 358.263 4.07639 -0.171618 0
M  V30 3786 H 356.938 3.94515 -1.31647 0
M  V30 3787 H 355.515 3.69561 0.497913 0
M  V30 3788 N 357.7 0.491464 1.49741 0
M  V30 3789 C 358.647 -0.292027 2.28945 0
M  V30 3790 C 359.617 -0.968973 1.34908 0
M  V30 3791 O 360.802 -0.97748 1.6386 0
M  V30 3792 C 357.942 -1.35617 3.17336 0
M  V30 3793 C 357.055 -0.691957 4.26422 0
M  V30 3794 C 356.19 -1.73572 5.02042 0
M  V30 3795 C 355.229 -1.05286 6.02977 0
M  V30 3796 N 354.366 -2.0404 6.71798 0
M  V30 3797 H 359.206 0.389654 2.95442 0
M  V30 3798 H 356.743 0.204003 1.45679 0
M  V30 3799 H 358.701 -1.98502 3.66951 0
M  V30 3800 H 357.331 -2.00674 2.52844 0
M  V30 3801 H 356.383 0.0499523 3.80367 0
M  V30 3802 H 357.695 -0.153946 4.98562 0
M  V30 3803 H 356.849 -2.43987 5.55478 0
M  V30 3804 H 355.588 -2.30757 4.29654 0
M  V30 3805 H 354.593 -0.334446 5.48782 0
M  V30 3806 H 355.818 -0.487636 6.77347 0
M  V30 3807 H 353.764 -2.60205 6.02187 0
M  V30 3808 H 353.681 -1.55279 7.39881 0
M  V30 3809 H 354.949 -2.73772 7.29842 0
M  V30 3810 N 359.178 -1.55987 0.224894 0
M  V30 3811 C 360.427 -1.97566 -0.406273 0
M  V30 3812 C 360.74 -1.11569 -1.6066 0
M  V30 3813 O 361.946 -1.43062 -2.3075 0
M  V30 3814 C 360.402 -3.51474 -0.774207 0
M  V30 3815 C 360.01 -4.46179 0.403496 0
M  V30 3816 C 361.754 -4.01758 -1.37079 0
M  V30 3817 C 359.661 -5.91399 0.0129412 0
M  V30 3818 H 358.591 -0.737777 -0.155565 0
M  V30 3819 H 361.242 -1.80659 0.321635 0
M  V30 3820 H 359.624 -3.63994 -1.55963 0
M  V30 3821 H 360.798 -4.45409 1.18101 0
M  V30 3822 H 359.113 -4.06255 0.913536 0
M  V30 3823 H 361.71 -5.07756 -1.67596 0
M  V30 3824 H 362.053 -3.47805 -2.28773 0
M  V30 3825 H 362.586 -3.92475 -0.648733 0
M  V30 3826 H 359.325 -6.49341 0.896451 0
M  V30 3827 H 358.845 -5.95356 -0.728821 0
M  V30 3828 H 360.524 -6.45683 -0.412582 0
M  V30 3829 N 360.656 0.0484629 -1.57525 0
M  V30 3830 C 361.881 0.759177 -1.93006 0
M  V30 3831 C 362.306 1.69125 -0.823317 0
M  V30 3832 O 361.664 1.79931 0.222364 0
M  V30 3833 C 361.712 1.50899 -3.27509 0
M  V30 3834 O 360.816 2.62112 -3.18388 0
M  V30 3835 H 360.157 0.205564 -0.631379 0
M  V30 3836 H 362.687 0.00972959 -2.04598 0
M  V30 3837 H 362.697 1.88317 -3.6194 0
M  V30 3838 H 361.372 0.825269 -4.0763 0
M  V30 3839 H 359.949 2.27379 -2.95556 0
M  V30 3840 N 362.134 1.5431 0.320358 0
M  V30 3841 C 363.064 1.86912 1.3995 0
M  V30 3842 C 364.045 0.726211 1.53819 0
M  V30 3843 O 365.23 0.980233 1.67646 0
M  V30 3844 C 362.36 2.09932 2.7667 0
M  V30 3845 C 361.314 3.25776 2.77586 0
M  V30 3846 C 360.64 3.34173 4.17412 0
M  V30 3847 C 361.94 4.6335 2.41048 0
M  V30 3848 H 363.634 2.77292 1.12914 0
M  V30 3849 H 361.18 1.33421 0.541738 0
M  V30 3850 H 363.133 2.31324 3.52232 0
M  V30 3851 H 361.857 1.16304 3.0519 0
M  V30 3852 H 360.516 3.04276 2.04479 0
M  V30 3853 H 360.164 2.38098 4.43078 0
M  V30 3854 H 359.864 4.12033 4.18931 0
M  V30 3855 H 361.388 3.57803 4.94782 0
M  V30 3856 H 362.802 4.84602 3.06324 0
M  V30 3857 H 361.199 5.43782 2.53813 0
M  V30 3858 H 362.269 4.65381 1.36193 0
M  V30 3859 N 363.613 -0.582584 1.46437 0
M  V30 3860 C 364.859 -1.34278 1.51978 0
M  V30 3861 C 365.192 -1.93446 0.170973 0
M  V30 3862 O 364.467 -1.76481 -0.817608 0
M  V30 3863 C 364.75 -2.47203 2.61845 0
M  V30 3864 C 364.603 -1.93069 4.06257 0
M  V30 3865 C 365.922 -3.49247 2.67795 0
M  V30 3866 H 363.041 -0.486876 0.553282 0
M  V30 3867 H 365.683 -0.654437 1.78374 0
M  V30 3868 H 363.833 -3.0592 2.39469 0
M  V30 3869 H 365.505 -1.38808 4.3992 0
M  V30 3870 H 363.748 -1.23898 4.1573 0
M  V30 3871 H 364.419 -2.74586 4.7886 0
M  V30 3872 H 366.895 -3.00411 2.8791 0
M  V30 3873 H 365.771 -4.25719 3.46489 0
M  V30 3874 H 366.032 -4.06482 1.73852 0
M  V30 3875 N 365.091 -1.34144 -0.827227 0
M  V30 3876 C 366.368 -1.16844 -1.56865 0
M  V30 3877 C 366.748 0.260654 -2.09485 0
M  V30 3878 O 366.096 1.26138 -1.9053 0
M  V30 3879 C 366.306 -2.21939 -2.6934 0
M  V30 3880 C 367.654 -2.56695 -3.3822 0
M  V30 3881 O 368.678 -2.20695 -2.79593 0
M  V30 3882 O 367.537 -3.18518 -4.44082 0
M  V30 3883 H 364.631 -0.452669 -0.692112 0
M  V30 3884 H 367.177 -1.45763 -0.868973 0
M  V30 3885 H 365.949 -3.17882 -2.28182 0
M  V30 3886 H 365.572 -1.94172 -3.46962 0
M  V30 3887 N 366.569 1.04691 -1.17803 0
M  V30 3888 C 367.499 2.14494 -0.92275 0
M  V30 3889 C 368.48 1.69546 0.137179 0
M  V30 3890 O 369.665 1.94195 -0.0141108 0
M  V30 3891 C 366.795 3.44491 -0.440803 0
M  V30 3892 C 365.749 4.03031 -1.4405 0
M  V30 3893 C 365.075 5.28432 -0.81631 0
M  V30 3894 C 366.375 4.39932 -2.81527 0
M  V30 3895 H 368.069 2.36107 -1.84103 0
M  V30 3896 H 365.615 1.1347 -0.886599 0
M  V30 3897 H 367.568 4.2066 -0.249602 0
M  V30 3898 H 366.292 3.22546 0.513025 0
M  V30 3899 H 364.951 3.28937 -1.61853 0
M  V30 3900 H 364.599 5.02792 0.144511 0
M  V30 3901 H 364.299 5.68559 -1.48371 0
M  V30 3902 H 365.823 6.07284 -0.635496 0
M  V30 3903 H 367.237 5.07113 -2.67412 0
M  V30 3904 H 365.634 4.9109 -3.44892 0
M  V30 3905 H 366.704 3.50045 -3.35554 0
M  V30 3906 N 368.047 0.979072 1.23499 0
M  V30 3907 C 369.01 0.523244 2.23147 0
M  V30 3908 C 370.01 -0.386406 1.56088 0
M  V30 3909 O 371.2 -0.180283 1.73265 0
M  V30 3910 C 368.332 -0.240739 3.40049 0
M  V30 3911 H 369.525 1.40432 2.64989 0
M  V30 3912 H 367.078 0.764824 1.36309 0
M  V30 3913 H 367.813 -1.13841 3.03662 0
M  V30 3914 H 367.598 0.412207 3.89927 0
M  V30 3915 H 369.088 -0.548297 4.13985 0
M  V30 3916 N 369.525 -1.3858 0.750561 0
M  V30 3917 C 370.773 -1.99789 0.30477 0
M  V30 3918 C 371.094 -1.59874 -1.11649 0
M  V30 3919 O 370.364 -0.85417 -1.76297 0
M  V30 3920 H 368.944 -0.738902 0.109694 0
M  V30 3921 H 371.606 -1.69391 0.963983 0
M  V30 3922 H 370.702 -3.09952 0.365499 0
M  V30 3923 N 371.003 -0.499398 -1.49478 0
M  V30 3924 C 372.228 0.044722 -2.07352 0
M  V30 3925 C 372.653 1.30207 -1.35749 0
M  V30 3926 O 372.011 1.76516 -0.413732 0
M  V30 3927 C 372.059 0.283013 -3.59488 0
M  V30 3928 O 371.163 1.35804 -3.89398 0
M  V30 3929 H 370.504 -0.0255147 -0.66351 0
M  V30 3930 H 373.034 -0.698561 -1.92305 0
M  V30 3931 H 373.044 0.515007 -4.04737 0
M  V30 3932 H 371.719 -0.635636 -4.11014 0
M  V30 3933 H 370.296 1.11113 -3.55961 0
M  V30 3934 N 372.481 1.55866 -0.233164 0
M  V30 3935 C 373.391 2.24431 0.683217 0
M  V30 3936 C 374.407 1.2558 1.2044 0
M  V30 3937 O 375.583 1.58422 1.24356 0
M  V30 3938 C 372.648 2.91979 1.86947 0
M  V30 3939 C 371.709 4.06204 1.38912 0
M  V30 3940 C 370.942 4.70522 2.51883 0
M  V30 3941 O 371.165 4.33865 3.70293 0
M  V30 3942 O 370.099 5.59296 2.22423 0
M  V30 3943 H 373.925 3.03426 0.129059 0
M  V30 3944 H 371.51 1.494 -0.0022283 0
M  V30 3945 H 373.392 3.34573 2.56201 0
M  V30 3946 H 372.067 2.15935 2.41151 0
M  V30 3947 H 370.974 3.68155 0.664259 0
M  V30 3948 H 372.307 4.84025 0.893328 0
M  V30 3949 N 373.959 -0.0401083 1.57549 0
M  V30 3950 C 375.375 -0.395556 1.54621 0
M  V30 3951 C 375.575 -1.77281 0.957799 0
M  V30 3952 O 374.631 -2.45888 0.574031 0
M  V30 3953 C 375.944 -0.307535 2.99123 0
M  V30 3954 C 377.492 -0.385425 3.10618 0
M  V30 3955 C 377.967 -0.326973 4.56831 0
M  V30 3956 N 379.458 -0.386102 4.61588 0
M  V30 3957 C 380.193 -0.363591 5.72246 0
M  V30 3958 N 379.689 -0.29402 6.92176 0
M  V30 3959 N 381.482 -0.412503 5.60584 0
M  V30 3960 H 373.633 0.861325 1.94152 0
M  V30 3961 H 375.896 0.326445 0.890021 0
M  V30 3962 H 375.602 0.638461 3.45856 0
M  V30 3963 H 375.476 -1.10552 3.60636 0
M  V30 3964 H 377.863 -1.32185 2.63839 0
M  V30 3965 H 377.944 0.44171 2.51957 0
M  V30 3966 H 377.588 0.605738 5.04275 0
M  V30 3967 H 377.518 -1.17207 5.13391 0
M  V30 3968 H 380.009 -0.442832 3.75296 0
M  V30 3969 H 380.322 -0.28164 7.72287 0
M  V30 3970 H 378.667 -0.260232 6.94513 0
M  V30 3971 H 381.858 -0.464769 4.65787 0
M  V30 3972 H 382.031 -0.391492 6.46816 0
M  V30 3973 N 375.437 -1.54477 -0.31217 0
M  V30 3974 C 376.4 -1.83923 -1.36766 0
M  V30 3975 C 377.4 -0.711563 -1.44199 0
M  V30 3976 O 378.59 -0.979866 -1.44029 0
M  V30 3977 C 375.722 -2.0095 -2.75376 0
M  V30 3978 H 376.915 -2.78239 -1.11906 0
M  V30 3979 H 374.468 -1.46369 -0.548257 0
M  V30 3980 H 375.203 -1.08883 -3.05475 0
M  V30 3981 H 374.988 -2.83018 -2.71373 0
M  V30 3982 H 376.478 -2.2514 -3.51713 0
M  V30 3983 N 376.915 0.57481 -1.46744 0
M  V30 3984 C 378.192 1.3352 -1.4294 0
M  V30 3985 C 378.572 2.10775 -0.117009 0
M  V30 3986 O 377.92 2.09966 0.901474 0
M  V30 3987 C 378.13 2.25456 -2.66403 0
M  V30 3988 C 379.478 2.87035 -3.12883 0
M  V30 3989 O 380.502 2.35766 -2.67007 0
M  V30 3990 O 379.361 3.80179 -3.92589 0
M  V30 3991 H 376.455 0.600318 -0.568812 0
M  V30 3992 H 379.001 0.595171 -1.58921 0
M  V30 3993 H 377.773 1.67851 -3.53471 0
M  V30 3994 H 377.396 3.06785 -2.52921 0
M  V30 3995 N 378.394 1.34581 0.820102 0
M  V30 3996 C 379.619 1.30333 1.61332 0
M  V30 3997 C 380.044 -0.119339 1.87721 0
M  V30 3998 O 379.402 -1.08197 1.45475 0
M  V30 3999 C 379.45 2.10258 2.92957 0
M  V30 4000 O 378.554 1.47404 3.85157 0
M  V30 4001 H 377.895 0.447488 0.490561 0
M  V30 4002 H 380.425 1.77425 1.01889 0
M  V30 4003 H 380.435 2.21718 3.42498 0
M  V30 4004 H 379.11 3.13693 2.73074 0
M  V30 4005 H 377.687 1.44703 3.43679 0
M  V30 4006 N 379.872 -1.04064 1.18357 0
M  V30 4007 C 381.1 -1.80916 1.00384 0
M  V30 4008 C 381.515 -1.83414 -0.447738 0
M  V30 4009 O 380.872 -1.26962 -1.31099 0
M  V30 4010 C 380.923 -3.26516 1.55144 0
M  V30 4011 O 380.644 -3.2424 2.94618 0
M  V30 4012 C 382.145 -4.20013 1.41789 0
M  V30 4013 H 379.365 -0.569728 0.354474 0
M  V30 4014 H 381.909 -1.31151 1.56906 0
M  V30 4015 H 380.064 -3.73512 1.02798 0
M  V30 4016 H 380.478 -4.15452 3.20156 0
M  V30 4017 H 381.952 -5.20111 1.84901 0
M  V30 4018 H 382.429 -4.37667 0.36661 0
M  V30 4019 H 383.035 -3.78881 1.93207 0
M  V30 4020 N 381.35 -0.985608 -1.22978 0
M  V30 4021 C 382.598 -0.656087 -1.91154 0
M  V30 4022 C 382.919 0.813561 -1.77218 0
M  V30 4023 O 382.189 1.58244 -1.1548 0
M  V30 4024 H 380.769 -0.239674 -0.707506 0
M  V30 4025 H 383.431 -1.25054 -1.49491 0
M  V30 4026 H 382.527 -0.912253 -2.9847 0
M  V30 4027 N 382.828 1.3818 -0.7579 0
M  V30 4028 C 383.791 2.28764 -0.141286 0
M  V30 4029 C 384.791 1.47388 0.642907 0
M  V30 4030 O 385.981 1.67781 0.468536 0
M  V30 4031 C 383.113 3.31184 0.808069 0
M  V30 4032 H 384.306 2.848 -0.939633 0
M  V30 4033 H 381.859 1.47212 -0.525191 0
M  V30 4034 H 382.594 2.80247 1.63193 0
M  V30 4035 H 382.379 3.91314 0.248104 0
M  V30 4036 H 383.869 3.98909 1.23536 0
M  V30 4037 N 384.306 0.507319 1.49211 0
M  V30 4038 C 385.253 -0.267728 2.29242 0
M  V30 4039 C 386.223 -0.954609 1.35928 0
M  V30 4040 O 387.408 -0.960046 1.64887 0
M  V30 4041 C 384.548 -1.32243 3.18756 0
M  V30 4042 C 383.661 -0.64669 4.27132 0
M  V30 4043 C 382.796 -1.68238 5.03855 0
M  V30 4044 C 381.835 -0.98885 6.0406 0
M  V30 4045 N 380.972 -1.96903 6.73924 0
M  V30 4046 H 385.812 0.420968 2.95012 0
M  V30 4047 H 383.349 0.219443 1.45454 0
M  V30 4048 H 385.307 -1.94599 3.69036 0
M  V30 4049 H 383.937 -1.97981 2.54958 0
M  V30 4050 H 382.989 0.0902926 3.80293 0
M  V30 4051 H 384.301 -0.101058 4.98698 0
M  V30 4052 H 383.455 -2.38081 5.58034 0
M  V30 4053 H 382.194 -2.26187 4.32077 0
M  V30 4054 H 381.199 -0.276222 5.49106 0
M  V30 4055 H 382.424 -0.415767 6.77826 0
M  V30 4056 H 380.37 -2.53803 6.04913 0
M  V30 4057 H 380.287 -1.47423 7.41487 0
M  V30 4058 H 381.555 -2.66015 7.32705 0
M  V30 4059 N 385.784 -1.5574 0.241426 0
M  V30 4060 C 387.032 -1.98417 -0.384075 0
M  V30 4061 C 387.353 -1.13078 -1.58866 0
M  V30 4062 O 386.623 -0.212312 -1.94746 0
M  V30 4063 H 385.203 -0.732813 -0.144894 0
M  V30 4064 H 387.865 -1.9193 0.338943 0
M  V30 4065 H 386.961 -3.04219 -0.696939 0
M  V30 4066 N 387.262 0.0317525 -1.57568 0
M  V30 4067 C 388.49 0.734949 -1.93407 0
M  V30 4068 C 388.905 1.69036 -0.84096 0
M  V30 4069 O 388.262 1.81582 0.182836 0
M  V30 4070 C 388.313 1.49432 -3.29169 0
M  V30 4071 O 388.034 0.577261 -4.3428 0
M  V30 4072 C 389.535 2.29492 -3.79273 0
M  V30 4073 H 386.755 0.206706 -0.638368 0
M  V30 4074 H 389.299 -0.00992046 -2.04498 0
M  V30 4075 H 387.454 2.1911 -3.19483 0
M  V30 4076 H 387.868 1.10952 -5.1263 0
M  V30 4077 H 389.342 2.78172 -4.76785 0
M  V30 4078 H 389.819 3.10794 -3.10328 0
M  V30 4079 H 390.425 1.64894 -3.92033 0
M  V30 4080 N 388.74 1.54641 0.303973 0
M  V30 4081 C 390.156 1.45788 0.649463 0
M  V30 4082 C 390.356 0.64666 1.90842 0
M  V30 4083 O 389.412 0.153183 2.52035 0
M  V30 4084 C 390.725 2.89718 0.805227 0
M  V30 4085 C 392.273 2.99742 0.901305 0
M  V30 4086 C 392.748 4.44863 1.08909 0
M  V30 4087 N 394.239 4.48559 1.15536 0
M  V30 4088 C 394.974 5.58026 1.3189 0
M  V30 4089 N 394.47 6.77422 1.45161 0
M  V30 4090 N 396.263 5.45708 1.34755 0
M  V30 4091 H 388.414 2.05854 -0.523237 0
M  V30 4092 H 390.677 0.932186 -0.172431 0
M  V30 4093 H 390.383 3.51666 -0.0489108 0
M  V30 4094 H 390.257 3.36964 1.69513 0
M  V30 4095 H 392.644 2.3791 1.74593 0
M  V30 4096 H 392.725 2.55797 -0.0125531 0
M  V30 4097 H 392.369 5.07288 0.249241 0
M  V30 4098 H 392.299 4.86436 2.01713 0
M  V30 4099 H 394.79 3.6254 1.06646 0
M  V30 4100 H 395.103 7.56604 1.57387 0
M  V30 4101 H 393.448 6.80292 1.42223 0
M  V30 4102 H 396.639 4.51378 1.23996 0
M  V30 4103 H 396.812 6.3107 1.47157 0
M  V30 4104 N 390.218 -0.567019 1.47046 0
M  V30 4105 C 391.148 -1.68482 1.61667 0
M  V30 4106 C 392.129 -1.6358 0.466418 0
M  V30 4107 O 393.314 -1.81354 0.694574 0
M  V30 4108 C 390.444 -3.07124 1.62148 0
M  V30 4109 C 389.398 -3.26867 2.76301 0
M  V30 4110 C 388.724 -4.66196 2.61849 0
M  V30 4111 C 390.024 -3.13186 4.17986 0
M  V30 4112 H 391.718 -1.56502 2.5524 0
M  V30 4113 H 389.264 -0.751486 1.22836 0
M  V30 4114 H 391.217 -3.8516 1.70968 0
M  V30 4115 H 389.941 -3.2004 0.651287 0
M  V30 4116 H 388.6 -2.51237 2.66975 0
M  V30 4117 H 388.248 -4.75898 1.62879 0
M  V30 4118 H 387.948 -4.80356 3.38425 0
M  V30 4119 H 389.472 -5.46379 2.72584 0
M  V30 4120 H 390.886 -3.81049 4.2834 0
M  V30 4121 H 389.283 -3.3886 4.95272 0
M  V30 4122 H 390.353 -2.10057 4.3704 0
M  V30 4123 N 391.696 -1.35014 -0.812953 0
M  V30 4124 C 392.643 -1.27412 -1.92444 0
M  V30 4125 C 393.613 -0.14733 -1.65445 0
M  V30 4126 O 394.798 -0.329974 -1.87925 0
M  V30 4127 C 391.938 -1.04558 -3.28879 0
M  V30 4128 C 391.051 -2.26101 -3.68106 0
M  V30 4129 C 390.186 -1.96449 -4.9354 0
M  V30 4130 C 389.225 -3.14081 -5.25376 0
M  V30 4131 N 388.362 -2.84246 -6.41988 0
M  V30 4132 H 393.202 -2.22463 -1.98278 0
M  V30 4133 H 390.739 -1.10593 -0.969933 0
M  V30 4134 H 392.697 -0.893413 -4.07522 0
M  V30 4135 H 391.327 -0.131719 -3.22531 0
M  V30 4136 H 390.379 -2.52204 -2.84775 0
M  V30 4137 H 391.691 -3.13959 -3.87597 0
M  V30 4138 H 390.845 -1.78026 -5.79993 0
M  V30 4139 H 389.584 -1.05867 -4.76071 0
M  V30 4140 H 388.589 -3.33089 -4.37415 0
M  V30 4141 H 389.814 -4.05455 -5.44778 0
M  V30 4142 H 387.76 -1.96252 -6.25956 0
M  V30 4143 H 387.677 -3.65637 -6.61699 0
M  V30 4144 H 388.945 -2.6935 -7.31485 0
M  V30 4145 N 393.175 1.03435 -1.18907 0
M  V30 4146 C 394.085 2.15075 -0.937015 0
M  V30 4147 C 395.101 1.73706 0.101085 0
M  V30 4148 O 396.277 2.01232 -0.0822948 0
M  V30 4149 C 393.342 3.43458 -0.473057 0
M  V30 4150 C 392.403 3.99172 -1.57989 0
M  V30 4151 C 391.636 5.21427 -1.13797 0
M  V30 4152 O 391.859 5.704 0.000725941 0
M  V30 4153 O 390.793 5.69837 -1.9383 0
M  V30 4154 H 394.619 2.39198 -1.87131 0
M  V30 4155 H 392.204 1.13506 -0.971427 0
M  V30 4156 H 394.086 4.20811 -0.222702 0
M  V30 4157 H 392.761 3.20793 0.432869 0
M  V30 4158 H 391.668 3.23178 -1.88433 0
M  V30 4159 H 393.001 4.2619 -2.46217 0
M  V30 4160 N 394.653 0.992116 1.22453 0
M  V30 4161 C 395.901 0.666215 1.90804 0
M  V30 4162 C 396.222 -0.804152 1.77647 0
M  V30 4163 O 395.492 -1.57629 1.16318 0
M  V30 4164 H 394.072 0.243423 0.706225 0
M  V30 4165 H 396.734 1.25845 1.48825 0
M  V30 4166 H 395.83 0.928069 2.97982 0
M  V30 4167 N 396.131 -1.37776 0.765217 0
M  V30 4168 C 397.094 -2.28686 0.153416 0
M  V30 4169 C 398.094 -1.47727 -0.635081 0
M  V30 4170 O 399.284 -1.68027 -0.459632 0
M  V30 4171 C 396.416 -3.31608 -0.790495 0
M  V30 4172 H 397.609 -2.84297 0.954723 0
M  V30 4173 H 395.162 -1.46932 0.53299 0
M  V30 4174 H 395.897 -2.81109 -1.61705 0
M  V30 4175 H 395.682 -3.9144 -0.227348 0
M  V30 4176 H 397.172 -3.99559 -1.21419 0
M  V30 4177 N 397.609 -0.515225 -1.4894 0
M  V30 4178 C 398.557 0.269115 -2.31038 0
M  V30 4179 C 399.551 0.949443 -1.40292 0
M  V30 4180 O 400.757 0.87551 -1.57273 0
M  V30 4181 H 397.132 0.10565 -0.744542 0
M  V30 4182 H 399.103 -0.443096 -2.95092 0
M  V30 4183 C 397.852 1.31213 -3.21991 0
M  V30 4184 H 397.175 0.798034 -3.91754 0
M  V30 4185 H 398.615 1.83263 -3.82349 0
M  V30 4186 C 397.074 2.33791 -2.42576 0
M  V30 4187 O 397.604 3.3995 -2.14003 0
M  V30 4188 N 395.81 2.06625 -2.0434 0
M  V30 4189 H 395.357 1.20314 -2.27777 0
M  V30 4190 H 395.315 2.75483 -1.51514 0
M  V30 4191 N 399.087 1.5561 -0.249682 0
M  V30 4192 C 400.336 1.98187 0.37479 0
M  V30 4193 C 400.649 1.14111 1.58865 0
M  V30 4194 O 401.855 1.46714 2.28445 0
M  V30 4195 C 400.311 3.52661 0.718192 0
M  V30 4196 C 399.919 4.45481 -0.474428 0
M  V30 4197 C 401.663 4.03888 1.3067 0
M  V30 4198 C 399.57 5.91303 -0.107026 0
M  V30 4199 H 398.5 0.740159 0.143808 0
M  V30 4200 H 401.151 1.80125 -0.350336 0
M  V30 4201 H 399.533 3.66429 1.50152 0
M  V30 4202 H 400.707 4.43473 -1.25172 0
M  V30 4203 H 399.022 4.04751 -0.978052 0
M  V30 4204 H 401.619 5.10358 1.59496 0
M  V30 4205 H 401.962 3.51401 2.23211 0
M  V30 4206 H 402.495 3.93457 0.586211 0
M  V30 4207 H 399.234 6.47833 -0.999642 0
M  V30 4208 H 398.754 5.9644 0.634013 0
M  V30 4209 H 400.433 6.46258 0.309807 0
M  V30 4210 N 400.565 -0.0233959 1.57583 0
M  V30 4211 C 401.513 -1.04063 2.08023 0
M  V30 4212 C 402.507 -1.37084 0.995204 0
M  V30 4213 O 403.713 -1.35923 1.18004 0
M  V30 4214 H 400.088 -0.353144 0.663922 0
M  V30 4215 H 402.059 -0.589453 2.9252 0
M  V30 4216 C 400.808 -2.33123 2.57971 0
M  V30 4217 H 400.131 -2.08577 3.4108 0
M  V30 4218 H 401.571 -3.02632 2.96967 0
M  V30 4219 C 400.03 -3.02483 1.48342 0
M  V30 4220 O 400.56 -3.92541 0.852898 0
M  V30 4221 N 398.766 -2.63909 1.21658 0
M  V30 4222 H 398.313 -1.90758 1.73116 0
M  V30 4223 H 398.271 -3.10633 0.485218 0
M  V30 4224 N 402.043 -1.548 -0.295768 0
M  V30 4225 C 402.99 -1.86113 -1.36494 0
M  V30 4226 C 403.96 -0.7105 -1.50137 0
M  V30 4227 O 405.145 -0.959626 -1.64912 0
M  V30 4228 C 402.285 -2.11861 -2.72413 0
M  V30 4229 C 401.398 -3.39471 -2.67177 0
M  V30 4230 C 400.533 -3.55035 -3.95125 0
M  V30 4231 C 399.572 -4.76418 -3.84308 0
M  V30 4232 N 398.709 -4.8876 -5.04042 0
M  V30 4233 H 403.549 -2.77314 -1.09091 0
M  V30 4234 H 401.086 -1.37315 -0.52753 0
M  V30 4235 H 403.044 -2.24786 -3.51464 0
M  V30 4236 H 401.674 -1.2392 -2.98066 0
M  V30 4237 H 400.726 -3.35139 -1.79962 0
M  V30 4238 H 402.038 -4.28646 -2.55076 0
M  V30 4239 H 401.192 -3.67653 -4.82614 0
M  V30 4240 H 399.931 -2.64002 -4.10066 0
M  V30 4241 H 398.936 -4.63827 -2.95202 0
M  V30 4242 H 400.161 -5.68863 -3.70906 0
M  V30 4243 H 398.107 -4.00652 -5.19436 0
M  V30 4244 H 398.024 -5.71945 -4.94384 0
M  V30 4245 H 399.292 -5.0574 -5.93167 0
M  V30 4246 N 403.521 0.559213 -1.47345 0
M  V30 4247 C 404.746 1.34676 -1.57725 0
M  V30 4248 C 405.171 1.86723 -0.227164 0
M  V30 4249 O 404.529 1.6286 0.796642 0
M  V30 4250 C 404.577 2.49399 -2.60447 0
M  V30 4251 O 403.681 3.51567 -2.15578 0
M  V30 4252 H 403.022 0.400115 -0.52991 0
M  V30 4253 H 405.552 0.676009 -1.93109 0
M  V30 4254 H 405.562 2.95996 -2.80803 0
M  V30 4255 H 404.237 2.10873 -3.58477 0
M  V30 4256 H 402.814 3.11289 -2.05313 0
M  V30 4257 N 404.999 1.35443 0.805782 0
M  V30 4258 C 405.929 1.31095 1.93226 0
M  V30 4259 C 406.91 0.185244 1.69088 0
M  V30 4260 O 408.095 0.380332 1.90439 0
M  V30 4261 C 405.225 1.08299 3.29983 0
M  V30 4262 C 404.179 2.17519 3.68605 0
M  V30 4263 C 403.505 1.79887 5.03532 0
M  V30 4264 C 404.805 3.5949 3.78898 0
M  V30 4265 H 406.499 2.25352 1.97122 0
M  V30 4266 H 404.045 1.0848 0.946996 0
M  V30 4267 H 405.998 1.03897 4.08391 0
M  V30 4268 H 404.722 0.104885 3.26432 0
M  V30 4269 H 403.381 2.2102 2.92482 0
M  V30 4270 H 403.029 0.80693 4.96485 0
M  V30 4271 H 402.729 2.53001 5.30344 0
M  V30 4272 H 404.253 1.77011 5.84379 0
M  V30 4273 H 405.667 3.58307 4.47536 0
M  V30 4274 H 404.064 4.31371 4.1718 0
M  V30 4275 H 405.134 3.95584 2.80431 0
M  V30 4276 N 406.477 -1.02803 1.19454 0
M  V30 4277 C 407.705 -1.79841 1.02297 0
M  V30 4278 C 408.12 -1.83879 -0.428259 0
M  V30 4279 O 407.477 -1.28345 -1.29745 0
M  V30 4280 C 407.528 -3.24852 1.58598 0
M  V30 4281 O 407.249 -3.21097 2.98041 0
M  V30 4282 C 408.75 -4.18485 1.46236 0
M  V30 4283 H 405.97 -0.565936 0.360496 0
M  V30 4284 H 408.514 -1.2948 1.58288 0
M  V30 4285 H 406.669 -3.72401 1.06753 0
M  V30 4286 H 407.083 -4.12033 3.24545 0
M  V30 4287 H 408.557 -5.18121 1.90407 0
M  V30 4288 H 409.034 -4.37254 0.41301 0
M  V30 4289 H 409.64 -3.76811 1.97215 0
M  V30 4290 N 407.956 -0.998596 -1.21925 0
M  V30 4291 C 409.184 -0.696286 -1.94832 0
M  V30 4292 C 409.599 0.740032 -1.73692 0
M  V30 4293 O 408.956 1.5 -1.03953 0
M  V30 4294 C 409.007 -0.999833 -3.47398 0
M  V30 4295 O 408.728 -2.37972 -3.67833 0
M  V30 4296 C 410.229 -0.716025 -4.37479 0
M  V30 4297 H 407.449 -0.257111 -0.619786 0
M  V30 4298 H 409.993 -1.33491 -1.54921 0
M  V30 4299 H 408.148 -0.406918 -3.85257 0
M  V30 4300 H 408.562 -2.48338 -4.61983 0
M  V30 4301 H 410.036 -0.978642 -5.43256 0
M  V30 4302 H 410.513 0.349968 -4.37803 0
M  V30 4303 H 411.119 -1.29025 -4.05256 0
M  V30 4304 N 409.434 1.37368 -0.772513 0
M  V30 4305 C 410.364 2.32856 -0.173304 0
M  V30 4306 C 411.345 1.55818 0.682262 0
M  V30 4307 O 412.53 1.84052 0.619566 0
M  V30 4308 C 409.66 3.40048 0.706007 0
M  V30 4309 C 408.614 4.27973 -0.0483144 0
M  V30 4310 C 407.94 5.26184 0.950491 0
M  V30 4311 C 409.24 5.07665 -1.22776 0
M  V30 4312 H 410.934 2.83217 -0.971002 0
M  V30 4313 H 408.48 1.3617 -0.468377 0
M  V30 4314 H 410.433 4.05827 1.13501 0
M  V30 4315 H 409.157 2.88214 1.53623 0
M  V30 4316 H 407.816 3.63726 -0.458107 0
M  V30 4317 H 407.464 4.7063 1.77529 0
M  V30 4318 H 407.164 5.85872 0.450314 0
M  V30 4319 H 408.688 5.94838 1.37842 0
M  V30 4320 H 410.102 5.66578 -0.875366 0
M  V30 4321 H 408.499 5.76681 -1.66007 0
M  V30 4322 H 409.569 4.40294 -2.03149 0
M  V30 4323 N 410.912 0.523116 1.48665 0
M  V30 4324 C 412.16 -0.0134497 2.02096 0
M  V30 4325 C 412.481 -1.35418 1.40311 0
M  V30 4326 O 411.751 -1.87543 0.566074 0
M  V30 4327 H 410.331 -0.00795915 0.746958 0
M  V30 4328 H 412.993 0.685388 1.82451 0
M  V30 4329 H 412.089 -0.126849 3.11842 0
M  V30 4330 N 412.39 -1.55475 0.257931 0
M  V30 4331 C 413.337 -2.21837 -0.636939 0
M  V30 4332 C 414.307 -1.18596 -1.16294 0
M  V30 4333 O 415.492 -1.47081 -1.21539 0
M  V30 4334 C 412.632 -2.9301 -1.82317 0
M  V30 4335 C 411.745 -4.10931 -1.33265 0
M  V30 4336 C 410.88 -4.69791 -2.47931 0
M  V30 4337 C 409.919 -5.7994 -1.95796 0
M  V30 4338 N 409.056 -6.32935 -3.0387 0
M  V30 4339 H 413.896 -2.9793 -0.0643591 0
M  V30 4340 H 411.433 -1.47086 -0.0200031 0
M  V30 4341 H 413.391 -3.3248 -2.52018 0
M  V30 4342 H 412.021 -2.1937 -2.36805 0
M  V30 4343 H 411.073 -3.76699 -0.52931 0
M  V30 4344 H 412.385 -4.90417 -0.910654 0
M  V30 4345 H 411.539 -5.11892 -3.25656 0
M  V30 4346 H 410.278 -3.89545 -2.93438 0
M  V30 4347 H 409.283 -5.37305 -1.16546 0
M  V30 4348 H 410.508 -6.62043 -1.51246 0
M  V30 4349 H 408.454 -5.55591 -3.48791 0
M  V30 4350 H 408.371 -7.07645 -2.66035 0
M  V30 4351 H 409.639 -6.79695 -3.81621 0
M  V30 4352 N 413.868 0.0150385 -1.57593 0
M  V30 4353 C 415.114 0.704043 -1.90187 0
M  V30 4354 C 415.447 1.74249 -0.857366 0
M  V30 4355 O 414.722 1.94092 0.125843 0
M  V30 4356 C 415.005 1.36087 -3.33395 0
M  V30 4357 C 414.858 0.334981 -4.48551 0
M  V30 4358 C 416.177 2.29112 -3.7576 0
M  V30 4359 H 413.296 0.254475 -0.691673 0
M  V30 4360 H 415.938 -0.0331678 -1.89971 0
M  V30 4361 H 414.088 1.98922 -3.3371 0
M  V30 4362 H 415.76 -0.292534 -4.60372 0
M  V30 4363 H 414.003 -0.344325 -4.32431 0
M  V30 4364 H 414.674 0.833316 -5.45674 0
M  V30 4365 H 417.15 1.76308 -3.76902 0
M  V30 4366 H 416.026 2.72043 -4.76743 0
M  V30 4367 H 416.287 3.16385 -3.08793 0
M  V30 4368 N 415.346 1.54954 0.287554 0
M  V30 4369 C 416.595 1.74081 1.01877 0
M  V30 4370 C 416.908 0.541135 1.87966 0
M  V30 4371 O 418.114 0.614491 2.64455 0
M  V30 4372 C 416.57 3.08042 1.86113 0
M  V30 4373 C 416.178 4.35531 1.04961 0
M  V30 4374 C 417.922 3.36523 2.58752 0
M  V30 4375 C 415.829 5.60538 1.88551 0
M  V30 4376 H 414.759 0.64884 0.384087 0
M  V30 4377 H 417.41 1.81426 0.275101 0
M  V30 4378 H 415.792 2.94696 2.64519 0
M  V30 4379 H 416.966 4.59751 0.31074 0
M  V30 4380 H 415.281 4.14085 0.43843 0
M  V30 4381 H 417.878 4.27122 3.21668 0
M  V30 4382 H 418.221 2.56 3.28283 0
M  V30 4383 H 418.754 3.50901 1.87386 0
M  V30 4384 H 415.493 6.43767 1.23466 0
M  V30 4385 H 415.013 5.40483 2.60074 0
M  V30 4386 H 416.692 5.98297 2.46273 0
M  V30 4387 N 416.824 -0.551391 1.4764 0
M  V30 4388 C 418.049 -1.33837 1.58437 0
M  V30 4389 C 418.474 -1.866 0.237063 0
M  V30 4390 O 417.832 -1.6328 -0.787994 0
M  V30 4391 C 417.88 -2.48014 2.61766 0
M  V30 4392 O 416.984 -3.50419 2.1744 0
M  V30 4393 H 416.325 -0.397299 0.532024 0
M  V30 4394 H 418.855 -0.665759 1.93465 0
M  V30 4395 H 418.865 -2.94503 2.82369 0
M  V30 4396 H 417.54 -2.08969 3.5959 0
M  V30 4397 H 416.117 -3.10196 2.06961 0
M  V30 4398 N 418.302 -1.35869 -0.798587 0
M  V30 4399 C 419.265 -1.29307 -1.89242 0
M  V30 4400 C 420.265 -0.202747 -1.59517 0
M  V30 4401 O 421.455 -0.456957 -1.681 0
M  V30 4402 C 418.587 -1.00229 -3.25833 0
M  V30 4403 H 419.78 -2.26576 -1.96478 0
M  V30 4404 H 417.333 -1.20509 -0.995358 0
M  V30 4405 H 418.068 -0.033801 -3.24282 0
M  V30 4406 H 417.853 -1.79121 -3.48795 0
M  V30 4407 H 419.343 -0.98219 -4.05885 0
M  V30 4408 N 419.78 1.02168 -1.19998 0
M  V30 4409 C 420.71 2.12488 -0.96804 0
M  V30 4410 C 421.691 1.69799 0.101185 0
M  V30 4411 O 422.876 1.94121 -0.0552993 0
M  V30 4412 C 420.006 3.43479 -0.513776 0
M  V30 4413 C 418.96 3.99884 -1.52566 0
M  V30 4414 C 418.286 5.26582 -0.928214 0
M  V30 4415 C 419.586 4.33861 -2.90795 0
M  V30 4416 H 421.28 2.32149 -1.89069 0
M  V30 4417 H 418.826 1.11564 -0.910468 0
M  V30 4418 H 420.779 4.20036 -0.338774 0
M  V30 4419 H 419.503 3.23561 0.444493 0
M  V30 4420 H 418.162 3.25429 -1.68794 0
M  V30 4421 H 417.81 5.02986 0.0378289 0
M  V30 4422 H 417.51 5.65284 -1.60397 0
M  V30 4423 H 419.034 6.05799 -0.764167 0
M  V30 4424 H 420.448 5.01327 -2.78109 0
M  V30 4425 H 418.845 4.83664 -3.55231 0
M  V30 4426 H 419.915 3.42848 -3.42904 0
M  V30 4427 N 421.258 1.00505 1.21394 0
M  V30 4428 C 422.221 0.570459 2.21987 0
M  V30 4429 C 423.221 -0.353211 1.56873 0
M  V30 4430 O 424.411 -0.14349 1.73608 0
M  V30 4431 C 421.543 -0.168555 3.40483 0
M  V30 4432 H 422.736 1.46021 2.6195 0
M  V30 4433 H 420.289 0.793565 1.34656 0
M  V30 4434 H 421.024 -1.07374 3.06009 0
M  V30 4435 H 420.809 0.494823 3.88965 0
M  V30 4436 H 422.299 -0.460362 4.15055 0
M  V30 4437 N 422.737 -1.36956 0.779787 0
M  V30 4438 C 423.647 -2.33965 0.172491 0
M  V30 4439 C 424.663 -1.60574 -0.670222 0
M  V30 4440 O 425.839 -1.92617 -0.588263 0
M  V30 4441 C 422.904 -3.39761 -0.690173 0
M  V30 4442 C 421.965 -4.28964 0.169924 0
M  V30 4443 C 421.198 -5.29707 -0.651662 0
M  V30 4444 O 421.421 -5.38238 -1.88827 0
M  V30 4445 O 420.355 -6.01873 -0.0566264 0
M  V30 4446 H 424.181 -2.87647 0.974321 0
M  V30 4447 H 421.766 -1.39258 0.541078 0
M  V30 4448 H 423.648 -4.04471 -1.1824 0
M  V30 4449 H 422.323 -2.88394 -1.47006 0
M  V30 4450 H 421.23 -3.67326 0.708696 0
M  V30 4451 H 422.563 -4.83656 0.913085 0
M  V30 4452 N 424.215 -0.530993 -1.48385 0
M  V30 4453 C 425.148 0.278511 -2.26494 0
M  V30 4454 C 426.126 0.943905 -1.32398 0
M  V30 4455 O 427.31 0.968098 -1.61741 0
M  V30 4456 C 424.437 1.39453 -3.08659 0
M  V30 4457 C 423.483 0.840434 -4.18137 0
M  V30 4458 S 424.316 -0.292496 -5.34701 0
M  V30 4459 C 425.472 0.825973 -6.20426 0
M  V30 4460 H 425.705 -0.384365 -2.94805 0
M  V30 4461 H 423.238 -0.316799 -1.51115 0
M  V30 4462 H 425.196 2.03382 -3.56575 0
M  V30 4463 H 423.857 2.02913 -2.3976 0
M  V30 4464 H 423.05 1.67769 -4.75257 0
M  V30 4465 H 422.652 0.277819 -3.72967 0
M  V30 4466 H 424.944 1.72438 -6.55188 0
M  V30 4467 H 425.887 0.292728 -7.07495 0
M  V30 4468 H 426.295 1.10683 -5.53543 0
M  V30 4469 N 425.693 1.55336 -0.266172 0
M  V30 4470 C 426.97 1.91372 0.404486 0
M  V30 4471 C 427.35 1.18935 1.74407 0
M  V30 4472 O 426.698 0.3132 2.26343 0
M  V30 4473 C 426.908 3.44581 0.553593 0
M  V30 4474 C 428.256 4.16196 0.840618 0
M  V30 4475 O 429.28 3.50426 0.638739 0
M  V30 4476 O 428.139 5.32567 1.22618 0
M  V30 4477 H 425.233 0.797194 0.220025 0
M  V30 4478 H 427.779 1.66813 -0.311664 0
M  V30 4479 H 426.551 3.89357 -0.389498 0
M  V30 4480 H 426.174 3.75065 1.31955 0
M  V30 4481 N 427.171 -0.0066808 1.57599 0
M  V30 4482 C 428.396 -0.707738 1.94951 0
M  V30 4483 C 428.821 -1.66882 0.867868 0
M  V30 4484 O 428.179 -1.80457 -0.17458 0
M  V30 4485 C 428.227 -1.42162 3.31394 0
M  V30 4486 O 427.331 -2.53578 3.25226 0
M  V30 4487 H 426.672 -0.188752 0.636607 0
M  V30 4488 H 429.202 0.0445193 2.04552 0
M  V30 4489 H 429.212 -1.78655 3.66806 0
M  V30 4490 H 427.887 -0.716903 4.09675 0
M  V30 4491 H 426.464 -2.19463 3.01481 0
M  V30 4492 N 428.649 -1.55105 -0.279332 0
M  V30 4493 C 429.897 -1.75066 -1.00977 0
M  V30 4494 C 430.218 -0.551276 -1.87045 0
M  V30 4495 O 429.488 0.433984 -1.91032 0
M  V30 4496 H 428.068 -0.645578 -0.375816 0
M  V30 4497 H 430.73 -1.92497 -0.305089 0
M  V30 4498 H 429.826 -2.64894 -1.65038 0
M  V30 4499 N 430.127 0.543554 -1.4793 0
M  V30 4500 C 431.538 1.12561 -1.48953 0
M  V30 4501 C 431.889 1.94578 -0.251754 0
M  V30 4502 O 431.014 2.0665 0.642255 0
M  V30 4503 C 431.609 2.04801 -2.69892 0
M  V30 4504 C 430.168 2.58251 -2.73831 0
M  V30 4505 C 429.315 1.34918 -2.42265 0
M  V30 4506 H 432.266 0.32947 -1.55242 0
M  V30 4507 H 432.287 2.88886 -2.47639 0
M  V30 4508 H 431.799 1.4508 -3.59963 0
M  V30 4509 H 429.9 3.21732 -1.87934 0
M  V30 4510 H 430.013 2.98312 -3.74895 0
M  V30 4511 H 428.377 1.66046 -1.93134 0
M  V30 4512 H 429.16 0.769693 -3.3456 0
M  V30 4513 N 431.605 1.3629 0.791371 0
M  V30 4514 C 432.553 1.30514 1.92533 0
M  V30 4515 C 433.547 0.197285 1.68247 0
M  V30 4516 O 434.753 0.364176 1.76278 0
M  V30 4517 H 431.128 0.406263 0.632815 0
M  V30 4518 H 433.099 2.26282 1.94523 0
M  V30 4519 C 431.848 1.10933 3.29529 0
M  V30 4520 H 431.171 1.95427 3.48781 0
M  V30 4521 H 432.611 1.10937 4.0923 0
M  V30 4522 C 431.07 -0.186123 3.36385 0
M  V30 4523 O 431.6 -1.17664 3.84081 0
M  V30 4524 N 429.806 -0.230128 2.89687 0
M  V30 4525 H 429.353 0.576545 2.51065 0
M  V30 4526 H 429.311 -1.09658 2.94657 0
M  V30 4527 N 433.083 -1.0153 1.20538 0
M  V30 4528 C 434.03 -2.10098 0.955383 0
M  V30 4529 C 435 -1.65702 -0.114878 0
M  V30 4530 O 436.185 -1.90776 0.0301118 0
M  V30 4531 C 433.325 -3.41236 0.514969 0
M  V30 4532 C 432.438 -3.99102 1.65353 0
M  V30 4533 C 431.573 -5.18306 1.16329 0
M  V30 4534 C 430.612 -5.68258 2.27485 0
M  V30 4535 N 429.749 -6.78722 1.7967 0
M  V30 4536 H 434.589 -2.30818 1.88486 0
M  V30 4537 H 432.126 -1.13189 0.939499 0
M  V30 4538 H 434.084 -4.16504 0.240935 0
M  V30 4539 H 432.714 -3.20585 -0.377512 0
M  V30 4540 H 431.766 -3.20918 2.04245 0
M  V30 4541 H 433.078 -4.32177 2.49047 0
M  V30 4542 H 432.232 -6.00782 0.845302 0
M  V30 4543 H 430.971 -4.86799 0.296254 0
M  V30 4544 H 429.976 -4.84385 2.60099 0
M  V30 4545 H 431.201 -6.01798 3.14667 0
M  V30 4546 H 429.147 -6.49042 0.95295 0
M  V30 4547 H 429.064 -7.10996 2.56944 0
M  V30 4548 H 430.332 -7.64759 1.50875 0
M  V30 4549 N 434.561 -1.01147 -1.20859 0
M  V30 4550 C 435.509 -0.57059 -2.25493 0
M  V30 4551 C 436.503 0.388109 -1.64894 0
M  V30 4552 O 437.709 0.258592 -1.78133 0
M  V30 4553 H 434.084 -0.166191 -0.733406 0
M  V30 4554 H 436.055 -1.46411 -2.60012 0
M  V30 4555 C 434.804 0.0805241 -3.47607 0
M  V30 4556 H 434.127 -0.648156 -3.94511 0
M  V30 4557 H 435.567 0.352197 -4.22535 0
M  V30 4558 C 434.026 1.32175 -3.09889 0
M  V30 4559 O 434.556 2.41553 -3.20959 0
M  V30 4560 N 432.762 1.20392 -2.64488 0
M  V30 4561 H 432.309 0.313905 -2.5568 0
M  V30 4562 H 432.267 2.03541 -2.39621 0
M  V30 4563 N 436.039 1.36541 -0.78704 0
M  V30 4564 C 436.986 2.30082 -0.181901 0
M  V30 4565 C 437.956 1.5186 0.672896 0
M  V30 4566 O 439.141 1.80374 0.622072 0
M  V30 4567 C 436.281 3.3835 0.679197 0
M  V30 4568 C 435.394 4.31565 -0.193882 0
M  V30 4569 C 434.529 5.26915 0.673364 0
M  V30 4570 C 433.568 6.11769 -0.201315 0
M  V30 4571 N 432.705 6.99315 0.624777 0
M  V30 4572 H 437.545 2.81248 -0.985064 0
M  V30 4573 H 435.082 1.38437 -0.497342 0
M  V30 4574 H 437.04 3.99767 1.19341 0
M  V30 4575 H 435.67 2.8851 1.44781 0
M  V30 4576 H 434.722 3.71323 -0.826044 0
M  V30 4577 H 436.034 4.91191 -0.867937 0
M  V30 4578 H 435.188 5.9361 1.25348 0
M  V30 4579 H 433.927 4.67737 1.38105 0
M  V30 4580 H 432.932 5.44039 -0.793849 0
M  V30 4581 H 434.157 6.73022 -0.906568 0
M  V30 4582 H 432.103 6.42648 1.3168 0
M  V30 4583 H 432.02 7.56 0.00835237 0
M  V30 4584 H 433.288 7.70382 1.18879 0
M  V30 4585 N 437.518 0.538854 1.48102 0
M  V30 4586 C 438.465 -0.219042 2.29758 0
M  V30 4587 C 439.435 -0.925562 1.37922 0
M  V30 4588 O 440.62 -0.924855 1.66886 0
M  V30 4589 C 437.76 -1.25452 3.2149 0
M  V30 4590 C 436.873 -0.555943 4.28408 0
M  V30 4591 C 436.008 -1.57512 5.0731 0
M  V30 4592 C 435.047 -0.860498 6.06021 0
M  V30 4593 N 434.184 -1.82564 6.77949 0
M  V30 4594 H 439.024 0.483449 2.94052 0
M  V30 4595 H 436.561 0.250247 1.44956 0
M  V30 4596 H 438.519 -1.86727 3.7308 0
M  V30 4597 H 437.149 -1.92528 2.591 0
M  V30 4598 H 436.201 0.170938 3.80016 0
M  V30 4599 H 437.513 0.00474616 4.988 0
M  V30 4600 H 436.667 -2.26191 5.62959 0
M  V30 4601 H 435.406 -2.16972 4.36778 0
M  V30 4602 H 434.411 -0.159686 5.49568 0
M  V30 4603 H 435.636 -0.271897 6.78555 0
M  V30 4604 H 433.582 -2.40915 6.10161 0
M  V30 4605 H 433.499 -1.31662 7.44447 0
M  V30 4606 H 434.767 -2.50414 7.38182 0
M  V30 4607 N 438.996 -1.55193 0.274407 0
M  V30 4608 C 439.943 -2.225 -0.613374 0
M  V30 4609 C 440.913 -1.19823 -1.15029 0
M  V30 4610 O 442.098 -1.48362 -1.19973 0
M  V30 4611 C 439.238 -2.94927 -1.79199 0
M  V30 4612 C 438.351 -4.12322 -1.28899 0
M  V30 4613 C 437.486 -4.72394 -2.42934 0
M  V30 4614 C 436.525 -5.81984 -1.89634 0
M  V30 4615 N 435.662 -6.36123 -2.9714 0
M  V30 4616 H 440.502 -2.97982 -0.032756 0
M  V30 4617 H 438.039 -1.47099 -0.00440146 0
M  V30 4618 H 439.997 -3.35134 -2.48478 0
M  V30 4619 H 438.627 -2.2187 -2.34465 0
M  V30 4620 H 437.679 -3.7724 -0.489327 0
M  V30 4621 H 438.991 -4.91355 -0.858587 0
M  V30 4622 H 438.145 -5.15317 -3.20208 0
M  V30 4623 H 436.884 -3.92636 -2.8929 0
M  V30 4624 H 435.889 -5.38511 -1.1084 0
M  V30 4625 H 437.114 -6.6361 -1.44215 0
M  V30 4626 H 435.06 -5.59259 -3.42878 0
M  V30 4627 H 434.977 -7.10427 -2.58515 0
M  V30 4628 H 436.245 -6.83704 -3.74391 0
M  V30 4629 N 440.474 -0.00167713 -1.576 0
M  V30 4630 C 441.421 0.989195 -2.08527 0
M  V30 4631 C 442.391 1.34031 -0.981065 0
M  V30 4632 O 443.576 1.43839 -1.2536 0
M  V30 4633 C 440.716 2.27537 -2.59463 0
M  V30 4634 C 439.829 1.98314 -3.83791 0
M  V30 4635 C 438.964 3.21025 -4.23222 0
M  V30 4636 C 438.003 2.87495 -5.40382 0
M  V30 4637 N 437.14 4.02749 -5.75098 0
M  V30 4638 H 441.98 0.547973 -2.92919 0
M  V30 4639 H 439.517 0.258917 -1.44803 0
M  V30 4640 H 441.475 3.02729 -2.87073 0
M  V30 4641 H 440.105 2.69325 -1.77943 0
M  V30 4642 H 439.157 1.13482 -3.63078 0
M  V30 4643 H 440.469 1.69601 -4.69081 0
M  V30 4644 H 439.623 4.04561 -4.52123 0
M  V30 4645 H 438.362 3.52877 -3.36644 0
M  V30 4646 H 437.367 2.02367 -5.11202 0
M  V30 4647 H 438.592 2.56889 -6.28637 0
M  V30 4648 H 436.538 4.34494 -4.91478 0
M  V30 4649 H 436.455 3.77566 -6.54966 0
M  V30 4650 H 437.723 4.87068 -6.08592 0
M  V30 4651 N 441.952 1.55251 0.271103 0
M  V30 4652 C 442.899 1.88261 1.33516 0
M  V30 4653 C 443.869 0.734296 1.48988 0
M  V30 4654 O 445.054 0.985741 1.63364 0
M  V30 4655 C 442.194 2.16168 2.69008 0
M  V30 4656 C 441.307 3.43678 2.61743 0
M  V30 4657 C 440.442 3.61276 3.89427 0
M  V30 4658 C 439.481 4.82472 3.7668 0
M  V30 4659 N 438.618 4.96717 4.96202 0
M  V30 4660 H 443.458 2.79015 1.04665 0
M  V30 4661 H 440.995 1.38137 0.505618 0
M  V30 4662 H 442.953 2.30349 3.47844 0
M  V30 4663 H 441.583 1.28646 2.96057 0
M  V30 4664 H 440.635 3.37959 1.74607 0
M  V30 4665 H 441.947 4.3265 2.48224 0
M  V30 4666 H 441.101 3.75284 4.76704 0
M  V30 4667 H 439.84 2.70492 4.05814 0
M  V30 4668 H 438.845 4.68465 2.87786 0
M  V30 4669 H 440.07 5.74692 3.61809 0
M  V30 4670 H 438.016 4.08865 5.12997 0
M  V30 4671 H 437.933 5.79738 4.85222 0
M  V30 4672 H 439.201 5.15113 5.85046 0
M  V30 4673 N 443.43 -0.535701 1.48216 0
M  V30 4674 C 444.658 -1.31671 1.59594 0
M  V30 4675 C 445.073 -1.87083 0.254056 0
M  V30 4676 O 444.43 -1.66112 -0.755854 0
M  V30 4677 C 444.481 -2.47158 2.63809 0
M  V30 4678 O 444.202 -1.94032 3.92789 0
M  V30 4679 C 445.703 -3.39062 2.85573 0
M  V30 4680 H 442.923 -0.400623 0.538277 0
M  V30 4681 H 445.467 -0.646827 1.94001 0
M  V30 4682 H 443.622 -3.10043 2.32276 0
M  V30 4683 H 444.036 -2.69585 4.49916 0
M  V30 4684 H 445.51 -4.16459 3.62306 0
M  V30 4685 H 445.987 -3.93941 1.94184 0
M  V30 4686 H 446.593 -2.81975 3.18387 0
M  V30 4687 N 444.908 -1.36708 -0.784132 0
M  V30 4688 C 446.185 -1.21776 -1.53069 0
M  V30 4689 C 446.565 0.193876 -2.10208 0
M  V30 4690 O 445.913 1.20012 -1.94446 0
M  V30 4691 C 446.123 -2.30395 -2.62143 0
M  V30 4692 C 447.471 -2.67325 -3.29882 0
M  V30 4693 O 448.495 -2.29478 -2.7243 0
M  V30 4694 O 447.354 -3.32485 -4.33724 0
M  V30 4695 H 444.448 -0.474459 -0.677361 0
M  V30 4696 H 446.994 -1.48454 -0.82216 0
M  V30 4697 H 445.766 -3.2498 -2.17953 0
M  V30 4698 H 445.389 -2.05112 -3.40609 0
M  V30 4699 N 446.386 1.0089 -1.21074 0
M  V30 4700 C 447.633 1.74607 -1.0256 0
M  V30 4701 C 447.961 1.89426 0.44136 0
M  V30 4702 O 447.216 1.42266 1.34384 0
M  V30 4703 C 447.515 3.16335 -1.66334 0
M  V30 4704 C 447.181 3.21474 -3.16173 0
M  V30 4705 C 445.843 3.22583 -3.57062 0
M  V30 4706 C 448.195 3.19025 -4.12156 0
M  V30 4707 C 445.523 3.18925 -4.92446 0
M  V30 4708 C 447.875 3.16909 -5.47496 0
M  V30 4709 C 446.539 3.16326 -5.87787 0
M  V30 4710 H 445.809 0.638933 -0.375294 0
M  V30 4711 H 448.456 1.18274 -1.50611 0
M  V30 4712 H 446.761 3.75876 -1.10566 0
M  V30 4713 H 448.458 3.72083 -1.49516 0
M  V30 4714 H 445.048 3.2135 -2.83605 0
M  V30 4715 H 449.232 3.17332 -3.81595 0
M  V30 4716 H 444.488 3.16809 -5.22917 0
M  V30 4717 H 448.662 3.13968 -6.21609 0
M  V30 4718 H 446.289 3.13246 -6.92662 0
M  V30 4719 N 447.864 1.01787 1.20321 0
M  V30 4720 C 449.113 0.703249 1.89043 0
M  V30 4721 C 449.426 -0.770445 1.79787 0
M  V30 4722 O 450.632 -1.19767 2.43656 0
M  V30 4723 C 449.088 1.20749 3.3904 0
M  V30 4724 C 448.696 2.70817 3.56878 0
M  V30 4725 C 450.44 0.968352 4.13308 0
M  V30 4726 C 448.347 3.14716 5.00708 0
M  V30 4727 H 447.277 0.259354 0.707991 0
M  V30 4728 H 449.928 1.23072 1.36108 0
M  V30 4729 H 448.31 0.607989 3.91305 0
M  V30 4730 H 449.484 3.36327 3.14993 0
M  V30 4731 H 447.799 2.92888 2.95983 0
M  V30 4732 H 450.396 1.27173 5.19356 0
M  V30 4733 H 450.739 -0.095149 4.16191 0
M  V30 4734 H 451.272 1.53129 3.67146 0
M  V30 4735 H 448.011 4.20347 5.02979 0
M  V30 4736 H 447.531 2.53927 5.43398 0
M  V30 4737 H 449.21 3.07426 5.69296 0
M  V30 4738 N 449.342 -1.36122 0.79427 0
M  V30 4739 C 450.753 -1.81646 0.431446 0
M  V30 4740 C 451.104 -1.66043 -1.04518 0
M  V30 4741 O 450.229 -1.1841 -1.8113 0
M  V30 4742 C 450.824 -3.29785 0.776341 0
M  V30 4743 C 449.383 -3.73501 0.466282 0
M  V30 4744 C 448.53 -2.58313 1.00844 0
M  V30 4745 H 451.481 -1.24274 0.986995 0
M  V30 4746 H 451.502 -3.80437 0.0692413 0
M  V30 4747 H 451.014 -3.4111 1.8511 0
M  V30 4748 H 449.115 -3.67733 -0.600245 0
M  V30 4749 H 449.228 -4.68754 0.990288 0
M  V30 4750 H 447.592 -2.5102 0.431406 0
M  V30 4751 H 448.375 -2.72421 2.08906 0
M  V30 4752 N 450.82 -0.546701 -1.47814 0
M  V30 4753 C 452.05 -0.0232519 -2.06587 0
M  V30 4754 C 452.458 1.2712 -1.40133 0
M  V30 4755 O 451.801 1.77091 -0.488305 0
M  V30 4756 C 451.863 0.254117 -3.58601 0
M  V30 4757 C 451.527 -0.949331 -4.47031 0
M  V30 4758 C 452.524 -1.85216 -4.85789 0
M  V30 4759 C 450.209 -1.16104 -4.88697 0
M  V30 4760 C 452.203 -2.95047 -5.65001 0
M  V30 4761 C 449.89 -2.26247 -5.67676 0
M  V30 4762 C 450.888 -3.1555 -6.05737 0
M  V30 4763 O 450.576 -4.23784 -6.83127 0
M  V30 4764 H 450.308 -0.0380082 -0.674931 0
M  V30 4765 H 452.862 -0.756631 -1.90956 0
M  V30 4766 H 451.092 1.04168 -3.72406 0
M  V30 4767 H 452.781 0.72167 -3.99433 0
M  V30 4768 H 453.547 -1.70061 -4.54207 0
M  V30 4769 H 449.426 -0.475159 -4.58545 0
M  V30 4770 H 452.97 -3.64778 -5.94628 0
M  V30 4771 H 448.867 -2.41379 -5.98671 0
M  V30 4772 H 449.635 -4.21701 -7.01506 0
M  V30 4773 N 452.299 1.55045 -0.282633 0
M  V30 4774 C 453.715 1.59441 0.0712997 0
M  V30 4775 C 453.915 1.2998 1.53972 0
M  V30 4776 O 452.971 1.06431 2.28973 0
M  V30 4777 C 454.284 2.99097 -0.310104 0
M  V30 4778 C 455.832 3.1194 -0.257343 0
M  V30 4779 C 456.307 4.53875 -0.613297 0
M  V30 4780 N 457.798 4.5974 -0.565134 0
M  V30 4781 C 458.533 5.67603 -0.81326 0
M  V30 4782 N 458.029 6.83582 -1.1264 0
M  V30 4783 N 459.822 5.57187 -0.741553 0
M  V30 4784 H 451.973 1.72458 -1.23984 0
M  V30 4785 H 454.236 0.804549 -0.501403 0
M  V30 4786 H 453.942 3.25516 -1.33163 0
M  V30 4787 H 453.816 3.75616 0.345366 0
M  V30 4788 H 456.203 2.85281 0.754905 0
M  V30 4789 H 456.284 2.37618 -0.947178 0
M  V30 4790 H 455.928 4.81261 -1.62327 0
M  V30 4791 H 455.858 5.26508 0.09841 0
M  V30 4792 H 458.349 3.76427 -0.333294 0
M  V30 4793 H 458.662 7.6175 -1.30219 0
M  V30 4794 H 457.007 6.85179 -1.16425 0
M  V30 4795 H 460.198 4.65457 -0.496705 0
M  V30 4796 H 460.371 6.41171 -0.938306 0
M  V30 4797 N 453.777 0.010035 1.57597 0
M  V30 4798 C 455.054 -0.710296 1.82248 0
M  V30 4799 C 455.434 -1.91426 0.889911 0
M  V30 4800 O 454.782 -2.28424 -0.0590292 0
M  V30 4801 C 454.992 -1.10655 3.30993 0
M  V30 4802 C 456.34 -1.50621 3.96987 0
M  V30 4803 O 457.364 -1.20007 3.35375 0
M  V30 4804 O 456.223 -2.07587 5.05539 0
M  V30 4805 H 453.317 -0.34673 0.750804 0
M  V30 4806 H 455.863 0.0362578 1.69661 0
M  V30 4807 H 454.635 -0.248826 3.90508 0
M  V30 4808 H 454.258 -1.91189 3.48615 0
M  V30 4809 N 455.255 -1.55392 -0.262866 0
M  V30 4810 C 456.48 -1.80847 -1.01533 0
M  V30 4811 C 456.905 -0.584946 -1.78774 0
M  V30 4812 O 456.263 0.465701 -1.75217 0
M  V30 4813 C 456.311 -3.03866 -1.94159 0
M  V30 4814 O 455.415 -2.79662 -3.03089 0
M  V30 4815 H 454.756 -0.597441 -0.289759 0
M  V30 4816 H 457.286 -2.02553 -0.288698 0
M  V30 4817 H 457.296 -3.32872 -2.35924 0
M  V30 4818 H 455.971 -3.92564 -1.37354 0
M  V30 4819 H 454.548 -2.61781 -2.65566 0
M  V30 4820 N 456.733 0.527833 -1.48498 0
M  V30 4821 C 457.979 1.28545 -1.56857 0
M  V30 4822 C 458.312 1.92678 -0.242651 0
M  V30 4823 O 457.587 1.79394 0.751545 0
M  V30 4824 C 457.87 2.37314 -2.70839 0
M  V30 4825 C 457.723 1.77858 -4.13142 0
M  V30 4826 C 459.042 3.39068 -2.80573 0
M  V30 4827 H 456.161 0.466006 -0.570971 0
M  V30 4828 H 458.803 0.587784 -1.8068 0
M  V30 4829 H 456.953 2.96821 -2.50658 0
M  V30 4830 H 458.625 1.22385 -4.44769 0
M  V30 4831 H 456.868 1.08383 -4.20042 0
M  V30 4832 H 457.539 2.56624 -4.88721 0
M  V30 4833 H 460.015 2.89518 -2.98862 0
M  V30 4834 H 458.891 4.12566 -3.6205 0
M  V30 4835 H 459.152 3.9975 -1.88818 0
M  V30 4836 N 458.211 1.37122 0.776871 0
M  V30 4837 C 459.141 1.35164 1.90402 0
M  V30 4838 C 460.122 0.221069 1.68657 0
M  V30 4839 O 461.307 0.420642 1.8959 0
M  V30 4840 C 458.437 1.15274 3.27611 0
M  V30 4841 C 457.391 2.25289 3.63908 0
M  V30 4842 C 456.717 1.90527 4.99603 0
M  V30 4843 C 458.017 3.67446 3.71188 0
M  V30 4844 H 459.711 2.29482 1.92297 0
M  V30 4845 H 457.257 1.10465 0.923773 0
M  V30 4846 H 459.21 1.12536 4.06096 0
M  V30 4847 H 457.934 0.174102 3.26136 0
M  V30 4848 H 456.593 2.27174 2.87728 0
M  V30 4849 H 456.241 0.91206 4.94662 0
M  V30 4850 H 455.941 2.64193 5.24858 0
M  V30 4851 H 457.465 1.89367 5.80493 0
M  V30 4852 H 458.879 3.67719 4.39836 0
M  V30 4853 H 457.276 4.40123 4.07936 0
M  V30 4854 H 458.346 4.01443 2.71977 0
M  V30 4855 N 459.689 -1.00246 1.21608 0
M  V30 4856 C 460.917 -1.77631 1.06089 0
M  V30 4857 C 461.332 -1.84746 -0.38916 0
M  V30 4858 O 460.689 -1.31068 -1.26994 0
M  V30 4859 C 460.74 -3.21415 1.65453 0
M  V30 4860 O 460.461 -3.14703 3.04785 0
M  V30 4861 C 461.962 -4.15289 1.55079 0
M  V30 4862 H 459.182 -0.558162 0.37242 0
M  V30 4863 H 461.726 -1.26093 1.60999 0
M  V30 4864 H 459.881 -3.70053 1.14629 0
M  V30 4865 H 460.295 -4.05056 3.33212 0
M  V30 4866 H 461.769 -5.13965 2.01355 0
M  V30 4867 H 462.246 -4.36279 0.505665 0
M  V30 4868 H 462.852 -3.72543 2.05163 0
M  V30 4869 N 461.167 -1.02423 -1.1978 0
M  V30 4870 C 462.413 -0.72878 -1.89896 0
M  V30 4871 C 462.768 0.734248 -1.77839 0
M  V30 4872 O 462.061 1.52733 -1.15685 0
M  V30 4873 C 462.255 -1.1088 -3.39765 0
M  V30 4874 C 462.084 -2.60722 -3.66407 0
M  V30 4875 C 460.854 -3.27623 -3.84696 0
M  V30 4876 C 463.052 -3.58924 -3.68345 0
M  V30 4877 N 461.034 -4.66617 -3.98926 0
M  V30 4878 C 462.405 -4.83514 -3.8809 0
M  V30 4879 C 464.46 -3.52788 -3.51347 0
M  V30 4880 C 463.163 -6.0271 -3.92598 0
M  V30 4881 C 465.189 -4.71394 -3.5713 0
M  V30 4882 C 464.551 -5.94796 -3.77356 0
M  V30 4883 H 460.65 -0.318473 -0.714212 0
M  V30 4884 H 463.234 -1.3106 -1.43984 0
M  V30 4885 H 461.405 -0.555233 -3.84411 0
M  V30 4886 H 463.137 -0.766082 -3.97383 0
M  V30 4887 H 459.892 -2.7804 -3.83393 0
M  V30 4888 H 460.316 -5.38805 -4.099 0
M  V30 4889 H 464.958 -2.58372 -3.3467 0
M  V30 4890 H 462.676 -6.97499 -4.08069 0
M  V30 4891 H 466.262 -4.6827 -3.45275 0
M  V30 4892 H 465.142 -6.85037 -3.81699 0
M  V30 4893 N 462.645 1.35699 -0.801477 0
M  V30 4894 C 463.575 2.32436 -0.222658 0
M  V30 4895 C 464.556 1.5723 0.649057 0
M  V30 4896 O 465.741 1.85324 0.580387 0
M  V30 4897 C 462.871 3.41469 0.633719 0
M  V30 4898 C 461.825 4.27774 -0.139083 0
M  V30 4899 C 461.151 5.28082 0.838666 0
M  V30 4900 C 462.451 5.04946 -1.33517 0
M  V30 4901 H 464.145 2.81094 -1.03086 0
M  V30 4902 H 461.691 1.35146 -0.497155 0
M  V30 4903 H 463.644 4.08143 1.04868 0
M  V30 4904 H 462.368 2.91408 1.47475 0
M  V30 4905 H 461.027 3.62673 -0.535156 0
M  V30 4906 H 460.675 4.7429 1.67506 0
M  V30 4907 H 460.375 5.86695 0.32594 0
M  V30 4908 H 461.899 5.97628 1.25194 0
M  V30 4909 H 463.313 5.64593 -0.995349 0
M  V30 4910 H 461.71 5.7303 -1.78202 0
M  V30 4911 H 462.78 4.35886 -2.12442 0
M  V30 4912 N 464.123 0.554532 1.47522 0
M  V30 4913 C 465.053 -0.182974 2.32782 0
M  V30 4914 C 466.034 -0.911377 1.43624 0
M  V30 4915 O 467.219 -0.892366 1.72483 0
M  V30 4916 C 464.349 -1.21513 3.25349 0
M  V30 4917 C 463.303 -0.603355 4.23726 0
M  V30 4918 C 462.629 -1.73995 5.05598 0
M  V30 4919 C 463.929 0.441121 5.20434 0
M  V30 4920 H 465.623 0.52882 2.94693 0
M  V30 4921 H 463.169 0.255759 1.41711 0
M  V30 4922 H 465.122 -1.73922 3.83835 0
M  V30 4923 H 463.846 -1.95683 2.61487 0
M  V30 4924 H 462.505 -0.10059 3.66462 0
M  V30 4925 H 462.153 -2.47063 4.38143 0
M  V30 4926 H 461.853 -1.3364 5.72201 0
M  V30 4927 H 463.377 -2.26735 5.66942 0
M  V30 4928 H 464.791 0.00319931 5.733 0
M  V30 4929 H 463.188 0.763402 5.95224 0
M  V30 4930 H 464.258 1.33799 4.66075 0
M  V30 4931 N 465.601 -1.54893 0.290851 0
M  V30 4932 C 467.017 -1.59476 -0.0628432 0
M  V30 4933 C 467.217 -1.30795 -1.5328 0
M  V30 4934 O 466.273 -1.07644 -2.28406 0
M  V30 4935 C 467.586 -2.98928 0.325962 0
M  V30 4936 C 469.134 -3.11799 0.273882 0
M  V30 4937 C 469.609 -4.53544 0.637359 0
M  V30 4938 N 471.1 -4.59433 0.589507 0
M  V30 4939 C 471.835 -5.67164 0.84335 0
M  V30 4940 N 471.331 -6.82975 1.16263 0
M  V30 4941 N 473.124 -5.56786 0.771091 0
M  V30 4942 H 465.275 -1.71798 1.24896 0
M  V30 4943 H 467.538 -0.801879 0.505663 0
M  V30 4944 H 467.244 -3.24805 1.34887 0
M  V30 4945 H 467.118 -3.75793 -0.325441 0
M  V30 4946 H 469.505 -2.85677 -0.739765 0
M  V30 4947 H 469.586 -2.37112 0.959766 0
M  V30 4948 H 469.23 -4.80394 1.64877 0
M  V30 4949 H 469.16 -5.26553 -0.0704866 0
M  V30 4950 H 471.651 -3.76245 0.353252 0
M  V30 4951 H 471.964 -7.61048 1.34257 0
M  V30 4952 H 470.309 -6.84552 1.20057 0
M  V30 4953 H 473.5 -4.65187 0.521383 0
M  V30 4954 H 473.673 -6.40664 0.972295 0
M  V30 4955 N 467.08 -0.0183926 -1.57589 0
M  V30 4956 C 467.99 0.982943 -2.13015 0
M  V30 4957 C 469.006 1.36443 -1.07979 0
M  V30 4958 O 470.182 1.44802 -1.3998 0
M  V30 4959 C 467.247 2.25024 -2.63752 0
M  V30 4960 C 466.308 1.93018 -3.83461 0
M  V30 4961 C 465.541 3.13706 -4.31769 0
M  V30 4962 O 465.764 4.2601 -3.79305 0
M  V30 4963 O 464.698 2.96629 -5.23732 0
M  V30 4964 H 468.524 0.541709 -2.9883 0
M  V30 4965 H 466.109 0.201565 -1.48034 0
M  V30 4966 H 467.991 2.99441 -2.96502 0
M  V30 4967 H 466.666 2.68349 -1.81026 0
M  V30 4968 H 465.573 1.16019 -3.55655 0
M  V30 4969 H 466.906 1.54516 -4.67317 0
M  V30 4970 N 468.558 1.5553 0.254621 0
M  V30 4971 C 469.506 1.9048 1.33492 0
M  V30 4972 C 470.5 0.78304 1.50216 0
M  V30 4973 O 471.706 0.967582 1.51782 0
M  V30 4974 H 468.081 0.604846 0.44684 0
M  V30 4975 H 470.052 2.80688 1.01275 0
M  V30 4976 C 468.801 2.20928 2.68489 0
M  V30 4977 H 468.124 3.06742 2.56417 0
M  V30 4978 H 469.564 2.49291 3.42972 0
M  V30 4979 C 468.023 1.023 3.20993 0
M  V30 4980 O 468.553 0.267027 4.00811 0
M  V30 4981 N 466.759 0.815714 2.78917 0
M  V30 4982 H 466.306 1.43217 2.14119 0
M  V30 4983 H 466.264 0.0236532 3.14391 0
M  V30 4984 N 470.036 -0.519951 1.48776 0
M  V30 4985 C 470.966 -1.63253 1.66945 0
M  V30 4986 C 471.947 -1.62014 0.518224 0
M  V30 4987 O 473.132 -1.79053 0.751919 0
M  V30 4988 C 470.262 -3.0181 1.71836 0
M  V30 4989 C 469.216 -3.17911 2.8656 0
M  V30 4990 C 468.542 -4.5763 2.76548 0
M  V30 4991 C 469.842 -2.99729 4.27738 0
M  V30 4992 H 471.536 -1.48302 2.6009 0
M  V30 4993 H 469.082 -0.712026 1.25165 0
M  V30 4994 H 471.035 -3.79525 1.83135 0
M  V30 4995 H 469.759 -3.17806 0.752775 0
M  V30 4996 H 468.418 -2.42616 2.74833 0
M  V30 4997 H 468.066 -4.70476 1.77937 0
M  V30 4998 H 467.766 -4.69346 3.53536 0
M  V30 4999 H 469.29 -5.37431 2.89828 0
M  V30 5000 H 470.704 -3.67228 4.40246 0
M  V30 5001 H 469.101 -3.22932 5.05801 0
M  V30 5002 H 470.171 -1.96047 4.43502 0
M  V30 5003 N 471.514 -1.37532 -0.769588 0
M  V30 5004 C 472.762 -1.32597 -1.5252 0
M  V30 5005 C 473.083 0.0884294 -1.94799 0
M  V30 5006 O 472.353 1.03289 -1.66458 0
M  V30 5007 H 470.933 -0.487846 -0.565699 0
M  V30 5008 H 473.595 -1.72044 -0.915806 0
M  V30 5009 H 472.691 -1.96643 -2.42359 0
M  V30 5010 N 472.992 0.995999 -1.22138 0
M  V30 5011 C 474.24 1.73167 -1.042 0
M  V30 5012 C 474.561 1.90329 0.42423 0
M  V30 5013 O 473.831 1.4607 1.30539 0
M  V30 5014 H 472.411 0.641593 -0.38258 0
M  V30 5015 H 475.073 1.19974 -1.53598 0
M  V30 5016 H 474.169 2.72734 -1.51731 0
M  V30 5017 N 474.47 1.03057 1.19235 0
M  V30 5018 C 475.418 0.606391 2.24557 0
M  V30 5019 C 476.412 -0.361826 1.65491 0
M  V30 5020 O 477.618 -0.23022 1.78522 0
M  V30 5021 H 473.993 0.177838 0.730669 0
M  V30 5022 H 475.964 1.50529 2.5765 0
M  V30 5023 C 474.713 -0.0252127 3.47691 0
M  V30 5024 H 474.036 0.710838 3.9343 0
M  V30 5025 H 475.476 -0.284931 4.23042 0
M  V30 5026 C 473.935 -1.27229 3.11953 0
M  V30 5027 O 474.465 -2.36416 3.24762 0
M  V30 5028 N 472.671 -1.16169 2.6637 0
M  V30 5029 H 472.218 -0.273189 2.56147 0
M  V30 5030 H 472.176 -1.99703 2.42829 0
M  V30 5031 N 475.948 -1.35272 0.808662 0
M  V30 5032 C 477.173 -2.03477 0.401475 0
M  V30 5033 C 477.598 -1.60537 -0.980279 0
M  V30 5034 O 476.956 -0.78304 -1.63518 0
M  V30 5035 C 477.004 -3.57181 0.495354 0
M  V30 5036 O 476.108 -4.09474 -0.490397 0
M  V30 5037 H 475.449 -0.642561 0.167366 0
M  V30 5038 H 477.979 -1.72824 1.09512 0
M  V30 5039 H 477.989 -4.06356 0.365912 0
M  V30 5040 H 476.664 -3.87784 1.5032 0
M  V30 5041 H 475.241 -3.71516 -0.321023 0
M  V30 5042 N 477.426 -0.562348 -1.47226 0
M  V30 5043 C 478.842 -0.222492 -1.58042 0
M  V30 5044 C 479.042 1.27505 -1.56028 0
M  V30 5045 O 478.098 2.05555 -1.46641 0
M  V30 5046 C 479.411 -0.853694 -2.88327 0
M  V30 5047 C 480.959 -0.825397 -3.01921 0
M  V30 5048 C 481.434 -1.43576 -4.34914 0
M  V30 5049 N 482.925 -1.39918 -4.41562 0
M  V30 5050 C 483.66 -1.84103 -5.43041 0
M  V30 5051 N 483.156 -2.36167 -6.51304 0
M  V30 5052 N 484.949 -1.75142 -5.34118 0
M  V30 5053 H 477.1 -1.53525 -1.46778 0
M  V30 5054 H 479.363 -0.640527 -0.698877 0
M  V30 5055 H 479.069 -1.90635 -2.95552 0
M  V30 5056 H 478.943 -0.34977 -3.75575 0
M  V30 5057 H 481.33 0.218583 -2.94289 0
M  V30 5058 H 481.411 -1.36713 -2.16202 0
M  V30 5059 H 481.055 -2.47884 -4.43301 0
M  V30 5060 H 480.985 -0.869427 -5.19373 0
M  V30 5061 H 483.476 -1.0184 -3.63919 0
M  V30 5062 H 483.789 -2.67793 -7.24919 0
M  V30 5063 H 482.134 -2.40181 -6.52179 0
M  V30 5064 H 485.325 -1.34241 -4.48439 0
M  V30 5065 H 485.498 -2.09895 -6.13065 0
M  V30 5066 N 478.904 1.54736 -0.299062 0
M  V30 5067 C 480.132 2.04512 0.313447 0
M  V30 5068 C 480.547 1.17643 1.47667 0
M  V30 5069 O 479.904 0.20164 1.81383 0
M  V30 5070 C 479.955 3.53171 0.771542 0
M  V30 5071 O 479.676 4.36736 -0.345379 0
M  V30 5072 C 481.177 4.18936 1.4494 0
M  V30 5073 H 478.397 0.667507 0.0683784 0
M  V30 5074 H 480.941 1.99752 -0.438129 0
M  V30 5075 H 479.096 3.58298 1.47314 0
M  V30 5076 H 479.51 5.24499 0.0109219 0
M  V30 5077 H 480.984 5.24482 1.72111 0
M  V30 5078 H 481.461 3.68554 2.38883 0
M  V30 5079 H 482.067 4.17879 0.791028 0
M  V30 5080 N 480.382 0.0267497 1.57577 0
M  V30 5081 C 481.345 -0.940916 2.08996 0
M  V30 5082 C 482.345 -1.25561 1.00455 0
M  V30 5083 O 483.535 -1.19634 1.26623 0
M  V30 5084 C 480.667 -2.25814 2.55384 0
M  V30 5085 H 481.86 -0.495628 2.95776 0
M  V30 5086 H 479.413 -0.221241 1.54726 0
M  V30 5087 H 480.148 -2.74976 1.71926 0
M  V30 5088 H 479.933 -2.04285 3.34679 0
M  V30 5089 H 481.423 -2.95178 2.95398 0
M  V30 5090 N 481.861 -1.55662 -0.24637 0
M  V30 5091 C 482.794 -1.85332 -1.33143 0
M  V30 5092 C 483.772 -0.708464 -1.46354 0
M  V30 5093 O 484.956 -0.954274 -1.6256 0
M  V30 5094 C 482.083 -2.0385 -2.70487 0
M  V30 5095 C 481.129 -3.26488 -2.74423 0
M  V30 5096 S 481.962 -4.83124 -2.30979 0
M  V30 5097 C 483.118 -5.04647 -3.70246 0
M  V30 5098 H 483.351 -2.77077 -1.07777 0
M  V30 5099 H 480.884 -1.47776 -0.44738 0
M  V30 5100 H 482.842 -2.15202 -3.49569 0
M  V30 5101 H 481.503 -1.12947 -2.9309 0
M  V30 5102 H 480.696 -3.36413 -3.7529 0
M  V30 5103 H 480.298 -3.13864 -2.03385 0
M  V30 5104 H 482.59 -4.92023 -4.65746 0
M  V30 5105 H 483.533 -6.06625 -3.65255 0
M  V30 5106 H 483.941 -4.32491 -3.62784 0
M  V30 5107 N 483.339 0.512053 -1.4905 0
M  V30 5108 C 484.585 1.26874 -1.58212 0
M  V30 5109 C 484.918 1.9241 -0.263073 0
M  V30 5110 O 484.193 1.80181 0.732476 0
M  V30 5111 C 484.476 2.34428 -2.73341 0
M  V30 5112 C 484.329 1.73466 -4.15006 0
M  V30 5113 C 485.648 3.36073 -2.84154 0
M  V30 5114 H 482.767 0.459924 -0.575881 0
M  V30 5115 H 485.409 0.568587 -1.81293 0
M  V30 5116 H 483.559 2.94146 -2.53792 0
M  V30 5117 H 485.231 1.17661 -4.46042 0
M  V30 5118 H 483.474 1.03921 -4.21168 0
M  V30 5119 H 484.145 2.51426 -4.91415 0
M  V30 5120 H 486.621 2.86332 -3.01916 0
M  V30 5121 H 485.497 4.08703 -3.66406 0
M  V30 5122 H 485.758 3.97725 -1.93048 0
M  V30 5123 N 484.817 1.37938 0.762283 0
M  V30 5124 C 485.78 1.34279 1.85747 0
M  V30 5125 C 486.78 0.244969 1.58923 0
M  V30 5126 O 487.97 0.501365 1.66829 0
M  V30 5127 C 485.102 1.08833 3.23061 0
M  V30 5128 H 486.295 2.31705 1.90401 0
M  V30 5129 H 483.848 1.23105 0.963057 0
M  V30 5130 H 484.583 0.119767 3.24079 0
M  V30 5131 H 484.368 1.88306 3.43923 0
M  V30 5132 H 485.858 1.08946 4.03138 0
M  V30 5133 N 486.295 -0.989507 1.22664 0
M  V30 5134 C 487.258 -2.06183 1.00106 0
M  V30 5135 C 488.258 -1.60765 -0.0337726 0
M  V30 5136 O 489.448 -1.72989 0.205072 0
M  V30 5137 C 486.58 -3.37021 0.51279 0
M  V30 5138 H 487.773 -2.27629 1.95256 0
M  V30 5139 H 485.326 -1.16158 1.0458 0
M  V30 5140 H 486.061 -3.21261 -0.442917 0
M  V30 5141 H 485.846 -3.71323 1.25942 0
M  V30 5142 H 487.336 -4.1591 0.375315 0
M  V30 5143 N 487.773 -1.03688 -1.18687 0
M  V30 5144 C 488.703 -0.645407 -2.24403 0
M  V30 5145 C 489.684 0.349511 -1.66471 0
M  V30 5146 O 490.869 0.230453 -1.92828 0
M  V30 5147 C 487.999 -0.00365337 -3.473 0
M  V30 5148 C 486.953 -0.921705 -4.17958 0
M  V30 5149 C 486.279 -0.144629 -5.34504 0
M  V30 5150 C 487.579 -2.23909 -4.71871 0
M  V30 5151 H 489.273 -1.52917 -2.57404 0
M  V30 5152 H 486.819 -0.736711 -1.23728 0
M  V30 5153 H 488.772 0.281908 -4.20456 0
M  V30 5154 H 487.496 0.914963 -3.13522 0
M  V30 5155 H 486.155 -1.19159 -3.46694 0
M  V30 5156 H 485.803 0.776274 -4.96974 0
M  V30 5157 H 485.503 -0.756206 -5.82714 0
M  V30 5158 H 487.027 0.134004 -6.10453 0
M  V30 5159 H 488.441 -2.0145 -5.36741 0
M  V30 5160 H 486.838 -2.8033 -5.30599 0
M  V30 5161 H 487.908 -2.88822 -3.895 0
M  V30 5162 N 489.251 1.34841 -0.815825 0
M  V30 5163 C 490.476 2.03261 -0.41226 0
M  V30 5164 C 490.901 1.61055 0.971751 0
M  V30 5165 O 490.259 0.7917 1.63101 0
M  V30 5166 C 490.307 3.56914 -0.514289 0
M  V30 5167 O 489.411 4.09728 0.468675 0
M  V30 5168 H 488.752 0.641664 -0.170771 0
M  V30 5169 H 491.282 1.72241 -1.10427 0
M  V30 5170 H 491.292 4.06156 -0.387457 0
M  V30 5171 H 489.967 3.86982 -1.52375 0
M  V30 5172 H 488.544 3.71681 0.301316 0
M  V30 5173 N 490.729 0.570148 1.46925 0
M  V30 5174 C 492.14 0.1402 1.86173 0
M  V30 5175 C 492.491 -1.29347 1.47526 0
M  V30 5176 O 491.616 -1.97508 0.884292 0
M  V30 5177 C 492.211 0.247661 3.37894 0
M  V30 5178 C 490.77 -0.127332 3.76185 0
M  V30 5179 C 489.917 0.589349 2.70965 0
M  V30 5180 H 492.868 0.779117 1.38259 0
M  V30 5181 H 492.889 -0.530341 3.76786 0
M  V30 5182 H 492.401 1.29121 3.65991 0
M  V30 5183 H 490.502 -1.17149 3.53704 0
M  V30 5184 H 490.615 0.240238 4.78497 0
M  V30 5185 H 488.979 0.0309824 2.54681 0
M  V30 5186 H 489.762 1.6343 3.01903 0
M  V30 5187 N 492.207 -1.54576 0.307264 0
M  V30 5188 C 493.17 -2.22423 -0.553224 0
M  V30 5189 C 494.17 -1.21231 -1.05639 0
M  V30 5190 O 495.36 -1.45923 -0.951419 0
M  V30 5191 C 492.492 -2.91552 -1.76664 0
M  V30 5192 H 493.685 -2.99874 0.0396484 0
M  V30 5193 H 491.238 -1.56192 0.0581629 0
M  V30 5194 H 491.973 -2.18196 -2.39918 0
M  V30 5195 H 491.758 -3.65738 -1.41343 0
M  V30 5196 H 493.248 -3.43292 -2.37783 0
M  V30 5197 N 493.685 -0.035106 -1.57561 0
M  V30 5198 C 494.962 0.681212 -1.83354 0
M  V30 5199 C 495.342 1.89986 -0.920252 0
M  V30 5200 O 494.69 2.28489 0.0226815 0
M  V30 5201 C 494.9 1.05376 -3.32712 0
M  V30 5202 C 496.248 1.44286 -3.99333 0
M  V30 5203 O 497.272 1.14656 -3.37242 0
M  V30 5204 O 496.131 1.99518 -5.08778 0
M  V30 5205 H 493.225 0.334741 -0.756226 0
M  V30 5206 H 495.771 -0.0632448 -1.69582 0
M  V30 5207 H 494.543 0.186668 -3.90854 0
M  V30 5208 H 494.166 1.85619 -3.51613 0
M  V30 5209 N 495.163 1.55791 0.238111 0
M  V30 5210 C 496.412 1.77234 0.962868 0
M  V30 5211 C 496.725 0.600661 1.86149 0
M  V30 5212 O 497.931 0.698315 2.62366 0
M  V30 5213 C 496.387 3.13808 1.76218 0
M  V30 5214 C 495.995 4.3865 0.910518 0
M  V30 5215 C 497.739 3.44585 2.47914 0
M  V30 5216 C 495.646 5.66252 1.70623 0
M  V30 5217 H 494.576 0.660731 0.36325 0
M  V30 5218 H 497.227 1.8221 0.217242 0
M  V30 5219 H 495.609 3.02963 2.55009 0
M  V30 5220 H 496.783 4.60507 0.164316 0
M  V30 5221 H 495.098 4.15271 0.30647 0
M  V30 5222 H 497.695 4.3714 3.07917 0
M  V30 5223 H 498.038 2.66314 3.19973 0
M  V30 5224 H 498.571 3.56685 1.76127 0
M  V30 5225 H 495.31 6.47369 1.02923 0
M  V30 5226 H 494.83 5.48483 2.42748 0
M  V30 5227 H 496.509 6.05829 2.27114 0
M  V30 5228 N 496.642 -0.504142 1.49319 0
M  V30 5229 C 497.59 -1.62689 1.66238 0
M  V30 5230 C 498.584 -1.6095 0.528349 0
M  V30 5231 O 499.79 -1.65496 0.707887 0
M  V30 5232 H 496.165 -0.539247 0.524134 0
M  V30 5233 H 498.136 -1.45571 2.60484 0
M  V30 5234 C 496.885 -3.00841 1.74328 0
M  V30 5235 H 496.208 -3.02884 2.60963 0
M  V30 5236 H 497.648 -3.78945 1.90202 0
M  V30 5237 C 496.107 -3.33355 0.487416 0
M  V30 5238 O 496.637 -3.99819 -0.388294 0
M  V30 5239 N 494.843 -2.88469 0.351306 0
M  V30 5240 H 494.39 -2.34557 1.06492 0
M  V30 5241 H 494.348 -3.10591 -0.487899 0
M  V30 5242 N 498.12 -1.38341 -0.754957 0
M  V30 5243 C 499.35 -1.37504 -1.54195 0
M  V30 5244 C 499.758 0.0373787 -1.89163 0
M  V30 5245 O 499.101 1.01402 -1.53178 0
M  V30 5246 C 499.163 -2.16488 -2.87008 0
M  V30 5247 C 498.827 -3.65311 -2.74585 0
M  V30 5248 C 499.824 -4.58834 -2.44474 0
M  V30 5249 C 497.509 -4.08649 -2.9208 0
M  V30 5250 C 499.503 -5.93675 -2.32011 0
M  V30 5251 C 497.19 -5.43571 -2.79237 0
M  V30 5252 C 498.188 -6.35898 -2.49245 0
M  V30 5253 O 497.876 -7.68338 -2.36458 0
M  V30 5254 H 497.608 -0.472159 -0.483779 0
M  V30 5255 H 500.162 -1.82515 -0.94221 0
M  V30 5256 H 498.392 -1.66194 -3.49166 0
M  V30 5257 H 500.081 -2.08076 -3.4851 0
M  V30 5258 H 500.847 -4.26657 -2.30627 0
M  V30 5259 H 496.726 -3.37134 -3.14422 0
M  V30 5260 H 500.27 -6.65706 -2.08522 0
M  V30 5261 H 496.167 -5.75345 -2.92657 0
M  V30 5262 H 496.935 -7.78845 -2.5168 0
M  V30 5263 N 499.598 0.982988 -1.23187 0
M  V30 5264 C 500.875 1.69814 -0.970707 0
M  V30 5265 C 501.255 2.04811 0.511424 0
M  V30 5266 O 500.603 1.73924 1.48198 0
M  V30 5267 C 500.813 2.94143 -1.87831 0
M  V30 5268 C 502.161 3.66712 -2.14026 0
M  V30 5269 O 503.185 3.04171 -1.8536 0
M  V30 5270 O 502.044 4.79258 -2.62629 0
M  V30 5271 H 499.138 0.741659 -0.365884 0
M  V30 5272 H 501.684 1.03844 -1.34218 0
M  V30 5273 H 500.456 2.64858 -2.88038 0
M  V30 5274 H 500.079 3.6785 -1.50905 0
M  V30 5275 N 501.076 1.04316 1.18135 0
M  V30 5276 C 501.986 0.646876 2.25505 0
M  V30 5277 C 503.002 -0.328008 1.7088 0
M  V30 5278 O 504.178 -0.182309 2.00573 0
M  V30 5279 C 501.243 0.0185664 3.46695 0
M  V30 5280 C 500.304 1.04277 4.16443 0
M  V30 5281 C 499.537 0.444352 5.31847 0
M  V30 5282 O 499.76 -0.748735 5.65465 0
M  V30 5283 O 498.694 1.17428 5.90334 0
M  V30 5284 H 502.52 1.54147 2.61672 0
M  V30 5285 H 500.105 0.814188 1.25265 0
M  V30 5286 H 501.987 -0.331068 4.20097 0
M  V30 5287 H 500.662 -0.849814 3.12346 0
M  V30 5288 H 499.569 1.44425 3.45098 0
M  V30 5289 H 500.902 1.882 4.54798 0
M  V30 5290 N 502.554 -1.34406 0.822964 0
M  V30 5291 C 503.782 -2.02508 0.424039 0
M  V30 5292 C 504.197 -1.61975 -0.970022 0
M  V30 5293 O 503.554 -0.825228 -1.62777 0
M  V30 5294 C 503.605 -3.57789 0.516657 0
M  V30 5295 O 503.326 -3.96853 1.85577 0
M  V30 5296 C 504.827 -4.43157 0.112637 0
M  V30 5297 H 502.047 -0.649063 0.170173 0
M  V30 5298 H 504.591 -1.7168 1.11113 0
M  V30 5299 H 502.746 -3.87207 -0.122353 0
M  V30 5300 H 503.16 -4.91538 1.83005 0
M  V30 5301 H 504.634 -5.51527 0.228526 0
M  V30 5302 H 505.111 -4.28939 -0.943837 0
M  V30 5303 H 505.717 -4.19067 0.725449 0
M  V30 5304 N 504.032 -0.577932 -1.46621 0
M  V30 5305 C 504.962 0.145917 -2.33044 0
M  V30 5306 C 505.943 0.888412 -1.45056 0
M  V30 5307 O 507.128 0.864812 -1.73881 0
M  V30 5308 C 504.258 1.16322 -3.27241 0
M  V30 5309 C 503.212 0.535868 -4.24632 0
M  V30 5310 C 502.538 1.65929 -5.08303 0
M  V30 5311 C 503.838 -0.523861 -5.19666 0
M  V30 5312 H 505.532 -0.575636 -2.93814 0
M  V30 5313 H 503.078 -0.278272 -1.41286 0
M  V30 5314 H 505.031 1.67793 -3.86553 0
M  V30 5315 H 503.755 1.91498 -2.64567 0
M  V30 5316 H 502.414 0.0422759 -3.66576 0
M  V30 5317 H 502.062 2.40061 -4.42018 0
M  V30 5318 H 501.762 1.2452 -5.74255 0
M  V30 5319 H 503.286 2.17686 -5.70478 0
M  V30 5320 H 504.7 -0.0944059 -5.73222 0
M  V30 5321 H 503.097 -0.858 -5.93935 0
M  V30 5322 H 504.167 -1.41197 -4.63887 0
M  V30 5323 N 505.51 1.54411 -0.315457 0
M  V30 5324 C 506.735 2.05299 0.294496 0
M  V30 5325 C 507.16 1.19052 1.4563 0
M  V30 5326 O 506.518 0.197804 1.80218 0
M  V30 5327 C 506.566 3.5345 0.714549 0
M  V30 5328 O 505.67 3.70175 1.81781 0
M  V30 5329 H 505.011 0.661743 0.0547019 0
M  V30 5330 H 507.541 1.99327 -0.461508 0
M  V30 5331 H 507.551 3.9557 0.999426 0
M  V30 5332 H 506.226 4.1568 -0.135244 0
M  V30 5333 H 504.803 3.3996 1.53236 0
M  V30 5334 N 506.988 0.0434614 1.5754 0
M  V30 5335 C 508.216 -0.641835 1.96693 0
M  V30 5336 C 508.631 -1.64832 0.920652 0
M  V30 5337 O 507.988 -1.82247 -0.095993 0
M  V30 5338 C 508.039 -1.33557 3.35924 0
M  V30 5339 O 507.76 -0.369403 4.3654 0
M  V30 5340 C 509.261 -2.11135 3.89791 0
M  V30 5341 H 506.481 -0.176013 0.647503 0
M  V30 5342 H 509.025 0.107478 2.04217 0
M  V30 5343 H 507.18 -2.03617 3.29574 0
M  V30 5344 H 507.594 -0.863674 5.1734 0
M  V30 5345 H 509.068 -2.55107 4.89514 0
M  V30 5346 H 509.545 -2.95634 3.24803 0
M  V30 5347 H 510.151 -1.46002 3.99454 0
M  V30 5348 N 508.466 -1.55915 -0.229846 0
M  V30 5349 C 509.396 -1.94754 -1.28815 0
M  V30 5350 C 510.377 -0.814657 -1.49323 0
M  V30 5351 O 511.562 -1.07631 -1.61645 0
M  V30 5352 C 508.692 -2.25705 -2.63959 0
M  V30 5353 C 507.646 -3.41406 -2.5812 0
M  V30 5354 C 506.972 -3.57941 -3.97218 0
M  V30 5355 C 508.272 -4.76616 -2.13623 0
M  V30 5356 H 509.966 -2.83404 -0.965547 0
M  V30 5357 H 507.512 -1.36353 -0.463028 0
M  V30 5358 H 509.465 -2.51467 -3.38146 0
M  V30 5359 H 508.189 -1.339 -2.9789 0
M  V30 5360 H 506.848 -3.1568 -1.86391 0
M  V30 5361 H 506.496 -2.63526 -4.28443 0
M  V30 5362 H 506.196 -4.35757 -3.94195 0
M  V30 5363 H 507.72 -3.86042 -4.73079 0
M  V30 5364 H 509.134 -5.01637 -2.77549 0
M  V30 5365 H 507.531 -5.57655 -2.21677 0
M  V30 5366 H 508.601 -4.7253 -1.08829 0
M  V30 5367 N 509.944 0.496216 -1.49584 0
M  V30 5368 C 511.36 0.827814 -1.36453 0
M  V30 5369 C 511.56 1.97464 -0.401285 0
M  V30 5370 O 510.616 2.51958 0.165296 0
M  V30 5371 C 511.929 1.16352 -2.77277 0
M  V30 5372 C 513.477 1.27145 -2.86013 0
M  V30 5373 C 513.952 1.64042 -4.27615 0
M  V30 5374 N 515.443 1.71082 -4.30448 0
M  V30 5375 C 516.178 2.01085 -5.36984 0
M  V30 5376 N 515.674 2.2928 -6.5376 0
M  V30 5377 N 517.467 2.02376 -5.24405 0
M  V30 5378 H 509.618 -0.259947 -2.10803 0
M  V30 5379 H 511.881 -0.0537163 -0.946477 0
M  V30 5380 H 511.587 0.394153 -3.49484 0
M  V30 5381 H 511.461 2.10582 -3.12946 0
M  V30 5382 H 513.848 2.03152 -2.1404 0
M  V30 5383 H 513.929 0.309542 -2.5392 0
M  V30 5384 H 513.573 0.88583 -5.00115 0
M  V30 5385 H 513.503 2.6134 -4.57175 0
M  V30 5386 H 515.994 1.51434 -3.46232 0
M  V30 5387 H 516.307 2.51376 -7.30774 0
M  V30 5388 H 514.652 2.26726 -6.56978 0
M  V30 5389 H 517.843 1.79829 -4.32179 0
M  V30 5390 H 518.016 2.25425 -6.07526 0
M  V30 5391 N 511.423 1.38739 0.74761 0
M  V30 5392 C 512.653 1.3832 1.53464 0
M  V30 5393 C 513.061 -0.0273464 1.8918 0
M  V30 5394 O 512.404 -1.00588 1.53713 0
M  V30 5395 C 512.466 2.18007 2.85855 0
M  V30 5396 C 512.13 3.66762 2.72644 0
M  V30 5397 C 513.127 4.60124 2.42037 0
M  V30 5398 C 510.812 4.10193 2.89909 0
M  V30 5399 C 512.806 5.94897 2.28859 0
M  V30 5400 C 510.493 5.45045 2.7635 0
M  V30 5401 C 511.491 6.37211 2.45869 0
M  V30 5402 O 511.179 7.69581 2.3238 0
M  V30 5403 H 510.911 0.474718 0.481268 0
M  V30 5404 H 513.465 1.83012 0.932518 0
M  V30 5405 H 511.695 1.68043 3.48279 0
M  V30 5406 H 513.384 2.09921 3.47402 0
M  V30 5407 H 514.15 4.27874 2.28361 0
M  V30 5408 H 510.029 3.38797 3.1263 0
M  V30 5409 H 513.573 6.66802 2.04989 0
M  V30 5410 H 509.47 5.76889 2.89601 0
M  V30 5411 H 510.238 7.80169 2.47546 0
M  V30 5412 N 512.901 -0.976442 1.23707 0
M  V30 5413 C 513.864 -2.0511 1.02287 0
M  V30 5414 C 514.864 -1.60791 -0.0167195 0
M  V30 5415 O 516.054 -1.72761 0.223408 0
M  V30 5416 C 513.186 -3.36458 0.548507 0
M  V30 5417 H 514.379 -2.25545 1.9766 0
M  V30 5418 H 511.932 -1.15042 1.05806 0
M  V30 5419 H 512.667 -3.21713 -0.408818 0
M  V30 5420 H 512.452 -3.69967 1.29874 0
M  V30 5421 H 513.942 -4.15489 0.419406 0
M  V30 5422 N 514.379 -1.04941 -1.1758 0
M  V30 5423 C 515.656 -0.671918 -1.83697 0
M  V30 5424 C 516.036 0.847929 -1.93322 0
M  V30 5425 O 515.384 1.75287 -1.46583 0
M  V30 5426 C 515.594 -1.35797 -3.21497 0
M  V30 5427 C 516.942 -1.4944 -3.97433 0
M  V30 5428 O 517.966 -1.31678 -3.30967 0
M  V30 5429 O 516.825 -1.78463 -5.1654 0
M  V30 5430 H 513.919 -0.236212 -0.792548 0
M  V30 5431 H 516.465 -1.14884 -1.24899 0
M  V30 5432 H 515.237 -2.39498 -3.09446 0
M  V30 5433 H 514.86 -0.870236 -3.8796 0
M  V30 5434 N 515.857 1.33968 -0.830081 0
M  V30 5435 C 517.273 1.51003 -0.516742 0
M  V30 5436 C 517.473 1.77286 0.957694 0
M  V30 5437 O 516.529 1.82797 1.74188 0
M  V30 5438 C 517.842 2.67036 -1.38247 0
M  V30 5439 C 519.39 2.80919 -1.38034 0
M  V30 5440 C 519.865 4.00004 -2.23071 0
M  V30 5441 N 521.356 4.07224 -2.20733 0
M  V30 5442 C 522.091 4.98541 -2.83275 0
M  V30 5443 N 521.587 5.95033 -3.54835 0
M  V30 5444 N 523.38 4.91469 -2.72791 0
M  V30 5445 H 515.531 1.15168 -1.78466 0
M  V30 5446 H 517.794 0.565443 -0.760906 0
M  V30 5447 H 517.5 2.54266 -2.42985 0
M  V30 5448 H 517.374 3.62226 -1.05225 0
M  V30 5449 H 519.761 2.93127 -0.340713 0
M  V30 5450 H 519.842 1.86517 -1.75057 0
M  V30 5451 H 519.486 3.88557 -3.27087 0
M  V30 5452 H 519.416 4.93634 -1.83394 0
M  V30 5453 H 521.907 3.38162 -1.68687 0
M  V30 5454 H 522.22 6.61357 -3.99784 0
M  V30 5455 H 520.565 5.95135 -3.58942 0
M  V30 5456 H 523.756 4.15048 -2.16456 0
M  V30 5457 H 523.929 5.62439 -3.21818 0
M  V30 5458 N 517.335 0.585699 1.46312 0
M  V30 5459 C 518.298 -0.135673 2.28798 0
M  V30 5460 C 519.298 -0.815988 1.38558 0
M  V30 5461 O 520.488 -0.667487 1.60904 0
M  V30 5462 C 517.62 -1.20163 3.1902 0
M  V30 5463 H 518.813 0.589257 2.94054 0
M  V30 5464 H 516.366 0.343794 1.52472 0
M  V30 5465 H 517.101 -1.95804 2.58517 0
M  V30 5466 H 516.886 -0.718282 3.85465 0
M  V30 5467 H 518.376 -1.70749 3.81096 0
M  V30 5468 N 518.813 -1.54241 0.323641 0
M  V30 5469 C 519.76 -2.24339 -0.542277 0
M  V30 5470 C 520.73 -1.23421 -1.11159 0
M  V30 5471 O 521.915 -1.52104 -1.15192 0
M  V30 5472 C 519.055 -3.00479 -1.69725 0
M  V30 5473 C 518.168 -4.16214 -1.15716 0
M  V30 5474 C 517.303 -4.79884 -2.27783 0
M  V30 5475 C 516.342 -5.87722 -1.71023 0
M  V30 5476 N 515.479 -6.45254 -2.76752 0
M  V30 5477 H 520.319 -2.97935 0.0620613 0
M  V30 5478 H 517.856 -1.47039 0.0423993 0
M  V30 5479 H 519.814 -3.42869 -2.3769 0
M  V30 5480 H 518.444 -2.29217 -2.27288 0
M  V30 5481 H 517.496 -3.78605 -0.369063 0
M  V30 5482 H 518.808 -4.93838 -0.701832 0
M  V30 5483 H 517.962 -5.25243 -3.03651 0
M  V30 5484 H 516.701 -4.01641 -2.76652 0
M  V30 5485 H 515.706 -5.41765 -0.936518 0
M  V30 5486 H 516.931 -6.67863 -1.2303 0
M  V30 5487 H 514.877 -5.69884 -3.24912 0
M  V30 5488 H 514.794 -7.18292 -2.35782 0
M  V30 5489 H 516.062 -6.95269 -3.5245 0
M  V30 5490 N 520.291 -0.0518155 -1.57515 0
M  V30 5491 C 521.223 0.951542 -2.08515 0
M  V30 5492 C 522.236 1.27436 -1.01311 0
M  V30 5493 O 523.425 1.23504 -1.28876 0
M  V30 5494 C 520.525 2.27291 -2.5138 0
M  V30 5495 C 519.698 2.13191 -3.81927 0
M  V30 5496 C 518.757 3.28458 -4.11098 0
M  V30 5497 O 517.783 3.04334 -4.81009 0
M  V30 5498 N 518.985 4.52954 -3.63061 0
M  V30 5499 H 521.75 0.516242 -2.9522 0
M  V30 5500 H 519.311 0.13441 -1.61341 0
M  V30 5501 H 521.303 3.03272 -2.67971 0
M  V30 5502 H 519.873 2.62386 -1.69919 0
M  V30 5503 H 519.093 1.21798 -3.74912 0
M  V30 5504 H 520.381 2.00999 -4.67415 0
M  V30 5505 H 519.779 4.75444 -3.06545 0
M  V30 5506 H 518.336 5.26026 -3.84889 0
M  V30 5507 N 521.769 1.56035 0.221574 0
M  V30 5508 C 523.018 1.78245 0.944016 0
M  V30 5509 C 523.331 0.620371 1.85501 0
M  V30 5510 O 524.537 0.726103 2.6161 0
M  V30 5511 C 522.993 3.15659 1.7288 0
M  V30 5512 C 522.601 4.39591 0.863942 0
M  V30 5513 C 524.345 3.47195 2.44246 0
M  V30 5514 C 522.252 5.6803 1.64607 0
M  V30 5515 H 521.182 0.664547 0.356222 0
M  V30 5516 H 523.833 1.8243 0.197904 0
M  V30 5517 H 522.215 3.0565 2.51781 0
M  V30 5518 H 523.389 4.60655 0.115464 0
M  V30 5519 H 521.704 4.15572 0.262407 0
M  V30 5520 H 524.301 4.40381 3.03263 0
M  V30 5521 H 524.644 2.69693 3.1713 0
M  V30 5522 H 525.177 3.58533 1.72334 0
M  V30 5523 H 521.916 6.48425 0.960507 0
M  V30 5524 H 521.436 5.51027 2.36917 0
M  V30 5525 H 523.115 6.08203 2.20675 0
M  V30 5526 N 523.247 -0.488276 1.49845 0
M  V30 5527 C 524.663 -0.820566 1.3689 0
M  V30 5528 C 524.863 -1.97248 0.411752 0
M  V30 5529 O 523.919 -2.52042 -0.151931 0
M  V30 5530 C 525.232 -1.1488 2.77891 0
M  V30 5531 C 526.78 -1.25626 2.86683 0
M  V30 5532 C 527.255 -1.61772 4.28479 0
M  V30 5533 N 528.746 -1.68797 4.31349 0
M  V30 5534 C 529.481 -1.98235 5.38043 0
M  V30 5535 N 528.977 -2.2581 6.54967 0
M  V30 5536 N 530.77 -1.99593 5.2547 0
M  V30 5537 H 522.921 0.271123 2.10662 0
M  V30 5538 H 525.184 0.058735 0.946179 0
M  V30 5539 H 524.89 -0.375614 3.49688 0
M  V30 5540 H 524.764 -2.08919 3.14058 0
M  V30 5541 H 527.151 -2.02014 2.15114 0
M  V30 5542 H 527.232 -0.296072 2.54081 0
M  V30 5543 H 526.876 -0.859295 5.00578 0
M  V30 5544 H 526.806 -2.58912 4.58554 0
M  V30 5545 H 529.297 -1.49595 3.4703 0
M  V30 5546 H 529.61 -2.47497 7.32096 0
M  V30 5547 H 527.955 -2.23239 6.58171 0
M  V30 5548 H 531.146 -1.77535 4.33127 0
M  V30 5549 H 531.319 -2.222 6.08713 0
M  V30 5550 N 524.725 -1.39134 -0.740242 0
M  V30 5551 C 525.965 -1.37499 -1.51239 0
M  V30 5552 C 526.329 0.0310084 -1.91975 0
M  V30 5553 O 527.53 0.172319 -2.68247 0
M  V30 5554 C 525.801 -2.31566 -2.72235 0
M  V30 5555 S 527.36 -2.48073 -3.61947 0
M  V30 5556 H 524.178 -0.48768 -0.517387 0
M  V30 5557 H 526.78 -1.75183 -0.867826 0
M  V30 5558 H 525.484 -3.32592 -2.40439 0
M  V30 5559 H 525.015 -1.9508 -3.41625 0
M  V30 5560 H 527.03 -1.71473 -4.6563 0
M  V30 5561 N 526.204 0.969867 -1.24223 0
M  V30 5562 C 527.152 2.08535 -1.03034 0
M  V30 5563 C 528.146 1.69366 0.0340379 0
M  V30 5564 O 529.352 1.79597 -0.12034 0
M  V30 5565 H 525.727 0.682313 -0.316154 0
M  V30 5566 H 527.698 2.23569 -1.97635 0
M  V30 5567 C 526.447 3.4158 -0.649509 0
M  V30 5568 H 525.77 3.72177 -1.46028 0
M  V30 5569 H 527.21 4.20536 -0.540841 0
M  V30 5570 C 525.669 3.30703 0.643194 0
M  V30 5571 O 526.199 3.64443 1.68951 0
M  V30 5572 N 524.405 2.83841 0.623095 0
M  V30 5573 H 523.952 2.56583 -0.228719 0
M  V30 5574 H 523.91 2.76946 1.48823 0
M  V30 5575 N 527.682 1.05563 1.17022 0
M  V30 5576 C 528.645 0.664098 2.19368 0
M  V30 5577 C 529.645 -0.286358 1.5823 0
M  V30 5578 O 530.835 -0.069728 1.7406 0
M  V30 5579 C 527.967 -0.0239932 3.40892 0
M  V30 5580 H 529.16 1.57 2.55521 0
M  V30 5581 H 526.713 0.849964 1.31169 0
M  V30 5582 H 527.448 -0.942988 3.10287 0
M  V30 5583 H 527.233 0.659351 3.86516 0
M  V30 5584 H 528.723 -0.283909 4.16634 0
M  V30 5585 N 529.16 -1.33526 0.837174 0
M  V30 5586 C 530.406 -1.9813 0.432704 0
M  V30 5587 C 530.739 -1.66168 -1.00508 0
M  V30 5588 O 530.014 -0.94069 -1.70239 0
M  V30 5589 C 530.297 -3.54151 0.651834 0
M  V30 5590 C 530.15 -3.95806 2.13676 0
M  V30 5591 C 531.469 -4.39993 0.0968937 0
M  V30 5592 H 528.588 -0.719713 0.15869 0
M  V30 5593 H 531.23 -1.58193 1.05237 0
M  V30 5594 H 529.38 -3.88301 0.124369 0
M  V30 5595 H 531.052 -3.71921 2.72896 0
M  V30 5596 H 529.295 -3.45599 2.62191 0
M  V30 5597 H 529.966 -5.0447 2.24084 0
M  V30 5598 H 532.442 -4.12479 0.547733 0
M  V30 5599 H 531.318 -5.48186 0.279917 0
M  V30 5600 H 531.579 -4.3066 -0.9992 0
M  V30 5601 N 530.638 -0.59345 -1.46 0
M  V30 5602 C 531.887 -0.0808084 -2.01538 0
M  V30 5603 C 532.2 1.29112 -1.46934 0
M  V30 5604 O 533.406 1.8957 -1.94359 0
M  V30 5605 C 531.862 -0.0938311 -3.59778 0
M  V30 5606 C 531.47 -1.46474 -4.23379 0
M  V30 5607 C 533.214 0.364306 -4.22934 0
M  V30 5608 C 531.121 -1.4349 -5.73729 0
M  V30 5609 H 530.051 -0.0264407 -0.753536 0
M  V30 5610 H 532.702 -0.746689 -1.67621 0
M  V30 5611 H 531.084 0.638427 -3.9082 0
M  V30 5612 H 532.258 -2.21758 -4.03931 0
M  V30 5613 H 530.573 -1.86379 -3.7236 0
M  V30 5614 H 533.17 0.405584 -5.3316 0
M  V30 5615 H 533.513 1.38409 -3.92618 0
M  V30 5616 H 534.046 -0.31423 -3.96557 0
M  V30 5617 H 530.785 -2.43184 -6.08722 0
M  V30 5618 H 530.305 -0.724431 -5.95409 0
M  V30 5619 H 531.984 -1.15243 -6.36654 0
M  V30 5620 N 532.116 1.54067 -0.331816 0
M  V30 5621 C 533.064 2.26105 0.54582 0
M  V30 5622 C 534.058 1.27816 1.11173 0
M  V30 5623 O 535.264 1.45565 1.05882 0
M  V30 5624 H 531.639 0.726363 0.194683 0
M  V30 5625 H 533.61 2.98282 -0.083931 0
M  V30 5626 C 532.359 3.03814 1.69092 0
M  V30 5627 H 531.682 3.79269 1.26473 0
M  V30 5628 H 533.122 3.57453 2.28043 0
M  V30 5629 C 531.581 2.12606 2.61343 0
M  V30 5630 O 532.111 1.71437 3.6328 0
M  V30 5631 N 530.317 1.77925 2.29763 0
M  V30 5632 H 529.864 2.11602 1.46909 0
M  V30 5633 H 529.822 1.1718 2.91747 0
M  V30 5634 N 533.594 0.0601682 1.57485 0
M  V30 5635 C 534.504 -0.926121 2.15546 0
M  V30 5636 C 535.52 -1.33532 1.11558 0
M  V30 5637 O 536.696 -1.4104 1.4377 0
M  V30 5638 C 533.761 -2.17952 2.69625 0
M  V30 5639 C 532.822 -1.82783 3.88444 0
M  V30 5640 C 532.055 -3.02148 4.39935 0
M  V30 5641 O 532.278 -4.15803 3.90466 0
M  V30 5642 O 531.212 -2.82639 5.31412 0
M  V30 5643 H 535.038 -0.462289 3.00161 0
M  V30 5644 H 532.623 -0.162246 1.48516 0
M  V30 5645 H 534.505 -2.91474 3.04337 0
M  V30 5646 H 533.18 -2.63456 1.88077 0
M  V30 5647 H 532.087 -1.06549 3.58606 0
M  V30 5648 H 533.42 -1.42072 4.7125 0
M  V30 5649 N 535.072 -1.5615 -0.213296 0
M  V30 5650 C 536.349 -1.70349 -0.961281 0
M  V30 5651 C 536.729 -0.609791 -2.02101 0
M  V30 5652 O 536.077 0.381987 -2.25285 0
M  V30 5653 C 536.287 -3.11982 -1.56424 0
M  V30 5654 C 537.635 -3.71649 -2.05334 0
M  V30 5655 O 538.659 -3.14995 -1.66302 0
M  V30 5656 O 537.518 -4.71038 -2.77102 0
M  V30 5657 H 534.612 -0.694121 -0.449582 0
M  V30 5658 H 537.158 -1.68464 -0.204426 0
M  V30 5659 H 535.93 -3.83046 -0.799457 0
M  V30 5660 H 535.553 -3.18019 -2.38641 0
M  V30 5661 N 536.55 0.480323 -1.50102 0
M  V30 5662 C 537.961 1.06142 -1.53593 0
M  V30 5663 C 538.312 1.93335 -0.334055 0
M  V30 5664 O 537.437 2.09188 0.55403 0
M  V30 5665 C 538.032 1.9317 -2.78336 0
M  V30 5666 C 536.591 2.46405 -2.84538 0
M  V30 5667 C 535.738 1.24521 -2.4777 0
M  V30 5668 H 538.689 0.26333 -1.565 0
M  V30 5669 H 538.71 2.78123 -2.59669 0
M  V30 5670 H 538.222 1.29683 -3.65792 0
M  V30 5671 H 536.323 3.13472 -2.01411 0
M  V30 5672 H 536.436 2.82143 -3.87211 0
M  V30 5673 H 534.8 1.57706 -2.00003 0
M  V30 5674 H 535.583 0.627102 -3.37524 0
M  V30 5675 N 538.028 1.39524 0.732853 0
M  V30 5676 C 538.976 1.38563 1.86824 0
M  V30 5677 C 539.97 0.268467 1.67259 0
M  V30 5678 O 541.176 0.438613 1.74574 0
M  V30 5679 H 537.551 0.432737 0.615014 0
M  V30 5680 H 539.522 2.34328 1.84751 0
M  V30 5681 C 538.271 1.2481 3.24527 0
M  V30 5682 H 537.594 2.10044 3.40179 0
M  V30 5683 H 539.034 1.28194 4.04156 0
M  V30 5684 C 537.493 -0.0432825 3.36872 0
M  V30 5685 O 538.023 -1.01268 3.88726 0
M  V30 5686 N 536.229 -0.107055 2.90403 0
M  V30 5687 H 535.776 0.682512 2.48394 0
M  V30 5688 H 535.734 -0.970618 2.99042 0
M  V30 5689 N 539.506 -0.963266 1.24736 0
M  V30 5690 C 540.454 -2.07985 1.04139 0
M  V30 5691 C 541.448 -1.69381 -0.0250556 0
M  V30 5692 O 542.654 -1.79531 0.129863 0
M  V30 5693 H 539.029 -0.680627 0.319768 0
M  V30 5694 H 541 -2.22517 1.98818 0
M  V30 5695 C 539.749 -3.4123 0.667615 0
M  V30 5696 H 539.072 -3.71397 1.48 0
M  V30 5697 H 540.512 -4.20244 0.563136 0
M  V30 5698 C 538.971 -3.3104 -0.625647 0
M  V30 5699 O 539.501 -3.65334 -1.67016 0
M  V30 5700 N 537.707 -2.84168 -0.608033 0
M  V30 5701 H 537.254 -2.56458 0.242323 0
M  V30 5702 H 537.212 -2.77732 -1.47352 0
M  V30 5703 N 540.985 -1.06182 -1.16461 0
M  V30 5704 C 541.932 -0.671613 -2.20812 0
M  V30 5705 C 542.902 0.331186 -1.62765 0
M  V30 5706 O 544.087 0.22033 -1.89524 0
M  V30 5707 C 541.227 -0.063029 -3.45042 0
M  V30 5708 C 540.34 -1.11587 -4.1734 0
M  V30 5709 C 539.475 -0.473546 -5.29085 0
M  V30 5710 C 538.514 -1.51 -5.93182 0
M  V30 5711 N 537.651 -0.891118 -6.96422 0
M  V30 5712 H 542.491 -1.56589 -2.53542 0
M  V30 5713 H 540.028 -0.782951 -1.24532 0
M  V30 5714 H 541.986 0.307344 -4.16066 0
M  V30 5715 H 540.616 0.794663 -3.12866 0
M  V30 5716 H 539.668 -1.60396 -3.44931 0
M  V30 5717 H 540.98 -1.90221 -4.61104 0
M  V30 5718 H 540.134 -0.0501432 -6.06679 0
M  V30 5719 H 538.873 0.344687 -4.8648 0
M  V30 5720 H 537.878 -1.94331 -5.14311 0
M  V30 5721 H 539.103 -2.33031 -6.37866 0
M  V30 5722 H 537.049 -0.0935753 -6.55933 0
M  V30 5723 H 536.966 -1.61486 -7.38551 0
M  V30 5724 H 538.234 -0.492822 -7.77941 0
M  V30 5725 N 542.463 1.3308 -0.844243 0
M  V30 5726 C 543.393 2.3161 -0.296493 0
M  V30 5727 C 544.374 1.59215 0.598707 0
M  V30 5728 O 545.559 1.87077 0.521134 0
M  V30 5729 C 542.689 3.43313 0.524762 0
M  V30 5730 C 541.643 4.27115 -0.275106 0
M  V30 5731 C 540.969 5.30483 0.670236 0
M  V30 5732 C 542.269 5.00443 -1.49514 0
M  V30 5733 H 543.963 2.77672 -1.11976 0
M  V30 5734 H 541.509 1.33496 -0.539899 0
M  V30 5735 H 543.462 4.11273 0.918298 0
M  V30 5736 H 542.186 2.95952 1.3813 0
M  V30 5737 H 540.845 3.60787 -0.650267 0
M  V30 5738 H 540.493 4.79379 1.52332 0
M  V30 5739 H 540.193 5.87435 0.139123 0
M  V30 5740 H 541.717 6.01308 1.06117 0
M  V30 5741 H 543.131 5.61141 -1.17447 0
M  V30 5742 H 541.528 5.67071 -1.96343 0
M  V30 5743 H 542.598 4.28906 -2.26202 0
M  V30 5744 N 543.941 0.601185 1.45683 0
M  V30 5745 C 545.19 0.0914953 2.01492 0
M  V30 5746 C 545.503 -1.28331 1.47616 0
M  V30 5747 O 546.709 -1.88537 1.95362 0
M  V30 5748 C 545.165 0.11291 3.59723 0
M  V30 5749 C 544.773 1.48717 4.22596 0
M  V30 5750 C 546.517 -0.341871 4.23121 0
M  V30 5751 C 544.424 1.46531 5.7296 0
M  V30 5752 H 543.354 0.0304365 0.753385 0
M  V30 5753 H 546.005 0.755568 1.67223 0
M  V30 5754 H 544.387 -0.617692 3.91153 0
M  V30 5755 H 545.561 2.23897 4.02749 0
M  V30 5756 H 543.876 1.88351 3.71366 0
M  V30 5757 H 546.473 -0.377304 5.33367 0
M  V30 5758 H 546.816 -1.36325 3.93346 0
M  V30 5759 H 547.349 0.335256 3.96385 0
M  V30 5760 H 544.088 2.46408 6.07423 0
M  V30 5761 H 543.608 0.755997 5.95017 0
M  V30 5762 H 545.287 1.18618 6.36034 0
M  V30 5763 N 545.419 -1.53889 0.339982 0
M  V30 5764 C 546.835 -1.59595 -0.0120752 0
M  V30 5765 C 547.035 -1.35605 -1.49042 0
M  V30 5766 O 546.091 -1.14856 -2.24865 0
M  V30 5767 C 547.404 -2.9774 0.420898 0
M  V30 5768 C 548.952 -3.1077 0.37294 0
M  V30 5769 C 549.427 -4.51286 0.781327 0
M  V30 5770 N 550.918 -4.57325 0.735374 0
M  V30 5771 C 551.653 -5.64194 1.02336 0
M  V30 5772 N 551.149 -6.7893 1.37933 0
M  V30 5773 N 552.942 -5.54051 0.947838 0
M  V30 5774 H 545.093 -1.67738 1.30299 0
M  V30 5775 H 547.356 -0.785385 0.530918 0
M  V30 5776 H 547.062 -3.20349 1.45152 0
M  V30 5777 H 546.936 -3.76639 -0.205721 0
M  V30 5778 H 549.323 -2.87886 -0.648505 0
M  V30 5779 H 549.404 -2.33939 1.03472 0
M  V30 5780 H 549.048 -4.74905 1.80077 0
M  V30 5781 H 548.978 -5.26511 0.0970679 0
M  V30 5782 H 551.469 -3.74931 0.472773 0
M  V30 5783 H 551.782 -7.56392 1.58402 0
M  V30 5784 H 550.127 -6.80386 1.41774 0
M  V30 5785 H 553.318 -4.63293 0.669115 0
M  V30 5786 H 553.491 -6.37246 1.17563 0
M  V30 5787 N 546.897 -0.0685191 -1.57451 0
M  V30 5788 C 547.807 0.914677 -2.16034 0
M  V30 5789 C 548.823 1.32938 -1.12265 0
M  V30 5790 O 549.999 1.40275 -1.44516 0
M  V30 5791 C 547.064 2.16519 -2.70777 0
M  V30 5792 C 546.125 1.80721 -3.89408 0
M  V30 5793 C 545.358 2.9981 -4.41531 0
M  V30 5794 O 545.581 4.13727 -3.92666 0
M  V30 5795 O 544.515 2.79817 -5.32903 0
M  V30 5796 H 548.341 0.446364 -3.00402 0
M  V30 5797 H 545.926 0.154367 -1.486 0
M  V30 5798 H 547.808 2.89856 -3.05878 0
M  V30 5799 H 546.483 2.62454 -1.89471 0
M  V30 5800 H 545.39 1.04646 -3.59166 0
M  V30 5801 H 546.723 1.39571 -4.71997 0
M  V30 5802 N 548.375 1.56261 0.205012 0
M  V30 5803 C 549.305 1.96779 1.257 0
M  V30 5804 C 550.286 0.838309 1.48008 0
M  V30 5805 O 551.471 1.10189 1.59913 0
M  V30 5806 C 548.601 2.29876 2.60335 0
M  V30 5807 C 547.555 3.45469 2.52656 0
M  V30 5808 C 546.881 3.64215 3.91473 0
M  V30 5809 C 548.181 4.79954 2.06014 0
M  V30 5810 H 549.875 2.84904 0.920338 0
M  V30 5811 H 547.421 1.37072 0.441277 0
M  V30 5812 H 549.374 2.56814 3.34102 0
M  V30 5813 H 548.098 1.38622 2.95722 0
M  V30 5814 H 546.757 3.18605 1.81345 0
M  V30 5815 H 546.405 2.70309 4.24196 0
M  V30 5816 H 546.105 4.41973 3.87213 0
M  V30 5817 H 547.629 3.93519 4.66878 0
M  V30 5818 H 549.043 5.05989 2.69533 0
M  V30 5819 H 547.44 5.61111 2.12777 0
M  V30 5820 H 548.51 4.74201 1.01297 0
M  V30 5821 N 549.853 -0.472356 1.50355 0
M  V30 5822 C 550.8 -1.57051 1.69126 0
M  V30 5823 C 551.77 -1.5733 0.532574 0
M  V30 5824 O 552.955 -1.7488 0.762994 0
M  V30 5825 C 550.095 -2.95033 1.79024 0
M  V30 5826 C 549.208 -3.04552 3.06386 0
M  V30 5827 C 548.343 -4.33441 3.07087 0
M  V30 5828 C 547.382 -4.36697 4.28908 0
M  V30 5829 N 546.519 -5.57056 4.27356 0
M  V30 5830 H 551.359 -1.40351 2.62879 0
M  V30 5831 H 548.896 -0.682403 1.30314 0
M  V30 5832 H 550.854 -3.75048 1.82744 0
M  V30 5833 H 549.484 -3.10371 0.887109 0
M  V30 5834 H 548.536 -2.17419 3.12143 0
M  V30 5835 H 549.848 -3.02818 3.96362 0
M  V30 5836 H 549.002 -5.21801 3.09529 0
M  V30 5837 H 547.741 -4.37782 2.14939 0
M  V30 5838 H 546.746 -3.46734 4.2668 0
M  V30 5839 H 547.971 -4.34049 5.22282 0
M  V30 5840 H 545.917 -5.62184 3.3806 0
M  V30 5841 H 545.834 -5.57058 5.111 0
M  V30 5842 H 547.102 -6.47545 4.33942 0
M  V30 5843 N 551.331 -1.39911 -0.725443 0
M  V30 5844 C 552.608 -1.28158 -1.47766 0
M  V30 5845 C 552.988 0.104545 -2.10841 0
M  V30 5846 O 552.336 1.11657 -1.99361 0
M  V30 5847 C 552.546 -2.41306 -2.52135 0
M  V30 5848 C 553.894 -2.81076 -3.18247 0
M  V30 5849 O 554.918 -2.40827 -2.62452 0
M  V30 5850 O 553.777 -3.50581 -4.19231 0
M  V30 5851 H 550.871 -0.502761 -0.656628 0
M  V30 5852 H 553.417 -1.51808 -0.758456 0
M  V30 5853 H 552.189 -3.33932 -2.03974 0
M  V30 5854 H 551.812 -2.19374 -3.31603 0
M  V30 5855 N 552.809 0.956637 -1.25245 0
M  V30 5856 C 553.719 2.0868 -1.0719 0
M  V30 5857 C 554.735 1.73997 -0.00959074 0
M  V30 5858 O 555.911 2.00301 -0.210104 0
M  V30 5859 C 552.976 3.39754 -0.690526 0
M  V30 5860 C 552.037 3.88316 -1.83055 0
M  V30 5861 C 551.27 5.13134 -1.46728 0
M  V30 5862 O 551.493 5.6925 -0.362029 0
M  V30 5863 O 550.427 5.56356 -2.29677 0
M  V30 5864 H 554.253 2.26813 -2.01965 0
M  V30 5865 H 551.838 1.07098 -1.04165 0
M  V30 5866 H 553.72 4.18543 -0.489871 0
M  V30 5867 H 552.395 3.22896 0.227981 0
M  V30 5868 H 551.302 3.1054 -2.08604 0
M  V30 5869 H 552.635 4.09669 -2.72822 0
M  V30 5870 N 554.287 1.06798 1.15896 0
M  V30 5871 C 555.533 0.788934 1.86825 0
M  V30 5872 C 555.866 -0.683084 1.8179 0
M  V30 5873 O 555.141 -1.50086 1.23711 0
M  V30 5874 C 555.424 1.29065 3.36176 0
M  V30 5875 C 555.277 2.8268 3.49874 0
M  V30 5876 C 556.596 0.902655 4.30744 0
M  V30 5877 H 553.715 0.288066 0.678371 0
M  V30 5878 H 556.357 1.32479 1.36195 0
M  V30 5879 H 554.507 0.834806 3.79425 0
M  V30 5880 H 556.179 3.36511 3.15528 0
M  V30 5881 H 554.422 3.21157 2.91617 0
M  V30 5882 H 555.093 3.12852 4.54783 0
M  V30 5883 H 557.569 1.29535 3.95424 0
M  V30 5884 H 556.445 1.28111 5.3374 0
M  V30 5885 H 556.706 -0.191951 4.41683 0
M  V30 5886 N 555.766 -1.3263 0.851289 0
M  V30 5887 C 556.994 -2.01563 0.466899 0
M  V30 5888 C 557.409 -1.63996 -0.935447 0
M  V30 5889 O 556.766 -0.85957 -1.6099 0
M  V30 5890 C 556.817 -3.56613 0.592433 0
M  V30 5891 O 556.538 -3.92828 1.93954 0
M  V30 5892 C 558.039 -4.42818 0.206612 0
M  V30 5893 H 555.259 -0.645307 0.183902 0
M  V30 5894 H 557.803 -1.69285 1.1473 0
M  V30 5895 H 555.958 -3.87379 -0.0401936 0
M  V30 5896 H 556.372 -4.87545 1.9339 0
M  V30 5897 H 557.846 -5.50918 0.345462 0
M  V30 5898 H 558.323 -4.30844 -0.85264 0
M  V30 5899 H 558.929 -4.17434 0.814176 0
M  V30 5900 N 557.244 -0.608902 -1.45362 0
M  V30 5901 C 558.66 -0.272659 -1.57254 0
M  V30 5902 C 558.86 1.22477 -1.60005 0
M  V30 5903 O 557.916 2.00785 -1.53106 0
M  V30 5904 C 559.229 -0.944991 -2.85465 0
M  V30 5905 C 560.777 -0.921033 -2.99142 0
M  V30 5906 C 561.252 -1.5734 -4.30126 0
M  V30 5907 N 562.743 -1.53895 -4.36887 0
M  V30 5908 C 563.478 -2.01286 -5.36909 0
M  V30 5909 N 562.974 -2.56768 -6.43461 0
M  V30 5910 N 564.767 -1.92046 -5.28275 0
M  V30 5911 H 556.918 -1.58117 -1.4182 0
M  V30 5912 H 559.181 -0.662437 -0.678146 0
M  V30 5913 H 558.887 -1.99941 -2.89338 0
M  V30 5914 H 558.761 -0.469079 -3.74272 0
M  V30 5915 H 561.148 0.124846 -2.94836 0
M  V30 5916 H 561.229 -1.43522 -2.11743 0
M  V30 5917 H 560.873 -2.61862 -4.35191 0
M  V30 5918 H 560.803 -1.03422 -5.16344 0
M  V30 5919 H 563.294 -1.13366 -3.60495 0
M  V30 5920 H 563.607 -2.9072 -7.16032 0
M  V30 5921 H 561.952 -2.60808 -6.44208 0
M  V30 5922 H 565.143 -1.48439 -4.43941 0
M  V30 5923 H 565.316 -2.29293 -6.06077 0
M  V30 5924 N 558.722 1.53707 -0.348139 0
M  V30 5925 C 559.652 2.28111 0.498766 0
M  V30 5926 C 560.633 1.29851 1.09876 0
M  V30 5927 O 561.818 1.587 1.11928 0
M  V30 5928 C 558.948 3.05735 1.64753 0
M  V30 5929 C 557.902 4.11537 1.17565 0
M  V30 5930 C 557.228 4.77142 2.4133 0
M  V30 5931 C 558.528 5.21587 0.272844 0
M  V30 5932 H 560.222 2.99152 -0.121934 0
M  V30 5933 H 557.768 1.43875 -0.0600842 0
M  V30 5934 H 559.721 3.56526 2.24649 0
M  V30 5935 H 558.445 2.32354 2.2952 0
M  V30 5936 H 557.104 3.61665 0.599483 0
M  V30 5937 H 556.752 4.0035 3.04514 0
M  V30 5938 H 556.452 5.48626 2.10436 0
M  V30 5939 H 557.976 5.30719 3.01943 0
M  V30 5940 H 559.39 5.67986 0.778779 0
M  V30 5941 H 557.787 6.00074 0.0555849 0
M  V30 5942 H 558.857 4.79969 -0.689785 0
M  V30 5943 N 560.2 0.0768682 1.57412 0
M  V30 5944 C 561.616 -0.279772 1.57129 0
M  V30 5945 C 561.816 -1.69688 1.08666 0
M  V30 5946 O 560.872 -2.40953 0.754843 0
M  V30 5947 C 562.185 -0.0848055 3.0058 0
M  V30 5948 C 563.733 -0.153954 3.12621 0
M  V30 5949 C 564.208 0.0127946 4.57998 0
M  V30 5950 N 565.699 -0.0426435 4.6318 0
M  V30 5951 C 566.434 0.0618892 5.73367 0
M  V30 5952 N 565.93 0.220229 6.9245 0
M  V30 5953 N 567.723 0.00446072 5.621 0
M  V30 5954 H 559.874 1.00297 1.87228 0
M  V30 5955 H 562.137 0.391565 0.863354 0
M  V30 5956 H 561.843 0.89325 3.40168 0
M  V30 5957 H 561.717 -0.834961 3.67843 0
M  V30 5958 H 564.104 -1.1225 2.72917 0
M  V30 5959 H 564.185 0.627389 2.47987 0
M  V30 5960 H 563.829 0.978128 4.98392 0
M  V30 5961 H 563.759 -0.788016 5.20671 0
M  V30 5962 H 566.25 -0.163226 3.77547 0
M  V30 5963 H 566.563 0.291999 7.72248 0
M  V30 5964 H 564.908 0.255658 6.9453 0
M  V30 5965 H 568.099 -0.117979 4.67951 0
M  V30 5966 H 568.272 0.0893796 6.47938 0
M  V30 5967 N 561.678 -1.56367 -0.196722 0
M  V30 5968 C 562.955 -1.71359 -0.943159 0
M  V30 5969 C 563.335 -0.631192 -2.01443 0
M  V30 5970 O 562.683 0.358071 -2.25677 0
M  V30 5971 C 562.893 -3.13623 -1.53106 0
M  V30 5972 C 564.241 -3.73806 -2.01381 0
M  V30 5973 O 565.265 -3.16742 -1.62951 0
M  V30 5974 O 564.124 -4.73951 -2.7209 0
M  V30 5975 H 561.218 -0.698851 -0.442195 0
M  V30 5976 H 563.764 -1.68672 -0.186547 0
M  V30 5977 H 562.536 -3.83873 -0.758785 0
M  V30 5978 H 562.159 -3.20532 -2.35255 0
M  V30 5979 N 563.156 0.464375 -1.50603 0
M  V30 5980 C 564.086 1.56944 -1.72889 0
M  V30 5981 C 565.067 1.59979 -0.577997 0
M  V30 5982 O 566.252 1.76138 -0.817855 0
M  V30 5983 C 563.382 2.95225 -1.8292 0
M  V30 5984 C 562.336 3.07056 -2.98162 0
M  V30 5985 C 561.662 4.47051 -2.93343 0
M  V30 5986 C 562.962 2.83648 -4.38567 0
M  V30 5987 H 564.656 1.38547 -2.65415 0
M  V30 5988 H 562.202 0.665082 -1.27721 0
M  V30 5989 H 564.155 3.72467 -1.97095 0
M  V30 5990 H 562.879 3.14793 -0.870209 0
M  V30 5991 H 561.538 2.32248 -2.83648 0
M  V30 5992 H 561.186 4.63547 -1.95276 0
M  V30 5993 H 560.886 4.55902 -3.70712 0
M  V30 5994 H 562.41 5.26304 -3.09575 0
M  V30 5995 H 563.824 3.50636 -4.53572 0
M  V30 5996 H 562.221 3.03937 -5.17438 0
M  V30 5997 H 563.291 1.79451 -4.50472 0
M  V30 5998 N 564.634 1.40294 0.718013 0
M  V30 5999 C 565.564 1.43118 1.84498 0
M  V30 6000 C 566.545 0.292403 1.67568 0
M  V30 6001 O 567.73 0.500675 1.87635 0
M  V30 6002 C 564.86 1.29065 3.22427 0
M  V30 6003 C 563.814 2.40521 3.54025 0
M  V30 6004 C 563.14 2.11546 4.91073 0
M  V30 6005 C 564.44 3.82859 3.55269 0
M  V30 6006 H 566.134 2.37432 1.82391 0
M  V30 6007 H 563.68 1.14283 0.87609 0
M  V30 6008 H 565.633 1.29658 4.00957 0
M  V30 6009 H 564.357 0.312271 3.25104 0
M  V30 6010 H 563.016 2.39173 2.77834 0
M  V30 6011 H 562.664 1.12104 4.90348 0
M  V30 6012 H 562.364 2.86216 5.1318 0
M  V30 6013 H 563.888 2.13817 5.71939 0
M  V30 6014 H 565.302 3.86044 4.23843 0
M  V30 6015 H 563.699 4.57029 3.88902 0
M  V30 6016 H 564.769 4.12617 2.54706 0
M  V30 6017 N 566.112 -0.949982 1.2575 0
M  V30 6018 C 567.342 -1.72721 1.13363 0
M  V30 6019 C 567.75 -1.86562 -0.314842 0
M  V30 6020 O 567.093 -1.36621 -1.22803 0
M  V30 6021 C 567.155 -3.15695 1.7198 0
M  V30 6022 C 566.819 -3.25268 3.21014 0
M  V30 6023 C 567.816 -3.09222 4.17945 0
M  V30 6024 C 565.501 -3.4894 3.61312 0
M  V30 6025 C 567.495 -3.16701 5.53154 0
M  V30 6026 C 565.182 -3.56055 4.96657 0
M  V30 6027 C 566.18 -3.3995 5.92387 0
M  V30 6028 O 565.868 -3.46757 7.25269 0
M  V30 6029 H 565.6 -0.547888 0.395973 0
M  V30 6030 H 568.154 -1.20009 1.66694 0
M  V30 6031 H 566.384 -3.69791 1.13101 0
M  V30 6032 H 568.073 -3.75295 1.54624 0
M  V30 6033 H 568.839 -2.90798 3.88151 0
M  V30 6034 H 564.718 -3.60534 2.87291 0
M  V30 6035 H 568.262 -3.04048 6.27854 0
M  V30 6036 H 564.159 -3.73997 5.26115 0
M  V30 6037 H 564.927 -3.63358 7.33426 0
M  V30 6038 N 567.59 -1.07411 -1.15328 0
M  V30 6039 C 568.553 -0.698914 -2.18284 0
M  V30 6040 C 569.553 0.261149 -1.58665 0
M  V30 6041 O 570.743 0.0420277 -1.74149 0
M  V30 6042 C 567.875 -0.0302427 -3.40887 0
M  V30 6043 H 569.068 -1.61045 -2.52991 0
M  V30 6044 H 566.621 -0.870724 -1.298 0
M  V30 6045 H 567.356 0.893505 -3.11748 0
M  V30 6046 H 567.141 -0.720759 -3.85419 0
M  V30 6047 H 568.631 0.21759 -4.17033 0
M  V30 6048 N 569.068 1.32177 -0.85831 0
M  V30 6049 C 570 2.27688 -0.262835 0
M  V30 6050 C 571.013 1.52588 0.567513 0
M  V30 6051 O 572.202 1.74156 0.391407 0
M  V30 6052 C 569.302 3.32668 0.646937 0
M  V30 6053 C 568.475 4.37148 -0.148372 0
M  V30 6054 C 567.534 5.21686 0.687728 0
M  V30 6055 O 566.56 5.69074 0.119934 0
M  V30 6056 N 567.762 5.44892 2.00182 0
M  V30 6057 H 570.527 2.79426 -1.08356 0
M  V30 6058 H 568.088 1.45076 -0.718647 0
M  V30 6059 H 570.08 3.86134 1.2117 0
M  V30 6060 H 568.65 2.81061 1.36834 0
M  V30 6061 H 567.87 3.83915 -0.894572 0
M  V30 6062 H 569.158 5.04038 -0.694514 0
M  V30 6063 H 568.556 5.08128 2.4864 0
M  V30 6064 H 567.113 6.0134 2.51463 0
M  V30 6065 N 570.547 0.616602 1.45037 0
M  V30 6066 C 571.795 0.115103 2.01772 0
M  V30 6067 C 572.116 -1.2622 1.48639 0
M  V30 6068 O 571.386 -1.83563 0.684199 0
M  V30 6069 H 569.966 0.0395607 0.745952 0
M  V30 6070 H 572.628 0.800032 1.77723 0
M  V30 6071 H 571.724 0.0717274 3.12018 0
M  V30 6072 N 572.025 -1.5352 0.356285 0
M  V30 6073 C 572.955 -2.28372 -0.486661 0
M  V30 6074 C 573.936 -1.30432 -1.09185 0
M  V30 6075 O 575.121 -1.59291 -1.11085 0
M  V30 6076 C 572.251 -3.06604 -1.63129 0
M  V30 6077 C 571.205 -4.12154 -1.15381 0
M  V30 6078 C 570.531 -4.78415 -2.38796 0
M  V30 6079 C 571.831 -5.21724 -0.245179 0
M  V30 6080 H 573.525 -2.99083 0.137797 0
M  V30 6081 H 571.071 -1.43841 0.0677134 0
M  V30 6082 H 573.024 -3.57712 -2.22755 0
M  V30 6083 H 571.748 -2.33568 -2.28284 0
M  V30 6084 H 570.407 -3.61978 -0.580294 0
M  V30 6085 H 570.055 -4.01959 -3.02387 0
M  V30 6086 H 569.755 -5.49734 -2.07524 0
M  V30 6087 H 571.279 -5.32313 -2.99125 0
M  V30 6088 H 572.693 -5.68391 -0.748646 0
M  V30 6089 H 571.09 -6.00095 -0.0237608 0
M  V30 6090 H 572.16 -4.79596 0.715229 0
M  V30 6091 N 573.503 -0.0852151 -1.57369 0
M  V30 6092 C 574.751 0.579658 -1.93609 0
M  V30 6093 C 575.072 1.69332 -0.967043 0
M  V30 6094 O 574.342 1.95892 -0.0174215 0
M  V30 6095 H 572.922 0.217113 -0.714752 0
M  V30 6096 H 575.584 -0.146226 -1.94351 0
M  V30 6097 H 574.68 0.996276 -2.95771 0
M  V30 6098 N 574.981 1.5647 0.188427 0
M  V30 6099 C 576.258 1.71857 0.934058 0
M  V30 6100 C 576.638 0.641867 2.01105 0
M  V30 6101 O 575.986 -0.346098 2.25864 0
M  V30 6102 C 576.196 3.14431 1.5144 0
M  V30 6103 C 577.544 3.74869 1.99396 0
M  V30 6104 O 578.568 3.17601 1.61269 0
M  V30 6105 O 577.427 4.75387 2.69573 0
M  V30 6106 H 574.521 0.701186 0.438483 0
M  V30 6107 H 577.067 1.68768 0.177599 0
M  V30 6108 H 575.839 3.8427 0.738416 0
M  V30 6109 H 575.462 3.21775 2.33552 0
M  V30 6110 N 576.459 -0.456382 1.50847 0
M  V30 6111 C 577.708 -1.2042 1.61808 0
M  V30 6112 C 578.021 -1.9278 0.330932 0
M  V30 6113 O 579.227 -2.69612 0.319643 0
M  V30 6114 C 577.683 -2.18891 2.85683 0
M  V30 6115 C 577.291 -1.52267 4.2133 0
M  V30 6116 C 579.035 -2.94224 3.05994 0
M  V30 6117 C 576.942 -2.4911 5.36375 0
M  V30 6118 H 575.872 -0.453177 0.602616 0
M  V30 6119 H 578.523 -0.473144 1.77295 0
M  V30 6120 H 576.905 -2.95351 2.63787 0
M  V30 6121 H 578.079 -0.814949 4.53536 0
M  V30 6122 H 576.394 -0.891594 4.06743 0
M  V30 6123 H 578.991 -3.66732 3.89117 0
M  V30 6124 H 579.334 -3.54469 2.18306 0
M  V30 6125 H 579.867 -2.24874 3.28141 0
M  V30 6126 H 576.606 -1.93582 6.26264 0
M  V30 6127 H 576.126 -3.17991 5.08569 0
M  V30 6128 H 577.805 -3.10637 5.67551 0
M  V30 6129 N 577.937 -1.40673 -0.710563 0
M  V30 6130 C 579.165 -1.42547 -1.4996 0
M  V30 6131 C 579.58 -0.0265485 -1.88781 0
M  V30 6132 O 578.937 0.950694 -1.55782 0
M  V30 6133 C 578.988 -2.32071 -2.77173 0
M  V30 6134 O 578.709 -3.66518 -2.39992 0
M  V30 6135 C 580.21 -2.42591 -3.71032 0
M  V30 6136 H 577.43 -0.486025 -0.462623 0
M  V30 6137 H 579.974 -1.84783 -0.876102 0
M  V30 6138 H 578.129 -1.93184 -3.35795 0
M  V30 6139 H 578.543 -4.14115 -3.21884 0
M  V30 6140 H 580.017 -3.09429 -4.57119 0
M  V30 6141 H 580.494 -1.4525 -4.14486 0
M  V30 6142 H 581.1 -2.82051 -3.18319 0
M  V30 6143 N 579.415 0.9433 -1.26252 0
M  V30 6144 C 580.692 1.66639 -1.02424 0
M  V30 6145 C 581.072 2.06335 0.446006 0
M  V30 6146 O 580.42 1.78551 1.42589 0
M  V30 6147 C 580.63 2.88019 -1.97094 0
M  V30 6148 C 581.978 3.59718 -2.25584 0
M  V30 6149 O 583.002 2.9812 -1.94943 0
M  V30 6150 O 581.861 4.7066 -2.77743 0
M  V30 6151 H 578.955 0.729643 -0.389294 0
M  V30 6152 H 581.501 0.995218 -1.37454 0
M  V30 6153 H 580.273 2.5556 -2.96319 0
M  V30 6154 H 579.896 3.62863 -1.62532 0
M  V30 6155 N 580.893 1.08022 1.14757 0
M  V30 6156 C 581.826 0.650738 2.18725 0
M  V30 6157 C 582.804 -0.335496 1.59101 0
M  V30 6158 O 583.988 -0.240295 1.86962 0
M  V30 6159 C 581.115 -0.0434377 3.38672 0
M  V30 6160 C 580.161 0.90232 4.16846 0
M  V30 6161 S 580.994 2.40693 4.78359 0
M  V30 6162 C 582.15 1.72475 6.01667 0
M  V30 6163 H 582.383 1.53152 2.54817 0
M  V30 6164 H 579.916 0.894823 1.25826 0
M  V30 6165 H 581.874 -0.437684 4.0816 0
M  V30 6166 H 580.535 -0.900659 3.0091 0
M  V30 6167 H 579.728 0.363445 5.02688 0
M  V30 6168 H 579.33 1.23728 3.52941 0
M  V30 6169 H 581.622 1.0404 6.69464 0
M  V30 6170 H 582.565 2.56175 6.60136 0
M  V30 6171 H 582.973 1.19979 5.51602 0
M  V30 6172 N 582.371 -1.3172 0.865308 0
M  V30 6173 C 583.599 -2.01057 0.488251 0
M  V30 6174 C 584.014 -1.64979 -0.918 0
M  V30 6175 O 583.371 -0.876597 -1.60069 0
M  V30 6176 C 583.422 -3.55964 0.630224 0
M  V30 6177 O 583.143 -3.90749 1.98109 0
M  V30 6178 C 584.644 -4.42574 0.253567 0
M  V30 6179 H 581.864 -0.64332 0.190736 0
M  V30 6180 H 584.408 -1.68058 1.16519 0
M  V30 6181 H 582.563 -3.874 0.000895422 0
M  V30 6182 H 582.977 -4.85467 1.9855 0
M  V30 6183 H 584.451 -5.50521 0.403875 0
M  V30 6184 H 584.928 -4.31724 -0.806895 0
M  V30 6185 H 585.534 -4.16547 0.858404 0
M  V30 6186 N 583.85 -0.624285 -1.44708 0
M  V30 6187 C 584.798 0.0969952 -2.32398 0
M  V30 6188 C 585.792 0.842762 -1.46949 0
M  V30 6189 O 586.998 0.756436 -1.63334 0
M  V30 6190 H 583.373 0.0501306 -0.750327 0
M  V30 6191 H 585.344 -0.660767 -2.90992 0
M  V30 6192 C 584.093 1.06967 -3.30837 0
M  V30 6193 H 583.416 0.505242 -3.96595 0
M  V30 6194 H 584.856 1.54397 -3.94889 0
M  V30 6195 C 583.315 2.15153 -2.5925 0
M  V30 6196 O 583.845 3.23139 -2.3863 0
M  V30 6197 N 582.051 1.90898 -2.19103 0
M  V30 6198 H 581.598 1.03086 -2.36074 0
M  V30 6199 H 581.556 2.63485 -1.71531 0
M  V30 6200 N 585.328 1.53329 -0.364422 0
M  V30 6201 C 586.291 2.24323 0.470292 0
M  V30 6202 C 587.291 1.25068 1.01067 0
M  V30 6203 O 588.481 1.49354 0.896605 0
M  V30 6204 C 585.613 2.97908 1.65722 0
M  V30 6205 H 586.806 2.9952 -0.150917 0
M  V30 6206 H 584.359 1.55868 -0.116092 0
M  V30 6207 H 585.094 2.2695 2.31655 0
M  V30 6208 H 584.879 3.70732 1.27671 0
M  V30 6209 H 586.369 3.5188 2.24878 0
M  V30 6210 N 586.806 0.0935595 1.57322 0
M  V30 6211 C 587.736 -0.863062 2.16964 0
M  V30 6212 C 588.717 -1.29528 1.10256 0
M  V30 6213 O 589.902 -1.36245 1.38387 0
M  V30 6214 C 587.032 -2.12276 2.74875 0
M  V30 6215 C 585.986 -1.82921 3.86942 0
M  V30 6216 C 585.312 -3.15707 4.31548 0
M  V30 6217 C 586.612 -1.11737 5.10208 0
M  V30 6218 H 588.306 -0.366145 2.97153 0
M  V30 6219 H 585.852 -0.174673 1.42937 0
M  V30 6220 H 587.805 -2.79634 3.1525 0
M  V30 6221 H 586.529 -2.64248 1.91938 0
M  V30 6222 H 585.188 -1.17961 3.47103 0
M  V30 6223 H 584.836 -3.65563 3.45504 0
M  V30 6224 H 584.536 -2.96849 5.07104 0
M  V30 6225 H 586.06 -3.84226 4.74555 0
M  V30 6226 H 587.474 -1.69203 5.47762 0
M  V30 6227 H 585.871 -1.03064 5.91183 0
M  V30 6228 H 586.941 -0.0998818 4.84797 0
M  V30 6229 N 588.284 -1.56567 -0.180126 0
M  V30 6230 C 589.53 -1.81761 -0.899497 0
M  V30 6231 C 589.863 -0.670015 -1.82276 0
M  V30 6232 O 589.138 0.328575 -1.91705 0
M  V30 6233 C 589.421 -3.17296 -1.7028 0
M  V30 6234 C 589.274 -4.4257 -0.803255 0
M  V30 6235 C 590.593 -3.49678 -2.67233 0
M  V30 6236 H 587.712 -0.661192 -0.325567 0
M  V30 6237 H 590.354 -1.89272 -0.16612 0
M  V30 6238 H 588.504 -3.11023 -2.32802 0
M  V30 6239 H 590.176 -4.60902 -0.191585 0
M  V30 6240 H 588.419 -4.33658 -0.110796 0
M  V30 6241 H 589.09 -5.33935 -1.40064 0
M  V30 6242 H 591.566 -3.56347 -2.14839 0
M  V30 6243 H 590.442 -4.45605 -3.20511 0
M  V30 6244 H 590.703 -2.73932 -3.47007 0
M  V30 6245 N 589.762 0.448376 -1.51087 0
M  V30 6246 C 591.01 1.19635 -1.62886 0
M  V30 6247 C 591.331 1.91977 -0.342024 0
M  V30 6248 O 590.601 1.85094 0.641636 0
M  V30 6249 H 589.181 0.444598 -0.600285 0
M  V30 6250 H 591.843 0.515138 -1.87969 0
M  V30 6251 H 590.939 1.93194 -2.45117 0
M  V30 6252 N 591.24 1.41047 0.703093 0
M  V30 6253 C 592.173 1.36713 1.82715 0
M  V30 6254 C 593.151 0.235533 1.60885 0
M  V30 6255 O 594.335 0.421227 1.83733 0
M  V30 6256 C 591.462 1.13069 3.1927 0
M  V30 6257 C 590.508 2.28846 3.59905 0
M  V30 6258 S 591.341 3.91297 3.65578 0
M  V30 6259 C 592.497 3.69941 5.04871 0
M  V30 6260 H 592.73 2.31838 1.86114 0
M  V30 6261 H 590.263 1.27481 0.871083 0
M  V30 6262 H 592.221 1.00113 3.98105 0
M  V30 6263 H 590.882 0.195763 3.13489 0
M  V30 6264 H 590.075 2.07977 4.59088 0
M  V30 6265 H 589.677 2.3817 2.88359 0
M  V30 6266 H 591.969 3.29181 5.92154 0
M  V30 6267 H 592.912 4.68699 5.30779 0
M  V30 6268 H 593.32 3.03369 4.76054 0
M  V30 6269 N 592.718 -0.936591 1.26751 0
M  V30 6270 C 593.943 -1.72288 1.15462 0
M  V30 6271 C 594.368 -1.85915 -0.285887 0
M  V30 6272 O 593.726 -1.35272 -1.20711 0
M  V30 6273 C 593.774 -3.10503 1.83359 0
M  V30 6274 O 592.878 -3.96745 1.1255 0
M  V30 6275 H 592.219 -0.52843 0.402067 0
M  V30 6276 H 594.749 -1.17271 1.67656 0
M  V30 6277 H 594.759 -3.60867 1.90365 0
M  V30 6278 H 593.434 -2.99901 2.88153 0
M  V30 6279 H 592.011 -3.55191 1.13551 0
M  V30 6280 N 594.196 -1.08629 -1.14182 0
M  V30 6281 C 595.607 -0.838003 -1.66836 0
M  V30 6282 C 595.958 0.634885 -1.85644 0
M  V30 6283 O 595.083 1.49008 -1.56926 0
M  V30 6284 C 595.678 -1.51465 -3.03058 0
M  V30 6285 C 594.237 -1.31355 -3.52736 0
M  V30 6286 C 593.384 -1.57599 -2.28162 0
M  V30 6287 H 596.335 -1.24656 -0.982165 0
M  V30 6288 H 596.356 -0.943134 -3.68626 0
M  V30 6289 H 595.868 -2.58661 -2.89337 0
M  V30 6290 H 593.969 -0.262384 -3.71675 0
M  V30 6291 H 594.082 -2.04275 -4.33369 0
M  V30 6292 H 592.446 -0.997659 -2.34348 0
M  V30 6293 H 593.229 -2.66006 -2.17015 0
M  V30 6294 N 595.674 1.31259 -0.872281 0
M  V30 6295 C 596.899 2.0133 -0.498099 0
M  V30 6296 C 597.324 1.65031 0.902568 0
M  V30 6297 O 596.682 0.860164 1.59596 0
M  V30 6298 C 596.73 3.54411 -0.665205 0
M  V30 6299 O 595.834 4.11347 0.294473 0
M  V30 6300 H 595.175 0.633844 -0.197832 0
M  V30 6301 H 597.705 1.67402 -1.17633 0
M  V30 6302 H 597.715 4.04147 -0.559373 0
M  V30 6303 H 596.39 3.80171 -1.68651 0
M  V30 6304 H 594.967 3.72624 0.143403 0
M  V30 6305 N 597.152 0.631951 1.44375 0
M  V30 6306 C 598.377 0.142146 2.06912 0
M  V30 6307 C 598.802 -1.17456 1.4692 0
M  V30 6308 O 598.16 -1.72074 0.570975 0
M  V30 6309 C 598.208 0.0417952 3.60576 0
M  V30 6310 O 597.312 -1.00194 4.00044 0
M  V30 6311 H 596.653 0.0851491 0.658518 0
M  V30 6312 H 599.183 0.868863 1.85235 0
M  V30 6313 H 599.193 -0.148517 4.0773 0
M  V30 6314 H 597.868 1.0031 4.03622 0
M  V30 6315 H 596.445 -0.786131 3.64519 0
M  V30 6316 N 598.631 -1.53133 0.372548 0
M  V30 6317 C 599.856 -2.0625 -0.218098 0
M  V30 6318 C 600.281 -1.24375 -1.41111 0
M  V30 6319 O 599.639 -0.264554 -1.79359 0
M  V30 6320 C 599.687 -3.55858 -0.582876 0
M  V30 6321 O 598.791 -3.76667 -1.67917 0
M  V30 6322 H 598.132 -0.663317 -0.030104 0
M  V30 6323 H 600.662 -1.97477 0.535169 0
M  V30 6324 H 600.672 -3.99007 -0.851925 0
M  V30 6325 H 599.347 -4.14892 0.289428 0
M  V30 6326 H 597.924 -3.45413 -1.40513 0
M  V30 6327 N 600.109 -0.101901 -1.5727 0
M  V30 6328 C 601.039 0.851544 -2.17419 0
M  V30 6329 C 602.02 1.28942 -1.10941 0
M  V30 6330 O 603.205 1.35509 -1.39107 0
M  V30 6331 C 600.335 2.10816 -2.75996 0
M  V30 6332 C 599.289 1.80867 -3.87906 0
M  V30 6333 C 598.615 3.13413 -4.33216 0
M  V30 6334 C 599.915 1.0903 -5.10793 0
M  V30 6335 H 601.609 0.350381 -2.97343 0
M  V30 6336 H 599.155 0.16709 -1.43027 0
M  V30 6337 H 601.108 2.77959 -3.16729 0
M  V30 6338 H 599.832 2.63227 -1.93337 0
M  V30 6339 H 598.491 1.16119 -3.47724 0
M  V30 6340 H 598.139 3.63725 -3.47438 0
M  V30 6341 H 597.839 2.94155 -5.08671 0
M  V30 6342 H 599.363 3.81704 -4.76586 0
M  V30 6343 H 600.777 1.66295 -5.48652 0
M  V30 6344 H 599.174 0.99927 -5.91722 0
M  V30 6345 H 600.244 0.0741704 -4.84843 0
M  V30 6346 N 601.587 1.56661 0.17182 0
M  V30 6347 C 602.812 1.86459 0.908165 0
M  V30 6348 C 603.237 0.688181 1.75059 0
M  V30 6349 O 602.595 -0.362753 1.77634 0
M  V30 6350 C 602.643 3.14669 1.76112 0
M  V30 6351 O 601.747 2.96858 2.86268 0
M  V30 6352 H 601.088 0.613318 0.254434 0
M  V30 6353 H 603.618 2.03892 0.170113 0
M  V30 6354 H 603.628 3.46061 2.16115 0
M  V30 6355 H 602.303 3.99905 1.14233 0
M  V30 6356 H 600.88 2.76819 2.49852 0
M  V30 6357 N 603.065 -0.440357 1.51323 0
M  V30 6358 C 604.028 -1.51679 1.71832 0
M  V30 6359 C 605.028 -1.49648 0.588386 0
M  V30 6360 O 606.218 -1.51724 0.855891 0
M  V30 6361 C 603.35 -2.91228 1.77199 0
M  V30 6362 H 604.543 -1.34799 2.67898 0
M  V30 6363 H 602.096 -0.66883 1.41267 0
M  V30 6364 H 602.831 -3.13516 0.829363 0
M  V30 6365 H 602.616 -2.94107 2.59314 0
M  V30 6366 H 604.106 -3.69321 1.94915 0
M  V30 6367 N 604.543 -1.41418 -0.695603 0
M  V30 6368 C 605.473 -1.46035 -1.82197 0
M  V30 6369 C 606.454 -0.319025 -1.67082 0
M  V30 6370 O 607.639 -0.530462 -1.86815 0
M  V30 6371 C 604.769 -1.34179 -3.20333 0
M  V30 6372 C 603.723 -2.46123 -3.50154 0
M  V30 6373 C 603.049 -2.19332 -4.87645 0
M  V30 6374 C 604.349 -3.88463 -3.49133 0
M  V30 6375 H 606.043 -2.40303 -1.78591 0
M  V30 6376 H 603.589 -1.15663 -0.857797 0
M  V30 6377 H 605.542 -1.36021 -3.98844 0
M  V30 6378 H 604.266 -0.363952 -3.24566 0
M  V30 6379 H 602.925 -2.43563 -2.73994 0
M  V30 6380 H 602.573 -1.19891 -4.88503 0
M  V30 6381 H 602.273 -2.94344 -5.08562 0
M  V30 6382 H 603.797 -2.22889 -5.68465 0
M  V30 6383 H 605.211 -3.92738 -4.17648 0
M  V30 6384 H 603.608 -4.63158 -3.81582 0
M  V30 6385 H 604.678 -4.16617 -2.48109 0
M  V30 6386 N 606.021 0.929856 -1.27246 0
M  V30 6387 C 607.246 1.71674 -1.16374 0
M  V30 6388 C 607.671 1.86064 0.276024 0
M  V30 6389 O 607.029 1.3591 1.19992 0
M  V30 6390 C 607.077 3.09526 -1.85003 0
M  V30 6391 O 606.181 3.96142 -1.14653 0
M  V30 6392 H 605.522 0.52629 -0.404863 0
M  V30 6393 H 608.052 1.16381 -1.68276 0
M  V30 6394 H 608.062 3.59852 -1.92276 0
M  V30 6395 H 606.737 2.98369 -2.89739 0
M  V30 6396 H 605.314 3.54584 -1.15433 0
M  V30 6397 N 607.499 1.09233 1.13605 0
M  V30 6398 C 608.724 0.849067 1.89224 0
M  V30 6399 C 609.149 -0.593875 1.78479 0
M  V30 6400 O 608.507 -1.41703 1.13092 0
M  V30 6401 C 608.555 1.28642 3.36873 0
M  V30 6402 O 607.659 0.44363 4.10007 0
M  V30 6403 H 607 0.30767 0.588417 0
M  V30 6404 H 609.53 1.45595 1.43748 0
M  V30 6405 H 609.54 1.27096 3.87699 0
M  V30 6406 H 608.215 2.33729 3.44011 0
M  V30 6407 H 606.792 0.523241 3.69211 0
M  V30 6408 N 608.977 -1.30795 0.87923 0
M  V30 6409 C 610.393 -1.48981 0.57243 0
M  V30 6410 C 610.593 -1.80719 -0.891236 0
M  V30 6411 O 609.649 -1.89136 -1.67283 0
M  V30 6412 C 610.962 -2.61721 1.48063 0
M  V30 6413 C 612.51 -2.75603 1.48365 0
M  V30 6414 C 612.985 -3.91449 2.37763 0
M  V30 6415 N 614.476 -3.98751 2.35695 0
M  V30 6416 C 615.211 -4.87684 3.01583 0
M  V30 6417 N 614.707 -5.81454 3.76674 0
M  V30 6418 N 616.5 -4.81005 2.90844 0
M  V30 6419 H 608.651 -1.08465 1.82617 0
M  V30 6420 H 610.914 -0.536813 0.781368 0
M  V30 6421 H 610.62 -2.45073 2.52254 0
M  V30 6422 H 610.494 -3.58071 1.18596 0
M  V30 6423 H 612.881 -2.9166 0.44927 0
M  V30 6424 H 612.962 -1.79891 1.81859 0
M  V30 6425 H 612.606 -3.76149 3.41283 0
M  V30 6426 H 612.536 -4.86487 2.01589 0
M  V30 6427 H 615.027 -3.31668 1.81121 0
M  V30 6428 H 615.34 -6.46063 4.24054 0
M  V30 6429 H 613.685 -5.81403 3.80782 0
M  V30 6430 H 616.876 -4.06728 2.31711 0
M  V30 6431 H 617.049 -5.50107 3.42471 0
M  V30 6432 N 610.455 -0.639598 -1.44038 0
M  V30 6433 C 611.418 0.0506628 -2.29144 0
M  V30 6434 C 612.418 0.764001 -1.41491 0
M  V30 6435 O 613.608 0.607309 -1.63271 0
M  V30 6436 C 610.74 1.0824 -3.2326 0
M  V30 6437 H 611.933 -0.697987 -2.91664 0
M  V30 6438 H 609.486 -0.400146 -1.51091 0
M  V30 6439 H 610.221 1.86075 -2.65606 0
M  V30 6440 H 610.006 0.574725 -3.87865 0
M  V30 6441 H 611.496 1.56487 -3.87171 0
M  V30 6442 N 611.933 1.52934 -0.380664 0
M  V30 6443 C 612.896 2.24809 0.446473 0
M  V30 6444 C 613.896 1.26133 0.997347 0
M  V30 6445 O 615.086 1.50297 0.880714 0
M  V30 6446 C 612.218 2.99649 1.62553 0
M  V30 6447 H 613.411 2.99343 -0.182677 0
M  V30 6448 H 610.964 1.55736 -0.132618 0
M  V30 6449 H 611.699 2.29395 2.29235 0
M  V30 6450 H 611.484 3.72066 1.23732 0
M  V30 6451 H 612.974 3.54246 2.21133 0
M  V30 6452 N 613.412 0.11024 1.57214 0
M  V30 6453 C 614.637 -0.561179 1.99664 0
M  V30 6454 C 615.062 -1.59985 0.989266 0
M  V30 6455 O 614.42 -1.81255 -0.0402399 0
M  V30 6456 C 614.468 -1.17189 3.41027 0
M  V30 6457 O 613.572 -2.28755 3.4314 0
M  V30 6458 H 612.913 -0.14101 0.648855 0
M  V30 6459 H 615.443 0.196128 2.03658 0
M  V30 6460 H 615.453 -1.50954 3.79047 0
M  V30 6461 H 614.128 -0.411041 4.13864 0
M  V30 6462 H 612.705 -1.96495 3.16929 0
M  V30 6463 N 614.89 -1.56749 -0.16351 0
M  V30 6464 C 616.136 -1.82704 -0.880168 0
M  V30 6465 C 616.469 -0.689311 -1.81555 0
M  V30 6466 O 615.744 0.308224 -1.92042 0
M  V30 6467 C 616.027 -3.19084 -1.66905 0
M  V30 6468 C 615.88 -4.43397 -0.756269 0
M  V30 6469 C 617.199 -3.52493 -2.63509 0
M  V30 6470 H 614.318 -0.664608 -0.318535 0
M  V30 6471 H 616.96 -1.89438 -0.146036 0
M  V30 6472 H 615.11 -3.13475 -2.2949 0
M  V30 6473 H 616.782 -4.61079 -0.14269 0
M  V30 6474 H 615.025 -4.33752 -0.0647944 0
M  V30 6475 H 615.696 -5.3539 -1.34393 0
M  V30 6476 H 618.172 -3.58606 -2.11047 0
M  V30 6477 H 617.048 -4.48979 -3.15767 0
M  V30 6478 H 617.309 -2.77597 -3.44082 0
M  V30 6479 N 616.368 0.432326 -1.51554 0
M  V30 6480 C 617.593 1.20824 -1.68571 0
M  V30 6481 C 618.018 1.84126 -0.384596 0
M  V30 6482 O 617.376 1.69025 0.655751 0
M  V30 6483 C 617.424 2.26429 -2.80646 0
M  V30 6484 O 616.528 3.32032 -2.44598 0
M  V30 6485 H 615.869 0.353765 -0.561913 0
M  V30 6486 H 618.399 0.509916 -1.98144 0
M  V30 6487 H 618.409 2.71133 -3.04878 0
M  V30 6488 H 617.084 1.79733 -3.75058 0
M  V30 6489 H 615.661 2.92769 -2.30956 0
M  V30 6490 N 617.846 1.41785 0.688094 0
M  V30 6491 C 619.071 1.45117 1.48175 0
M  V30 6492 C 619.496 0.060129 1.88004 0
M  V30 6493 O 618.854 -0.938385 1.55126 0
M  V30 6494 C 618.902 2.37224 2.71583 0
M  V30 6495 O 618.006 1.83443 3.69354 0
M  V30 6496 H 617.347 0.492208 0.445676 0
M  V30 6497 H 619.877 1.86329 0.845145 0
M  V30 6498 H 619.887 2.53353 3.19806 0
M  V30 6499 H 618.562 3.38293 2.41931 0
M  V30 6500 H 617.139 1.76802 3.28322 0
M  V30 6501 N 619.324 -0.923095 1.27737 0
M  V30 6502 C 620.254 -2.04124 1.13383 0
M  V30 6503 C 621.235 -1.70066 0.0340658 0
M  V30 6504 O 622.42 -1.93068 0.209383 0
M  V30 6505 C 619.55 -3.3831 0.785097 0
M  V30 6506 C 618.504 -3.86496 1.8386 0
M  V30 6507 C 617.83 -5.1754 1.34373 0
M  V30 6508 C 619.13 -4.09381 3.24353 0
M  V30 6509 H 620.824 -2.1639 2.06919 0
M  V30 6510 H 618.37 -1.03976 0.996243 0
M  V30 6511 H 620.323 -4.16016 0.671485 0
M  V30 6512 H 619.047 -3.2607 -0.185969 0
M  V30 6513 H 617.706 -3.10987 1.9412 0
M  V30 6514 H 617.354 -5.01696 0.361989 0
M  V30 6515 H 617.054 -5.50751 2.04811 0
M  V30 6516 H 618.578 -5.97811 1.24315 0
M  V30 6517 H 619.992 -4.77641 3.17067 0
M  V30 6518 H 618.389 -4.53906 3.92542 0
M  V30 6519 H 619.459 -3.14515 3.69064 0
M  V30 6520 N 620.802 -1.09834 -1.13024 0
M  V30 6521 C 621.752 -0.710899 -2.16634 0
M  V30 6522 C 622.736 0.276836 -1.58501 0
M  V30 6523 O 623.928 0.0865457 -1.76788 0
M  V30 6524 C 621.057 -0.137574 -3.43024 0
M  V30 6525 C 620.143 -1.15198 -4.08155 0
M  V30 6526 N 620.534 -2.34054 -4.48388 0
M  V30 6527 C 618.832 -0.991074 -4.34849 0
M  V30 6528 C 619.533 -2.98616 -4.99203 0
M  V30 6529 N 618.509 -2.26159 -4.94321 0
M  V30 6530 H 622.311 -1.61576 -2.455 0
M  V30 6531 H 619.825 -0.975158 -1.29863 0
M  V30 6532 H 621.822 0.158031 -4.166 0
M  V30 6533 H 620.482 0.762088 -3.1563 0
M  V30 6534 H 621.493 -2.7162 -4.40957 0
M  V30 6535 H 618.17 -0.146448 -4.17243 0
M  V30 6536 H 619.56 -3.99683 -5.40096 0
M  V30 6537 N 622.28 1.30327 -0.886154 0
M  V30 6538 C 623.19 2.31854 -0.357866 0
M  V30 6539 C 624.206 1.65392 0.540502 0
M  V30 6540 O 625.382 1.96683 0.433339 0
M  V30 6541 C 622.447 3.44171 0.417999 0
M  V30 6542 C 621.508 4.26257 -0.510263 0
M  V30 6543 C 620.741 5.3321 0.228669 0
M  V30 6544 O 620.964 5.51542 1.45458 0
M  V30 6545 O 619.898 6.0042 -0.421832 0
M  V30 6546 H 623.724 2.78995 -1.19982 0
M  V30 6547 H 621.309 1.34518 -0.650028 0
M  V30 6548 H 623.191 4.12588 0.857251 0
M  V30 6549 H 621.866 2.99164 1.23623 0
M  V30 6550 H 620.773 3.60533 -0.99835 0
M  V30 6551 H 622.106 4.74871 -1.29454 0
M  V30 6552 N 623.758 0.647228 1.43697 0
M  V30 6553 C 625.174 0.314256 1.56476 0
M  V30 6554 C 625.374 -1.18191 1.63196 0
M  V30 6555 O 624.43 -1.96655 1.58376 0
M  V30 6556 C 625.743 1.02034 2.82859 0
M  V30 6557 C 627.291 1.00002 2.96595 0
M  V30 6558 C 627.766 1.68689 4.25803 0
M  V30 6559 N 629.257 1.65424 4.32654 0
M  V30 6560 C 629.992 2.1545 5.31384 0
M  V30 6561 N 629.488 2.73738 6.36427 0
M  V30 6562 N 631.281 2.05985 5.22998 0
M  V30 6563 H 623.432 1.61821 1.37578 0
M  V30 6564 H 625.695 0.680184 0.660344 0
M  V30 6565 H 625.401 2.07542 2.83935 0
M  V30 6566 H 625.275 0.568146 3.72897 0
M  V30 6567 H 627.662 -0.0466319 2.95063 0
M  V30 6568 H 627.743 1.49086 2.07863 0
M  V30 6569 H 627.387 2.73308 4.28095 0
M  V30 6570 H 627.317 1.17076 5.13421 0
M  V30 6571 H 629.808 1.22884 3.57363 0
M  V30 6572 H 630.121 3.09602 7.08072 0
M  V30 6573 H 628.466 2.77796 6.37067 0
M  V30 6574 H 631.657 1.60157 4.39849 0
M  V30 6575 H 631.83 2.45281 5.99784 0
M  V30 6576 N 625.236 -1.5273 0.388769 0
M  V30 6577 C 626.485 -2.00757 -0.194833 0
M  V30 6578 C 626.798 -1.27951 -1.47946 0
M  V30 6579 O 628.004 -1.66686 -2.14308 0
M  V30 6580 C 626.46 -3.57695 -0.397762 0
M  V30 6581 C 626.068 -4.394 0.873583 0
M  V30 6582 C 627.812 -4.14012 -0.937759 0
M  V30 6583 C 625.719 -5.87938 0.638962 0
M  V30 6584 H 624.649 -0.750101 -0.0765845 0
M  V30 6585 H 627.3 -1.76239 0.511086 0
M  V30 6586 H 625.682 -3.7846 -1.16552 0
M  V30 6587 H 626.856 -4.30403 1.64591 0
M  V30 6588 H 625.171 -3.94301 1.33849 0
M  V30 6589 H 627.768 -5.22645 -1.12899 0
M  V30 6590 H 628.111 -3.7007 -1.90666 0
M  V30 6591 H 628.644 -3.97137 -0.229588 0
M  V30 6592 H 625.383 -6.36202 1.57885 0
M  V30 6593 H 624.903 -5.99726 -0.094443 0
M  V30 6594 H 626.582 -6.46423 0.273299 0
M  V30 6595 N 626.714 -0.118576 -1.57153 0
M  V30 6596 C 627.644 0.828436 -2.1831 0
M  V30 6597 C 628.625 1.27758 -1.12303 0
M  V30 6598 O 629.81 1.34026 -1.40537 0
M  V30 6599 C 626.94 2.07876 -2.78217 0
M  V30 6600 C 625.894 1.76742 -3.89803 0
M  V30 6601 C 625.22 3.08801 -4.36516 0
M  V30 6602 C 626.52 1.03606 -5.11921 0
M  V30 6603 H 628.214 0.318824 -2.97698 0
M  V30 6604 H 625.76 0.151911 -1.43196 0
M  V30 6605 H 627.713 2.74584 -3.19659 0
M  V30 6606 H 626.437 2.61161 -1.96118 0
M  V30 6607 H 625.096 1.12424 -3.48936 0
M  V30 6608 H 624.744 3.6002 -3.51276 0
M  V30 6609 H 624.444 2.88743 -5.11763 0
M  V30 6610 H 625.968 3.76627 -4.80608 0
M  V30 6611 H 627.382 1.60467 -5.50385 0
M  V30 6612 H 625.779 0.936454 -5.92748 0
M  V30 6613 H 626.849 0.0227421 -4.84895 0
M  V30 6614 N 628.193 1.56834 0.155195 0
M  V30 6615 C 629.44 1.82898 0.869179 0
M  V30 6616 C 629.768 0.698194 1.81537 0
M  V30 6617 O 629.023 -0.313404 1.93174 0
M  V30 6618 C 629.322 3.15239 1.68402 0
M  V30 6619 C 628.988 4.42123 0.885341 0
M  V30 6620 C 627.65 4.76583 0.664971 0
M  V30 6621 C 630.002 5.20178 0.326234 0
M  V30 6622 C 627.33 5.86566 -0.125346 0
M  V30 6623 C 629.682 6.3099 -0.45108 0
M  V30 6624 C 628.346 6.64006 -0.682102 0
M  V30 6625 H 627.616 0.66927 0.318055 0
M  V30 6626 H 630.263 1.91036 0.133241 0
M  V30 6627 H 628.568 3.02515 2.48982 0
M  V30 6628 H 630.265 3.32618 2.23978 0
M  V30 6629 H 626.855 4.15102 1.06716 0
M  V30 6630 H 631.039 4.93936 0.483787 0
M  V30 6631 H 626.295 6.10594 -0.313915 0
M  V30 6632 H 630.469 6.9067 -0.89149 0
M  V30 6633 H 628.096 7.49065 -1.29636 0
M  V30 6634 N 629.671 -0.424282 1.51781 0
M  V30 6635 C 630.634 -1.49848 1.73431 0
M  V30 6636 C 631.634 -1.49016 0.604225 0
M  V30 6637 O 632.824 -1.50808 0.871935 0
M  V30 6638 C 629.956 -2.89332 1.80277 0
M  V30 6639 H 631.149 -1.3195 2.69312 0
M  V30 6640 H 628.702 -0.653809 1.41968 0
M  V30 6641 H 629.437 -3.12618 0.862568 0
M  V30 6642 H 629.222 -2.9134 2.62419 0
M  V30 6643 H 630.712 -3.67233 1.98821 0
M  V30 6644 N 631.149 -1.42148 -0.680565 0
M  V30 6645 C 632.56 -1.3768 -1.26099 0
M  V30 6646 C 632.911 -0.0672348 -1.96085 0
M  V30 6647 O 632.036 0.834172 -1.99676 0
M  V30 6648 C 632.631 -2.49387 -2.29328 0
M  V30 6649 C 631.19 -2.4827 -2.82911 0
M  V30 6650 C 630.337 -2.2847 -1.57152 0
M  V30 6651 H 633.288 -1.51446 -0.474326 0
M  V30 6652 H 633.309 -2.19307 -3.10941 0
M  V30 6653 H 632.821 -3.44686 -1.78363 0
M  V30 6654 H 630.922 -1.56773 -3.38013 0
M  V30 6655 H 631.035 -3.45109 -3.3232 0
M  V30 6656 H 629.399 -1.76623 -1.83511 0
M  V30 6657 H 630.182 -3.25816 -1.0816 0
M  V30 6658 N 632.627 0.916307 -1.28225 0
M  V30 6659 C 633.875 1.6619 -1.15002 0
M  V30 6660 C 634.196 1.92642 0.302329 0
M  V30 6661 O 633.466 1.54076 1.20985 0
M  V30 6662 H 632.046 0.615964 -0.422608 0
M  V30 6663 H 634.708 1.09963 -1.60917 0
M  V30 6664 H 633.804 2.62533 -1.68769 0
M  V30 6665 N 634.105 1.10431 1.1244 0
M  V30 6666 C 635.33 0.869089 1.88313 0
M  V30 6667 C 635.755 -0.574912 1.79099 0
M  V30 6668 O 635.113 -1.40496 1.14589 0
M  V30 6669 C 635.161 1.32208 3.3549 0
M  V30 6670 O 634.265 0.487092 4.09513 0
M  V30 6671 H 633.606 0.313894 0.585121 0
M  V30 6672 H 636.136 1.47111 1.42195 0
M  V30 6673 H 636.146 1.31201 3.86329 0
M  V30 6674 H 634.821 2.37364 3.41513 0
M  V30 6675 H 633.398 0.562372 3.68635 0
M  V30 6676 N 635.583 -1.29855 0.893053 0
M  V30 6677 C 636.493 -2.31661 0.370157 0
M  V30 6678 C 637.509 -1.65677 -0.531723 0
M  V30 6679 O 638.685 -1.9691 -0.422902 0
M  V30 6680 C 635.75 -3.44388 -0.399741 0
M  V30 6681 C 634.811 -4.2598 0.532861 0
M  V30 6682 C 634.044 -5.33324 -0.200388 0
M  V30 6683 O 634.267 -5.52305 -1.42531 0
M  V30 6684 O 633.201 -6.00188 0.453668 0
M  V30 6685 H 637.027 -2.78354 1.2146 0
M  V30 6686 H 634.612 -1.34171 0.657153 0
M  V30 6687 H 636.494 -4.13037 -0.835358 0
M  V30 6688 H 635.169 -2.99815 -1.22035 0
M  V30 6689 H 634.076 -3.59998 1.01746 0
M  V30 6690 H 635.409 -4.74178 1.3197 0
M  V30 6691 N 637.061 -0.65484 -1.43351 0
M  V30 6692 C 637.971 0.0363603 -2.34572 0
M  V30 6693 C 638.987 0.810432 -1.53974 0
M  V30 6694 O 640.163 0.757308 -1.86619 0
M  V30 6695 C 637.228 0.989733 -3.32273 0
M  V30 6696 C 636.289 0.212414 -4.28774 0
M  V30 6697 C 635.522 1.12038 -5.21808 0
M  V30 6698 O 635.745 2.35967 -5.19303 0
M  V30 6699 O 634.679 0.59191 -5.98982 0
M  V30 6700 H 638.505 -0.714527 -2.95175 0
M  V30 6701 H 636.09 -0.415029 -1.4352 0
M  V30 6702 H 637.972 1.53759 -3.92347 0
M  V30 6703 H 636.647 1.72082 -2.74171 0
M  V30 6704 H 635.554 -0.379062 -3.72175 0
M  V30 6705 H 636.887 -0.479138 -4.89862 0
M  V30 6706 N 638.539 1.52521 -0.396863 0
M  V30 6707 C 639.502 2.2527 0.422604 0
M  V30 6708 C 640.502 1.27184 0.983913 0
M  V30 6709 O 641.692 1.51222 0.864723 0
M  V30 6710 C 638.824 3.01356 1.59365 0
M  V30 6711 H 640.017 2.99133 -0.214416 0
M  V30 6712 H 637.57 1.55587 -0.149128 0
M  V30 6713 H 638.305 2.31813 2.26789 0
M  V30 6714 H 638.09 3.73357 1.19779 0
M  V30 6715 H 639.58 3.56571 2.17363 0
M  V30 6716 N 640.017 0.126909 1.57088 0
M  V30 6717 C 641.266 -0.529024 1.94639 0
M  V30 6718 C 641.579 -1.67323 1.01304 0
M  V30 6719 O 642.785 -2.39245 1.28352 0
M  V30 6720 C 641.241 -0.992483 3.45945 0
M  V30 6721 C 640.849 0.123691 4.47829 0
M  V30 6722 C 642.593 -1.61934 3.924 0
M  V30 6723 C 640.5 -0.356911 5.90322 0
M  V30 6724 H 639.43 -0.201397 0.726605 0
M  V30 6725 H 642.081 0.208032 1.82317 0
M  V30 6726 H 640.463 -1.7842 3.53528 0
M  V30 6727 H 641.637 0.900168 4.51922 0
M  V30 6728 H 639.952 0.657699 4.11173 0
M  V30 6729 H 642.549 -1.9902 4.96281 0
M  V30 6730 H 642.892 -2.50075 3.32819 0
M  V30 6731 H 643.425 -0.892894 3.8765 0
M  V30 6732 H 640.164 0.488636 6.53676 0
M  V30 6733 H 639.684 -1.0997 5.89633 0
M  V30 6734 H 641.363 -0.815547 6.41839 0
M  V30 6735 N 641.495 -1.56914 -0.146875 0
M  V30 6736 C 642.405 -2.0154 -1.20079 0
M  V30 6737 C 643.421 -0.930838 -1.47008 0
M  V30 6738 O 644.597 -1.24032 -1.58676 0
M  V30 6739 C 641.662 -2.38715 -2.51428 0
M  V30 6740 C 640.723 -3.6112 -2.32145 0
M  V30 6741 C 639.956 -3.96512 -3.57231 0
M  V30 6742 O 640.179 -3.32566 -4.63418 0
M  V30 6743 O 639.113 -4.89758 -3.49887 0
M  V30 6744 H 642.939 -2.91506 -0.851924 0
M  V30 6745 H 640.524 -1.45106 -0.355607 0
M  V30 6746 H 642.406 -2.63485 -3.28867 0
M  V30 6747 H 641.081 -1.51903 -2.85845 0
M  V30 6748 H 639.988 -3.41536 -1.52656 0
M  V30 6749 H 641.321 -4.48549 -2.02644 0
M  V30 6750 N 642.974 0.416227 -1.52004 0
M  V30 6751 C 644.39 0.754319 -1.40649 0
M  V30 6752 C 644.59 1.95059 -0.505392 0
M  V30 6753 O 643.646 2.5248 0.0315057 0
M  V30 6754 C 644.959 1.0149 -2.83055 0
M  V30 6755 C 646.507 1.11805 -2.9235 0
M  V30 6756 C 646.982 1.41144 -4.35709 0
M  V30 6757 N 648.473 1.48024 -4.38911 0
M  V30 6758 C 649.208 1.72338 -5.46889 0
M  V30 6759 N 648.704 1.94303 -6.64995 0
M  V30 6760 N 650.497 1.74294 -5.34395 0
M  V30 6761 H 642.648 -0.371324 -2.09129 0
M  V30 6762 H 644.911 -0.103811 -0.942299 0
M  V30 6763 H 644.617 0.208345 -3.51082 0
M  V30 6764 H 644.491 1.93697 -3.23668 0
M  V30 6765 H 646.878 1.91521 -2.24508 0
M  V30 6766 H 646.959 0.17451 -2.55204 0
M  V30 6767 H 646.603 0.619484 -5.04108 0
M  V30 6768 H 646.533 2.36739 -4.70385 0
M  V30 6769 H 649.024 1.32868 -3.53772 0
M  V30 6770 H 649.337 2.12286 -7.43071 0
M  V30 6771 H 647.682 1.91582 -6.68073 0
M  V30 6772 H 650.873 1.56667 -4.41104 0
M  V30 6773 H 651.046 1.92904 -6.18621 0
M  V30 6774 N 644.452 1.42507 0.673017 0
M  V30 6775 C 645.382 1.48916 1.79851 0
M  V30 6776 C 646.363 0.345566 1.66553 0
M  V30 6777 O 647.548 0.560116 1.85947 0
M  V30 6778 C 644.678 1.39258 3.18158 0
M  V30 6779 C 643.632 2.51662 3.46194 0
M  V30 6780 C 642.958 2.27062 4.84094 0
M  V30 6781 C 644.258 3.93968 3.42909 0
M  V30 6782 H 645.952 2.43114 1.74745 0
M  V30 6783 H 643.498 1.17013 0.839288 0
M  V30 6784 H 645.451 1.42349 3.96629 0
M  V30 6785 H 644.175 0.415542 3.23946 0
M  V30 6786 H 642.834 2.47891 2.70084 0
M  V30 6787 H 642.482 1.27648 4.86534 0
M  V30 6788 H 642.182 3.02398 5.03815 0
M  V30 6789 H 643.706 2.31905 5.64847 0
M  V30 6790 H 645.12 3.99332 4.11347 0
M  V30 6791 H 643.517 4.6917 3.74165 0
M  V30 6792 H 644.587 4.20512 2.41449 0
M  V30 6793 N 645.93 -0.909495 1.28709 0
M  V30 6794 C 646.877 -2.01245 1.13 0
M  V30 6795 C 647.847 -1.6608 0.0259684 0
M  V30 6796 O 649.032 -1.89835 0.191687 0
M  V30 6797 C 646.172 -3.35644 0.802315 0
M  V30 6798 C 645.285 -3.83653 1.98582 0
M  V30 6799 C 644.42 -5.06582 1.59837 0
M  V30 6800 C 643.459 -5.46934 2.74827 0
M  V30 6801 N 642.596 -6.61053 2.36546 0
M  V30 6802 H 647.436 -2.14013 2.0737 0
M  V30 6803 H 644.973 -1.0482 1.03205 0
M  V30 6804 H 646.931 -4.12963 0.593057 0
M  V30 6805 H 645.561 -3.22631 -0.104457 0
M  V30 6806 H 644.613 -3.02454 2.30708 0
M  V30 6807 H 645.925 -4.09515 2.84779 0
M  V30 6808 H 645.079 -5.91457 1.35143 0
M  V30 6809 H 643.818 -4.82537 0.707753 0
M  V30 6810 H 642.823 -4.60599 3.00215 0
M  V30 6811 H 644.048 -5.72965 3.64538 0
M  V30 6812 H 641.994 -6.3863 1.49959 0
M  V30 6813 H 641.911 -6.86662 3.16277 0
M  V30 6814 H 643.179 -7.49221 2.15146 0
M  V30 6815 N 647.408 -1.11026 -1.11852 0
M  V30 6816 C 648.318 -0.777252 -2.2135 0
M  V30 6817 C 649.334 0.227821 -1.72502 0
M  V30 6818 O 650.51 0.0650587 -2.01295 0
M  V30 6819 C 647.575 -0.220668 -3.45997 0
M  V30 6820 C 646.636 -1.2838 -4.09655 0
M  V30 6821 C 645.869 -0.753678 -5.28352 0
M  V30 6822 O 646.092 0.417779 -5.68868 0
M  V30 6823 O 645.026 -1.51647 -5.82483 0
M  V30 6824 H 648.852 -1.69141 -2.5224 0
M  V30 6825 H 646.437 -0.885836 -1.20305 0
M  V30 6826 H 648.319 0.0855756 -4.21313 0
M  V30 6827 H 646.994 0.666262 -3.16769 0
M  V30 6828 H 645.901 -1.64299 -3.3609 0
M  V30 6829 H 647.234 -2.14396 -4.43052 0
M  V30 6830 N 648.886 1.2938 -0.899927 0
M  V30 6831 C 650.114 1.99691 -0.541386 0
M  V30 6832 C 650.529 1.67355 0.873936 0
M  V30 6833 O 649.886 0.918728 1.57688 0
M  V30 6834 C 649.937 3.54168 -0.72438 0
M  V30 6835 O 649.658 3.85359 -2.08399 0
M  V30 6836 C 651.159 4.41746 -0.370819 0
M  V30 6837 H 648.379 0.638037 -0.207726 0
M  V30 6838 H 650.923 1.6491 -1.20934 0
M  V30 6839 H 649.078 3.87261 -0.103607 0
M  V30 6840 H 649.492 4.80032 -2.11352 0
M  V30 6841 H 650.966 5.49256 -0.549693 0
M  V30 6842 H 651.443 4.33712 0.692148 0
M  V30 6843 H 652.049 4.14125 -0.968543 0
M  V30 6844 N 650.364 0.662433 1.43002 0
M  V30 6845 C 651.274 -0.0239199 2.34588 0
M  V30 6846 C 652.29 -0.802255 1.54402 0
M  V30 6847 O 653.466 -0.747401 1.87018 0
M  V30 6848 C 650.531 -0.972098 3.32793 0
M  V30 6849 C 649.592 -0.189673 4.28881 0
M  V30 6850 C 648.825 -1.09269 5.22395 0
M  V30 6851 O 649.048 -2.33209 5.20547 0
M  V30 6852 O 647.982 -0.560136 5.99288 0
M  V30 6853 H 651.808 0.730171 2.94792 0
M  V30 6854 H 649.393 0.422635 1.43297 0
M  V30 6855 H 651.275 -1.51676 3.93157 0
M  V30 6856 H 649.95 -1.70626 2.75079 0
M  V30 6857 H 648.857 0.398794 3.71968 0
M  V30 6858 H 650.19 0.50511 4.89601 0
M  V30 6859 N 651.842 -1.52309 0.404946 0
M  V30 6860 C 652.789 -2.26898 -0.422597 0
M  V30 6861 C 653.759 -1.2914 -1.04461 0
M  V30 6862 O 654.944 -1.57996 -1.06967 0
M  V30 6863 C 652.084 -3.09053 -1.53559 0
M  V30 6864 C 651.197 -4.21762 -0.934908 0
M  V30 6865 C 650.332 -4.91283 -2.02025 0
M  V30 6866 C 649.371 -5.95962 -1.39628 0
M  V30 6867 N 648.508 -6.59017 -2.42159 0
M  V30 6868 H 653.348 -2.97188 0.219903 0
M  V30 6869 H 650.885 -1.46607 0.120282 0
M  V30 6870 H 652.843 -3.54987 -2.19181 0
M  V30 6871 H 651.473 -2.40942 -2.14818 0
M  V30 6872 H 650.525 -3.80029 -0.167854 0
M  V30 6873 H 651.837 -4.96864 -0.439073 0
M  V30 6874 H 650.991 -5.40601 -2.75383 0
M  V30 6875 H 649.73 -4.15741 -2.54973 0
M  V30 6876 H 648.735 -5.45968 -0.648023 0
M  V30 6877 H 649.96 -6.73445 -0.874553 0
M  V30 6878 H 647.906 -5.86306 -2.94247 0
M  V30 6879 H 647.823 -7.2978 -1.97376 0
M  V30 6880 H 649.091 -7.12974 -3.15099 0
M  V30 6881 N 653.32 -0.135238 -1.57019 0
M  V30 6882 C 654.569 0.518694 -1.94917 0
M  V30 6883 C 654.882 1.66783 -1.0219 0
M  V30 6884 O 656.088 2.38561 -1.29619 0
M  V30 6885 C 654.544 0.974123 -3.46466 0
M  V30 6886 C 654.152 -0.147439 -4.47757 0
M  V30 6887 C 655.896 1.59851 -3.93253 0
M  V30 6888 C 653.803 0.325599 -5.90503 0
M  V30 6889 H 652.733 0.19754 -0.727663 0
M  V30 6890 H 655.384 -0.217698 -1.82204 0
M  V30 6891 H 653.766 1.76542 -3.5447 0
M  V30 6892 H 654.94 -0.924122 -4.51438 0
M  V30 6893 H 653.255 -0.679496 -4.10818 0
M  V30 6894 H 655.852 1.96385 -4.9733 0
M  V30 6895 H 656.195 2.48306 -3.3414 0
M  V30 6896 H 656.728 0.872323 -3.88118 0
M  V30 6897 H 653.467 -0.523295 -6.53408 0
M  V30 6898 H 652.987 1.06841 -5.90208 0
M  V30 6899 H 654.666 0.781498 -6.42263 0
M  V30 6900 N 654.798 1.5699 0.138552 0
M  V30 6901 C 656.047 1.82998 0.848205 0
M  V30 6902 C 656.36 0.717829 1.81952 0
M  V30 6903 O 657.566 0.863756 2.57394 0
M  V30 6904 C 656.022 3.24379 1.55904 0
M  V30 6905 C 655.63 4.43552 0.62971 0
M  V30 6906 C 657.374 3.59654 2.25498 0
M  V30 6907 C 655.281 5.75957 1.34266 0
M  V30 6908 H 654.211 0.682495 0.320495 0
M  V30 6909 H 656.862 1.83222 0.100924 0
M  V30 6910 H 655.244 3.18567 2.35226 0
M  V30 6911 H 656.418 4.6062 -0.128882 0
M  V30 6912 H 654.733 4.16379 0.0417526 0
M  V30 6913 H 657.33 4.55837 2.79493 0
M  V30 6914 H 657.673 2.86124 3.02388 0
M  V30 6915 H 658.206 3.67164 1.53087 0
M  V30 6916 H 654.945 6.52604 0.615441 0
M  V30 6917 H 654.465 5.62811 2.07375 0
M  V30 6918 H 656.144 6.19046 1.88126 0
M  V30 6919 N 656.276 -0.40816 1.52223 0
M  V30 6920 C 657.239 -1.48 1.7501 0
M  V30 6921 C 658.239 -1.48367 0.619996 0
M  V30 6922 O 659.429 -1.49874 0.887881 0
M  V30 6923 C 656.561 -2.87403 1.83336 0
M  V30 6924 H 657.754 -1.29086 2.70697 0
M  V30 6925 H 655.307 -0.638715 1.42654 0
M  V30 6926 H 656.042 -3.11686 0.895677 0
M  V30 6927 H 655.827 -2.8854 2.65494 0
M  V30 6928 H 657.317 -3.65103 2.02705 0
M  V30 6929 N 657.755 -1.42862 -0.66545 0
M  V30 6930 C 658.665 -1.49491 -1.80803 0
M  V30 6931 C 659.681 -0.382914 -1.69734 0
M  V30 6932 O 660.857 -0.635223 -1.9112 0
M  V30 6933 C 657.922 -1.40383 -3.17007 0
M  V30 6934 C 656.983 -2.62152 -3.39963 0
M  V30 6935 C 656.216 -2.53469 -4.69669 0
M  V30 6936 O 656.439 -1.57568 -5.48205 0
M  V30 6937 O 655.373 -3.43763 -4.94075 0
M  V30 6938 H 659.199 -2.45949 -1.78165 0
M  V30 6939 H 656.784 -1.24728 -0.822387 0
M  V30 6940 H 658.666 -1.377 -3.98267 0
M  V30 6941 H 657.341 -0.470546 -3.20262 0
M  V30 6942 H 656.248 -2.70409 -2.58515 0
M  V30 6943 H 657.581 -3.54411 -3.41546 0
M  V30 6944 N 659.233 0.902656 -1.29189 0
M  V30 6945 C 660.163 2.02294 -1.16616 0
M  V30 6946 C 661.144 1.6999 -0.0611175 0
M  V30 6947 O 662.329 1.9271 -0.240072 0
M  V30 6948 C 659.459 3.37018 -0.83882 0
M  V30 6949 C 658.413 3.83522 -1.89986 0
M  V30 6950 C 657.739 5.15337 -1.42589 0
M  V30 6951 C 659.039 4.04169 -3.30824 0
M  V30 6952 H 660.733 2.13071 -2.10336 0
M  V30 6953 H 658.279 1.02378 -1.01266 0
M  V30 6954 H 660.232 4.14895 -0.737584 0
M  V30 6955 H 658.956 3.26325 0.134071 0
M  V30 6956 H 657.615 3.07859 -1.99043 0
M  V30 6957 H 657.263 5.01056 -0.441759 0
M  V30 6958 H 656.963 5.47423 -2.13547 0
M  V30 6959 H 658.487 5.95758 -1.3381 0
M  V30 6960 H 659.901 4.72537 -3.24626 0
M  V30 6961 H 658.298 4.47604 -3.99713 0
M  V30 6962 H 659.368 3.08604 -3.74021 0
M  V30 6963 N 660.711 1.11618 1.11262 0
M  V30 6964 C 661.659 0.771291 2.1944 0
M  V30 6965 C 662.653 -0.238073 1.67719 0
M  V30 6966 O 663.859 -0.0971628 1.79738 0
M  V30 6967 H 660.234 0.231548 0.715465 0
M  V30 6968 H 662.205 1.69226 2.45775 0
M  V30 6969 C 660.954 0.232765 3.4692 0
M  V30 6970 H 660.277 1.00072 3.87073 0
M  V30 6971 H 661.717 0.0296561 4.2399 0
M  V30 6972 C 660.176 -1.03738 3.20531 0
M  V30 6973 O 660.706 -2.11675 3.41404 0
M  V30 6974 N 658.912 -0.960906 2.74253 0
M  V30 6975 H 658.459 -0.0824323 2.57468 0
M  V30 6976 H 658.417 -1.8114 2.56974 0
M  V30 6977 N 662.189 -1.289 0.906776 0
M  V30 6978 C 663.099 -2.31256 0.394707 0
M  V30 6979 C 664.115 -1.66231 -0.514121 0
M  V30 6980 O 665.291 -1.97347 -0.401994 0
M  V30 6981 C 662.356 -3.44792 -0.363191 0
M  V30 6982 C 661.417 -4.25391 0.578012 0
M  V30 6983 C 660.65 -5.33506 -0.143811 0
M  V30 6984 O 660.873 -5.53786 -1.36665 0
M  V30 6985 O 659.807 -5.99673 0.5173 0
M  V30 6986 H 663.633 -2.77051 1.24405 0
M  V30 6987 H 661.218 -1.33466 0.671346 0
M  V30 6988 H 663.1 -4.139 -0.791503 0
M  V30 6989 H 661.775 -3.01093 -1.18848 0
M  V30 6990 H 660.682 -3.58899 1.05558 0
M  V30 6991 H 662.015 -4.72752 1.36992 0
M  V30 6992 N 663.667 -0.670007 -1.42649 0
M  V30 6993 C 664.895 -0.19854 -2.05945 0
M  V30 6994 C 665.31 1.14243 -1.50313 0
M  V30 6995 O 664.667 1.70872 -0.641027 0
M  V30 6996 C 664.718 -0.11966 -3.61302 0
M  V30 6997 O 664.439 -1.40764 -4.1487 0
M  V30 6998 C 665.94 0.375878 -4.41704 0
M  V30 6999 H 663.16 -0.0976894 -0.663851 0
M  V30 7000 H 665.704 -0.915392 -1.82868 0
M  V30 7001 H 663.859 0.547851 -3.83507 0
M  V30 7002 H 664.273 -1.27784 -5.08696 0
M  V30 7003 H 665.747 0.379988 -5.50691 0
M  V30 7004 H 666.224 1.41028 -4.15942 0
M  V30 7005 H 666.83 -0.259727 -4.24506 0
M  V30 7006 N 665.145 1.52092 -0.413018 0
M  V30 7007 C 666.391 2.02815 0.154104 0
M  V30 7008 C 666.746 1.293 1.42475 0
M  V30 7009 O 666.039 0.391835 1.87551 0
M  V30 7010 C 666.233 3.54529 0.4521 0
M  V30 7011 C 666.062 4.4274 -0.788116 0
M  V30 7012 C 664.832 4.87903 -1.31447 0
M  V30 7013 C 667.03 4.86522 -1.66735 0
M  V30 7014 N 665.012 5.60254 -2.50976 0
M  V30 7015 C 666.383 5.57692 -2.70886 0
M  V30 7016 C 668.438 4.68534 -1.68465 0
M  V30 7017 C 667.141 6.12783 -3.76682 0
M  V30 7018 C 669.167 5.24524 -2.73182 0
M  V30 7019 C 668.529 5.9562 -3.76054 0
M  V30 7020 H 664.628 0.781796 0.0178567 0
M  V30 7021 H 667.212 1.86223 -0.568237 0
M  V30 7022 H 665.383 3.71186 1.14348 0
M  V30 7023 H 667.115 3.91934 1.00844 0
M  V30 7024 H 663.87 4.65504 -0.871931 0
M  V30 7025 H 664.294 6.01069 -3.11521 0
M  V30 7026 H 668.936 4.13051 -0.902708 0
M  V30 7027 H 666.654 6.67335 -4.55729 0
M  V30 7028 H 670.24 5.12473 -2.75433 0
M  V30 7029 H 669.12 6.38169 -4.55752 0
M  V30 7030 N 666.623 0.143563 1.56945 0
M  V30 7031 C 667.533 -0.810562 2.20152 0
M  V30 7032 C 668.549 -1.27431 1.1848 0
M  V30 7033 O 669.725 -1.33221 1.51044 0
M  V30 7034 C 666.79 -2.03353 2.80799 0
M  V30 7035 C 665.851 -1.61936 3.97587 0
M  V30 7036 C 665.084 -2.78403 4.55332 0
M  V30 7037 O 665.307 -3.94521 4.11958 0
M  V30 7038 O 664.241 -2.54073 5.45647 0
M  V30 7039 H 668.067 -0.30253 3.02189 0
M  V30 7040 H 665.652 -0.0832925 1.49168 0
M  V30 7041 H 667.534 -2.74932 3.19359 0
M  V30 7042 H 666.209 -2.53116 2.01777 0
M  V30 7043 H 665.116 -0.873904 3.6375 0
M  V30 7044 H 666.449 -1.16892 4.78118 0
M  V30 7045 N 668.101 -1.57061 -0.130224 0
M  V30 7046 C 669.011 -2.02802 -1.17934 0
M  V30 7047 C 670.027 -0.946378 -1.46013 0
M  V30 7048 O 671.203 -1.25708 -1.57351 0
M  V30 7049 C 668.268 -2.41368 -2.48882 0
M  V30 7050 C 667.329 -3.63561 -2.28301 0
M  V30 7051 C 666.562 -4.00279 -3.53005 0
M  V30 7052 O 666.785 -3.37463 -4.59864 0
M  V30 7053 O 665.719 -4.93441 -3.44673 0
M  V30 7054 H 669.545 -2.92394 -0.820958 0
M  V30 7055 H 667.13 -1.45475 -0.340197 0
M  V30 7056 H 669.012 -2.66958 -3.26054 0
M  V30 7057 H 667.687 -1.54926 -2.84217 0
M  V30 7058 H 666.594 -3.43136 -1.49025 0
M  V30 7059 H 667.927 -4.50673 -1.97875 0
M  V30 7060 N 669.579 0.400081 -1.52437 0
M  V30 7061 C 670.526 1.48803 -1.76426 0
M  V30 7062 C 671.496 1.5461 -0.607032 0
M  V30 7063 O 672.681 1.71041 -0.845563 0
M  V30 7064 C 669.821 2.86156 -1.92896 0
M  V30 7065 C 668.934 2.89587 -3.20567 0
M  V30 7066 C 668.069 4.18296 -3.27417 0
M  V30 7067 C 667.108 4.15736 -4.49255 0
M  V30 7068 N 666.245 5.36032 -4.53447 0
M  V30 7069 H 671.085 1.27649 -2.69276 0
M  V30 7070 H 668.622 0.619451 -1.33421 0
M  V30 7071 H 670.58 3.65901 -2.00429 0
M  V30 7072 H 669.21 3.05785 -1.03418 0
M  V30 7073 H 668.262 2.02278 -3.22161 0
M  V30 7074 H 669.574 2.83562 -4.10358 0
M  V30 7075 H 668.728 5.06439 -3.34072 0
M  V30 7076 H 667.467 4.27028 -2.35581 0
M  V30 7077 H 666.472 3.25982 -4.42737 0
M  V30 7078 H 667.697 4.08636 -5.42396 0
M  V30 7079 H 665.643 5.45415 -3.64498 0
M  V30 7080 H 665.56 5.32038 -5.37096 0
M  V30 7081 H 666.828 6.26104 -4.64343 0
M  V30 7082 N 671.057 1.43213 0.657864 0
M  V30 7083 C 671.987 1.50815 1.78262 0
M  V30 7084 C 672.968 0.363211 1.66177 0
M  V30 7085 O 674.153 0.579806 1.85343 0
M  V30 7086 C 671.283 1.42625 3.16663 0
M  V30 7087 C 670.237 2.5532 3.43505 0
M  V30 7088 C 669.563 2.32184 4.81658 0
M  V30 7089 C 670.863 3.97583 3.38711 0
M  V30 7090 H 672.557 2.44954 1.72157 0
M  V30 7091 H 670.103 1.17896 0.82683 0
M  V30 7092 H 672.056 1.46548 3.95097 0
M  V30 7093 H 670.78 0.449877 3.23487 0
M  V30 7094 H 669.439 2.50742 2.6744 0
M  V30 7095 H 669.087 1.32801 4.85153 0
M  V30 7096 H 668.787 3.07724 5.00579 0
M  V30 7097 H 670.311 2.37883 5.62356 0
M  V30 7098 H 671.725 4.03673 4.07089 0
M  V30 7099 H 670.122 4.73112 3.69168 0
M  V30 7100 H 671.192 4.23049 2.36976 0
M  V30 7101 N 672.536 -0.895792 1.29666 0
M  V30 7102 C 673.952 -1.17726 1.07763 0
M  V30 7103 C 674.152 -2.00794 -0.168576 0
M  V30 7104 O 673.208 -2.37213 -0.865244 0
M  V30 7105 C 674.521 -1.89441 2.33522 0
M  V30 7106 C 676.069 -2.02251 2.3888 0
M  V30 7107 C 676.544 -2.77378 3.64452 0
M  V30 7108 N 678.035 -2.8493 3.65198 0
M  V30 7109 C 678.77 -3.43606 4.59045 0
M  V30 7110 N 678.266 -4.03417 5.63228 0
M  V30 7111 N 680.059 -3.41317 4.46608 0
M  V30 7112 H 672.21 -0.341652 2.09634 0
M  V30 7113 H 674.473 -0.213865 0.923561 0
M  V30 7114 H 674.179 -1.35842 3.24407 0
M  V30 7115 H 674.053 -2.89893 2.41334 0
M  V30 7116 H 676.44 -2.55025 1.4848 0
M  V30 7117 H 676.521 -1.0092 2.3505 0
M  V30 7118 H 676.165 -2.25279 4.55205 0
M  V30 7119 H 676.095 -3.79062 3.65541 0
M  V30 7120 H 678.586 -2.42453 2.89871 0
M  V30 7121 H 678.899 -4.46224 6.30955 0
M  V30 7122 H 677.244 -4.01868 5.67033 0
M  V30 7123 H 680.435 -2.93812 3.64407 0
M  V30 7124 H 680.608 -3.86751 5.1993 0
M  V30 7125 N 674.014 -1.12206 -1.10668 0
M  V30 7126 C 675.43 -0.857619 -1.346 0
M  V30 7127 C 675.63 0.513542 -1.94846 0
M  V30 7128 O 674.686 1.26273 -2.18658 0
M  V30 7129 C 675.999 -1.97212 -2.26998 0
M  V30 7130 C 677.547 -2.00272 -2.40542 0
M  V30 7131 C 678.022 -3.10948 -3.36267 0
M  V30 7132 N 679.513 -3.10375 -3.43834 0
M  V30 7133 C 680.248 -3.92651 -4.17867 0
M  V30 7134 N 679.744 -4.84911 -4.94807 0
M  V30 7135 N 681.537 -3.80798 -4.1346 0
M  V30 7136 H 673.688 -2.00558 -0.699306 0
M  V30 7137 H 675.951 -0.872612 -0.370477 0
M  V30 7138 H 675.657 -2.96002 -1.89936 0
M  V30 7139 H 675.531 -1.87521 -3.27286 0
M  V30 7140 H 677.918 -1.02103 -2.76874 0
M  V30 7141 H 677.999 -2.14037 -1.40077 0
M  V30 7142 H 677.643 -4.09348 -3.00661 0
M  V30 7143 H 677.573 -2.94421 -4.36605 0
M  V30 7144 H 680.064 -2.43536 -2.88961 0
M  V30 7145 H 680.377 -5.44207 -5.48688 0
M  V30 7146 H 678.722 -4.88926 -4.93939 0
M  V30 7147 H 681.913 -3.08058 -3.52445 0
M  V30 7148 H 682.086 -4.4515 -4.70898 0
M  V30 7149 N 675.492 1.28418 -0.913599 0
M  V30 7150 C 676.72 1.99106 -0.562536 0
M  V30 7151 C 677.135 1.68273 0.856137 0
M  V30 7152 O 676.492 0.935401 1.56705 0
M  V30 7153 C 676.543 3.5338 -0.761903 0
M  V30 7154 O 676.264 3.83127 -2.12475 0
M  V30 7155 C 677.765 4.41328 -0.417651 0
M  V30 7156 H 674.985 0.635798 -0.214481 0
M  V30 7157 H 677.529 1.63618 -1.22676 0
M  V30 7158 H 675.684 3.8713 -0.144676 0
M  V30 7159 H 676.098 4.77763 -2.16431 0
M  V30 7160 H 677.572 5.48642 -0.607919 0
M  V30 7161 H 678.049 4.34422 0.646108 0
M  V30 7162 H 678.655 4.13074 -1.01241 0
M  V30 7163 N 676.97 0.677563 1.42291 0
M  V30 7164 C 677.88 0.000962654 2.346 0
M  V30 7165 C 678.896 -0.785833 1.55244 0
M  V30 7166 O 680.072 -0.727523 1.87801 0
M  V30 7167 C 677.137 -0.936746 3.33805 0
M  V30 7168 C 676.198 -0.144173 4.29058 0
M  V30 7169 C 675.431 -1.03722 5.23524 0
M  V30 7170 O 675.654 -2.27675 5.22992 0
M  V30 7171 O 674.588 -0.496542 5.99848 0
M  V30 7172 H 678.414 0.761397 2.94001 0
M  V30 7173 H 675.999 0.43781 1.42841 0
M  V30 7174 H 677.881 -1.47497 3.94744 0
M  V30 7175 H 676.556 -1.67698 2.76874 0
M  V30 7176 H 675.463 0.438224 3.71524 0
M  V30 7177 H 676.796 0.55701 4.89038 0
M  V30 7178 N 678.448 -1.51871 0.421078 0
M  V30 7179 C 679.411 -2.25914 -0.386712 0
M  V30 7180 C 680.411 -1.28733 -0.963555 0
M  V30 7181 O 681.601 -1.52579 -0.840556 0
M  V30 7182 C 678.733 -3.03853 -1.54551 0
M  V30 7183 H 679.926 -2.98754 0.261978 0
M  V30 7184 H 677.479 -1.5533 0.173862 0
M  V30 7185 H 678.214 -2.35392 -2.23072 0
M  V30 7186 H 677.999 -3.75215 -1.13824 0
M  V30 7187 H 679.489 -3.59984 -2.11663 0
M  V30 7188 N 679.926 -0.151884 -1.56866 0
M  V30 7189 C 681.175 0.497992 -1.95456 0
M  V30 7190 C 681.488 1.6569 -1.03953 0
M  V30 7191 O 682.694 2.37173 -1.32142 0
M  V30 7192 C 681.15 0.93732 -3.4748 0
M  V30 7193 C 680.758 -0.194921 -4.47576 0
M  V30 7194 C 682.502 1.55671 -3.94926 0
M  V30 7195 C 680.409 0.26295 -5.90815 0
M  V30 7196 H 679.339 0.189811 -0.729717 0
M  V30 7197 H 681.99 -0.237011 -1.81963 0
M  V30 7198 H 680.372 1.72773 -3.56322 0
M  V30 7199 H 681.546 -0.971951 -4.50433 0
M  V30 7200 H 679.861 -0.72303 -4.10075 0
M  V30 7201 H 682.458 1.91099 -4.99385 0
M  V30 7202 H 682.801 2.44748 -3.36755 0
M  V30 7203 H 683.334 0.831109 -3.89021 0
M  V30 7204 H 680.073 -0.592568 -6.52816 0
M  V30 7205 H 679.593 1.00575 -5.91308 0
M  V30 7206 H 681.272 0.713333 -6.43056 0
M  V30 7207 N 681.404 1.57128 0.121893 0
M  V30 7208 C 682.82 1.52357 0.47534 0
M  V30 7209 C 683.02 0.864417 1.82017 0
M  V30 7210 O 682.076 0.445529 2.48538 0
M  V30 7211 C 683.389 2.97122 0.4625 0
M  V30 7212 C 684.937 3.08196 0.546255 0
M  V30 7213 C 685.412 4.54516 0.563833 0
M  V30 7214 N 686.903 4.58959 0.625353 0
M  V30 7215 C 687.638 5.69585 0.660354 0
M  V30 7216 N 687.134 6.89714 0.653175 0
M  V30 7217 N 688.927 5.57685 0.703143 0
M  V30 7218 H 681.078 1.98364 -0.75931 0
M  V30 7219 H 683.341 0.905777 -0.279772 0
M  V30 7220 H 683.047 3.48706 -0.457943 0
M  V30 7221 H 682.921 3.54406 1.29136 0
M  V30 7222 H 685.308 2.56617 1.45712 0
M  V30 7223 H 685.389 2.53912 -0.310234 0
M  V30 7224 H 685.033 5.06741 -0.342974 0
M  V30 7225 H 684.963 5.06609 1.43716 0
M  V30 7226 H 687.454 3.72489 0.637182 0
M  V30 7227 H 687.767 7.69781 0.682425 0
M  V30 7228 H 686.112 6.92223 0.620646 0
M  V30 7229 H 689.303 4.62744 0.706095 0
M  V30 7230 H 689.476 6.43909 0.726952 0
M  V30 7231 N 682.882 -0.391992 1.52647 0
M  V30 7232 C 683.815 -1.50019 1.71958 0
M  V30 7233 C 684.793 -1.5238 0.567365 0
M  V30 7234 O 685.977 -1.70831 0.796806 0
M  V30 7235 C 683.104 -2.88496 1.77447 0
M  V30 7236 C 682.15 -3.03974 2.99169 0
M  V30 7237 S 682.983 -2.75487 4.59203 0
M  V30 7238 C 684.139 -4.16163 4.67503 0
M  V30 7239 H 684.372 -1.33413 2.65685 0
M  V30 7240 H 681.905 -0.584674 1.42902 0
M  V30 7241 H 683.863 -3.68296 1.81296 0
M  V30 7242 H 682.524 -3.02431 0.848188 0
M  V30 7243 H 681.717 -4.05328 2.99542 0
M  V30 7244 H 681.319 -2.32062 2.93297 0
M  V30 7245 H 683.611 -5.10048 4.45934 0
M  V30 7246 H 684.554 -4.20806 5.69498 0
M  V30 7247 H 684.962 -4.01933 3.96371 0
M  V30 7248 N 684.36 -1.4356 -0.65026 0
M  V30 7249 C 685.27 -1.514 -1.79207 0
M  V30 7250 C 686.286 -0.400895 -1.69319 0
M  V30 7251 O 687.462 -0.655458 -1.90436 0
M  V30 7252 C 684.527 -1.43737 -3.155 0
M  V30 7253 C 683.588 -2.65743 -3.37163 0
M  V30 7254 C 682.821 -2.58436 -4.66954 0
M  V30 7255 O 683.044 -1.63374 -5.46503 0
M  V30 7256 O 681.978 -3.48984 -4.90402 0
M  V30 7257 H 685.804 -2.47825 -1.75547 0
M  V30 7258 H 683.389 -1.25594 -0.809111 0
M  V30 7259 H 685.271 -1.41916 -3.96784 0
M  V30 7260 H 683.946 -0.504488 -3.19745 0
M  V30 7261 H 682.853 -2.73136 -2.55632 0
M  V30 7262 H 684.186 -3.58014 -3.37768 0
M  V30 7263 N 685.838 0.888903 -1.30139 0
M  V30 7264 C 687.254 1.17153 -1.08385 0
M  V30 7265 C 687.454 2.0088 0.157925 0
M  V30 7266 O 686.51 2.37668 0.852652 0
M  V30 7267 C 687.823 1.882 -2.34523 0
M  V30 7268 C 689.371 2.00981 -2.39949 0
M  V30 7269 C 689.846 2.75441 -3.65918 0
M  V30 7270 N 691.337 2.82989 -3.66704 0
M  V30 7271 C 692.072 3.41167 -4.60861 0
M  V30 7272 N 691.568 4.00425 -5.6536 0
M  V30 7273 N 693.361 3.38944 -4.48412 0
M  V30 7274 H 685.512 0.33053 -2.09812 0
M  V30 7275 H 687.775 0.208964 -0.924683 0
M  V30 7276 H 687.481 1.34119 -3.25123 0
M  V30 7277 H 687.355 2.88609 -2.42868 0
M  V30 7278 H 689.742 2.54234 -1.4983 0
M  V30 7279 H 689.823 0.996725 -2.35582 0
M  V30 7280 H 689.467 2.22861 -4.56394 0
M  V30 7281 H 689.397 3.77118 -3.67546 0
M  V30 7282 H 691.888 2.40912 -2.91153 0
M  V30 7283 H 692.201 4.42871 -6.33313 0
M  V30 7284 H 690.546 3.98856 -5.69157 0
M  V30 7285 H 693.737 2.91875 -3.6596 0
M  V30 7286 H 693.91 3.83989 -5.21974 0
M  V30 7287 N 687.317 1.12792 1.10072 0
M  V30 7288 C 688.227 0.812369 2.20086 0
M  V30 7289 C 689.243 -0.200349 1.72843 0
M  V30 7290 O 690.419 -0.0330262 2.01373 0
M  V30 7291 C 687.484 0.275685 3.45602 0
M  V30 7292 C 686.545 1.34881 4.07561 0
M  V30 7293 C 685.778 0.837639 5.27086 0
M  V30 7294 O 686.001 -0.327224 5.69461 0
M  V30 7295 O 684.935 1.60894 5.79997 0
M  V30 7296 H 688.761 1.73133 2.49517 0
M  V30 7297 H 686.346 0.904863 1.18881 0
M  V30 7298 H 688.228 -0.0185375 4.21396 0
M  V30 7299 H 686.903 -0.615783 3.17789 0
M  V30 7300 H 685.81 1.69625 3.33434 0
M  V30 7301 H 687.143 2.21418 4.39585 0
M  V30 7302 N 688.795 -1.27931 0.920396 0
M  V30 7303 C 689.758 -2.25345 0.41858 0
M  V30 7304 C 690.758 -1.54116 -0.458798 0
M  V30 7305 O 691.948 -1.72235 -0.260912 0
M  V30 7306 C 689.08 -3.38556 -0.399104 0
M  V30 7307 H 690.273 -2.71251 1.27918 0
M  V30 7308 H 687.826 -1.39728 0.700406 0
M  V30 7309 H 688.561 -2.98021 -1.27882 0
M  V30 7310 H 688.346 -3.91426 0.229863 0
M  V30 7311 H 689.836 -4.10976 -0.740817 0
M  V30 7312 N 690.273 -0.685099 -1.4193 0
M  V30 7313 C 691.203 -0.0273506 -2.33484 0
M  V30 7314 C 692.184 0.778366 -1.51246 0
M  V30 7315 O 693.369 0.733449 -1.79817 0
M  V30 7316 C 690.499 0.917272 -3.34968 0
M  V30 7317 C 689.453 0.21941 -4.27437 0
M  V30 7318 C 688.779 1.27768 -5.1921 0
M  V30 7319 C 690.079 -0.907894 -5.14349 0
M  V30 7320 H 691.773 -0.791994 -2.88735 0
M  V30 7321 H 689.319 -0.382308 -1.38832 0
M  V30 7322 H 691.272 1.38657 -3.97935 0
M  V30 7323 H 689.996 1.71346 -2.78043 0
M  V30 7324 H 688.655 -0.229757 -3.65879 0
M  V30 7325 H 688.303 2.06612 -4.58607 0
M  V30 7326 H 688.003 0.815803 -5.81909 0
M  V30 7327 H 689.527 1.7477 -5.85054 0
M  V30 7328 H 690.941 -0.519348 -5.70943 0
M  V30 7329 H 689.338 -1.2962 -5.85934 0
M  V30 7330 H 690.408 -1.75218 -4.52136 0
M  V30 7331 N 691.751 1.51645 -0.429126 0
M  V30 7332 C 692.681 2.30434 0.377148 0
M  V30 7333 C 693.662 1.35493 1.02838 0
M  V30 7334 O 694.847 1.6441 1.03359 0
M  V30 7335 C 691.977 3.14038 1.48315 0
M  V30 7336 C 690.931 4.1719 0.955855 0
M  V30 7337 C 690.257 4.89263 2.15698 0
M  V30 7338 C 691.557 5.223 -0.00402136 0
M  V30 7339 H 693.251 2.98085 -0.280336 0
M  V30 7340 H 690.797 1.43354 -0.136265 0
M  V30 7341 H 692.75 3.67933 2.05435 0
M  V30 7342 H 691.474 2.44193 2.16881 0
M  V30 7343 H 690.133 3.64335 0.406929 0
M  V30 7344 H 689.781 4.15929 2.82864 0
M  V30 7345 H 689.481 5.59009 1.81059 0
M  V30 7346 H 691.005 5.45978 2.73387 0
M  V30 7347 H 692.419 5.71315 0.476607 0
M  V30 7348 H 690.816 5.99525 -0.26258 0
M  V30 7349 H 691.886 4.75638 -0.943236 0
M  V30 7350 N 693.229 0.160201 1.56784 0
M  V30 7351 C 694.192 -0.760405 2.16219 0
M  V30 7352 C 695.192 -1.16595 1.10735 0
M  V30 7353 O 696.382 -1.08472 1.36306 0
M  V30 7354 C 693.514 -2.03358 2.73603 0
M  V30 7355 H 694.707 -0.243173 2.98912 0
M  V30 7356 H 692.26 -0.0893139 1.56045 0
M  V30 7357 H 692.995 -2.59416 1.94612 0
M  V30 7358 H 692.78 -1.75186 3.50788 0
M  V30 7359 H 694.27 -2.69081 3.19351 0
M  V30 7360 N 694.707 -1.5719 -0.113559 0
M  V30 7361 C 695.617 -2.04041 -1.15777 0
M  V30 7362 C 696.633 -0.961812 -1.45001 0
M  V30 7363 O 697.809 -1.2737 -1.56009 0
M  V30 7364 C 694.874 -2.43994 -2.46308 0
M  V30 7365 C 693.935 -3.65962 -2.24433 0
M  V30 7366 C 693.168 -4.04 -3.4874 0
M  V30 7367 O 693.391 -3.42321 -4.56259 0
M  V30 7368 O 692.325 -4.97069 -3.3942 0
M  V30 7369 H 696.151 -2.93248 -0.789899 0
M  V30 7370 H 693.736 -1.45828 -0.324748 0
M  V30 7371 H 695.618 -2.70401 -3.23204 0
M  V30 7372 H 694.293 -1.57932 -2.82558 0
M  V30 7373 H 693.2 -3.44697 -1.45377 0
M  V30 7374 H 694.533 -4.52746 -1.93084 0
M  V30 7375 N 696.185 0.383891 -1.52853 0
M  V30 7376 C 697.118 1.49105 -1.72751 0
M  V30 7377 C 698.096 1.52077 -0.575438 0
M  V30 7378 O 699.28 1.70406 -0.805854 0
M  V30 7379 C 696.407 2.87551 -1.78975 0
M  V30 7380 C 695.453 3.02383 -3.00777 0
M  V30 7381 S 696.286 2.73048 -4.60657 0
M  V30 7382 C 697.442 4.13678 -4.69704 0
M  V30 7383 H 697.675 1.32002 -2.66388 0
M  V30 7384 H 695.208 0.577088 -1.4321 0
M  V30 7385 H 697.166 3.6733 -1.83246 0
M  V30 7386 H 695.827 3.01977 -0.864215 0
M  V30 7387 H 695.02 4.03733 -3.01688 0
M  V30 7388 H 694.622 2.30504 -2.94523 0
M  V30 7389 H 696.914 5.07676 -4.48633 0
M  V30 7390 H 697.857 4.1778 -5.71721 0
M  V30 7391 H 698.265 3.99825 -3.98497 0
M  V30 7392 N 697.663 1.43903 0.642637 0
M  V30 7393 C 698.911 1.45791 1.39962 0
M  V30 7394 C 699.232 0.0873144 1.94804 0
M  V30 7395 O 698.502 -0.878825 1.75081 0
M  V30 7396 H 697.082 0.536797 0.519479 0
M  V30 7397 H 699.744 1.7959 0.757189 0
M  V30 7398 H 698.84 2.17665 2.2367 0
M  V30 7399 N 699.141 -0.881989 1.30609 0
M  V30 7400 C 700.387 -1.63647 1.19781 0
M  V30 7401 C 700.72 -1.92632 -0.246265 0
M  V30 7402 O 699.995 -1.54938 -1.17577 0
M  V30 7403 C 700.278 -2.97437 2.02985 0
M  V30 7404 C 700.131 -2.75406 3.55628 0
M  V30 7405 C 701.45 -3.98397 1.86997 0
M  V30 7406 H 698.569 -0.593841 0.436488 0
M  V30 7407 H 701.211 -1.02041 1.60273 0
M  V30 7408 H 699.361 -3.50018 1.68581 0
M  V30 7409 H 701.033 -2.2959 4.00107 0
M  V30 7410 H 699.276 -2.09856 3.79662 0
M  V30 7411 H 699.947 -3.70552 4.09139 0
M  V30 7412 H 702.423 -3.54986 2.17081 0
M  V30 7413 H 701.299 -4.89916 2.47536 0
M  V30 7414 H 701.56 -4.3424 0.829943 0
M  V30 7415 N 700.619 -1.13374 -1.09472 0
M  V30 7416 C 701.582 -0.813639 -2.14272 0
M  V30 7417 C 702.582 0.176677 -1.59826 0
M  V30 7418 O 703.772 -0.0503441 -1.74127 0
M  V30 7419 C 700.904 -0.210897 -3.40247 0
M  V30 7420 H 702.097 -1.74229 -2.44099 0
M  V30 7421 H 699.65 -0.938304 -1.25002 0
M  V30 7422 H 700.385 0.726998 -3.16046 0
M  V30 7423 H 700.17 -0.924048 -3.81056 0
M  V30 7424 H 701.66 -0.00377603 -4.176 0
M  V30 7425 N 702.098 1.27442 -0.927168 0
M  V30 7426 C 703.031 2.25177 -0.370232 0
M  V30 7427 C 704.009 1.53612 0.533103 0
M  V30 7428 O 705.193 1.8245 0.47373 0
M  V30 7429 C 702.32 3.35431 0.469411 0
M  V30 7430 C 701.366 4.24888 -0.370419 0
M  V30 7431 S 702.199 5.04852 -1.78562 0
M  V30 7432 C 703.355 6.18592 -0.953651 0
M  V30 7433 H 703.588 2.72069 -1.19858 0
M  V30 7434 H 701.121 1.36089 -0.729316 0
M  V30 7435 H 703.079 3.99404 0.947992 0
M  V30 7436 H 701.74 2.87179 1.27228 0
M  V30 7437 H 700.933 5.03264 0.272226 0
M  V30 7438 H 700.535 3.65709 -0.783153 0
M  V30 7439 H 702.827 6.77235 -0.189408 0
M  V30 7440 H 703.77 6.87132 -1.7104 0
M  V30 7441 H 704.178 5.62318 -0.495897 0
M  V30 7442 N 703.576 0.692616 1.41565 0
M  V30 7443 C 704.992 0.363878 1.55397 0
M  V30 7444 C 705.192 -1.1294 1.66874 0
M  V30 7445 O 704.248 -1.91517 1.64552 0
M  V30 7446 C 705.561 1.10982 2.7947 0
M  V30 7447 C 707.109 1.09387 2.93263 0
M  V30 7448 C 707.584 1.8215 4.20221 0
M  V30 7449 N 709.075 1.79105 4.27172 0
M  V30 7450 C 709.81 2.32247 5.2426 0
M  V30 7451 N 709.306 2.93847 6.27396 0
M  V30 7452 N 711.099 2.22519 5.1618 0
M  V30 7453 H 703.25 1.66116 1.3236 0
M  V30 7454 H 705.513 0.700848 0.63837 0
M  V30 7455 H 705.219 2.1647 2.77188 0
M  V30 7456 H 705.093 0.686492 3.709 0
M  V30 7457 H 707.48 0.0472638 2.95062 0
M  V30 7458 H 707.561 1.55623 2.03015 0
M  V30 7459 H 707.205 2.86789 4.19183 0
M  V30 7460 H 707.135 1.33351 5.09436 0
M  V30 7461 H 709.626 1.34191 3.53272 0
M  V30 7462 H 709.939 3.31972 6.97864 0
M  V30 7463 H 708.284 2.97924 6.27906 0
M  V30 7464 H 711.475 1.7407 4.34531 0
M  V30 7465 H 711.648 2.64239 5.91677 0
M  V30 7466 N 705.054 -1.51416 0.437162 0
M  V30 7467 C 705.964 -2.31493 -0.380537 0
M  V30 7468 C 706.98 -1.40399 -1.02782 0
M  V30 7469 O 708.156 -1.73471 -1.02323 0
M  V30 7470 C 705.221 -3.1413 -1.46709 0
M  V30 7471 C 704.282 -4.21003 -0.839953 0
M  V30 7472 C 703.515 -4.9969 -1.87473 0
M  V30 7473 O 703.738 -4.79008 -3.09689 0
M  V30 7474 O 702.672 -5.8379 -1.46536 0
M  V30 7475 H 706.498 -3.02469 0.273183 0
M  V30 7476 H 704.083 -1.48059 0.199706 0
M  V30 7477 H 705.965 -3.65505 -2.09724 0
M  V30 7478 H 704.64 -2.45919 -2.10489 0
M  V30 7479 H 703.547 -3.73706 -0.171752 0
M  V30 7480 H 704.88 -4.91587 -0.245638 0
M  V30 7481 N 706.532 -0.168513 -1.56696 0
M  V30 7482 C 707.809 0.523367 -1.88468 0
M  V30 7483 C 708.189 1.81503 -1.07796 0
M  V30 7484 O 707.537 2.27859 -0.171045 0
M  V30 7485 C 707.747 0.767991 -3.40445 0
M  V30 7486 C 709.095 1.09924 -4.10124 0
M  V30 7487 O 710.119 0.856625 -3.45746 0
M  V30 7488 O 708.978 1.55681 -5.23856 0
M  V30 7489 H 706.072 0.269447 -0.781874 0
M  V30 7490 H 708.618 -0.206739 -1.68436 0
M  V30 7491 H 707.39 -0.145254 -3.9103 0
M  V30 7492 H 707.013 1.55151 -3.66079 0
M  V30 7493 N 708.01 1.57248 0.105221 0
M  V30 7494 C 709.258 1.85204 0.808951 0
M  V30 7495 C 709.579 0.75574 1.7976 0
M  V30 7496 O 708.849 -0.218984 1.94672 0
M  V30 7497 H 707.429 0.683346 0.301739 0
M  V30 7498 H 710.091 1.94695 0.0892605 0
M  V30 7499 H 709.187 2.81595 1.34575 0
M  V30 7500 N 709.488 -0.375779 1.53054 0
M  V30 7501 C 710.736 -1.11727 1.68409 0
M  V30 7502 C 711.057 -1.90127 0.43323 0
M  V30 7503 O 710.327 -1.87945 -0.552595 0
M  V30 7504 H 708.907 -0.415451 0.620813 0
M  V30 7505 H 711.569 -0.424869 1.90213 0
M  V30 7506 H 710.665 -1.8128 2.54055 0
M  V30 7507 N 710.966 -1.44241 -0.634997 0
M  V30 7508 C 712.194 -1.50296 -1.42193 0
M  V30 7509 C 712.609 -0.12658 -1.88375 0
M  V30 7510 O 711.966 0.86678 -1.60603 0
M  V30 7511 C 712.017 -2.46437 -2.64482 0
M  V30 7512 O 711.738 -3.78724 -2.20226 0
M  V30 7513 C 713.239 -2.61918 -3.57651 0
M  V30 7514 H 710.459 -0.509865 -0.43621 0
M  V30 7515 H 713.003 -1.89167 -0.776921 0
M  V30 7516 H 711.158 -2.10712 -3.25083 0
M  V30 7517 H 711.572 -4.30595 -2.9948 0
M  V30 7518 H 713.046 -3.33225 -4.40074 0
M  V30 7519 H 713.523 -1.67017 -4.06204 0
M  V30 7520 H 714.129 -2.98528 -3.02921 0
M  V30 7521 N 712.444 0.87505 -1.31075 0
M  V30 7522 C 713.374 1.99775 -1.20881 0
M  V30 7523 C 714.355 1.69822 -0.0971612 0
M  V30 7524 O 715.54 1.92158 -0.280895 0
M  V30 7525 C 712.67 3.35163 -0.910118 0
M  V30 7526 C 711.624 3.79406 -1.98078 0
M  V30 7527 C 710.95 5.12197 -1.53488 0
M  V30 7528 C 712.25 3.97061 -3.39323 0
M  V30 7529 H 713.944 2.08562 -2.14808 0
M  V30 7530 H 711.49 1.00207 -1.03415 0
M  V30 7531 H 713.443 4.13237 -0.825423 0
M  V30 7532 H 712.167 3.26536 0.064822 0
M  V30 7533 H 710.826 3.03568 -2.05528 0
M  V30 7534 H 710.474 5.00007 -0.547941 0
M  V30 7535 H 710.174 5.4277 -2.2511 0
M  V30 7536 H 711.698 5.92785 -1.46417 0
M  V30 7537 H 713.112 4.65545 -3.34576 0
M  V30 7538 H 711.509 4.39025 -4.09118 0
M  V30 7539 H 712.579 3.00601 -3.80483 0
M  V30 7540 N 713.922 1.13953 1.08869 0
M  V30 7541 C 715.17 0.903023 1.80803 0
M  V30 7542 C 715.491 -0.572151 1.86417 0
M  V30 7543 O 714.761 -1.41589 1.35386 0
M  V30 7544 H 713.341 0.331099 0.669614 0
M  V30 7545 H 716.003 1.43719 1.31647 0
M  V30 7546 H 715.099 1.29881 2.83791 0
M  V30 7547 N 715.4 -1.26948 0.933913 0
M  V30 7548 C 716.646 -1.94374 0.57848 0
M  V30 7549 C 716.979 -1.73166 -0.879048 0
M  V30 7550 O 716.254 -1.06438 -1.62792 0
M  V30 7551 C 716.537 -3.4834 0.912739 0
M  V30 7552 C 716.39 -3.78866 2.42448 0
M  V30 7553 C 717.709 -4.38062 0.423003 0
M  V30 7554 H 714.828 -0.705959 0.211639 0
M  V30 7555 H 717.47 -1.49951 1.16682 0
M  V30 7556 H 715.62 -3.86309 0.412058 0
M  V30 7557 H 717.292 -3.50654 2.99733 0
M  V30 7558 H 715.535 -3.25198 2.87104 0
M  V30 7559 H 716.206 -4.86458 2.60887 0
M  V30 7560 H 718.682 -4.0728 0.852191 0
M  V30 7561 H 717.558 -5.44599 0.685776 0
M  V30 7562 H 717.819 -4.36886 -0.676994 0
M  V30 7563 N 716.879 -0.700114 -1.41195 0
M  V30 7564 C 718.126 -0.233006 -2.01155 0
M  V30 7565 C 718.454 1.16883 -1.55462 0
M  V30 7566 O 717.709 1.80395 -0.758695 0
M  V30 7567 C 718.008 -0.243986 -3.56566 0
M  V30 7568 C 717.674 -1.59397 -4.21786 0
M  V30 7569 C 716.336 -1.96355 -4.39316 0
M  V30 7570 C 718.688 -2.48192 -4.58312 0
M  V30 7571 C 716.016 -3.21683 -4.9065 0
M  V30 7572 C 718.368 -3.72857 -5.11039 0
M  V30 7573 C 717.032 -4.09951 -5.26779 0
M  V30 7574 H 716.302 -0.085263 -0.736078 0
M  V30 7575 H 718.949 -0.9001 -1.69028 0
M  V30 7576 H 717.254 0.506663 -3.8851 0
M  V30 7577 H 718.951 0.135031 -4.00773 0
M  V30 7578 H 715.541 -1.29654 -4.08519 0
M  V30 7579 H 719.725 -2.20918 -4.4442 0
M  V30 7580 H 714.981 -3.50412 -5.01021 0
M  V30 7581 H 719.155 -4.41844 -5.38282 0
M  V30 7582 H 716.782 -5.07136 -5.66319 0
M  V30 7583 N 718.357 1.51182 -0.445186 0
M  V30 7584 C 719.582 2.07056 0.119445 0
M  V30 7585 C 720.007 1.30966 1.35016 0
M  V30 7586 O 719.365 0.349827 1.77893 0
M  V30 7587 C 719.413 3.58234 0.412428 0
M  V30 7588 O 718.517 3.84249 1.49754 0
M  V30 7589 H 717.858 0.663998 -0.00157797 0
M  V30 7590 H 720.388 1.94699 -0.628779 0
M  V30 7591 H 720.398 4.02617 0.660583 0
M  V30 7592 H 719.073 4.13038 -0.487049 0
M  V30 7593 H 717.65 3.51724 1.23873 0
M  V30 7594 N 719.835 0.176821 1.56605 0
M  V30 7595 C 721.246 -0.338963 1.83597 0
M  V30 7596 C 721.597 -1.62677 1.09684 0
M  V30 7597 O 720.722 -2.13524 0.351661 0
M  V30 7598 C 721.317 -0.62177 3.33046 0
M  V30 7599 C 719.876 -1.08198 3.60514 0
M  V30 7600 C 719.023 -0.120774 2.77037 0
M  V30 7601 H 721.974 0.400978 1.53551 0
M  V30 7602 H 721.995 -1.47321 3.50823 0
M  V30 7603 H 721.507 0.315692 3.86814 0
M  V30 7604 H 719.608 -2.03435 3.12162 0
M  V30 7605 H 719.721 -0.987329 4.68816 0
M  V30 7606 H 718.085 -0.619192 2.47059 0
M  V30 7607 H 718.868 0.810806 3.33588 0
M  V30 7608 N 721.313 -1.57302 -0.09688 0
M  V30 7609 C 722.26 -2.01933 -1.11766 0
M  V30 7610 C 723.23 -0.895329 -1.39904 0
M  V30 7611 O 724.415 -1.16119 -1.51397 0
M  V30 7612 C 721.555 -2.44726 -2.43317 0
M  V30 7613 C 720.668 -3.70639 -2.21925 0
M  V30 7614 C 719.803 -4.02318 -3.46862 0
M  V30 7615 C 718.842 -5.21346 -3.20725 0
M  V30 7616 N 717.979 -5.48787 -4.37924 0
M  V30 7617 H 722.819 -2.88919 -0.730075 0
M  V30 7618 H 720.356 -1.42901 -0.348962 0
M  V30 7619 H 722.314 -2.6758 -3.20088 0
M  V30 7620 H 720.944 -1.60753 -2.79926 0
M  V30 7621 H 719.996 -3.55271 -1.35965 0
M  V30 7622 H 721.308 -4.57557 -1.98603 0
M  V30 7623 H 720.462 -4.25939 -4.32042 0
M  V30 7624 H 719.201 -3.13918 -3.73238 0
M  V30 7625 H 718.206 -4.97547 -2.33938 0
M  V30 7626 H 719.431 -6.11343 -2.95697 0
M  V30 7627 H 717.377 -4.63346 -4.64378 0
M  V30 7628 H 717.294 -6.30073 -4.17785 0
M  V30 7629 H 718.562 -5.76943 -5.24173 0
M  V30 7630 N 722.791 0.367657 -1.53252 0
M  V30 7631 C 723.738 1.45028 -1.79543 0
M  V30 7632 C 724.708 1.53288 -0.63969 0
M  V30 7633 O 725.893 1.69209 -0.881653 0
M  V30 7634 C 723.033 2.82 -1.98923 0
M  V30 7635 C 722.146 2.82722 -3.26638 0
M  V30 7636 C 721.281 4.11257 -3.36216 0
M  V30 7637 C 720.32 4.06113 -4.57972 0
M  V30 7638 N 719.457 5.26293 -4.64715 0
M  V30 7639 H 724.297 1.21908 -2.71923 0
M  V30 7640 H 721.834 0.591011 -1.34705 0
M  V30 7641 H 723.792 3.61568 -2.08146 0
M  V30 7642 H 722.422 3.03523 -1.09881 0
M  V30 7643 H 721.474 1.95399 -3.26379 0
M  V30 7644 H 722.786 2.74794 -4.16281 0
M  V30 7645 H 721.94 4.99239 -3.44739 0
M  V30 7646 H 720.679 4.21935 -2.44586 0
M  V30 7647 H 719.684 3.16517 -4.49552 0
M  V30 7648 H 720.909 3.97039 -5.50942 0
M  V30 7649 H 718.855 5.37561 -3.75985 0
M  V30 7650 H 718.772 5.20526 -5.4826 0
M  V30 7651 H 720.04 6.16113 -4.77519 0
M  V30 7652 N 724.269 1.44576 0.627338 0
M  V30 7653 C 725.497 1.51048 1.41394 0
M  V30 7654 C 725.912 0.136568 1.88305 0
M  V30 7655 O 725.269 -0.858251 1.6106 0
M  V30 7656 C 725.32 2.47837 2.63172 0
M  V30 7657 O 725.041 3.79887 2.18215 0
M  V30 7658 C 726.542 2.63811 3.56257 0
M  V30 7659 H 723.762 0.512171 0.4335 0
M  V30 7660 H 726.306 1.89576 0.766878 0
M  V30 7661 H 724.461 2.12433 3.23961 0
M  V30 7662 H 724.875 4.32177 2.97192 0
M  V30 7663 H 726.349 3.35554 4.38301 0
M  V30 7664 H 726.826 1.69169 4.05313 0
M  V30 7665 H 727.432 3.0013 3.01333 0
M  V30 7666 N 725.747 -0.868086 1.31537 0
M  V30 7667 C 727.158 -1.437 1.19195 0
M  V30 7668 C 727.509 -1.95169 -0.200842 0
M  V30 7669 O 726.634 -1.86432 -1.09872 0
M  V30 7670 C 727.229 -2.612 2.15778 0
M  V30 7671 C 725.788 -3.1413 2.07363 0
M  V30 7672 C 724.935 -1.86845 2.049 0
M  V30 7673 H 727.886 -0.676457 1.43561 0
M  V30 7674 H 727.907 -3.37948 1.74847 0
M  V30 7675 H 727.419 -2.23709 3.17137 0
M  V30 7676 H 725.52 -3.56238 1.09204 0
M  V30 7677 H 725.633 -3.76285 2.96557 0
M  V30 7678 H 723.997 -2.05886 1.49943 0
M  V30 7679 H 724.78 -1.51589 3.08019 0
M  V30 7680 N 727.225 -1.14528 -1.08264 0
M  V30 7681 C 728.175 -0.802141 -2.13424 0
M  V30 7682 C 729.159 0.209362 -1.59532 0
M  V30 7683 O 730.351 0.0114859 -1.76996 0
M  V30 7684 C 727.48 -0.282938 -3.42132 0
M  V30 7685 C 726.566 -1.32405 -4.02902 0
M  V30 7686 N 726.957 -2.52861 -4.38058 0
M  V30 7687 C 725.255 -1.17462 -4.30254 0
M  V30 7688 C 725.956 -3.1952 -4.86088 0
M  V30 7689 N 724.932 -2.46921 -4.84284 0
M  V30 7690 H 728.734 -1.71843 -2.38426 0
M  V30 7691 H 726.248 -1.02936 -1.2561 0
M  V30 7692 H 728.245 -0.0188053 -4.16896 0
M  V30 7693 H 726.905 0.627533 -3.18578 0
M  V30 7694 H 727.916 -2.90078 -4.2904 0
M  V30 7695 H 724.593 -0.323283 -4.16246 0
M  V30 7696 H 725.983 -4.2223 -5.22658 0
M  V30 7697 N 728.703 1.26451 -0.940633 0
M  V30 7698 C 729.633 2.28773 -0.467479 0
M  V30 7699 C 730.614 1.63218 0.478955 0
M  V30 7700 O 731.799 1.90427 0.380929 0
M  V30 7701 C 728.929 3.46259 0.268656 0
M  V30 7702 C 727.883 4.23898 -0.591171 0
M  V30 7703 C 727.209 5.33993 0.274891 0
M  V30 7704 C 728.509 4.87974 -1.86223 0
M  V30 7705 H 730.203 2.68601 -1.32265 0
M  V30 7706 H 727.749 1.29123 -0.637436 0
M  V30 7707 H 729.702 4.16951 0.610696 0
M  V30 7708 H 728.426 3.05383 1.15796 0
M  V30 7709 H 727.085 3.54969 -0.916098 0
M  V30 7710 H 726.733 4.89358 1.16353 0
M  V30 7711 H 726.433 5.86849 -0.297006 0
M  V30 7712 H 727.957 6.07523 0.612213 0
M  V30 7713 H 729.371 5.50883 -1.58747 0
M  V30 7714 H 727.768 5.50945 -2.37866 0
M  V30 7715 H 728.838 4.10945 -2.57394 0
M  V30 7716 N 730.181 0.707592 1.40822 0
M  V30 7717 C 731.427 0.244031 2.01326 0
M  V30 7718 C 731.76 -1.15722 1.55955 0
M  V30 7719 O 731.035 -1.78347 0.776044 0
M  V30 7720 C 731.318 0.315128 3.58718 0
M  V30 7721 C 731.171 1.75419 4.14184 0
M  V30 7722 C 732.49 -0.318251 4.38948 0
M  V30 7723 H 729.609 0.0901471 0.731466 0
M  V30 7724 H 732.251 0.898584 1.67408 0
M  V30 7725 H 730.401 -0.242176 3.87744 0
M  V30 7726 H 732.073 2.36626 3.95987 0
M  V30 7727 H 730.316 2.28449 3.68773 0
M  V30 7728 H 730.987 1.75538 5.23345 0
M  V30 7729 H 733.463 0.156514 4.15806 0
M  V30 7730 H 732.339 -0.238019 5.48384 0
M  V30 7731 H 732.6 -1.40067 4.19325 0
M  V30 7732 N 731.66 -1.50943 0.453197 0
M  V30 7733 C 732.608 -2.29728 -0.364419 0
M  V30 7734 C 733.602 -1.36246 -1.00664 0
M  V30 7735 O 734.808 -1.53518 -0.939794 0
M  V30 7736 H 731.183 -0.739536 -0.136347 0
M  V30 7737 H 733.154 -2.96672 0.320696 0
M  V30 7738 C 731.903 -3.1629 -1.44415 0
M  V30 7739 H 731.226 -3.88119 -0.959343 0
M  V30 7740 H 732.666 -3.74444 -1.98917 0
M  V30 7741 C 731.125 -2.32702 -2.43622 0
M  V30 7742 O 731.655 -1.99763 -3.48508 0
M  V30 7743 N 729.861 -1.95621 -2.14897 0
M  V30 7744 H 729.408 -2.22607 -1.29629 0
M  V30 7745 H 729.366 -1.39993 -2.81513 0
M  V30 7746 N 733.138 -0.185124 -1.56509 0
M  V30 7747 C 734.068 0.735098 -2.21627 0
M  V30 7748 C 735.049 1.2288 -1.1762 0
M  V30 7749 O 736.234 1.27945 -1.46095 0
M  V30 7750 C 733.364 1.95889 -2.86783 0
M  V30 7751 C 732.318 1.6005 -3.96948 0
M  V30 7752 C 731.644 2.90009 -4.4922 0
M  V30 7753 C 732.944 0.818008 -5.15855 0
M  V30 7754 H 734.638 0.192274 -2.98782 0
M  V30 7755 H 732.184 0.0910393 -1.43712 0
M  V30 7756 H 734.137 2.60779 -3.31017 0
M  V30 7757 H 732.861 2.52608 -2.07018 0
M  V30 7758 H 731.52 0.975237 -3.5339 0
M  V30 7759 H 731.168 3.44797 -3.6623 0
M  V30 7760 H 730.868 2.66778 -5.23549 0
M  V30 7761 H 732.392 3.55904 -4.9615 0
M  V30 7762 H 733.806 1.36979 -5.56695 0
M  V30 7763 H 732.203 0.684207 -5.96187 0
M  V30 7764 H 733.273 -0.182939 -4.84555 0
M  V30 7765 N 734.616 1.57351 0.0885366 0
M  V30 7766 C 735.564 2.03542 1.12576 0
M  V30 7767 C 736.558 0.937668 1.41082 0
M  V30 7768 O 737.764 1.12283 1.40686 0
M  V30 7769 H 734.139 0.648752 0.380296 0
M  V30 7770 H 736.11 2.89833 0.709906 0
M  V30 7771 C 734.859 2.4811 2.43591 0
M  V30 7772 H 734.182 3.32164 2.22502 0
M  V30 7773 H 735.622 2.842 3.14653 0
M  V30 7774 C 734.081 1.35708 3.08359 0
M  V30 7775 O 734.611 0.689852 3.95732 0
M  V30 7776 N 732.817 1.10641 2.68713 0
M  V30 7777 H 732.364 1.6508 1.97753 0
M  V30 7778 H 732.322 0.356355 3.12374 0
M  V30 7779 N 736.094 -0.359525 1.53444 0
M  V30 7780 C 737.004 -1.46445 1.83278 0
M  V30 7781 C 738.02 -1.5833 0.721629 0
M  V30 7782 O 739.196 -1.7411 1.01231 0
M  V30 7783 C 736.261 -2.81638 2.02191 0
M  V30 7784 C 735.322 -2.7923 3.26082 0
M  V30 7785 C 734.555 -4.07974 3.44082 0
M  V30 7786 O 734.778 -5.04447 2.66251 0
M  V30 7787 O 733.712 -4.13417 4.37458 0
M  V30 7788 H 737.538 -1.24156 2.77162 0
M  V30 7789 H 735.123 -0.550201 1.389 0
M  V30 7790 H 737.005 -3.61732 2.16167 0
M  V30 7791 H 735.68 -3.03892 1.11496 0
M  V30 7792 H 734.587 -1.97813 3.17523 0
M  V30 7793 H 735.92 -2.6193 4.16718 0
M  V30 7794 N 737.572 -1.44907 -0.619662 0
M  V30 7795 C 738.849 -1.38766 -1.37852 0
M  V30 7796 C 739.229 -0.0521393 -2.11036 0
M  V30 7797 O 738.577 0.965613 -2.07095 0
M  V30 7798 C 738.787 -2.59344 -2.33541 0
M  V30 7799 C 740.135 -3.03909 -2.96521 0
M  V30 7800 O 741.159 -2.59631 -2.43865 0
M  V30 7801 O 740.018 -3.80713 -3.92071 0
M  V30 7802 H 737.112 -0.550083 -0.617525 0
M  V30 7803 H 739.658 -1.57015 -0.643759 0
M  V30 7804 H 738.43 -3.48142 -1.78642 0
M  V30 7805 H 738.053 -2.43367 -3.14417 0
M  V30 7806 N 739.05 0.861098 -1.31996 0
M  V30 7807 C 740.461 1.43065 -1.19955 0
M  V30 7808 C 740.812 1.95273 0.190489 0
M  V30 7809 O 739.937 1.87012 1.08882 0
M  V30 7810 C 740.532 2.60052 -2.1716 0
M  V30 7811 C 739.091 3.13026 -2.09026 0
M  V30 7812 C 738.238 1.85756 -2.05888 0
M  V30 7813 H 741.189 0.668834 -1.43918 0
M  V30 7814 H 741.21 3.37016 -1.76637 0
M  V30 7815 H 740.722 2.22024 -3.18319 0
M  V30 7816 H 738.823 3.55653 -1.11092 0
M  V30 7817 H 738.936 3.74707 -2.98549 0
M  V30 7818 H 737.3 2.05088 -1.51033 0
M  V30 7819 H 738.083 1.49954 -3.08818 0
M  V30 7820 N 740.528 1.15101 1.07655 0
M  V30 7821 C 741.458 0.867864 2.16773 0
M  V30 7822 C 742.439 -0.180283 1.69142 0
M  V30 7823 O 743.624 -0.0353152 1.94168 0
M  V30 7824 C 740.754 0.35299 3.45501 0
M  V30 7825 C 739.708 1.33746 4.06566 0
M  V30 7826 C 739.034 0.681562 5.30338 0
M  V30 7827 C 740.334 2.7024 4.46954 0
M  V30 7828 H 742.028 1.78034 2.40716 0
M  V30 7829 H 739.574 0.857435 1.15689 0
M  V30 7830 H 741.527 0.142465 4.21159 0
M  V30 7831 H 740.251 -0.594945 3.21135 0
M  V30 7832 H 738.91 1.53429 3.32949 0
M  V30 7833 H 738.558 -0.272422 5.02262 0
M  V30 7834 H 738.258 1.33853 5.72151 0
M  V30 7835 H 739.782 0.48074 6.08705 0
M  V30 7836 H 741.196 2.5442 5.13754 0
M  V30 7837 H 739.593 3.32282 4.99709 0
M  V30 7838 H 740.663 3.26537 3.58471 0
M  V30 7839 N 742.006 -1.2595 0.947325 0
M  V30 7840 C 742.939 -2.24559 0.406009 0
M  V30 7841 C 743.917 -1.54441 -0.508598 0
M  V30 7842 O 745.101 -1.83181 -0.444644 0
M  V30 7843 C 742.228 -3.36136 -0.415987 0
M  V30 7844 C 741.274 -4.24245 0.437969 0
M  V30 7845 S 742.107 -5.01948 1.86572 0
M  V30 7846 C 743.263 -6.16997 1.05194 0
M  V30 7847 H 743.496 -2.70128 1.24171 0
M  V30 7848 H 741.029 -1.34912 0.750874 0
M  V30 7849 H 742.987 -4.00861 -0.88433 0
M  V30 7850 H 741.648 -2.89167 -1.22643 0
M  V30 7851 H 740.841 -5.03634 -0.192127 0
M  V30 7852 H 740.443 -3.64416 0.841235 0
M  V30 7853 H 742.735 -6.76848 0.297126 0
M  V30 7854 H 743.678 -6.84324 1.8195 0
M  V30 7855 H 744.086 -5.61458 0.585294 0
M  V30 7856 N 743.484 -0.715051 -1.40445 0
M  V30 7857 C 744.709 -0.26254 -2.05732 0
M  V30 7858 C 745.134 1.08691 -1.53519 0
M  V30 7859 O 744.492 1.68453 -0.670328 0
M  V30 7860 C 744.54 -0.25195 -3.59719 0
M  V30 7861 O 743.644 0.766998 -4.05205 0
M  V30 7862 H 742.985 -0.123398 -0.652433 0
M  V30 7863 H 745.515 -0.975382 -1.79854 0
M  V30 7864 H 745.525 -0.0894537 -4.07902 0
M  V30 7865 H 744.2 -1.23672 -3.97087 0
M  V30 7866 H 742.777 0.572269 -3.68483 0
M  V30 7867 N 744.962 1.50701 -0.461195 0
M  V30 7868 C 745.872 2.32069 0.343661 0
M  V30 7869 C 746.888 1.42016 1.00535 0
M  V30 7870 O 748.064 1.75077 0.995498 0
M  V30 7871 C 745.129 3.16424 1.41692 0
M  V30 7872 C 744.19 4.22286 0.772869 0
M  V30 7873 C 743.423 5.02609 1.79499 0
M  V30 7874 O 743.646 4.83874 3.0203 0
M  V30 7875 O 742.58 5.86047 1.3723 0
M  V30 7876 H 746.406 3.01996 -0.321268 0
M  V30 7877 H 743.991 1.47723 -0.223235 0
M  V30 7878 H 745.873 3.68795 2.03883 0
M  V30 7879 H 744.548 2.49236 2.0655 0
M  V30 7880 H 743.455 3.73931 0.112277 0
M  V30 7881 H 744.788 4.91915 0.167399 0
M  V30 7882 N 746.441 0.193421 1.56409 0
M  V30 7883 C 747.681 -0.447977 1.9943 0
M  V30 7884 C 748.045 -1.58915 1.07751 0
M  V30 7885 O 749.246 -2.29462 1.40002 0
M  V30 7886 C 747.517 -0.89793 3.45936 0
M  V30 7887 S 749.076 -1.5374 4.10986 0
M  V30 7888 H 745.894 -0.143316 0.696406 0
M  V30 7889 H 748.496 0.296093 1.93245 0
M  V30 7890 H 747.2 -0.0572927 4.1036 0
M  V30 7891 H 746.731 -1.67551 3.55936 0
M  V30 7892 H 748.746 -2.82612 4.07854 0
M  V30 7893 N 747.919 -1.57396 -0.0801906 0
M  V30 7894 C 748.849 -2.06145 -1.09665 0
M  V30 7895 C 749.83 -0.953273 -1.40878 0
M  V30 7896 O 751.015 -1.22548 -1.50651 0
M  V30 7897 C 748.145 -2.49836 -2.41245 0
M  V30 7898 C 747.099 -3.64454 -2.24405 0
M  V30 7899 C 746.425 -3.94172 -3.61293 0
M  V30 7900 C 747.725 -4.94807 -1.67223 0
M  V30 7901 H 749.419 -2.91316 -0.691028 0
M  V30 7902 H 746.965 -1.40145 -0.330957 0
M  V30 7903 H 748.918 -2.82552 -3.12638 0
M  V30 7904 H 747.642 -1.61683 -2.83771 0
M  V30 7905 H 746.301 -3.32008 -1.55454 0
M  V30 7906 H 745.949 -3.03163 -4.01374 0
M  V30 7907 H 745.649 -4.71345 -3.50867 0
M  V30 7908 H 747.173 -4.29376 -4.3413 0
M  V30 7909 H 748.587 -5.25807 -2.28472 0
M  V30 7910 H 746.984 -5.76245 -1.67515 0
M  V30 7911 H 748.054 -4.80751 -0.632944 0
M  V30 7912 N 749.397 0.351382 -1.53633 0
M  V30 7913 C 750.327 1.43688 -1.84055 0
M  V30 7914 C 751.308 1.55251 -0.695073 0
M  V30 7915 O 752.493 1.69587 -0.946257 0
M  V30 7916 C 749.623 2.80843 -2.04315 0
M  V30 7917 C 748.577 2.84094 -3.20117 0
M  V30 7918 C 747.903 4.2406 -3.25696 0
M  V30 7919 C 749.203 2.50334 -4.58399 0
M  V30 7920 H 750.897 1.18478 -2.74961 0
M  V30 7921 H 748.443 0.568509 -1.32303 0
M  V30 7922 H 750.396 3.56821 -2.2418 0
M  V30 7923 H 749.12 3.07471 -1.10132 0
M  V30 7924 H 747.779 2.10568 -3.00094 0
M  V30 7925 H 747.427 4.47785 -2.29123 0
M  V30 7926 H 747.127 4.27147 -4.03509 0
M  V30 7927 H 748.651 5.0189 -3.47762 0
M  V30 7928 H 750.065 3.16025 -4.78332 0
M  V30 7929 H 748.462 2.64717 -5.38558 0
M  V30 7930 H 749.532 1.45542 -4.62543 0
M  V30 7931 N 750.875 1.45233 0.611969 0
M  V30 7932 C 752.105 1.52318 1.39581 0
M  V30 7933 C 752.513 0.153093 1.8858 0
M  V30 7934 O 751.856 -0.854792 1.62601 0
M  V30 7935 C 751.918 2.4426 2.63775 0
M  V30 7936 C 751.582 3.91079 2.36445 0
M  V30 7937 C 752.579 4.81099 1.97079 0
M  V30 7938 C 750.264 4.35958 2.49492 0
M  V30 7939 C 752.258 6.14002 1.71115 0
M  V30 7940 C 749.945 5.68903 2.23142 0
M  V30 7941 C 750.943 6.57744 1.84015 0
M  V30 7942 O 750.631 7.88226 1.5797 0
M  V30 7943 H 750.363 0.518428 0.43383 0
M  V30 7944 H 752.917 1.91067 0.753837 0
M  V30 7945 H 751.147 2.00474 3.30677 0
M  V30 7946 H 752.836 2.42077 3.25812 0
M  V30 7947 H 753.602 4.47692 1.86539 0
M  V30 7948 H 749.481 3.67053 2.78914 0
M  V30 7949 H 753.025 6.83305 1.405 0
M  V30 7950 H 748.922 6.01866 2.33297 0
M  V30 7951 H 749.69 8.00211 1.72058 0
M  V30 7952 N 752.353 -0.854086 1.3245 0
M  V30 7953 C 753.583 -1.63836 1.25862 0
M  V30 7954 C 753.991 -1.88383 -0.175588 0
M  V30 7955 O 753.334 -1.45353 -1.1233 0
M  V30 7956 C 753.396 -3.02068 1.94923 0
M  V30 7957 C 753.06 -3.0056 3.44257 0
M  V30 7958 C 754.057 -2.77368 4.39731 0
M  V30 7959 C 751.742 -3.21177 3.862 0
M  V30 7960 C 753.736 -2.74797 5.75122 0
M  V30 7961 C 751.423 -3.18234 5.217 0
M  V30 7962 C 752.421 -2.95072 6.15972 0
M  V30 7963 O 752.109 -2.92003 7.48992 0
M  V30 7964 H 751.841 -0.517007 0.435523 0
M  V30 7965 H 754.395 -1.07314 1.75137 0
M  V30 7966 H 752.625 -3.60382 1.40219 0
M  V30 7967 H 754.314 -3.62791 1.82037 0
M  V30 7968 H 755.08 -2.61205 4.08653 0
M  V30 7969 H 750.959 -3.38231 3.13243 0
M  V30 7970 H 754.503 -2.56638 6.48678 0
M  V30 7971 H 750.4 -3.33941 5.52407 0
M  V30 7972 H 751.168 -3.07953 7.58358 0
M  V30 7973 N 753.831 -1.1567 -1.07043 0
M  V30 7974 C 755.08 -0.928039 -1.79082 0
M  V30 7975 C 755.393 0.545968 -1.87826 0
M  V30 7976 O 756.599 0.892308 -2.56418 0
M  V30 7977 C 755.055 -1.61103 -3.21829 0
M  V30 7978 C 754.663 -3.12228 -3.21275 0
M  V30 7979 C 756.407 -1.46404 -3.98455 0
M  V30 7980 C 754.314 -3.733 -4.58695 0
M  V30 7981 H 753.244 -0.34357 -0.671175 0
M  V30 7982 H 755.895 -1.38718 -1.20123 0
M  V30 7983 H 754.277 -1.07958 -3.81 0
M  V30 7984 H 755.451 -3.72155 -2.71731 0
M  V30 7985 H 753.766 -3.26725 -2.58147 0
M  V30 7986 H 756.363 -1.8942 -5.00024 0
M  V30 7987 H 756.706 -0.41195 -4.14257 0
M  V30 7988 H 757.239 -1.96663 -3.45787 0
M  V30 7989 H 753.978 -4.78423 -4.48098 0
M  V30 7990 H 753.498 -3.18157 -5.08465 0
M  V30 7991 H 755.177 -3.7441 -5.27661 0
M  V30 7992 N 755.309 1.25446 -0.953992 0
M  V30 7993 C 756.256 2.25912 -0.472485 0
M  V30 7994 C 757.226 1.59173 0.47469 0
M  V30 7995 O 758.411 1.86812 0.388082 0
M  V30 7996 C 755.551 3.44235 0.244218 0
M  V30 7997 C 754.664 4.25613 -0.740121 0
M  V30 7998 C 753.799 5.312 -0.000922267 0
M  V30 7999 C 752.838 6.04265 -0.976236 0
M  V30 8000 N 751.975 7.01589 -0.267952 0
M  V30 8001 H 756.815 2.66469 -1.3341 0
M  V30 8002 H 754.352 1.31005 -0.669045 0
M  V30 8003 H 756.31 4.11682 0.676314 0
M  V30 8004 H 754.94 3.04554 1.06988 0
M  V30 8005 H 753.992 3.57834 -1.2907 0
M  V30 8006 H 755.304 4.762 -1.48441 0
M  V30 8007 H 754.458 6.04719 0.48984 0
M  V30 8008 H 753.197 4.81484 0.776159 0
M  V30 8009 H 752.202 5.29561 -1.478 0
M  V30 8010 H 753.427 6.5607 -1.75354 0
M  V30 8011 H 751.373 6.54164 0.490403 0
M  V30 8012 H 751.29 7.4999 -0.951344 0
M  V30 8013 H 752.558 7.7924 0.201294 0
M  V30 8014 N 756.787 0.722489 1.40064 0
M  V30 8015 C 758.064 0.191829 1.94657 0
M  V30 8016 C 758.444 -1.30389 1.66018 0
M  V30 8017 O 757.792 -2.06342 0.981588 0
M  V30 8018 C 758.002 0.511978 3.45224 0
M  V30 8019 C 759.35 0.454426 4.22161 0
M  V30 8020 O 760.374 0.448438 3.53366 0
M  V30 8021 O 759.233 0.437986 5.44742 0
M  V30 8022 H 756.327 0.0307821 0.826427 0
M  V30 8023 H 758.873 0.800493 1.49634 0
M  V30 8024 H 757.645 1.54622 3.59455 0
M  V30 8025 H 757.268 -0.126296 3.97399 0
M  V30 8026 N 758.265 -1.50454 0.469181 0
M  V30 8027 C 759.513 -2.01916 -0.0862982 0
M  V30 8028 C 759.834 -1.35337 -1.40388 0
M  V30 8029 O 759.104 -0.498096 -1.89462 0
M  V30 8030 H 757.684 -0.746185 -0.0348825 0
M  V30 8031 H 760.346 -1.84804 0.619167 0
M  V30 8032 H 759.442 -3.11182 -0.239189 0
M  V30 8033 N 759.743 -0.201713 -1.56304 0
M  V30 8034 C 760.992 0.435557 -1.96941 0
M  V30 8035 C 761.305 1.62299 -1.09172 0
M  V30 8036 O 762.511 2.32849 -1.3962 0
M  V30 8037 C 760.967 0.826298 -3.50286 0
M  V30 8038 C 760.575 -0.337216 -4.46729 0
M  V30 8039 C 762.319 1.43028 -3.99679 0
M  V30 8040 C 760.226 0.0748539 -5.91353 0
M  V30 8041 H 759.156 0.1665 -0.735387 0
M  V30 8042 H 761.807 -0.294781 -1.81117 0
M  V30 8043 H 760.189 1.61349 -3.61639 0
M  V30 8044 H 761.363 -1.11476 -4.47113 0
M  V30 8045 H 759.678 -0.853126 -4.07567 0
M  V30 8046 H 762.275 1.75115 -5.05212 0
M  V30 8047 H 762.618 2.33911 -3.44371 0
M  V30 8048 H 763.151 0.706924 -3.91468 0
M  V30 8049 H 759.89 -0.799957 -6.506 0
M  V30 8050 H 759.41 0.817122 -5.94208 0
M  V30 8051 H 761.089 0.508389 -6.45 0
M  V30 8052 N 761.222 1.57436 0.0718424 0
M  V30 8053 C 762.45 1.91474 0.783932 0
M  V30 8054 C 762.865 0.797669 1.71122 0
M  V30 8055 O 762.222 -0.228989 1.81058 0
M  V30 8056 C 762.273 3.25259 1.57761 0
M  V30 8057 O 761.994 4.3267 0.687596 0
M  V30 8058 C 763.495 3.7331 2.3907 0
M  V30 8059 H 760.715 0.632901 0.222885 0
M  V30 8060 H 763.259 2.04457 0.0421262 0
M  V30 8061 H 761.414 3.13804 2.27169 0
M  V30 8062 H 761.828 5.09641 1.23962 0
M  V30 8063 H 763.302 4.69551 2.90216 0
M  V30 8064 H 763.779 3.02318 3.18591 0
M  V30 8065 H 764.385 3.8771 1.74818 0
M  V30 8066 N 762.7 -0.34323 1.53817 0
M  V30 8067 C 764.116 -0.686355 1.44088 0
M  V30 8068 C 764.316 -1.92426 0.597882 0
M  V30 8069 O 763.372 -2.52343 0.0889918 0
M  V30 8070 C 764.685 -0.878698 2.87575 0
M  V30 8071 C 766.233 -0.977296 2.97352 0
M  V30 8072 C 766.708 -1.20195 4.41947 0
M  V30 8073 N 768.199 -1.26915 4.45474 0
M  V30 8074 C 768.934 -1.46049 5.54488 0
M  V30 8075 N 768.43 -1.62354 6.73508 0
M  V30 8076 N 770.223 -1.48599 5.42102 0
M  V30 8077 H 762.374 0.470679 2.07119 0
M  V30 8078 H 764.637 0.148652 0.936273 0
M  V30 8079 H 764.343 -0.040602 3.51677 0
M  V30 8080 H 764.217 -1.78034 3.32541 0
M  V30 8081 H 766.604 -1.80591 2.3339 0
M  V30 8082 H 766.685 -0.0525498 2.55746 0
M  V30 8083 H 766.329 -0.378262 5.06489 0
M  V30 8084 H 766.259 -2.14027 4.81145 0
M  V30 8085 H 768.75 -1.15837 3.59708 0
M  V30 8086 H 769.063 -1.76591 7.52353 0
M  V30 8087 H 767.408 -1.5949 6.76453 0
M  V30 8088 H 770.599 -1.35443 4.48077 0
M  V30 8089 H 770.772 -1.6317 6.2712 0
M  V30 8090 N 764.178 -1.45556 -0.604258 0
M  V30 8091 C 765.424 -1.49968 -1.36519 0
M  V30 8092 C 765.757 -0.142236 -1.93678 0
M  V30 8093 O 765.032 0.843717 -1.75247 0
M  V30 8094 C 765.315 -2.58146 -2.51063 0
M  V30 8095 C 765.168 -4.03346 -1.99078 0
M  V30 8096 C 766.487 -2.62581 -3.53184 0
M  V30 8097 H 763.606 -0.545993 -0.495036 0
M  V30 8098 H 766.248 -1.77382 -0.680845 0
M  V30 8099 H 764.398 -2.34901 -3.09441 0
M  V30 8100 H 766.07 -4.37811 -1.45323 0
M  V30 8101 H 764.313 -4.13845 -1.30055 0
M  V30 8102 H 764.984 -4.74731 -2.81664 0
M  V30 8103 H 767.46 -2.83419 -3.04652 0
M  V30 8104 H 766.336 -3.40131 -4.30816 0
M  V30 8105 H 766.597 -1.67798 -4.09019 0
M  V30 8106 N 765.656 0.84705 -1.32902 0
M  V30 8107 C 766.904 1.5986 -1.2365 0
M  V30 8108 C 767.225 1.93974 0.199789 0
M  V30 8109 O 766.495 1.60273 1.12648 0
M  V30 8110 H 765.075 0.592696 -0.454665 0
M  V30 8111 H 767.737 1.01278 -1.66519 0
M  V30 8112 H 766.833 2.53218 -1.82448 0
M  V30 8113 N 767.134 1.16236 1.06428 0
M  V30 8114 C 768.55 0.906983 1.31324 0
M  V30 8115 C 768.75 -0.440872 1.96618 0
M  V30 8116 O 767.806 -1.1807 2.23194 0
M  V30 8117 C 769.119 2.05501 2.19522 0
M  V30 8118 C 770.667 2.09061 2.32943 0
M  V30 8119 C 771.142 3.23214 3.24495 0
M  V30 8120 N 772.633 3.22922 3.32078 0
M  V30 8121 C 773.368 4.07889 4.03006 0
M  V30 8122 N 772.864 5.02941 4.76469 0
M  V30 8123 N 774.657 3.95881 3.99043 0
M  V30 8124 H 766.808 2.03015 0.624388 0
M  V30 8125 H 769.071 0.88576 0.337835 0
M  V30 8126 H 768.777 3.02847 1.78819 0
M  V30 8127 H 768.651 1.99538 3.201 0
M  V30 8128 H 771.038 1.12308 2.72893 0
M  V30 8129 H 771.119 2.19089 1.32037 0
M  V30 8130 H 770.763 4.20225 2.85261 0
M  V30 8131 H 770.693 3.10423 4.25377 0
M  V30 8132 H 773.184 2.54093 2.79724 0
M  V30 8133 H 773.497 5.64196 5.28112 0
M  V30 8134 H 771.842 5.06922 4.75453 0
M  V30 8135 H 775.033 3.20927 3.40769 0
M  V30 8136 H 775.206 4.62321 4.54052 0
M  V30 8137 N 768.612 -1.24939 0.960631 0
M  V30 8138 C 769.522 -2.29374 0.492435 0
M  V30 8139 C 770.538 -1.68262 -0.443154 0
M  V30 8140 O 771.714 -1.98875 -0.31793 0
M  V30 8141 C 768.779 -3.46023 -0.216626 0
M  V30 8142 C 767.84 -4.22557 0.757915 0
M  V30 8143 C 767.073 -5.33636 0.0825969 0
M  V30 8144 O 767.296 -5.59084 -1.13054 0
M  V30 8145 O 766.23 -5.96939 0.771177 0
M  V30 8146 H 770.056 -2.71525 1.36044 0
M  V30 8147 H 767.641 -1.30499 0.72735 0
M  V30 8148 H 769.523 -4.16885 -0.615241 0
M  V30 8149 H 768.198 -3.05862 -1.05971 0
M  V30 8150 H 767.105 -3.54099 1.20685 0
M  V30 8151 H 768.438 -4.66516 1.5692 0
M  V30 8152 N 770.09 -0.729906 -1.39679 0
M  V30 8153 C 771.367 -0.202149 -1.94553 0
M  V30 8154 C 771.747 1.29507 -1.66707 0
M  V30 8155 O 771.095 2.05819 -0.992517 0
M  V30 8156 C 771.305 -0.530279 -3.44948 0
M  V30 8157 C 772.653 -0.476808 -4.21914 0
M  V30 8158 O 773.677 -0.467171 -3.53123 0
M  V30 8159 O 772.536 -0.466869 -5.44502 0
M  V30 8160 H 769.63 -0.0351644 -0.826252 0
M  V30 8161 H 772.176 -0.808417 -1.49207 0
M  V30 8162 H 770.948 -1.56526 -3.5863 0
M  V30 8163 H 770.571 0.10522 -3.97461 0
M  V30 8164 N 771.568 1.50203 -0.477153 0
M  V30 8165 C 772.816 2.01959 0.0755889 0
M  V30 8166 C 773.137 1.3608 1.39668 0
M  V30 8167 O 772.407 0.508136 1.89195 0
M  V30 8168 H 770.987 0.74636 0.0309248 0
M  V30 8169 H 773.649 1.84473 -0.628959 0
M  V30 8170 H 772.745 3.11305 0.222683 0
M  V30 8171 N 773.046 0.209999 1.56195 0
M  V30 8172 C 773.956 -0.716459 2.23392 0
M  V30 8173 C 774.972 -1.22291 1.23778 0
M  V30 8174 O 776.148 -1.26694 1.56558 0
M  V30 8175 C 773.213 -1.91261 2.89172 0
M  V30 8176 C 772.274 -1.44927 4.04097 0
M  V30 8177 C 771.507 -2.5884 4.66731 0
M  V30 8178 O 771.73 -3.76693 4.2832 0
M  V30 8179 O 770.664 -2.30701 5.55932 0
M  V30 8180 H 774.49 -0.174089 3.03201 0
M  V30 8181 H 772.075 -0.0199505 1.49387 0
M  V30 8182 H 773.957 -2.6114 3.30733 0
M  V30 8183 H 772.632 -2.4433 2.12331 0
M  V30 8184 H 771.539 -0.718839 3.67129 0
M  V30 8185 H 772.872 -0.965084 4.82646 0
M  V30 8186 N 774.524 -1.57472 -0.0634922 0
M  V30 8187 C 775.94 -1.54016 -0.418466 0
M  V30 8188 C 776.14 -0.931376 -1.78683 0
M  V30 8189 O 775.196 -0.537465 -2.46714 0
M  V30 8190 C 776.509 -2.98634 -0.351906 0
M  V30 8191 C 778.057 -3.10012 -0.431494 0
M  V30 8192 C 778.532 -4.56296 -0.394754 0
M  V30 8193 N 780.023 -4.60964 -0.454583 0
M  V30 8194 C 780.758 -5.71643 -0.448501 0
M  V30 8195 N 780.254 -6.91663 -0.396742 0
M  V30 8196 N 782.047 -5.5991 -0.495677 0
M  V30 8197 H 774.198 -1.95409 0.832408 0
M  V30 8198 H 776.461 -0.894769 0.313197 0
M  V30 8199 H 776.167 -3.46766 0.587048 0
M  V30 8200 H 776.041 -3.58955 -1.15893 0
M  V30 8201 H 778.428 -2.61848 -1.36087 0
M  V30 8202 H 778.509 -2.52585 0.404258 0
M  V30 8203 H 778.153 -5.05119 0.530811 0
M  V30 8204 H 778.083 -5.11594 -1.24815 0
M  V30 8205 H 780.574 -3.74598 -0.498496 0
M  V30 8206 H 780.887 -7.71783 -0.396256 0
M  V30 8207 H 779.232 -6.9405 -0.363304 0
M  V30 8208 H 782.423 -4.65046 -0.533864 0
M  V30 8209 H 782.596 -6.46164 -0.487469 0
M  V30 8210 N 776.003 0.335068 -1.53997 0
M  V30 8211 C 777.419 0.678704 -1.4445 0
M  V30 8212 C 777.619 1.92106 -0.608078 0
M  V30 8213 O 776.675 2.52292 -0.102373 0
M  V30 8214 C 777.988 0.863435 -2.88037 0
M  V30 8215 C 779.536 0.961513 -2.97866 0
M  V30 8216 C 780.011 1.1785 -4.42578 0
M  V30 8217 N 781.502 1.2455 -4.46141 0
M  V30 8218 C 782.237 1.43106 -5.55255 0
M  V30 8219 N 781.733 1.5878 -6.74359 0
M  V30 8220 N 783.526 1.45722 -5.42883 0
M  V30 8221 H 775.677 -0.481656 -2.06867 0
M  V30 8222 H 777.94 -0.153615 -0.935471 0
M  V30 8223 H 777.646 0.0219511 -3.51693 0
M  V30 8224 H 777.52 1.76268 -3.33481 0
M  V30 8225 H 779.907 1.79351 -2.34344 0
M  V30 8226 H 779.988 0.0389862 -2.5577 0
M  V30 8227 H 779.632 0.351397 -5.06683 0
M  V30 8228 H 779.562 2.11472 -4.82273 0
M  V30 8229 H 782.053 1.13928 -3.60318 0
M  V30 8230 H 782.366 1.72599 -7.53279 0
M  V30 8231 H 780.711 1.559 -6.77289 0
M  V30 8232 H 783.902 1.33065 -4.48789 0
M  V30 8233 H 784.075 1.59841 -6.27977 0
M  V30 8234 N 777.481 1.45874 0.596531 0
M  V30 8235 C 778.413 1.51408 1.7207 0
M  V30 8236 C 779.426 0.403738 1.57714 0
M  V30 8237 O 780.615 0.671384 1.65393 0
M  V30 8238 C 777.715 1.3652 3.10186 0
M  V30 8239 C 776.888 2.61428 3.50677 0
M  V30 8240 C 775.947 2.40937 4.67799 0
M  V30 8241 O 774.973 3.14602 4.74357 0
M  V30 8242 N 776.175 1.4621 5.61785 0
M  V30 8243 H 778.94 2.48333 1.67782 0
M  V30 8244 H 776.501 1.41755 0.782129 0
M  V30 8245 H 778.493 1.20606 3.86311 0
M  V30 8246 H 777.063 0.478302 3.08919 0
M  V30 8247 H 776.283 2.92381 2.644 0
M  V30 8248 H 777.571 3.44432 3.74491 0
M  V30 8249 H 776.969 0.854382 5.59211 0
M  V30 8250 H 775.526 1.36264 6.37397 0
M  V30 8251 N 778.959 -0.83999 1.33349 0
M  V30 8252 C 780.236 -1.57973 1.15342 0
M  V30 8253 C 780.616 -2.09226 -0.280632 0
M  V30 8254 O 779.964 -1.89317 -1.2795 0
M  V30 8255 C 780.174 -2.71446 2.19359 0
M  V30 8256 C 781.522 -3.40654 2.53456 0
M  V30 8257 O 782.546 -2.81686 2.18017 0
M  V30 8258 O 781.405 -4.47101 3.14266 0
M  V30 8259 H 778.499 -0.6964 0.446044 0
M  V30 8260 H 781.045 -0.882843 1.44927 0
M  V30 8261 H 779.817 -2.31205 3.1569 0
M  V30 8262 H 779.44 -3.488 1.90852 0
M  V30 8263 N 780.437 -1.16799 -1.0581 0
M  V30 8264 C 781.686 -0.94698 -1.78088 0
M  V30 8265 C 781.999 0.526016 -1.88394 0
M  V30 8266 O 783.205 0.865061 -2.5735 0
M  V30 8267 C 781.661 -1.64508 -3.20102 0
M  V30 8268 C 781.269 -3.15618 -3.17946 0
M  V30 8269 C 783.013 -1.50622 -3.96879 0
M  V30 8270 C 780.92 -3.78144 -4.5471 0
M  V30 8271 H 779.85 -0.35067 -0.667493 0
M  V30 8272 H 782.501 -1.39985 -1.18645 0
M  V30 8273 H 780.883 -1.11993 -3.79834 0
M  V30 8274 H 782.057 -3.75016 -2.67768 0
M  V30 8275 H 780.372 -3.29444 -2.54667 0
M  V30 8276 H 782.969 -1.94713 -4.97987 0
M  V30 8277 H 783.312 -0.455864 -4.13797 0
M  V30 8278 H 783.845 -2.00319 -3.43682 0
M  V30 8279 H 780.584 -4.83149 -4.42998 0
M  V30 8280 H 780.104 -3.23532 -5.05062 0
M  V30 8281 H 781.783 -3.79986 -5.2366 0
M  V30 8282 N 781.915 1.24427 -0.967243 0
M  V30 8283 C 783.161 1.92772 -0.629812 0
M  V30 8284 C 783.494 1.75436 0.832827 0
M  V30 8285 O 782.769 1.10716 1.59913 0
M  V30 8286 C 783.052 3.45798 -1.00477 0
M  V30 8287 C 782.905 3.72304 -2.52407 0
M  V30 8288 C 784.224 4.36787 -0.538999 0
M  V30 8289 H 781.343 0.700099 -0.230282 0
M  V30 8290 H 783.985 1.46805 -1.20616 0
M  V30 8291 H 782.135 3.8508 -0.514336 0
M  V30 8292 H 783.807 3.42584 -3.08924 0
M  V30 8293 H 782.05 3.17472 -2.95625 0
M  V30 8294 H 782.721 4.7937 -2.73693 0
M  V30 8295 H 785.197 4.04877 -0.959874 0
M  V30 8296 H 784.073 5.4259 -0.829926 0
M  V30 8297 H 784.334 4.38527 0.560923 0
M  V30 8298 N 783.393 0.737304 1.3929 0
M  V30 8299 C 784.323 0.113988 2.33222 0
M  V30 8300 C 785.304 -0.721695 1.54031 0
M  V30 8301 O 786.489 -0.666206 1.82415 0
M  V30 8302 C 783.619 -0.792319 3.38141 0
M  V30 8303 C 782.573 -0.0606178 4.27957 0
M  V30 8304 C 781.899 -1.08409 5.23595 0
M  V30 8305 C 783.199 1.09817 5.10625 0
M  V30 8306 H 784.893 0.898611 2.85596 0
M  V30 8307 H 782.439 0.433571 1.37318 0
M  V30 8308 H 784.392 -1.23793 4.02807 0
M  V30 8309 H 783.116 -1.60908 2.84211 0
M  V30 8310 H 781.775 0.365393 3.64775 0
M  V30 8311 H 781.423 -1.89449 4.6596 0
M  V30 8312 H 781.123 -0.599269 5.84536 0
M  V30 8313 H 782.647 -1.52936 5.91137 0
M  V30 8314 H 784.061 0.730892 5.68622 0
M  V30 8315 H 782.458 1.51278 5.80719 0
M  V30 8316 H 783.528 1.91878 4.45321 0
M  V30 8317 N 784.871 -1.49948 0.485112 0
M  V30 8318 C 786.096 -2.073 -0.0645059 0
M  V30 8319 C 786.521 -1.345 -1.31497 0
M  V30 8320 O 785.879 -0.39687 -1.76903 0
M  V30 8321 C 785.927 -3.59201 -0.317304 0
M  V30 8322 O 785.031 -3.88085 -1.39514 0
M  V30 8323 H 784.372 -0.663723 0.0191822 0
M  V30 8324 H 786.902 -1.92963 0.680179 0
M  V30 8325 H 786.912 -4.04227 -0.553604 0
M  V30 8326 H 785.587 -4.11602 0.596387 0
M  V30 8327 H 784.164 -3.54885 -1.14504 0
M  V30 8328 N 786.349 -0.21828 -1.56081 0
M  V30 8329 C 787.597 0.413488 -1.97825 0
M  V30 8330 C 787.918 1.60527 -1.10707 0
M  V30 8331 O 787.188 1.9504 -0.183378 0
M  V30 8332 H 785.768 0.155757 -0.730581 0
M  V30 8333 H 788.43 -0.310413 -1.92412 0
M  V30 8334 H 787.526 0.742024 -3.03151 0
M  V30 8335 N 787.827 1.57504 0.0551401 0
M  V30 8336 C 788.777 2.0128 1.071 0
M  V30 8337 C 789.761 0.897592 1.33537 0
M  V30 8338 O 790.953 1.16151 1.33558 0
M  V30 8339 C 788.082 2.47414 2.37994 0
M  V30 8340 C 787.168 3.65703 2.14761 0
M  V30 8341 N 787.559 4.79323 1.61504 0
M  V30 8342 C 785.857 3.72574 2.45162 0
M  V30 8343 C 786.558 5.61089 1.53472 0
M  V30 8344 N 785.534 5.05426 2.00114 0
M  V30 8345 H 789.336 2.86558 0.652829 0
M  V30 8346 H 786.85 1.60274 0.26193 0
M  V30 8347 H 788.847 2.77023 3.11551 0
M  V30 8348 H 787.507 1.6353 2.80514 0
M  V30 8349 H 788.518 5.01284 1.30134 0
M  V30 8350 H 785.195 2.99439 2.90934 0
M  V30 8351 H 786.585 6.62328 1.13008 0
M  V30 8352 N 789.305 -0.326896 1.54172 0
M  V30 8353 C 790.552 -1.06523 1.72218 0
M  V30 8354 C 790.88 -1.88119 0.494114 0
M  V30 8355 O 790.135 -1.8855 -0.524147 0
M  V30 8356 C 790.434 -2.0208 2.94785 0
M  V30 8357 C 790.1 -1.36665 4.2969 0
M  V30 8358 C 788.762 -1.18556 4.66367 0
M  V30 8359 C 791.114 -0.896868 5.13425 0
M  V30 8360 C 788.442 -0.521113 5.84381 0
M  V30 8361 C 790.794 -0.246261 6.3212 0
M  V30 8362 C 789.458 -0.052987 6.67479 0
M  V30 8363 H 788.728 -0.389796 0.63019 0
M  V30 8364 H 791.375 -0.342725 1.88408 0
M  V30 8365 H 789.68 -2.8077 2.73268 0
M  V30 8366 H 791.377 -2.59231 3.05941 0
M  V30 8367 H 787.967 -1.51762 4.00832 0
M  V30 8368 H 792.151 -1.02458 4.85609 0
M  V30 8369 H 787.407 -0.36014 6.10338 0
M  V30 8370 H 791.581 0.125775 6.96286 0
M  V30 8371 H 789.208 0.463903 7.58783 0
M  V30 8372 N 790.784 -1.46188 -0.588786 0
M  V30 8373 C 792.033 -1.50452 -1.34339 0
M  V30 8374 C 792.346 -0.158096 -1.9496 0
M  V30 8375 O 793.552 -0.0784918 -2.71387 0
M  V30 8376 C 792.008 -2.65074 -2.43441 0
M  V30 8377 C 791.616 -4.06111 -1.8915 0
M  V30 8378 C 793.36 -2.78603 -3.20282 0
M  V30 8379 C 791.267 -5.12084 -2.95845 0
M  V30 8380 H 790.197 -0.559905 -0.504997 0
M  V30 8381 H 792.848 -1.72382 -0.629014 0
M  V30 8382 H 791.23 -2.36462 -3.1765 0
M  V30 8383 H 792.404 -4.44487 -1.21524 0
M  V30 8384 H 790.719 -3.97197 -1.24995 0
M  V30 8385 H 793.316 -3.54944 -3.99898 0
M  V30 8386 H 793.659 -1.85902 -3.72486 0
M  V30 8387 H 794.192 -3.06832 -2.53178 0
M  V30 8388 H 790.931 -6.06556 -2.48535 0
M  V30 8389 H 790.451 -4.78259 -3.61979 0
M  V30 8390 H 792.13 -5.37661 -3.59902 0
M  V30 8391 N 792.262 0.832906 -1.33792 0
M  V30 8392 C 793.209 1.94314 -1.24541 0
M  V30 8393 C 794.179 1.65646 -0.122753 0
M  V30 8394 O 795.364 1.88394 -0.30204 0
M  V30 8395 C 792.504 3.30395 -0.996641 0
M  V30 8396 C 791.617 3.71422 -2.20612 0
M  V30 8397 C 790.752 4.96401 -1.89101 0
M  V30 8398 C 789.791 5.2998 -3.06247 0
M  V30 8399 N 788.928 6.46137 -2.74685 0
M  V30 8400 H 793.768 2.01559 -2.19495 0
M  V30 8401 H 791.305 0.986243 -1.09141 0
M  V30 8402 H 793.263 4.08803 -0.832817 0
M  V30 8403 H 791.893 3.22691 -0.0838242 0
M  V30 8404 H 790.945 2.88488 -2.47949 0
M  V30 8405 H 792.257 3.92215 -3.0817 0
M  V30 8406 H 791.411 5.82572 -1.69396 0
M  V30 8407 H 790.15 4.7759 -0.987882 0
M  V30 8408 H 789.155 4.42312 -3.26559 0
M  V30 8409 H 790.38 5.50737 -3.97323 0
M  V30 8410 H 788.326 6.28801 -1.86938 0
M  V30 8411 H 788.243 6.67054 -3.55774 0
M  V30 8412 H 789.511 7.35403 -2.58461 0
M  V30 8413 N 793.74 1.17359 1.05189 0
M  V30 8414 C 794.65 0.904984 2.16442 0
M  V30 8415 C 795.666 -0.12686 1.73537 0
M  V30 8416 O 796.842 0.0524127 2.01332 0
M  V30 8417 C 793.907 0.422019 3.44122 0
M  V30 8418 C 792.968 1.52045 4.01473 0
M  V30 8419 C 792.201 1.06044 5.23059 0
M  V30 8420 O 792.424 -0.0854023 5.70336 0
M  V30 8421 O 791.358 1.85349 5.72651 0
M  V30 8422 H 795.184 1.8356 2.41949 0
M  V30 8423 H 792.769 0.95447 1.14936 0
M  V30 8424 H 794.651 0.160208 4.21095 0
M  V30 8425 H 793.326 -0.480444 3.20115 0
M  V30 8426 H 792.233 1.83615 3.25939 0
M  V30 8427 H 793.566 2.39863 4.29798 0
M  V30 8428 N 795.218 -1.23913 0.973828 0
M  V30 8429 C 796.128 -2.28838 0.516735 0
M  V30 8430 C 797.144 -1.68723 -0.425282 0
M  V30 8431 O 798.32 -1.99201 -0.296819 0
M  V30 8432 C 795.385 -3.46233 -0.179914 0
M  V30 8433 C 794.446 -4.21729 0.80269 0
M  V30 8434 C 793.679 -5.33518 0.139191 0
M  V30 8435 O 793.902 -5.60252 -1.07118 0
M  V30 8436 O 792.836 -5.96088 0.834447 0
M  V30 8437 H 796.662 -2.70067 1.38916 0
M  V30 8438 H 794.247 -1.2972 0.74115 0
M  V30 8439 H 796.129 -4.17514 -0.570991 0
M  V30 8440 H 794.804 -3.06969 -1.02721 0
M  V30 8441 H 793.711 -3.52799 1.24434 0
M  V30 8442 H 795.044 -4.64825 1.61859 0
M  V30 8443 N 796.696 -0.74468 -1.38897 0
M  V30 8444 C 797.646 -0.0869375 -2.27834 0
M  V30 8445 C 798.63 0.702553 -1.44751 0
M  V30 8446 O 799.822 0.569972 -1.67572 0
M  V30 8447 C 796.951 0.812232 -3.33553 0
M  V30 8448 C 796.037 0.0163713 -4.24097 0
M  V30 8449 N 796.428 -1.01547 -4.95502 0
M  V30 8450 C 794.726 0.244554 -4.45329 0
M  V30 8451 C 795.427 -1.49622 -5.62128 0
M  V30 8452 N 794.403 -0.813097 -5.37485 0
M  V30 8453 H 798.205 -0.877345 -2.80499 0
M  V30 8454 H 795.719 -0.579898 -1.51694 0
M  V30 8455 H 797.716 1.299 -3.96146 0
M  V30 8456 H 796.376 1.60169 -2.82446 0
M  V30 8457 H 797.387 -1.39707 -4.98701 0
M  V30 8458 H 794.064 1.00806 -4.05147 0
M  V30 8459 H 795.454 -2.35523 -6.29268 0
M  V30 8460 N 798.174 1.49689 -0.493057 0
M  V30 8461 C 799.414 2.04332 0.0527374 0
M  V30 8462 C 799.778 1.36522 1.35003 0
M  V30 8463 O 800.979 1.81842 1.97957 0
M  V30 8464 C 799.25 3.56782 0.210044 0
M  V30 8465 S 800.809 4.32998 0.711232 0
M  V30 8466 H 797.627 0.710978 0.00554853 0
M  V30 8467 H 800.229 1.83835 -0.665213 0
M  V30 8468 H 798.933 4.03681 -0.739566 0
M  V30 8469 H 798.464 3.81671 0.953468 0
M  V30 8470 H 800.479 4.54916 1.98156 0
M  V30 8471 N 799.652 0.226554 1.55963 0
M  V30 8472 C 800.898 -0.404387 1.98727 0
M  V30 8473 C 801.231 -1.59059 1.11418 0
M  V30 8474 O 800.506 -1.93729 0.172971 0
M  V30 8475 C 800.789 -0.834081 3.50307 0
M  V30 8476 C 800.642 0.356104 4.48388 0
M  V30 8477 C 801.961 -1.68845 4.06423 0
M  V30 8478 H 799.08 -0.145515 0.722492 0
M  V30 8479 H 801.722 0.323791 1.87221 0
M  V30 8480 H 799.872 -1.45454 3.60244 0
M  V30 8481 H 801.544 0.99432 4.50456 0
M  V30 8482 H 799.787 1.0027 4.22053 0
M  V30 8483 H 800.458 0.0124333 5.51999 0
M  V30 8484 H 802.934 -1.16489 3.99461 0
M  V30 8485 H 801.81 -1.958 5.1279 0
M  V30 8486 H 802.071 -2.65347 3.53615 0
M  V30 8487 N 801.13 -1.57531 -0.0467866 0
M  V30 8488 C 802.377 -1.88451 -0.74112 0
M  V30 8489 C 802.705 -0.821592 -1.76296 0
M  V30 8490 O 801.96 0.179585 -1.94874 0
M  V30 8491 C 802.259 -3.26091 -1.46285 0
M  V30 8492 C 801.925 -4.47171 -0.578669 0
M  V30 8493 C 800.587 -4.80032 -0.335083 0
M  V30 8494 C 802.939 -5.2119 0.0328809 0
M  V30 8495 C 800.267 -5.84309 0.529121 0
M  V30 8496 C 802.619 -6.26383 0.884684 0
M  V30 8497 C 801.283 -6.57729 1.1379 0
M  V30 8498 H 800.553 -0.68959 -0.271195 0
M  V30 8499 H 803.2 -1.915 -0.00132378 0
M  V30 8500 H 801.505 -3.18948 -2.27551 0
M  V30 8501 H 803.202 -3.47258 -2.00532 0
M  V30 8502 H 799.792 -4.21467 -0.778666 0
M  V30 8503 H 803.976 -4.96096 -0.142375 0
M  V30 8504 H 799.232 -6.06981 0.733794 0
M  V30 8505 H 803.406 -6.82888 1.36516 0
M  V30 8506 H 801.033 -7.38355 1.80929 0
M  V30 8507 N 802.608 0.318715 -1.54344 0
M  V30 8508 C 804.024 0.663345 -1.45162 0
M  V30 8509 C 804.224 1.9145 -0.62842 0
M  V30 8510 O 803.28 2.5217 -0.129126 0
M  V30 8511 C 804.593 0.832836 -2.88937 0
M  V30 8512 C 806.141 0.929866 -2.98869 0
M  V30 8513 C 806.616 1.13149 -4.43803 0
M  V30 8514 N 808.107 1.19811 -4.47437 0
M  V30 8515 C 808.842 1.37209 -5.56742 0
M  V30 8516 N 808.338 1.51619 -6.76006 0
M  V30 8517 N 810.131 1.39956 -5.44398 0
M  V30 8518 H 802.282 -0.50357 -2.06344 0
M  V30 8519 H 804.545 -0.163528 -0.933789 0
M  V30 8520 H 804.251 -0.0153519 -3.51697 0
M  V30 8521 H 804.125 1.72721 -3.35332 0
M  V30 8522 H 806.512 1.76855 -2.36233 0
M  V30 8523 H 806.593 0.0118561 -2.55797 0
M  V30 8524 H 806.237 0.297636 -5.07027 0
M  V30 8525 H 806.167 2.06345 -4.84489 0
M  V30 8526 H 808.658 1.101 -3.61506 0
M  V30 8527 H 808.971 1.64599 -7.55067 0
M  V30 8528 H 807.316 1.48708 -6.78904 0
M  V30 8529 H 810.507 1.28298 -4.50175 0
M  V30 8530 H 810.68 1.53172 -6.29637 0
M  V30 8531 N 804.086 1.46499 0.581025 0
M  V30 8532 C 805.311 1.55708 1.37002 0
M  V30 8533 C 805.736 0.19942 1.8704 0
M  V30 8534 O 805.094 -0.820731 1.61659 0
M  V30 8535 C 805.142 2.56716 2.53238 0
M  V30 8536 O 804.246 2.10336 3.54729 0
M  V30 8537 H 803.587 0.523912 0.407937 0
M  V30 8538 H 806.117 1.92085 0.704602 0
M  V30 8539 H 806.127 2.76378 3.00132 0
M  V30 8540 H 804.802 3.55307 2.16171 0
M  V30 8541 H 803.379 2.00669 3.14303 0
M  V30 8542 N 805.565 -0.825799 1.34232 0
M  V30 8543 C 806.842 -1.56741 1.17011 0
M  V30 8544 C 807.222 -2.09512 -0.258425 0
M  V30 8545 O 806.57 -1.90664 -1.25935 0
M  V30 8546 C 806.78 -2.69104 2.22225 0
M  V30 8547 C 808.128 -3.37947 2.57055 0
M  V30 8548 O 809.152 -2.79358 2.20992 0
M  V30 8549 O 808.011 -4.43743 3.1899 0
M  V30 8550 H 805.105 -0.69163 0.453405 0
M  V30 8551 H 807.651 -0.867422 1.45856 0
M  V30 8552 H 806.423 -2.27844 3.18124 0
M  V30 8553 H 806.046 -3.46756 1.94541 0
M  V30 8554 N 807.043 -1.17915 -1.04565 0
M  V30 8555 C 808.268 -0.996749 -1.81878 0
M  V30 8556 C 808.693 0.450169 -1.82634 0
M  V30 8557 O 808.051 1.32268 -1.23995 0
M  V30 8558 C 808.099 -1.55005 -3.25585 0
M  V30 8559 O 807.203 -0.76804 -4.05185 0
M  V30 8560 H 806.544 -0.353456 -0.562108 0
M  V30 8561 H 809.074 -1.56557 -1.31723 0
M  V30 8562 H 809.084 -1.57503 -3.76373 0
M  V30 8563 H 807.759 -2.60327 -3.2435 0
M  V30 8564 H 806.336 -0.81498 -3.63885 0
M  V30 8565 N 808.521 1.23394 -0.980386 0
M  V30 8566 C 809.937 1.43961 -0.689008 0
M  V30 8567 C 810.137 1.87229 0.744809 0
M  V30 8568 O 809.193 2.01831 1.51725 0
M  V30 8569 C 810.506 2.49128 -1.68392 0
M  V30 8570 C 812.054 2.62941 -1.69796 0
M  V30 8571 C 812.529 3.71317 -2.68118 0
M  V30 8572 N 814.02 3.7876 -2.66636 0
M  V30 8573 C 814.755 4.62176 -3.39383 0
M  V30 8574 N 814.251 5.49682 -4.21688 0
M  V30 8575 N 816.044 4.56372 -3.28147 0
M  V30 8576 H 808.195 0.936106 -1.90659 0
M  V30 8577 H 810.458 0.473023 -0.821555 0
M  V30 8578 H 810.164 2.24252 -2.70931 0
M  V30 8579 H 810.038 3.47514 -1.46675 0
M  V30 8580 H 812.425 2.87168 -0.679617 0
M  V30 8581 H 812.506 1.64871 -1.95579 0
M  V30 8582 H 812.15 3.4784 -3.70095 0
M  V30 8583 H 812.08 4.68929 -2.3961 0
M  V30 8584 H 814.571 3.16226 -2.06904 0
M  V30 8585 H 814.884 6.10323 -4.74053 0
M  V30 8586 H 813.229 5.49306 -4.25779 0
M  V30 8587 H 816.42 3.87029 -2.63299 0
M  V30 8588 H 816.593 5.21153 -3.85102 0
M  V30 8589 N 809.999 0.752036 1.385 0
M  V30 8590 C 811.247 0.306895 1.99756 0
M  V30 8591 C 811.568 -1.11478 1.59992 0
M  V30 8592 O 810.838 -1.76206 0.856045 0
M  V30 8593 H 809.418 0.11048 0.738785 0
M  V30 8594 H 812.08 0.965785 1.69289 0
M  V30 8595 H 811.176 0.368797 3.09913 0
M  V30 8596 N 811.477 -1.49425 0.500989 0
M  V30 8597 C 812.725 -2.02053 -0.0434495 0
M  V30 8598 C 813.046 -1.38285 -1.37486 0
M  V30 8599 O 812.316 -0.538171 -1.88363 0
M  V30 8600 H 810.896 -0.746757 -0.0190469 0
M  V30 8601 H 813.558 -1.83449 0.658227 0
M  V30 8602 H 812.654 -3.11619 -0.173129 0
M  V30 8603 N 812.955 -0.234822 -1.55841 0
M  V30 8604 C 814.18 0.400741 -2.03492 0
M  V30 8605 C 814.605 1.51618 -1.11327 0
M  V30 8606 O 813.963 1.81002 -0.103922 0
M  V30 8607 C 814.011 0.897184 -3.49261 0
M  V30 8608 O 813.115 2.00764 -3.60233 0
M  V30 8609 H 812.456 0.0890023 -0.658008 0
M  V30 8610 H 814.986 -0.357345 -2.01455 0
M  V30 8611 H 814.996 1.20356 -3.89844 0
M  V30 8612 H 813.671 0.0808639 -4.15821 0
M  V30 8613 H 812.248 1.70689 -3.31541 0
M  V30 8614 N 814.433 1.57553 0.0384317 0
M  V30 8615 C 815.343 2.09333 1.0591 0
M  V30 8616 C 816.359 1.0299 1.40247 0
M  V30 8617 O 817.535 1.34669 1.49754 0
M  V30 8618 C 814.6 2.55468 2.34386 0
M  V30 8619 C 813.661 3.76254 2.06716 0
M  V30 8620 C 812.894 4.20179 3.29067 0
M  V30 8621 O 813.117 3.637 4.39407 0
M  V30 8622 O 812.051 5.12697 3.15317 0
M  V30 8623 H 815.877 2.96683 0.649087 0
M  V30 8624 H 813.462 1.47211 0.254802 0
M  V30 8625 H 815.344 2.85514 3.09935 0
M  V30 8626 H 814.019 1.71234 2.74701 0
M  V30 8627 H 812.926 3.51241 1.28766 0
M  V30 8628 H 814.259 4.61443 1.71263 0
M  V30 8629 N 815.911 -0.310526 1.54511 0
M  V30 8630 C 816.874 -1.3657 1.84068 0
M  V30 8631 C 817.874 -1.44123 0.713097 0
M  V30 8632 O 819.064 -1.43924 0.981399 0
M  V30 8633 C 816.196 -2.75162 2.01243 0
M  V30 8634 H 817.389 -1.1161 2.78358 0
M  V30 8635 H 814.942 -0.546699 1.46427 0
M  V30 8636 H 815.677 -3.05359 1.09208 0
M  V30 8637 H 815.462 -2.71071 2.83307 0
M  V30 8638 H 816.952 -3.51473 2.25514 0
M  V30 8639 N 817.389 -1.46805 -0.573248 0
M  V30 8640 C 818.635 -1.5283 -1.33307 0
M  V30 8641 C 818.968 -0.183287 -1.93333 0
M  V30 8642 O 818.243 0.806354 -1.76998 0
M  V30 8643 C 818.526 -2.63414 -2.45531 0
M  V30 8644 C 818.379 -4.07478 -1.90478 0
M  V30 8645 C 819.698 -2.70014 -3.47535 0
M  V30 8646 H 816.817 -0.556371 -0.483343 0
M  V30 8647 H 819.459 -1.78787 -0.643066 0
M  V30 8648 H 817.609 -2.41412 -3.04389 0
M  V30 8649 H 819.281 -4.40795 -1.36004 0
M  V30 8650 H 817.524 -4.16511 -1.21248 0
M  V30 8651 H 818.195 -4.80598 -2.71531 0
M  V30 8652 H 820.671 -2.89817 -2.98572 0
M  V30 8653 H 819.547 -3.49192 -4.23504 0
M  V30 8654 H 819.808 -1.76436 -4.05367 0
M  V30 8655 N 818.867 0.818669 -1.34668 0
M  V30 8656 C 820.113 1.57746 -1.27453 0
M  V30 8657 C 820.446 1.93588 0.154077 0
M  V30 8658 O 819.721 1.60371 1.10051 0
M  V30 8659 C 820.004 2.87414 -2.16945 0
M  V30 8660 C 819.857 2.58125 -3.68363 0
M  V30 8661 C 821.176 3.89021 -2.05792 0
M  V30 8662 H 818.295 0.572339 -0.464324 0
M  V30 8663 H 820.937 0.942784 -1.64959 0
M  V30 8664 H 819.087 3.41576 -1.85089 0
M  V30 8665 H 820.759 2.10239 -4.10606 0
M  V30 8666 H 819.002 1.91503 -3.89242 0
M  V30 8667 H 819.673 3.5061 -4.26353 0
M  V30 8668 H 822.149 3.44224 -2.33771 0
M  V30 8669 H 821.025 4.77548 -2.70628 0
M  V30 8670 H 821.286 4.29786 -1.03618 0
M  V30 8671 N 820.346 1.18468 1.03938 0
M  V30 8672 C 821.574 1.00576 1.80809 0
M  V30 8673 C 821.989 -0.445786 1.83462 0
M  V30 8674 O 821.346 -1.30964 1.27101 0
M  V30 8675 C 821.397 1.55491 3.26351 0
M  V30 8676 O 821.118 2.94963 3.23926 0
M  V30 8677 C 822.619 1.42236 4.19862 0
M  V30 8678 H 819.839 0.35508 0.56935 0
M  V30 8679 H 822.383 1.57046 1.30984 0
M  V30 8680 H 820.538 1.03195 3.73403 0
M  V30 8681 H 820.952 3.20598 4.15111 0
M  V30 8682 H 822.426 1.85455 5.19914 0
M  V30 8683 H 822.903 0.371267 4.37628 0
M  V30 8684 H 823.509 1.9361 3.78675 0
M  V30 8685 N 821.824 -1.22873 0.986916 0
M  V30 8686 C 822.754 -2.2688 0.552064 0
M  V30 8687 C 823.735 -1.64883 -0.418048 0
M  V30 8688 O 824.92 -1.9171 -0.30999 0
M  V30 8689 C 822.05 -3.47018 -0.139959 0
M  V30 8690 C 821.004 -4.21411 0.748091 0
M  V30 8691 C 820.33 -5.34645 -0.0765132 0
M  V30 8692 C 821.63 -4.80726 2.04206 0
M  V30 8693 H 823.324 -2.63507 1.42143 0
M  V30 8694 H 820.87 -1.26668 0.68492 0
M  V30 8695 H 822.823 -4.18931 -0.455527 0
M  V30 8696 H 821.547 -3.0947 -1.04382 0
M  V30 8697 H 820.206 -3.51325 1.04721 0
M  V30 8698 H 819.854 -4.93339 -0.981109 0
M  V30 8699 H 819.554 -5.85342 0.514606 0
M  V30 8700 H 821.078 -6.09377 -0.386313 0
M  V30 8701 H 822.492 -5.44612 1.79083 0
M  V30 8702 H 820.889 -5.41737 2.5815 0
M  V30 8703 H 821.959 -4.01109 2.72469 0
M  V30 8704 N 823.302 -0.75937 -1.38099 0
M  V30 8705 C 824.212 -0.13774 -2.34195 0
M  V30 8706 C 825.228 0.693985 -1.59561 0
M  V30 8707 O 826.404 0.616792 -1.91723 0
M  V30 8708 C 823.469 0.740535 -3.38699 0
M  V30 8709 C 822.53 -0.106225 -4.29169 0
M  V30 8710 C 821.763 0.730225 -5.28681 0
M  V30 8711 O 821.986 1.96796 -5.35376 0
M  V30 8712 O 820.92 0.145969 -6.01723 0
M  V30 8713 H 824.746 -0.931512 -2.89061 0
M  V30 8714 H 822.331 -0.520345 -1.40046 0
M  V30 8715 H 824.213 1.24232 -4.02672 0
M  V30 8716 H 822.888 1.51271 -2.8618 0
M  V30 8717 H 821.795 -0.654088 -3.68337 0
M  V30 8718 H 823.128 -0.841186 -4.84959 0
M  V30 8719 N 824.78 1.49157 -0.508906 0
M  V30 8720 C 826.191 1.86593 -0.0630975 0
M  V30 8721 C 826.542 1.42051 1.35337 0
M  V30 8722 O 825.667 0.801866 2.00995 0
M  V30 8723 C 826.262 3.38629 -0.107729 0
M  V30 8724 C 824.821 3.75336 0.282776 0
M  V30 8725 C 823.968 2.7317 -0.4768 0
M  V30 8726 H 826.919 1.41362 -0.72128 0
M  V30 8727 H 826.94 3.74271 0.685689 0
M  V30 8728 H 826.452 3.71017 -1.13876 0
M  V30 8729 H 824.553 3.48558 1.31675 0
M  V30 8730 H 824.666 4.79081 -0.0421728 0
M  V30 8731 H 823.03 2.54591 0.0743552 0
M  V30 8732 H 823.813 3.08403 -1.50807 0
M  V30 8733 N 826.258 0.243083 1.55714 0
M  V30 8734 C 827.498 -0.384303 2.00755 0
M  V30 8735 C 827.862 -1.55406 1.12752 0
M  V30 8736 O 829.063 -2.24892 1.47231 0
M  V30 8737 C 827.334 -0.787419 3.48618 0
M  V30 8738 S 828.893 -1.40587 4.15669 0
M  V30 8739 H 825.711 -0.121088 0.700613 0
M  V30 8740 H 828.313 0.357423 1.92205 0
M  V30 8741 H 827.017 0.0732892 4.10335 0
M  V30 8742 H 826.548 -1.56142 3.61086 0
M  V30 8743 H 828.563 -2.69493 4.16639 0
M  V30 8744 N 827.736 -1.57571 -0.0300757 0
M  V30 8745 C 828.646 -2.09892 -1.04798 0
M  V30 8746 C 829.662 -1.03732 -1.39698 0
M  V30 8747 O 830.838 -1.35461 -1.49038 0
M  V30 8748 C 827.903 -2.56707 -2.33028 0
M  V30 8749 C 826.964 -3.77345 -2.04718 0
M  V30 8750 C 826.197 -4.21918 -3.26834 0
M  V30 8751 O 826.42 -3.66025 -4.37472 0
M  V30 8752 O 825.354 -5.14362 -3.12594 0
M  V30 8753 H 829.18 -2.97023 -0.633344 0
M  V30 8754 H 826.765 -1.47344 -0.246991 0
M  V30 8755 H 828.647 -2.87154 -3.08417 0
M  V30 8756 H 827.322 -1.72688 -2.73789 0
M  V30 8757 H 826.229 -3.51919 -1.26901 0
M  V30 8758 H 827.562 -4.62345 -1.68813 0
M  V30 8759 N 829.214 0.302327 -1.54673 0
M  V30 8760 C 830.462 1.03565 -1.73547 0
M  V30 8761 C 830.783 1.87843 -0.523448 0
M  V30 8762 O 830.053 1.90367 0.462295 0
M  V30 8763 H 828.633 0.385358 -0.639928 0
M  V30 8764 H 831.295 0.333632 -1.92023 0
M  V30 8765 H 830.391 1.68952 -2.62415 0
M  V30 8766 N 830.692 1.47107 0.565454 0
M  V30 8767 C 831.655 1.58535 1.65527 0
M  V30 8768 C 832.655 0.461081 1.54048 0
M  V30 8769 O 833.845 0.725911 1.58355 0
M  V30 8770 C 830.977 1.52204 3.05036 0
M  V30 8771 H 832.17 2.55676 1.56747 0
M  V30 8772 H 829.723 1.35174 0.78471 0
M  V30 8773 H 830.458 0.564071 3.19357 0
M  V30 8774 H 830.243 2.3379 3.14777 0
M  V30 8775 H 831.733 1.63322 3.84338 0
M  V30 8776 N 832.17 -0.811516 1.35101 0
M  V30 8777 C 833.447 -1.55491 1.18667 0
M  V30 8778 C 833.827 -2.09775 -0.236189 0
M  V30 8779 O 833.175 -1.91989 -1.23905 0
M  V30 8780 C 833.385 -2.66732 2.25067 0
M  V30 8781 C 834.733 -3.35201 2.60625 0
M  V30 8782 O 835.757 -2.76998 2.23943 0
M  V30 8783 O 834.616 -4.40334 3.23679 0
M  V30 8784 H 831.71 -0.686783 0.460716 0
M  V30 8785 H 834.256 -0.851903 1.46768 0
M  V30 8786 H 833.028 -2.24457 3.20523 0
M  V30 8787 H 832.651 -3.44673 1.98208 0
M  V30 8788 N 833.648 -1.19017 -1.03309 0
M  V30 8789 C 834.876 -1.01534 -1.80273 0
M  V30 8790 C 835.291 0.43605 -1.83696 0
M  V30 8791 O 834.648 1.30288 -1.27794 0
M  V30 8792 C 834.699 -1.5722 -3.25522 0
M  V30 8793 O 834.42 -2.96677 -3.22358 0
M  V30 8794 C 835.921 -1.4446 -4.19102 0
M  V30 8795 H 833.141 -0.358094 -0.567459 0
M  V30 8796 H 835.685 -1.57738 -1.3015 0
M  V30 8797 H 833.84 -1.05174 -3.7285 0
M  V30 8798 H 834.254 -3.22795 -4.13405 0
M  V30 8799 H 835.728 -1.88209 -5.18923 0
M  V30 8800 H 836.205 -0.394471 -4.37425 0
M  V30 8801 H 836.811 -1.95616 -3.77643 0
M  V30 8802 N 835.127 1.22348 -0.993418 0
M  V30 8803 C 836.357 1.94842 -0.687023 0
M  V30 8804 C 836.765 1.73594 0.752445 0
M  V30 8805 O 836.108 1.03238 1.51946 0
M  V30 8806 C 836.17 3.47694 -0.913754 0
M  V30 8807 C 835.834 3.92678 -2.33781 0
M  V30 8808 C 836.831 4.0031 -3.31734 0
M  V30 8809 C 834.516 4.25311 -2.67237 0
M  V30 8810 C 836.51 4.39951 -4.61218 0
M  V30 8811 C 834.197 4.64631 -3.9694 0
M  V30 8812 C 835.195 4.71919 -4.93742 0
M  V30 8813 O 834.883 5.10349 -6.21127 0
M  V30 8814 H 834.615 0.626771 -0.253247 0
M  V30 8815 H 837.169 1.56436 -1.33105 0
M  V30 8816 H 835.399 3.86115 -0.212552 0
M  V30 8817 H 837.088 4.01403 -0.602528 0
M  V30 8818 H 837.854 3.75288 -3.07219 0
M  V30 8819 H 833.733 4.18842 -1.92594 0
M  V30 8820 H 837.277 4.45555 -5.36774 0
M  V30 8821 H 833.174 4.89104 -4.21245 0
M  V30 8822 H 833.942 5.2842 -6.25072 0
M  V30 8823 N 836.605 0.766683 1.37694 0
M  V30 8824 C 837.851 0.329201 2.0011 0
M  V30 8825 C 838.184 -1.09004 1.60723 0
M  V30 8826 O 837.459 -1.74895 0.850989 0
M  V30 8827 C 837.742 0.466989 3.57059 0
M  V30 8828 C 837.595 1.92828 4.06371 0
M  V30 8829 C 838.914 -0.131792 4.39903 0
M  V30 8830 H 836.033 0.12109 0.726984 0
M  V30 8831 H 838.675 0.968779 1.63446 0
M  V30 8832 H 836.825 -0.0775023 3.88423 0
M  V30 8833 H 838.497 2.53208 3.85595 0
M  V30 8834 H 836.74 2.43884 3.58752 0
M  V30 8835 H 837.411 1.97577 5.15429 0
M  V30 8836 H 839.887 0.332731 4.14768 0
M  V30 8837 H 838.763 -0.005217 5.489 0
M  V30 8838 H 839.024 -1.22156 4.24889 0
M  V30 8839 N 838.083 -1.48885 0.516809 0
M  V30 8840 C 839.031 -2.31066 -0.266656 0
M  V30 8841 C 840.025 -1.40393 -0.94795 0
M  V30 8842 O 841.231 -1.57366 -0.873836 0
M  V30 8843 H 837.606 -0.744654 -0.104858 0
M  V30 8844 H 839.577 -2.95045 0.446236 0
M  V30 8845 C 838.326 -3.22131 -1.3087 0
M  V30 8846 H 837.649 -3.91839 -0.793865 0
M  V30 8847 H 839.089 -3.82544 -1.82856 0
M  V30 8848 C 837.548 -2.42825 -2.33533 0
M  V30 8849 O 838.078 -2.14364 -3.39722 0
M  V30 8850 N 836.284 -2.04559 -2.06407 0
M  V30 8851 H 835.831 -2.27905 -1.20071 0
M  V30 8852 H 835.789 -1.51807 -2.75322 0
M  V30 8853 N 839.561 -0.251338 -1.55583 0
M  V30 8854 C 840.809 0.371434 -1.98657 0
M  V30 8855 C 841.13 1.58143 -1.14087 0
M  V30 8856 O 840.4 1.94607 -0.224708 0
M  V30 8857 H 838.98 0.140225 -0.733721 0
M  V30 8858 H 841.642 -0.351157 -1.9171 0
M  V30 8859 H 840.738 0.677554 -3.04657 0
M  V30 8860 N 841.039 1.57585 0.0217189 0
M  V30 8861 C 841.986 2.07036 1.02004 0
M  V30 8862 C 842.956 0.96106 1.35473 0
M  V30 8863 O 844.141 1.23211 1.45684 0
M  V30 8864 C 841.281 2.56056 2.31364 0
M  V30 8865 C 840.394 3.80805 2.03989 0
M  V30 8866 C 839.529 4.18409 3.27272 0
M  V30 8867 C 838.568 5.36055 2.95486 0
M  V30 8868 N 837.705 5.69056 4.11242 0
M  V30 8869 H 842.545 2.92073 0.591396 0
M  V30 8870 H 840.082 1.44403 0.280384 0
M  V30 8871 H 842.04 2.82548 3.06957 0
M  V30 8872 H 840.67 1.73925 2.71937 0
M  V30 8873 H 839.722 3.61354 1.1886 0
M  V30 8874 H 841.034 4.66512 1.76546 0
M  V30 8875 H 840.188 4.46068 4.11228 0
M  V30 8876 H 838.927 3.31369 3.57835 0
M  V30 8877 H 837.932 5.08142 2.09933 0
M  V30 8878 H 839.157 6.24755 2.66193 0
M  V30 8879 H 837.103 4.84974 4.41742 0
M  V30 8880 H 837.02 6.49288 3.87247 0
M  V30 8881 H 838.288 6.01295 4.96049 0
M  V30 8882 N 842.517 -0.29412 1.54831 0
M  V30 8883 C 843.464 -1.36296 1.86258 0
M  V30 8884 C 844.434 -1.50061 0.712097 0
M  V30 8885 O 845.619 -1.64809 0.961381 0
M  V30 8886 C 842.759 -2.72187 2.12151 0
M  V30 8887 C 841.872 -2.66816 3.39755 0
M  V30 8888 C 841.007 -3.94747 3.55455 0
M  V30 8889 C 840.046 -3.838 4.76827 0
M  V30 8890 N 839.183 -5.03521 4.89296 0
M  V30 8891 H 844.023 -1.08796 2.7743 0
M  V30 8892 H 841.56 -0.526069 1.37371 0
M  V30 8893 H 843.518 -3.51225 2.25159 0
M  V30 8894 H 842.148 -2.97934 1.24237 0
M  V30 8895 H 841.2 -1.79605 3.3533 0
M  V30 8896 H 842.512 -2.5462 4.28917 0
M  V30 8897 H 841.666 -4.82223 3.68166 0
M  V30 8898 H 840.405 -4.09785 2.64438 0
M  V30 8899 H 839.41 -2.94708 4.64141 0
M  V30 8900 H 840.635 -3.70301 5.69258 0
M  V30 8901 H 838.581 -5.1901 4.01204 0
M  V30 8902 H 838.498 -4.93775 5.72471 0
M  V30 8903 H 839.766 -5.92629 5.06371 0
M  V30 8904 N 843.995 -1.47404 -0.557645 0
M  V30 8905 C 845.241 -1.54235 -1.31679 0
M  V30 8906 C 845.574 -0.203782 -1.93128 0
M  V30 8907 O 844.849 0.787536 -1.77843 0
M  V30 8908 C 845.132 -2.66003 -2.42723 0
M  V30 8909 C 844.985 -4.09475 -1.86145 0
M  V30 8910 C 846.304 -2.73685 -3.44652 0
M  V30 8911 H 843.423 -0.561466 -0.477415 0
M  V30 8912 H 846.065 -1.79459 -0.624067 0
M  V30 8913 H 844.215 -2.44627 -3.01811 0
M  V30 8914 H 845.887 -4.42213 -1.31321 0
M  V30 8915 H 844.13 -4.17774 -1.16823 0
M  V30 8916 H 844.801 -4.83451 -2.66418 0
M  V30 8917 H 847.277 -2.92968 -2.95481 0
M  V30 8918 H 846.153 -3.53665 -4.19777 0
M  V30 8919 H 846.414 -1.80726 -4.03473 0
M  V30 8920 N 845.473 0.80434 -1.35529 0
M  V30 8921 C 846.701 1.59283 -1.32048 0
M  V30 8922 C 847.116 1.88527 0.101556 0
M  V30 8923 O 846.473 1.48975 1.05417 0
M  V30 8924 C 846.524 2.92276 -2.12737 0
M  V30 8925 O 846.245 2.64299 -3.49396 0
M  V30 8926 C 847.746 3.86631 -2.16867 0
M  V30 8927 H 844.966 0.494523 -0.453528 0
M  V30 8928 H 847.51 0.999415 -1.78415 0
M  V30 8929 H 845.665 3.48125 -1.69964 0
M  V30 8930 H 846.079 3.4923 -3.91329 0
M  V30 8931 H 847.553 4.77053 -2.77712 0
M  V30 8932 H 848.03 4.23384 -1.16803 0
M  V30 8933 H 848.636 3.36717 -2.59811 0
M  V30 8934 N 846.951 1.19563 1.02676 0
M  V30 8935 C 847.861 0.950691 2.14474 0
M  V30 8936 C 848.877 -0.0900219 1.73767 0
M  V30 8937 O 850.053 0.0951063 2.01175 0
M  V30 8938 C 847.118 0.494917 3.43149 0
M  V30 8939 C 846.179 1.60527 3.98158 0
M  V30 8940 C 845.412 1.17115 5.20692 0
M  V30 8941 O 845.635 0.0355937 5.70389 0
M  V30 8942 O 844.569 1.97454 5.68591 0
M  V30 8943 H 848.395 1.88651 2.38001 0
M  V30 8944 H 845.98 0.978635 1.12885 0
M  V30 8945 H 847.862 0.249492 4.20661 0
M  V30 8946 H 846.537 -0.412434 3.21062 0
M  V30 8947 H 845.444 1.90487 3.21971 0
M  V30 8948 H 846.777 2.48925 4.24614 0
M  V30 8949 N 848.429 -1.21819 0.999893 0
M  V30 8950 C 849.84 -1.72517 0.713775 0
M  V30 8951 C 850.191 -1.80505 -0.768922 0
M  V30 8952 O 849.316 -1.45611 -1.60083 0
M  V30 8953 C 849.911 -3.13321 1.28901 0
M  V30 8954 C 848.47 -3.61396 1.05212 0
M  V30 8955 C 847.617 -2.39074 1.40494 0
M  V30 8956 H 850.568 -1.07068 1.17141 0
M  V30 8957 H 850.589 -3.74535 0.671084 0
M  V30 8958 H 850.101 -3.07475 2.36814 0
M  V30 8959 H 848.202 -3.72599 -0.0100732 0
M  V30 8960 H 848.315 -4.47145 1.72042 0
M  V30 8961 H 846.679 -2.41015 0.823642 0
M  V30 8962 H 847.462 -2.35884 2.49427 0
M  V30 8963 N 849.908 -0.773975 -1.37286 0
M  V30 8964 C 851.133 -0.349561 -2.04433 0
M  V30 8965 C 851.558 1.02082 -1.5799 0
M  V30 8966 O 850.916 1.65458 -0.741172 0
M  V30 8967 C 850.964 -0.404292 -3.58326 0
M  V30 8968 O 850.068 0.594447 -4.08093 0
M  V30 8969 H 849.409 -0.150959 -0.646612 0
M  V30 8970 H 851.939 -1.05079 -1.75555 0
M  V30 8971 H 851.949 -0.262378 -4.07155 0
M  V30 8972 H 850.624 -1.40403 -3.91484 0
M  V30 8973 H 849.201 0.415468 -3.70578 0
M  V30 8974 N 851.386 1.48609 -0.524698 0
M  V30 8975 C 852.635 2.01696 0.0132937 0
M  V30 8976 C 852.948 1.40751 1.35825 0
M  V30 8977 O 854.154 1.85304 1.9843 0
M  V30 8978 C 852.61 3.59824 0.0741012 0
M  V30 8979 C 852.218 4.2975 -1.26564 0
M  V30 8980 C 853.962 4.20774 0.5612 0
M  V30 8981 C 851.869 5.79798 -1.16571 0
M  V30 8982 H 850.799 0.753949 0.00873931 0
M  V30 8983 H 853.45 1.70922 -0.667684 0
M  V30 8984 H 851.832 3.87416 0.820043 0
M  V30 8985 H 853.006 4.13836 -2.02674 0
M  V30 8986 H 851.321 3.80649 -1.68806 0
M  V30 8987 H 853.918 5.30687 0.653853 0
M  V30 8988 H 854.261 3.85734 1.56573 0
M  V30 8989 H 854.794 3.97591 -0.128901 0
M  V30 8990 H 851.533 6.19403 -2.14523 0
M  V30 8991 H 851.053 5.9814 -0.445894 0
M  V30 8992 H 852.732 6.41337 -0.854186 0
M  V30 8993 N 852.864 0.259585 1.55447 0
M  V30 8994 C 853.794 -0.62852 2.24882 0
M  V30 8995 C 854.775 -1.17128 1.23349 0
M  V30 8996 O 855.96 -1.20829 1.52033 0
M  V30 8997 C 853.09 -1.81983 2.95803 0
M  V30 8998 C 852.044 -1.40929 4.04132 0
M  V30 8999 C 851.37 -2.68246 4.62545 0
M  V30 9000 C 852.67 -0.570956 5.1917 0
M  V30 9001 H 854.364 -0.0495021 2.99359 0
M  V30 9002 H 851.91 -0.0223688 1.43983 0
M  V30 9003 H 853.863 -2.44689 3.43082 0
M  V30 9004 H 852.587 -2.42444 2.18835 0
M  V30 9005 H 851.246 -0.805519 3.57641 0
M  V30 9006 H 850.894 -3.26931 3.82263 0
M  V30 9007 H 850.594 -2.41495 5.35681 0
M  V30 9008 H 852.118 -3.31827 5.12565 0
M  V30 9009 H 853.532 -1.10262 5.62597 0
M  V30 9010 H 851.929 -0.398979 5.98772 0
M  V30 9011 H 852.999 0.413918 4.8313 0
M  V30 9012 N 854.342 -1.57594 -0.0133615 0
M  V30 9013 C 855.758 -1.5527 -0.369255 0
M  V30 9014 C 855.958 -0.987751 -1.7563 0
M  V30 9015 O 855.014 -0.615683 -2.44879 0
M  V30 9016 C 856.327 -2.99602 -0.25672 0
M  V30 9017 C 857.875 -3.11227 -0.332647 0
M  V30 9018 C 858.35 -4.57321 -0.249387 0
M  V30 9019 N 859.841 -4.62177 -0.3077 0
M  V30 9020 C 860.576 -5.72781 -0.26641 0
M  V30 9021 N 860.072 -6.92575 -0.176494 0
M  V30 9022 N 861.865 -5.61204 -0.317295 0
M  V30 9023 H 854.016 -1.92662 0.894154 0
M  V30 9024 H 856.279 -0.884352 0.341505 0
M  V30 9025 H 855.985 -3.44723 0.697072 0
M  V30 9026 H 855.859 -3.6246 -1.04415 0
M  V30 9027 H 858.246 -2.66045 -1.27688 0
M  V30 9028 H 858.327 -2.51171 0.484412 0
M  V30 9029 H 857.971 -5.03174 0.691242 0
M  V30 9030 H 857.901 -5.15306 -1.08476 0
M  V30 9031 H 860.392 -3.75994 -0.379069 0
M  V30 9032 H 860.705 -7.72653 -0.150518 0
M  V30 9033 H 859.05 -6.94854 -0.142314 0
M  V30 9034 H 862.241 -4.66509 -0.385643 0
M  V30 9035 H 862.414 -6.47388 -0.28165 0
M  V30 9036 N 855.82 0.285905 -1.54985 0
M  V30 9037 C 857.045 1.04207 -1.7932 0
M  V30 9038 C 857.47 1.79622 -0.558343 0
M  V30 9039 O 856.828 1.74506 0.491661 0
M  V30 9040 C 856.876 1.98648 -3.0095 0
M  V30 9041 O 855.98 3.07207 -2.75132 0
M  V30 9042 H 855.321 0.298596 -0.593074 0
M  V30 9043 H 857.851 0.318736 -2.02102 0
M  V30 9044 H 857.861 2.4084 -3.29333 0
M  V30 9045 H 856.536 1.43167 -3.90482 0
M  V30 9046 H 855.113 2.69423 -2.57809 0
M  V30 9047 N 857.298 1.47698 0.54982 0
M  V30 9048 C 858.546 1.54397 1.30407 0
M  V30 9049 C 858.867 0.211026 1.93855 0
M  V30 9050 O 858.137 -0.765701 1.80316 0
M  V30 9051 H 856.717 0.568747 0.484289 0
M  V30 9052 H 859.379 1.84042 0.641444 0
M  V30 9053 H 858.475 2.31449 2.09375 0
M  V30 9054 N 858.776 -0.797141 1.35954 0
M  V30 9055 C 859.724 -1.93084 1.29697 0
M  V30 9056 C 860.718 -1.68329 0.190152 0
M  V30 9057 O 861.924 -1.7643 0.3567 0
M  V30 9058 H 858.299 -0.634531 0.403577 0
M  V30 9059 H 860.27 -1.95481 2.25455 0
M  V30 9060 C 859.019 -3.29996 1.09536 0
M  V30 9061 H 858.342 -3.49607 1.93946 0
M  V30 9062 H 859.782 -4.09696 1.09202 0
M  V30 9063 C 858.241 -3.36304 -0.200381 0
M  V30 9064 O 858.771 -3.83579 -1.19291 0
M  V30 9065 N 856.977 -2.89587 -0.242406 0
M  V30 9066 H 856.524 -2.51307 0.565897 0
M  V30 9067 H 856.482 -2.94189 -1.10906 0
M  V30 9068 N 860.254 -1.20106 -1.0204 0
M  V30 9069 C 861.67 -0.955099 -1.27867 0
M  V30 9070 C 861.87 0.367595 -1.98119 0
M  V30 9071 O 860.926 1.09705 -2.27423 0
M  V30 9072 C 862.239 -2.13507 -2.11744 0
M  V30 9073 C 863.787 -2.17563 -2.25023 0
M  V30 9074 C 864.262 -3.35035 -3.12275 0
M  V30 9075 N 865.753 -3.35024 -3.19864 0
M  V30 9076 C 866.488 -4.22566 -3.8759 0
M  V30 9077 N 865.984 -5.20278 -4.57474 0
M  V30 9078 N 867.777 -4.10418 -3.84075 0
M  V30 9079 H 859.928 -2.05193 -0.54861 0
M  V30 9080 H 862.191 -0.897689 -0.304728 0
M  V30 9081 H 861.897 -3.09275 -1.67456 0
M  V30 9082 H 861.771 -2.11281 -3.12474 0
M  V30 9083 H 864.158 -1.22359 -2.68537 0
M  V30 9084 H 864.239 -2.23838 -1.23815 0
M  V30 9085 H 863.883 -4.30522 -2.69468 0
M  V30 9086 H 863.813 -3.25996 -4.13563 0
M  V30 9087 H 866.304 -2.64299 -2.701 0
M  V30 9088 H 866.617 -5.83408 -5.06809 0
M  V30 9089 H 864.962 -5.24219 -4.56311 0
M  V30 9090 H 868.153 -3.33353 -3.28623 0
M  V30 9091 H 868.326 -4.78854 -4.36581 0
M  V30 9092 N 861.732 1.21287 -1.00634 0
M  V30 9093 C 862.981 1.89706 -0.685178 0
M  V30 9094 C 863.294 1.79044 0.787566 0
M  V30 9095 O 864.5 2.42502 1.22086 0
M  V30 9096 C 862.956 3.40176 -1.17508 0
M  V30 9097 C 862.564 3.59446 -2.674 0
M  V30 9098 C 864.308 4.14213 -0.928869 0
M  V30 9099 C 862.215 5.03688 -3.09923 0
M  V30 9100 H 861.145 0.710434 -0.252586 0
M  V30 9101 H 863.796 1.37277 -1.21768 0
M  V30 9102 H 862.178 3.91867 -0.570622 0
M  V30 9103 H 863.352 3.18188 -3.33306 0
M  V30 9104 H 861.667 2.98764 -2.9005 0
M  V30 9105 H 864.264 5.20546 -1.22212 0
M  V30 9106 H 864.607 4.16082 0.134859 0
M  V30 9107 H 865.14 3.68591 -1.49619 0
M  V30 9108 H 861.879 5.06968 -4.15529 0
M  V30 9109 H 861.399 5.45796 -2.4873 0
M  V30 9110 H 863.078 5.72204 -3.0198 0
M  V30 9111 N 863.21 0.781244 1.36873 0
M  V30 9112 C 864.459 0.34652 1.98701 0
M  V30 9113 C 864.772 -1.08555 1.62712 0
M  V30 9114 O 865.978 -1.62213 2.17713 0
M  V30 9115 C 864.434 0.568611 3.5538 0
M  V30 9116 C 864.042 2.01156 4.003 0
M  V30 9117 C 865.786 0.197983 4.24038 0
M  V30 9118 C 863.693 2.18074 5.49725 0
M  V30 9119 H 862.623 0.125821 0.743428 0
M  V30 9120 H 865.274 0.961721 1.56279 0
M  V30 9121 H 863.656 -0.116185 3.9583 0
M  V30 9122 H 864.83 2.73209 3.71071 0
M  V30 9123 H 863.145 2.33967 3.44454 0
M  V30 9124 H 865.742 0.302778 5.33842 0
M  V30 9125 H 866.085 -0.852927 4.07469 0
M  V30 9126 H 866.618 0.835696 3.88923 0
M  V30 9127 H 863.357 3.21519 5.71232 0
M  V30 9128 H 862.877 1.50517 5.80607 0
M  V30 9129 H 864.556 1.98393 6.15832 0
M  V30 9130 N 864.689 -1.48329 0.532571 0
M  V30 9131 C 865.622 -2.26524 -0.2761 0
M  V30 9132 C 866.6 -1.32498 -0.942496 0
M  V30 9133 O 867.784 -1.61844 -0.966376 0
M  V30 9134 C 864.911 -3.08808 -1.39124 0
M  V30 9135 C 863.957 -4.18227 -0.835984 0
M  V30 9136 S 864.79 -5.34669 0.298186 0
M  V30 9137 C 865.946 -6.20514 -0.81937 0
M  V30 9138 H 866.179 -2.94764 0.387502 0
M  V30 9139 H 863.712 -1.51081 0.318407 0
M  V30 9140 H 865.67 -3.56792 -2.03002 0
M  V30 9141 H 864.331 -2.39976 -2.02658 0
M  V30 9142 H 863.524 -4.75435 -1.67264 0
M  V30 9143 H 863.126 -3.72996 -0.27385 0
M  V30 9144 H 865.418 -6.55371 -1.7174 0
M  V30 9145 H 866.361 -7.07525 -0.285199 0
M  V30 9146 H 866.769 -5.5366 -1.10094 0
M  V30 9147 N 866.167 -0.267825 -1.55308 0
M  V30 9148 C 867.415 0.350343 -1.9904 0
M  V30 9149 C 867.736 1.56924 -1.15758 0
M  V30 9150 O 867.006 1.94358 -0.245336 0
M  V30 9151 H 865.586 0.132435 -0.735167 0
M  V30 9152 H 868.248 -0.371471 -1.91327 0
M  V30 9153 H 867.344 0.645203 -3.05358 0
M  V30 9154 N 867.645 1.57599 0.00500368 0
M  V30 9155 C 868.592 2.08106 0.998025 0
M  V30 9156 C 869.562 0.975374 1.34446 0
M  V30 9157 O 870.747 1.24749 1.44369 0
M  V30 9158 C 867.887 2.58496 2.28635 0
M  V30 9159 C 867 3.82947 1.99939 0
M  V30 9160 C 866.135 4.21857 3.22816 0
M  V30 9161 C 865.174 5.39159 2.89783 0
M  V30 9162 N 864.311 5.73386 4.05183 0
M  V30 9163 H 869.151 2.92684 0.560385 0
M  V30 9164 H 866.688 1.44692 0.265053 0
M  V30 9165 H 868.646 2.85787 3.03943 0
M  V30 9166 H 867.276 1.768 2.70077 0
M  V30 9167 H 866.328 3.62594 1.1502 0
M  V30 9168 H 867.64 4.68358 1.71588 0
M  V30 9169 H 866.794 4.50404 4.06474 0
M  V30 9170 H 865.533 3.35145 3.54301 0
M  V30 9171 H 864.538 5.1034 2.04532 0
M  V30 9172 H 865.763 6.27543 2.59551 0
M  V30 9173 H 863.709 4.89632 4.36574 0
M  V30 9174 H 863.626 6.53359 3.80339 0
M  V30 9175 H 864.894 6.06522 4.89644 0
M  V30 9176 N 869.123 -0.277682 1.55134 0
M  V30 9177 C 870.348 -1.03254 1.7987 0
M  V30 9178 C 870.773 -1.79324 0.567861 0
M  V30 9179 O 870.131 -1.74764 -0.4824 0
M  V30 9180 C 870.179 -1.9705 3.02 0
M  V30 9181 O 869.283 -3.05744 2.76757 0
M  V30 9182 H 868.624 -0.295447 0.594649 0
M  V30 9183 H 871.154 -0.308013 2.02268 0
M  V30 9184 H 871.164 -2.3909 3.30606 0
M  V30 9185 H 869.839 -1.41094 3.91236 0
M  V30 9186 H 868.416 -2.68052 2.59235 0
M  V30 9187 N 870.601 -1.47988 -0.541979 0
M  V30 9188 C 871.551 -1.58019 -1.64359 0
M  V30 9189 C 872.535 -0.438056 -1.54822 0
M  V30 9190 O 873.727 -0.688837 -1.63046 0
M  V30 9191 C 870.856 -1.61182 -3.03109 0
M  V30 9192 C 869.942 -2.80834 -3.17794 0
M  V30 9193 N 870.333 -4.05379 -3.02492 0
M  V30 9194 C 868.631 -2.77914 -3.48826 0
M  V30 9195 C 869.332 -4.85592 -3.20274 0
M  V30 9196 N 868.308 -4.18188 -3.47304 0
M  V30 9197 H 872.11 -2.52071 -1.5112 0
M  V30 9198 H 869.624 -1.44193 -0.747137 0
M  V30 9199 H 871.621 -1.66461 -3.82226 0
M  V30 9200 H 870.281 -0.682375 -3.17449 0
M  V30 9201 H 871.292 -4.36003 -2.79503 0
M  V30 9202 H 867.969 -1.94174 -3.69598 0
M  V30 9203 H 869.359 -5.94394 -3.13282 0
M  V30 9204 N 872.079 0.78992 -1.36375 0
M  V30 9205 C 873.325 1.55007 -1.3077 0
M  V30 9206 C 873.658 1.93871 0.112979 0
M  V30 9207 O 872.933 1.6267 1.06625 0
M  V30 9208 C 873.216 2.82748 -2.22993 0
M  V30 9209 C 873.069 2.50253 -3.73756 0
M  V30 9210 C 874.388 3.84569 -2.13998 0
M  V30 9211 H 871.507 0.562362 -0.476359 0
M  V30 9212 H 874.149 0.907582 -1.66922 0
M  V30 9213 H 872.299 3.37573 -1.92292 0
M  V30 9214 H 873.971 2.01482 -4.14973 0
M  V30 9215 H 872.214 1.83203 -3.93216 0
M  V30 9216 H 872.885 3.41487 -4.33694 0
M  V30 9217 H 875.361 3.39188 -2.4102 0
M  V30 9218 H 874.237 4.717 -2.80697 0
M  V30 9219 H 874.498 4.27491 -1.12711 0
M  V30 9220 N 873.557 1.20646 1.01402 0
M  V30 9221 C 874.804 1.01819 1.7504 0
M  V30 9222 C 875.132 -0.449386 1.89237 0
M  V30 9223 O 874.387 -1.34985 1.41695 0
M  V30 9224 C 874.686 1.64991 3.17037 0
M  V30 9225 C 874.352 3.14808 3.22811 0
M  V30 9226 C 873.014 3.55692 3.24094 0
M  V30 9227 C 875.366 4.108 3.2077 0
M  V30 9228 C 872.694 4.9109 3.2101 0
M  V30 9229 C 875.046 5.46147 3.19227 0
M  V30 9230 C 873.71 5.86441 3.18815 0
M  V30 9231 H 872.98 0.372582 0.640518 0
M  V30 9232 H 875.627 1.50108 1.18911 0
M  V30 9233 H 873.932 1.08971 3.76341 0
M  V30 9234 H 875.629 1.47937 3.72714 0
M  V30 9235 H 872.219 2.8224 3.2255 0
M  V30 9236 H 876.403 3.80246 3.18946 0
M  V30 9237 H 871.659 5.21569 3.19023 0
M  V30 9238 H 875.833 6.20272 3.166 0
M  V30 9239 H 873.46 6.91328 3.16179 0
M  V30 9240 N 875.035 -1.20752 1.01276 0
M  V30 9241 C 876.451 -1.42084 0.726934 0
M  V30 9242 C 876.651 -1.89138 -0.694907 0
M  V30 9243 O 875.707 -2.05783 -1.4632 0
M  V30 9244 C 877.02 -2.44575 1.74938 0
M  V30 9245 C 878.568 -2.58347 1.76708 0
M  V30 9246 C 879.043 -3.64078 2.77869 0
M  V30 9247 N 880.534 -3.71558 2.76585 0
M  V30 9248 C 881.269 -4.53016 3.51517 0
M  V30 9249 N 880.765 -5.38309 4.36114 0
M  V30 9250 N 882.558 -4.47512 3.40132 0
M  V30 9251 H 874.709 -0.885228 1.93074 0
M  V30 9252 H 876.972 -0.451075 0.833808 0
M  V30 9253 H 876.678 -2.1699 2.76782 0
M  V30 9254 H 876.552 -3.43503 1.55838 0
M  V30 9255 H 878.939 -2.85265 0.755516 0
M  V30 9256 H 879.02 -1.59628 1.99882 0
M  V30 9257 H 878.664 -3.37905 3.79187 0
M  V30 9258 H 878.594 -4.62412 2.51958 0
M  V30 9259 H 881.085 -3.10629 2.15216 0
M  V30 9260 H 881.398 -5.9754 4.90068 0
M  V30 9261 H 879.743 -5.37824 4.40194 0
M  V30 9262 H 882.934 -3.79912 2.73467 0
M  V30 9263 H 883.107 -5.10759 3.98784 0
M  V30 9264 N 876.513 -0.788492 -1.36457 0
M  V30 9265 C 877.76 -0.360461 -1.99266 0
M  V30 9266 C 878.088 1.0676 -1.62581 0
M  V30 9267 O 877.343 1.75205 -0.871884 0
M  V30 9268 C 877.642 -0.470255 -3.54293 0
M  V30 9269 C 877.308 -1.85899 -4.10795 0
M  V30 9270 C 875.97 -2.23896 -4.25939 0
M  V30 9271 C 878.322 -2.76836 -4.41601 0
M  V30 9272 C 875.65 -3.52235 -4.69199 0
M  V30 9273 C 878.002 -4.04602 -4.86292 0
M  V30 9274 C 876.666 -4.42623 -4.99641 0
M  V30 9275 H 875.936 -0.131902 -0.729166 0
M  V30 9276 H 878.583 -1.00577 -1.62962 0
M  V30 9277 H 876.888 0.258559 -3.90946 0
M  V30 9278 H 878.585 -0.120119 -4.0082 0
M  V30 9279 H 875.175 -1.55372 -3.99447 0
M  V30 9280 H 879.359 -2.48735 -4.2947 0
M  V30 9281 H 874.615 -3.81565 -4.77722 0
M  V30 9282 H 878.789 -4.75182 -5.09092 0
M  V30 9283 H 876.416 -5.42125 -5.32921 0
M  V30 9284 N 877.991 1.48044 -0.54043 0
M  V30 9285 C 878.939 2.31461 0.229862 0
M  V30 9286 C 879.933 1.41884 0.925495 0
M  V30 9287 O 881.139 1.58736 0.848689 0
M  V30 9288 H 877.514 0.746227 0.0929975 0
M  V30 9289 H 879.485 2.94297 -0.493118 0
M  V30 9290 C 878.234 3.24172 1.25729 0
M  V30 9291 H 877.557 3.93052 0.731426 0
M  V30 9292 H 878.997 3.85404 1.76747 0
M  V30 9293 C 877.456 2.4651 2.2964 0
M  V30 9294 O 877.986 2.19742 3.36268 0
M  V30 9295 N 876.192 2.07817 2.03127 0
M  V30 9296 H 875.739 2.29786 1.1643 0
M  V30 9297 H 875.697 1.56168 2.72872 0
M  V30 9298 N 879.47 0.276058 1.55163 0
M  V30 9299 C 880.42 -0.625549 2.19251 0
M  V30 9300 C 881.404 -1.11769 1.15744 0
M  V30 9301 O 882.596 -1.0626 1.41555 0
M  V30 9302 C 879.725 -1.80879 2.91784 0
M  V30 9303 C 878.811 -1.33379 4.0258 0
M  V30 9304 N 879.202 -0.575002 5.02521 0
M  V30 9305 C 877.5 -1.61666 4.15668 0
M  V30 9306 C 878.201 -0.325164 5.8079 0
M  V30 9307 N 877.177 -0.897851 5.36134 0
M  V30 9308 H 880.979 -0.0379943 2.93875 0
M  V30 9309 H 878.493 0.079661 1.62205 0
M  V30 9310 H 880.49 -2.466 3.36146 0
M  V30 9311 H 879.15 -2.40028 2.1867 0
M  V30 9312 H 880.161 -0.222256 5.17423 0
M  V30 9313 H 876.838 -2.21745 3.53745 0
M  V30 9314 H 878.228 0.282598 6.71305 0
M  V30 9315 N 880.948 -1.576 0.00335426 0
M  V30 9316 C 882.359 -1.7875 -0.539008 0
M  V30 9317 C 882.71 -0.911097 -1.73763 0
M  V30 9318 O 881.835 -0.114476 -2.16097 0
M  V30 9319 C 882.43 -3.24177 -0.984611 0
M  V30 9320 C 880.989 -3.46412 -1.47226 0
M  V30 9321 C 880.136 -2.74024 -0.425004 0
M  V30 9322 H 883.087 -1.57032 0.229511 0
M  V30 9323 H 883.108 -3.32474 -1.85044 0
M  V30 9324 H 882.62 -3.87938 -0.112035 0
M  V30 9325 H 880.721 -2.8787 -2.36562 0
M  V30 9326 H 880.834 -4.55098 -1.49741 0
M  V30 9327 H 879.198 -2.38741 -0.887394 0
M  V30 9328 H 879.981 -3.40486 0.438662 0
M  V30 9329 N 882.426 0.269451 -1.5528 0
M  V30 9330 C 883.336 1.35511 -1.91505 0
M  V30 9331 C 884.352 1.53854 -0.812712 0
M  V30 9332 O 885.528 1.67912 -1.1121 0
M  V30 9333 C 882.593 2.6937 -2.18267 0
M  V30 9334 C 881.654 2.59743 -3.41807 0
M  V30 9335 C 880.887 3.87219 -3.67283 0
M  V30 9336 O 881.11 4.88066 -2.95208 0
M  V30 9337 O 880.044 3.87209 -4.60818 0
M  V30 9338 H 883.87 1.07785 -2.8393 0
M  V30 9339 H 881.455 0.468282 -1.41871 0
M  V30 9340 H 883.337 3.48513 -2.36889 0
M  V30 9341 H 882.012 2.96874 -1.29024 0
M  V30 9342 H 880.919 1.78964 -3.28516 0
M  V30 9343 H 882.252 2.37188 -4.3128 0
M  V30 9344 N 883.904 1.48273 0.534124 0
M  V30 9345 C 884.836 1.5857 1.65494 0
M  V30 9346 C 885.849 0.470266 1.5586 0
M  V30 9347 O 887.038 0.740928 1.62396 0
M  V30 9348 C 884.138 1.49554 3.04117 0
M  V30 9349 C 883.311 2.76066 3.39273 0
M  V30 9350 C 882.37 2.60562 4.57159 0
M  V30 9351 O 881.396 3.34438 4.60587 0
M  V30 9352 N 882.598 1.69906 5.55079 0
M  V30 9353 H 885.363 2.55226 1.57099 0
M  V30 9354 H 882.924 1.44944 0.721303 0
M  V30 9355 H 884.916 1.36882 3.80848 0
M  V30 9356 H 883.486 0.608895 3.06613 0
M  V30 9357 H 882.706 3.03332 2.51761 0
M  V30 9358 H 883.994 3.60006 3.59546 0
M  V30 9359 H 883.392 1.09079 5.55084 0
M  V30 9360 H 881.949 1.63175 6.31044 0
M  V30 9361 N 885.382 -0.782676 1.36792 0
M  V30 9362 C 886.345 -1.8772 1.31507 0
M  V30 9363 C 887.345 -1.59269 0.221349 0
M  V30 9364 O 888.535 -1.67555 0.476544 0
M  V30 9365 C 885.667 -3.24641 1.04025 0
M  V30 9366 H 886.86 -1.9382 2.28853 0
M  V30 9367 H 884.413 -0.981226 1.21662 0
M  V30 9368 H 885.148 -3.24221 0.0716439 0
M  V30 9369 H 884.933 -3.46681 1.8318 0
M  V30 9370 H 886.423 -4.04711 1.02949 0
M  V30 9371 N 886.86 -1.21182 -1.00761 0
M  V30 9372 C 888.276 -0.968607 -1.26847 0
M  V30 9373 C 888.476 0.346561 -1.98497 0
M  V30 9374 O 887.532 1.07287 -2.28573 0
M  V30 9375 C 888.845 -2.1574 -2.09467 0
M  V30 9376 C 890.393 -2.19937 -2.22703 0
M  V30 9377 C 890.868 -3.38328 -3.08704 0
M  V30 9378 N 892.359 -3.38398 -3.16293 0
M  V30 9379 C 893.094 -4.26653 -3.83086 0
M  V30 9380 N 892.59 -5.25101 -4.5193 0
M  V30 9381 N 894.383 -4.14469 -3.797 0
M  V30 9382 H 886.534 -2.05763 -0.526816 0
M  V30 9383 H 888.797 -0.90087 -0.29519 0
M  V30 9384 H 888.503 -3.11034 -1.64167 0
M  V30 9385 H 888.377 -2.14584 -3.10216 0
M  V30 9386 H 890.764 -1.25201 -2.67224 0
M  V30 9387 H 890.845 -2.25139 -1.21433 0
M  V30 9388 H 890.489 -4.33356 -2.64886 0
M  V30 9389 H 890.419 -3.30364 -4.10082 0
M  V30 9390 H 892.91 -2.67149 -2.67282 0
M  V30 9391 H 893.223 -5.8875 -5.00592 0
M  V30 9392 H 891.568 -5.29029 -4.50726 0
M  V30 9393 H 894.759 -3.3682 -3.25069 0
M  V30 9394 H 894.932 -4.83458 -4.31477 0
M  V30 9395 N 888.338 1.20213 -1.01915 0
M  V30 9396 C 889.27 2.2251 -0.549725 0
M  V30 9397 C 890.283 1.58558 0.369235 0
M  V30 9398 O 891.472 1.77715 0.167176 0
M  V30 9399 C 888.572 3.38189 0.219432 0
M  V30 9400 C 887.745 4.31729 -0.702066 0
M  V30 9401 C 886.804 5.26196 0.0199624 0
M  V30 9402 O 885.83 5.65993 -0.60339 0
M  V30 9403 N 887.032 5.65895 1.29397 0
M  V30 9404 H 889.797 2.63412 -1.42948 0
M  V30 9405 H 887.358 1.3478 -0.896987 0
M  V30 9406 H 889.35 3.98392 0.711763 0
M  V30 9407 H 887.92 2.96156 1.00051 0
M  V30 9408 H 887.14 3.69455 -1.37466 0
M  V30 9409 H 888.428 4.91145 -1.3287 0
M  V30 9410 H 887.826 5.35579 1.8213 0
M  V30 9411 H 886.383 6.28395 1.73098 0
M  V30 9412 N 889.816 0.795718 1.36037 0
M  V30 9413 C 890.726 0.199784 2.33748 0
M  V30 9414 C 891.742 -0.651436 1.61345 0
M  V30 9415 O 892.918 -0.565743 1.93291 0
M  V30 9416 C 889.983 -0.650475 3.40543 0
M  V30 9417 C 889.044 0.219974 4.28736 0
M  V30 9418 C 888.277 -0.589798 5.30431 0
M  V30 9419 O 888.5 -1.82532 5.40406 0
M  V30 9420 O 887.434 0.0136187 6.01898 0
M  V30 9421 H 891.26 1.00782 2.8649 0
M  V30 9422 H 888.845 0.557293 1.38617 0
M  V30 9423 H 890.727 -1.13512 4.05824 0
M  V30 9424 H 889.402 -1.4363 2.9009 0
M  V30 9425 H 888.309 0.751516 3.66474 0
M  V30 9426 H 889.642 0.969468 4.82558 0
M  V30 9427 N 891.294 -1.47756 0.548274 0
M  V30 9428 C 892.71 -1.58247 0.207401 0
M  V30 9429 C 892.91 -1.54804 -1.28988 0
M  V30 9430 O 891.966 -1.44673 -2.06944 0
M  V30 9431 C 893.279 -2.89129 0.826142 0
M  V30 9432 C 894.827 -3.02695 0.79655 0
M  V30 9433 C 895.302 -4.36264 1.3942 0
M  V30 9434 N 896.793 -4.42877 1.35698 0
M  V30 9435 C 897.528 -5.44773 1.78913 0
M  V30 9436 N 897.024 -6.53528 2.29942 0
M  V30 9437 N 898.817 -5.35765 1.70038 0
M  V30 9438 H 890.968 -1.48236 1.52117 0
M  V30 9439 H 893.231 -0.704957 0.633829 0
M  V30 9440 H 892.937 -2.97358 1.87806 0
M  V30 9441 H 892.811 -3.75891 0.313916 0
M  V30 9442 H 895.198 -2.94067 -0.246655 0
M  V30 9443 H 895.279 -2.17496 1.34644 0
M  V30 9444 H 894.923 -4.45646 2.43642 0
M  V30 9445 H 894.853 -5.20179 0.819827 0
M  V30 9446 H 897.344 -3.64874 0.983623 0
M  V30 9447 H 897.657 -7.27441 2.60863 0
M  V30 9448 H 896.002 -6.54442 2.33947 0
M  V30 9449 H 899.193 -4.49699 1.29955 0
M  V30 9450 H 899.366 -6.1504 2.04035 0
M  V30 9451 N 892.772 -0.284283 -1.55015 0
M  V30 9452 C 893.682 0.60906 -2.26556 0
M  V30 9453 C 894.698 1.16246 -1.29472 0
M  V30 9454 O 895.874 1.1908 -1.62425 0
M  V30 9455 C 892.939 1.77246 -2.97968 0
M  V30 9456 C 892 1.25482 -4.10552 0
M  V30 9457 C 891.233 2.36277 -4.78549 0
M  V30 9458 O 891.456 3.55829 -4.45805 0
M  V30 9459 O 890.39 2.03914 -5.66306 0
M  V30 9460 H 894.216 0.0292298 -3.03686 0
M  V30 9461 H 891.801 -0.0513466 -1.49312 0
M  V30 9462 H 893.683 2.45062 -3.42815 0
M  V30 9463 H 892.358 2.33921 -2.23747 0
M  V30 9464 H 891.265 0.542859 -3.7014 0
M  V30 9465 H 892.598 0.733708 -4.86701 0
M  V30 9466 N 894.251 1.57596 -0.0117121 0
M  V30 9467 C 895.667 1.55837 0.344506 0
M  V30 9468 C 895.867 1.01557 1.74036 0
M  V30 9469 O 894.923 0.654563 2.43868 0
M  V30 9470 C 896.236 2.99973 0.209023 0
M  V30 9471 C 897.784 3.11717 0.283092 0
M  V30 9472 C 898.259 4.57659 0.176599 0
M  V30 9473 N 899.75 4.62608 0.234133 0
M  V30 9474 C 900.485 5.73132 0.175252 0
M  V30 9475 N 899.981 6.92768 0.0662888 0
M  V30 9476 N 901.774 5.61638 0.227972 0
M  V30 9477 H 893.925 1.91215 -0.924692 0
M  V30 9478 H 896.188 0.878807 -0.355531 0
M  V30 9479 H 895.894 3.4357 -0.751826 0
M  V30 9480 H 895.768 3.64075 0.98635 0
M  V30 9481 H 898.155 2.68043 1.23439 0
M  V30 9482 H 898.236 2.50369 -0.52431 0
M  V30 9483 H 897.88 5.02011 -0.771205 0
M  V30 9484 H 897.81 5.16967 1.00264 0
M  V30 9485 H 900.301 3.76549 0.319203 0
M  V30 9486 H 900.614 7.72795 0.0275765 0
M  V30 9487 H 898.959 6.94993 0.0317502 0
M  V30 9488 H 902.15 4.67063 0.311377 0
M  V30 9489 H 902.323 6.47754 0.178621 0
M  V30 9490 N 895.729 -0.261212 1.5542 0
M  V30 9491 C 896.957 -1.00916 1.8062 0
M  V30 9492 C 897.372 -1.79494 0.585444 0
M  V30 9493 O 896.729 -1.76974 -0.445702 0
M  V30 9494 C 896.78 -1.95841 3.03856 0
M  V30 9495 O 896.501 -1.20445 4.21218 0
M  V30 9496 C 898.002 -2.82352 3.41749 0
M  V30 9497 H 895.222 -0.297596 0.601397 0
M  V30 9498 H 897.766 -0.288427 2.02456 0
M  V30 9499 H 895.921 -2.63361 2.84112 0
M  V30 9500 H 896.335 -1.84528 4.90968 0
M  V30 9501 H 897.809 -3.44733 4.31118 0
M  V30 9502 H 898.286 -3.5273 2.61683 0
M  V30 9503 H 898.892 -2.20306 3.63793 0
M  V30 9504 N 897.207 -1.48554 -0.526253 0
M  V30 9505 C 898.618 -1.50256 -1.10815 0
M  V30 9506 C 898.969 -0.274445 -1.94271 0
M  V30 9507 O 898.094 0.618094 -2.07385 0
M  V30 9508 C 898.689 -2.72264 -2.01638 0
M  V30 9509 C 897.248 -2.76826 -2.55038 0
M  V30 9510 C 896.395 -2.43823 -1.32081 0
M  V30 9511 H 899.346 -1.55616 -0.31133 0
M  V30 9512 H 899.367 -2.50993 -2.85977 0
M  V30 9513 H 898.879 -3.61632 -1.4087 0
M  V30 9514 H 896.98 -1.91676 -3.19517 0
M  V30 9515 H 897.093 -3.78351 -2.93917 0
M  V30 9516 H 895.457 -1.95058 -1.63781 0
M  V30 9517 H 896.24 -3.35436 -0.730596 0
M  V30 9518 N 898.685 0.775411 -1.37205 0
M  V30 9519 C 899.925 1.54689 -1.33606 0
M  V30 9520 C 900.289 1.91834 0.0798549 0
M  V30 9521 O 901.49 2.67722 0.240531 0
M  V30 9522 C 899.761 2.7804 -2.24563 0
M  V30 9523 S 901.32 3.68143 -2.38781 0
M  V30 9524 H 898.138 0.529631 -0.474355 0
M  V30 9525 H 900.74 0.912128 -1.72918 0
M  V30 9526 H 899.444 2.48825 -3.26365 0
M  V30 9527 H 898.975 3.46479 -1.86322 0
M  V30 9528 H 900.99 4.69843 -1.59568 0
M  V30 9529 N 900.163 1.21714 1.00117 0
M  V30 9530 C 901.126 0.981338 2.07129 0
M  V30 9531 C 902.126 -0.0491116 1.60725 0
M  V30 9532 O 903.316 0.188555 1.73177 0
M  V30 9533 C 900.448 0.480608 3.37495 0
M  V30 9534 H 901.641 1.93075 2.29482 0
M  V30 9535 H 899.194 1.03467 1.17151 0
M  V30 9536 H 899.929 -0.473552 3.20824 0
M  V30 9537 H 899.714 1.22393 3.72508 0
M  V30 9538 H 901.204 0.33561 4.16249 0
M  V30 9539 N 901.641 -1.19671 1.02551 0
M  V30 9540 C 902.551 -2.26441 0.613329 0
M  V30 9541 C 903.567 -1.70375 -0.353339 0
M  V30 9542 O 904.743 -2.0028 -0.212064 0
M  V30 9543 C 901.808 -3.46684 -0.0329028 0
M  V30 9544 C 900.869 -4.17945 0.980837 0
M  V30 9545 C 900.102 -5.32448 0.36535 0
M  V30 9546 O 900.325 -5.64291 -0.832596 0
M  V30 9547 O 899.259 -5.92012 1.08652 0
M  V30 9548 H 903.085 -2.63932 1.50246 0
M  V30 9549 H 900.67 -1.2646 0.795502 0
M  V30 9550 H 902.552 -4.1956 -0.393395 0
M  V30 9551 H 901.227 -3.1105 -0.896089 0
M  V30 9552 H 900.134 -3.47204 1.39286 0
M  V30 9553 H 901.467 -4.57542 1.81428 0
M  V30 9554 N 903.119 -0.802921 -1.35613 0
M  V30 9555 C 904.347 -0.39393 -2.03115 0
M  V30 9556 C 904.762 0.993961 -1.60517 0
M  V30 9557 O 904.119 1.63984 -0.800973 0
M  V30 9558 C 904.17 -0.463486 -3.58516 0
M  V30 9559 O 903.891 -1.79666 -3.99565 0
M  V30 9560 C 905.392 -0.0468377 -4.43275 0
M  V30 9561 H 902.612 -0.160519 -0.651517 0
M  V30 9562 H 905.156 -1.08552 -1.73311 0
M  V30 9563 H 903.311 0.179821 -3.86982 0
M  V30 9564 H 903.725 -1.75688 -4.942 0
M  V30 9565 H 905.199 -0.146626 -5.51805 0
M  V30 9566 H 905.676 1.00741 -4.2749 0
M  V30 9567 H 906.282 -0.663158 -4.20098 0
M  V30 9568 N 904.597 1.47463 -0.556102 0
M  V30 9569 C 906.008 1.86298 -0.122429 0
M  V30 9570 C 906.359 1.46285 1.30749 0
M  V30 9571 O 905.484 0.865405 1.98342 0
M  V30 9572 C 906.079 3.38115 -0.215407 0
M  V30 9573 C 904.638 3.76046 0.163223 0
M  V30 9574 C 903.785 2.71515 -0.563466 0
M  V30 9575 H 906.736 1.38996 -0.765888 0
M  V30 9576 H 906.757 3.76263 0.566271 0
M  V30 9577 H 906.269 3.67207 -1.25622 0
M  V30 9578 H 904.37 3.5257 1.20519 0
M  V30 9579 H 904.483 4.78705 -0.194568 0
M  V30 9580 H 902.847 2.54699 -0.00667879 0
M  V30 9581 H 903.63 3.03449 -1.60542 0
M  V30 9582 N 906.075 0.2925 1.54862 0
M  V30 9583 C 907.038 -0.574423 2.21885 0
M  V30 9584 C 908.038 -1.06791 1.20218 0
M  V30 9585 O 909.228 -0.9653 1.45009 0
M  V30 9586 C 906.36 -1.79438 2.89853 0
M  V30 9587 H 907.553 0.0110319 2.99898 0
M  V30 9588 H 905.106 0.043256 1.5624 0
M  V30 9589 H 905.841 -2.4199 2.15897 0
M  V30 9590 H 905.626 -1.44827 3.64373 0
M  V30 9591 H 907.116 -2.41048 3.41007 0
M  V30 9592 N 907.553 -1.57587 0.0200696 0
M  V30 9593 C 908.463 -2.13119 -0.980676 0
M  V30 9594 C 909.479 -1.08124 -1.36328 0
M  V30 9595 O 910.655 -1.40134 -1.44653 0
M  V30 9596 C 907.72 -2.63991 -2.24743 0
M  V30 9597 C 906.781 -3.83667 -1.9261 0
M  V30 9598 C 906.014 -4.32103 -3.13246 0
M  V30 9599 O 906.237 -3.79758 -4.25606 0
M  V30 9600 O 905.171 -5.24047 -2.96072 0
M  V30 9601 H 908.997 -2.98887 -0.538528 0
M  V30 9602 H 906.582 -1.48055 -0.19999 0
M  V30 9603 H 908.464 -2.9682 -2.99125 0
M  V30 9604 H 907.139 -1.81311 -2.68157 0
M  V30 9605 H 906.046 -3.55778 -1.15641 0
M  V30 9606 H 907.379 -4.67482 -1.54019 0
M  V30 9607 N 909.032 0.252966 -1.55557 0
M  V30 9608 C 910.443 0.822503 -1.67606 0
M  V30 9609 C 910.794 1.86265 -0.616411 0
M  V30 9610 O 909.919 2.15082 0.238447 0
M  V30 9611 C 910.514 1.49866 -3.03852 0
M  V30 9612 C 909.073 2.01597 -3.17861 0
M  V30 9613 C 908.22 0.864943 -2.63465 0
M  V30 9614 H 911.171 0.0288958 -1.58674 0
M  V30 9615 H 911.192 2.36646 -2.97958 0
M  V30 9616 H 910.704 0.741378 -3.80953 0
M  V30 9617 H 908.805 2.80224 -2.45571 0
M  V30 9618 H 908.918 2.21752 -4.24692 0
M  V30 9619 H 907.282 1.2638 -2.21134 0
M  V30 9620 H 908.065 0.120847 -3.43087 0
M  V30 9621 N 910.51 1.48831 0.518367 0
M  V30 9622 C 911.756 1.57672 1.27543 0
M  V30 9623 C 912.089 0.254915 1.9252 0
M  V30 9624 O 911.364 -0.740107 1.79868 0
M  V30 9625 C 911.647 2.72345 2.35585 0
M  V30 9626 C 911.5 4.14267 1.75224 0
M  V30 9627 C 912.819 2.82726 3.37274 0
M  V30 9628 H 909.938 0.573926 0.462361 0
M  V30 9629 H 912.58 1.8105 0.576267 0
M  V30 9630 H 910.73 2.52543 2.95219 0
M  V30 9631 H 912.402 4.45539 1.19551 0
M  V30 9632 H 910.645 4.20724 1.05706 0
M  V30 9633 H 911.316 4.90345 2.53507 0
M  V30 9634 H 913.792 3.00699 2.8761 0
M  V30 9635 H 912.668 3.6467 4.10252 0
M  V30 9636 H 912.929 1.9136 3.9854 0
M  V30 9637 N 911.988 -0.768124 1.37614 0
M  V30 9638 C 913.265 -1.51637 1.23554 0
M  V30 9639 C 913.645 -2.1042 -0.169331 0
M  V30 9640 O 912.993 -1.95834 -1.17735 0
M  V30 9641 C 913.203 -2.59436 2.33439 0
M  V30 9642 C 914.551 -3.2674 2.71157 0
M  V30 9643 O 915.575 -2.69733 2.32642 0
M  V30 9644 O 914.434 -4.29814 3.37524 0
M  V30 9645 H 911.528 -0.671778 0.482332 0
M  V30 9646 H 914.074 -0.804779 1.49403 0
M  V30 9647 H 912.846 -2.14146 3.27502 0
M  V30 9648 H 912.469 -3.38192 2.09073 0
M  V30 9649 N 913.466 -1.22244 -0.994698 0
M  V30 9650 C 914.712 -1.05752 -1.73747 0
M  V30 9651 C 915.067 0.403416 -1.88123 0
M  V30 9652 O 914.36 1.29511 -1.412 0
M  V30 9653 C 914.554 -1.70014 -3.14372 0
M  V30 9654 C 914.383 -3.22205 -3.1371 0
M  V30 9655 C 913.153 -3.91301 -3.19705 0
M  V30 9656 C 915.351 -4.19163 -2.98005 0
M  V30 9657 N 913.333 -5.30594 -3.08778 0
M  V30 9658 C 914.704 -5.45274 -2.95087 0
M  V30 9659 C 916.759 -4.10078 -2.82383 0
M  V30 9660 C 915.462 -6.63345 -2.78146 0
M  V30 9661 C 917.488 -5.27797 -2.66803 0
M  V30 9662 C 916.85 -6.52826 -2.6457 0
M  V30 9663 H 912.949 -0.441393 -0.64552 0
M  V30 9664 H 915.533 -1.54757 -1.18146 0
M  V30 9665 H 913.704 -1.23562 -3.68221 0
M  V30 9666 H 915.436 -1.46631 -3.77202 0
M  V30 9667 H 912.191 -3.42289 -3.27315 0
M  V30 9668 H 912.615 -6.0358 -3.06628 0
M  V30 9669 H 917.257 -3.14201 -2.82909 0
M  V30 9670 H 914.975 -7.59373 -2.76367 0
M  V30 9671 H 918.561 -5.22598 -2.557 0
M  V30 9672 H 917.441 -7.42383 -2.5266 0
M  V30 9673 N 914.944 1.19125 -1.03184 0
M  V30 9674 C 915.907 2.20662 -0.619766 0
M  V30 9675 C 916.907 1.57621 0.318179 0
M  V30 9676 O 918.097 1.73885 0.104783 0
M  V30 9677 C 915.229 3.40774 0.0926696 0
M  V30 9678 H 916.422 2.58633 -1.5182 0
M  V30 9679 H 913.975 1.32855 -0.823364 0
M  V30 9680 H 914.71 3.08324 1.00531 0
M  V30 9681 H 914.495 3.87766 -0.581344 0
M  V30 9682 H 915.985 4.15977 0.367792 0
M  V30 9683 N 916.422 0.810101 1.35185 0
M  V30 9684 C 917.669 0.392117 1.98667 0
M  V30 9685 C 917.997 -1.0416 1.64259 0
M  V30 9686 O 917.252 -1.73795 0.899647 0
M  V30 9687 C 917.551 0.526561 3.535 0
M  V30 9688 C 917.217 1.92411 4.07785 0
M  V30 9689 C 915.879 2.30644 4.22323 0
M  V30 9690 C 918.231 2.83827 4.37141 0
M  V30 9691 C 915.559 3.59655 4.63536 0
M  V30 9692 C 917.911 4.12287 4.79794 0
M  V30 9693 C 916.575 4.50515 4.92536 0
M  V30 9694 H 915.845 0.143486 0.726975 0
M  V30 9695 H 918.492 1.03157 1.61341 0
M  V30 9696 H 916.797 -0.19633 3.91308 0
M  V30 9697 H 918.494 0.183871 4.00578 0
M  V30 9698 H 915.084 1.61707 3.96924 0
M  V30 9699 H 919.268 2.55536 4.25459 0
M  V30 9700 H 914.524 3.89117 4.71591 0
M  V30 9701 H 918.698 4.83221 5.01468 0
M  V30 9702 H 916.325 5.50535 5.24229 0
M  V30 9703 N 917.9 -1.47166 0.563914 0
M  V30 9704 C 918.863 -2.28571 -0.169624 0
M  V30 9705 C 919.863 -1.37331 -0.836467 0
M  V30 9706 O 921.053 -1.59896 -0.6913 0
M  V30 9707 C 918.185 -3.17201 -1.24886 0
M  V30 9708 H 919.378 -2.94896 0.545539 0
M  V30 9709 H 916.931 -1.52966 0.321121 0
M  V30 9710 H 917.666 -2.55582 -1.99621 0
M  V30 9711 H 917.451 -3.84356 -0.775426 0
M  V30 9712 H 918.941 -3.7852 -1.76388 0
M  V30 9713 N 919.378 -0.300708 -1.54705 0
M  V30 9714 C 920.31 0.609179 -2.20956 0
M  V30 9715 C 921.323 1.09776 -1.20221 0
M  V30 9716 O 922.512 1.01527 -1.46815 0
M  V30 9717 C 919.612 1.84595 -2.84214 0
M  V30 9718 C 918.785 1.49991 -4.10879 0
M  V30 9719 C 917.844 2.5918 -4.57943 0
M  V30 9720 O 916.87 2.24285 -5.23149 0
M  V30 9721 N 918.072 3.89714 -4.30236 0
M  V30 9722 H 920.837 0.0420111 -2.99671 0
M  V30 9723 H 918.398 -0.122896 -1.61433 0
M  V30 9724 H 920.39 2.56988 -3.12633 0
M  V30 9725 H 918.96 2.32152 -2.09342 0
M  V30 9726 H 918.18 0.608637 -3.89473 0
M  V30 9727 H 919.468 1.24409 -4.93356 0
M  V30 9728 H 918.866 4.20874 -3.77997 0
M  V30 9729 H 917.423 4.58406 -4.63365 0
M  V30 9730 N 920.856 1.57574 -0.0284266 0
M  V30 9731 C 922.272 1.56194 0.327958 0
M  V30 9732 C 922.472 1.03397 1.72949 0
M  V30 9733 O 921.528 0.680392 2.4316 0
M  V30 9734 C 922.841 3.00177 0.177196 0
M  V30 9735 C 924.389 3.12 0.250014 0
M  V30 9736 C 924.864 4.57821 0.128049 0
M  V30 9737 N 926.355 4.6283 0.185054 0
M  V30 9738 C 927.09 5.73286 0.114454 0
M  V30 9739 N 926.586 6.928 -0.00719225 0
M  V30 9740 N 928.379 5.61848 0.16839 0
M  V30 9741 H 920.53 1.90224 -0.944921 0
M  V30 9742 H 922.793 0.874987 -0.364832 0
M  V30 9743 H 922.499 3.42753 -0.788224 0
M  V30 9744 H 922.373 3.65101 0.94768 0
M  V30 9745 H 924.76 2.69337 1.20589 0
M  V30 9746 H 924.841 2.49799 -0.550835 0
M  V30 9747 H 924.485 5.01165 -0.824407 0
M  V30 9748 H 924.415 5.18001 0.947753 0
M  V30 9749 H 926.906 3.76867 0.279247 0
M  V30 9750 H 927.219 7.72781 -0.0543903 0
M  V30 9751 H 925.564 6.94987 -0.0419648 0
M  V30 9752 H 928.755 4.67367 0.261821 0
M  V30 9753 H 928.928 6.47907 0.109908 0
M  V30 9754 N 922.334 -0.244713 1.55689 0
M  V30 9755 C 923.244 -1.32447 1.93636 0
M  V30 9756 C 924.26 -1.52541 0.837086 0
M  V30 9757 O 925.436 -1.66121 1.13867 0
M  V30 9758 C 922.501 -2.65864 2.22525 0
M  V30 9759 C 921.562 -2.54273 3.45896 0
M  V30 9760 C 920.795 -3.81327 3.73397 0
M  V30 9761 O 921.018 -4.83307 3.02936 0
M  V30 9762 O 919.952 -3.79829 4.66919 0
M  V30 9763 H 923.778 -1.03255 2.85608 0
M  V30 9764 H 921.363 -0.445652 1.42598 0
M  V30 9765 H 923.245 -3.447 2.42404 0
M  V30 9766 H 921.92 -2.94784 1.33731 0
M  V30 9767 H 920.827 -1.73715 3.31321 0
M  V30 9768 H 922.16 -2.30297 4.34999 0
M  V30 9769 N 923.813 -1.49104 -0.510467 0
M  V30 9770 C 924.743 -1.67981 -1.62187 0
M  V30 9771 C 925.724 -0.528529 -1.6168 0
M  V30 9772 O 926.909 -0.763305 -1.7857 0
M  V30 9773 C 924.039 -1.73755 -3.0071 0
M  V30 9774 C 922.993 -2.88579 -3.1608 0
M  V30 9775 C 922.319 -2.79457 -4.5586 0
M  V30 9776 C 923.619 -4.29638 -2.97 0
M  V30 9777 H 925.313 -2.61029 -1.46643 0
M  V30 9778 H 922.859 -1.25615 -0.704042 0
M  V30 9779 H 924.812 -1.85548 -3.78352 0
M  V30 9780 H 923.536 -0.772996 -3.17321 0
M  V30 9781 H 922.195 -2.76372 -2.40861 0
M  V30 9782 H 921.843 -1.80929 -4.69333 0
M  V30 9783 H 921.543 -3.56518 -4.67086 0
M  V30 9784 H 923.067 -2.93245 -5.35574 0
M  V30 9785 H 924.481 -4.42575 -3.64418 0
M  V30 9786 H 922.878 -5.07847 -3.19704 0
M  V30 9787 H 923.948 -4.44741 -1.93219 0
M  V30 9788 N 925.291 0.760815 -1.38019 0
M  V30 9789 C 926.221 1.88811 -1.37377 0
M  V30 9790 C 927.202 1.68388 -0.240737 0
M  V30 9791 O 928.387 1.89086 -0.442739 0
M  V30 9792 C 925.517 3.26244 -1.1909 0
M  V30 9793 C 924.471 3.61254 -2.29521 0
M  V30 9794 C 923.797 4.97346 -1.96345 0
M  V30 9795 C 925.097 3.66874 -3.71753 0
M  V30 9796 H 926.791 1.89606 -2.31711 0
M  V30 9797 H 924.337 0.910818 -1.11535 0
M  V30 9798 H 926.29 4.04755 -1.17267 0
M  V30 9799 H 925.014 3.2591 -0.212152 0
M  V30 9800 H 923.673 2.85057 -2.30517 0
M  V30 9801 H 923.321 4.93564 -0.969728 0
M  V30 9802 H 923.021 5.21739 -2.703 0
M  V30 9803 H 924.545 5.78244 -1.96129 0
M  V30 9804 H 925.959 4.35514 -3.72828 0
M  V30 9805 H 924.356 4.02772 -4.44853 0
M  V30 9806 H 925.426 2.67273 -4.0459 0
M  V30 9807 N 926.769 1.22769 0.988202 0
M  V30 9808 C 927.679 1.01844 2.11341 0
M  V30 9809 C 928.695 -0.0346937 1.73965 0
M  V30 9810 O 929.871 0.159061 2.00771 0
M  V30 9811 C 926.936 0.603837 3.41401 0
M  V30 9812 C 925.997 1.73113 3.92849 0
M  V30 9813 C 925.23 1.33621 5.16702 0
M  V30 9814 O 925.453 0.217041 5.69987 0
M  V30 9815 O 924.387 2.15444 5.62021 0
M  V30 9816 H 928.213 1.96127 2.31879 0
M  V30 9817 H 925.798 1.01405 1.09715 0
M  V30 9818 H 927.68 0.383196 4.19654 0
M  V30 9819 H 926.355 -0.310082 3.22211 0
M  V30 9820 H 925.262 2.00634 3.15748 0
M  V30 9821 H 926.595 2.62308 4.1648 0
M  V30 9822 N 928.247 -1.18576 1.03814 0
M  V30 9823 C 929.194 -2.2212 0.626988 0
M  V30 9824 C 930.164 -1.62064 -0.363912 0
M  V30 9825 O 931.349 -1.89041 -0.258469 0
M  V30 9826 C 928.489 -3.45099 -0.00650133 0
M  V30 9827 C 927.602 -4.19503 1.03156 0
M  V30 9828 C 926.737 -5.29932 0.366852 0
M  V30 9829 C 925.776 -5.96104 1.39018 0
M  V30 9830 N 924.913 -6.98076 0.750625 0
M  V30 9831 H 929.753 -2.56646 1.51449 0
M  V30 9832 H 927.29 -1.26084 0.757702 0
M  V30 9833 H 929.248 -4.15363 -0.391108 0
M  V30 9834 H 927.878 -3.11201 -0.857536 0
M  V30 9835 H 926.93 -3.48092 1.53414 0
M  V30 9836 H 928.242 -4.64843 1.80893 0
M  V30 9837 H 927.396 -6.06657 -0.0720979 0
M  V30 9838 H 926.135 -4.85687 -0.442631 0
M  V30 9839 H 925.14 -5.18122 1.8393 0
M  V30 9840 H 926.365 -6.42432 2.20132 0
M  V30 9841 H 924.311 -6.55989 -0.0385981 0
M  V30 9842 H 924.228 -7.41655 1.46574 0
M  V30 9843 H 925.496 -7.78776 0.335986 0
M  V30 9844 N 929.725 -0.817259 -1.34754 0
M  V30 9845 C 930.657 -0.192695 -2.28389 0
M  V30 9846 C 931.67 0.614167 -1.50771 0
M  V30 9847 O 932.859 0.444776 -1.7287 0
M  V30 9848 C 929.959 0.748929 -3.30521 0
M  V30 9849 C 929.132 -0.0138762 -4.37398 0
M  V30 9850 C 928.191 0.847825 -5.19325 0
M  V30 9851 O 927.217 0.29487 -5.68436 0
M  V30 9852 N 928.419 2.16843 -5.38479 0
M  V30 9853 H 931.184 -0.997122 -2.82626 0
M  V30 9854 H 928.745 -0.673696 -1.47217 0
M  V30 9855 H 930.737 1.32987 -3.82226 0
M  V30 9856 H 929.307 1.45412 -2.7672 0
M  V30 9857 H 928.527 -0.776093 -3.86485 0
M  V30 9858 H 929.815 -0.539191 -5.05935 0
M  V30 9859 H 929.213 2.64148 -5.00242 0
M  V30 9860 H 927.77 2.69835 -5.93323 0
M  V30 9861 N 931.203 1.46865 -0.571711 0
M  V30 9862 C 932.451 2.0203 -0.0530022 0
M  V30 9863 C 932.772 1.44687 1.30731 0
M  V30 9864 O 932.042 0.627429 1.85581 0
M  V30 9865 H 930.622 0.746815 -0.0166035 0
M  V30 9866 H 933.284 1.80099 -0.745003 0
M  V30 9867 H 932.38 3.12091 0.0242538 0
M  V30 9868 N 932.681 0.308908 1.54543 0
M  V30 9869 C 933.93 -0.298854 1.99474 0
M  V30 9870 C 934.243 -1.54393 1.20093 0
M  V30 9871 O 935.449 -2.22677 1.55329 0
M  V30 9872 C 933.905 -0.58303 3.55146 0
M  V30 9873 C 933.513 0.644157 4.43345 0
M  V30 9874 C 935.257 -1.15155 4.08582 0
M  V30 9875 C 933.164 0.332694 5.90463 0
M  V30 9876 H 932.094 -0.115445 0.74511 0
M  V30 9877 H 934.745 0.418848 1.78656 0
M  V30 9878 H 933.127 -1.36053 3.71894 0
M  V30 9879 H 934.301 1.42012 4.38371 0
M  V30 9880 H 932.616 1.13186 4.00722 0
M  V30 9881 H 935.213 -1.39896 5.16075 0
M  V30 9882 H 935.556 -2.09632 3.59667 0
M  V30 9883 H 936.089 -0.435571 3.95408 0
M  V30 9884 H 932.828 1.24624 6.43544 0
M  V30 9885 H 932.348 -0.405844 5.98425 0
M  V30 9886 H 934.027 -0.0628545 6.46969 0
M  V30 9887 N 934.159 -1.57557 0.0367827 0
M  V30 9888 C 935.436 -1.83427 -0.679261 0
M  V30 9889 C 935.816 -0.922274 -1.89888 0
M  V30 9890 O 935.164 0.02025 -2.28491 0
M  V30 9891 C 935.374 -3.32823 -1.05022 0
M  V30 9892 C 936.722 -3.99486 -1.43861 0
M  V30 9893 O 937.746 -3.37364 -1.14297 0
M  V30 9894 O 936.605 -5.0899 -1.98977 0
M  V30 9895 H 933.699 -0.756581 -0.333936 0
M  V30 9896 H 936.245 -1.69575 0.0650494 0
M  V30 9897 H 935.017 -3.90874 -0.182509 0
M  V30 9898 H 934.64 -3.5181 -1.85244 0
M  V30 9899 N 935.637 0.236453 -1.55816 0
M  V30 9900 C 936.57 1.3196 -1.86177 0
M  V30 9901 C 937.548 1.459 -0.717769 0
M  V30 9902 O 938.732 1.61949 -0.964606 0
M  V30 9903 C 935.859 2.69183 -2.05568 0
M  V30 9904 C 934.905 2.72338 -3.28229 0
M  V30 9905 S 935.738 2.27898 -4.84585 0
M  V30 9906 C 936.894 3.67025 -5.06994 0
M  V30 9907 H 937.127 1.06011 -2.77757 0
M  V30 9908 H 934.66 0.437961 -1.48058 0
M  V30 9909 H 936.618 3.48191 -2.17423 0
M  V30 9910 H 935.279 2.92365 -1.14811 0
M  V30 9911 H 934.472 3.7314 -3.38795 0
M  V30 9912 H 934.074 2.01382 -3.15153 0
M  V30 9913 H 936.366 4.62604 -4.94979 0
M  V30 9914 H 937.309 3.61385 -6.08939 0
M  V30 9915 H 937.717 3.60022 -4.34792 0
M  V30 9916 N 937.115 1.49373 0.502552 0
M  V30 9917 C 938.062 1.65927 1.60427 0
M  V30 9918 C 939.032 0.500768 1.58371 0
M  V30 9919 O 940.217 0.727606 1.76382 0
M  V30 9920 C 937.357 1.73043 2.9858 0
M  V30 9921 C 936.47 3.00187 3.10663 0
M  V30 9922 C 935.605 2.98292 4.3954 0
M  V30 9923 C 934.644 4.20022 4.4525 0
M  V30 9924 N 933.781 4.16046 5.65553 0
M  V30 9925 H 938.621 2.59998 1.45619 0
M  V30 9926 H 936.158 1.28912 0.708519 0
M  V30 9927 H 938.116 1.7515 3.78653 0
M  V30 9928 H 936.746 0.824397 3.12095 0
M  V30 9929 H 935.798 3.07699 2.23663 0
M  V30 9930 H 937.11 3.9018 3.10742 0
M  V30 9931 H 936.264 2.98953 5.27932 0
M  V30 9932 H 935.003 2.06075 4.42023 0
M  V30 9933 H 934.008 4.19607 3.5526 0
M  V30 9934 H 935.233 5.13431 4.44484 0
M  V30 9935 H 933.179 3.26665 5.68881 0
M  V30 9936 H 933.096 4.99773 5.67242 0
M  V30 9937 H 934.364 4.20807 6.56156 0
M  V30 9938 N 938.594 -0.753485 1.38421 0
M  V30 9939 C 939.526 -1.87692 1.31547 0
M  V30 9940 C 940.539 -1.612 0.227671 0
M  V30 9941 O 941.728 -1.71778 0.485238 0
M  V30 9942 C 938.828 -3.23329 1.01545 0
M  V30 9943 C 938.001 -3.77324 2.21236 0
M  V30 9944 C 937.06 -4.91478 1.87977 0
M  V30 9945 O 936.086 -5.06106 2.60472 0
M  V30 9946 N 937.288 -5.74466 0.834796 0
M  V30 9947 H 940.053 -1.94099 2.28354 0
M  V30 9948 H 937.614 -0.933421 1.32283 0
M  V30 9949 H 939.606 -3.9724 0.773477 0
M  V30 9950 H 938.176 -3.12307 0.135334 0
M  V30 9951 H 937.396 -2.94978 2.61498 0
M  V30 9952 H 938.684 -4.10131 3.01115 0
M  V30 9953 H 938.082 -5.65217 0.233606 0
M  V30 9954 H 936.639 -6.48524 0.652703 0
M  V30 9955 N 940.072 -1.23292 -0.981677 0
M  V30 9956 C 940.982 -1.02964 -2.10798 0
M  V30 9957 C 941.998 0.0254674 -1.73981 0
M  V30 9958 O 943.174 -0.169706 -2.00684 0
M  V30 9959 C 940.239 -0.621934 -3.41076 0
M  V30 9960 C 939.3 -1.75194 -3.91926 0
M  V30 9961 C 938.533 -1.36359 -5.15986 0
M  V30 9962 O 938.756 -0.247265 -5.69864 0
M  V30 9963 O 937.69 -2.18421 -5.60871 0
M  V30 9964 H 941.516 -1.97354 -2.30836 0
M  V30 9965 H 939.101 -1.01986 -1.09175 0
M  V30 9966 H 940.983 -0.405446 -4.19445 0
M  V30 9967 H 939.658 0.29299 -3.22371 0
M  V30 9968 H 938.565 -2.02305 -3.1468 0
M  V30 9969 H 939.898 -2.64513 -4.15083 0
M  V30 9970 N 941.55 1.18024 -1.04442 0
M  V30 9971 C 942.483 2.20623 -0.583171 0
M  V30 9972 C 943.461 1.57994 0.384262 0
M  V30 9973 O 944.645 1.86135 0.297673 0
M  V30 9974 C 941.772 3.38378 0.147561 0
M  V30 9975 C 940.818 4.19423 -0.773711 0
M  V30 9976 S 941.651 4.85534 -2.25869 0
M  V30 9977 C 942.807 6.06686 -1.53891 0
M  V30 9978 H 943.04 2.59406 -1.45244 0
M  V30 9979 H 940.573 1.28518 -0.855708 0
M  V30 9980 H 942.531 4.06621 0.562988 0
M  V30 9981 H 941.192 2.97998 0.992765 0
M  V30 9982 H 940.385 5.03568 -0.208694 0
M  V30 9983 H 939.987 3.56579 -1.12816 0
M  V30 9984 H 942.279 6.72347 -0.834045 0
M  V30 9985 H 943.222 6.67702 -2.35755 0
M  V30 9986 H 943.63 5.55031 -1.02961 0
M  V30 9987 N 943.028 0.824394 1.34319 0
M  V30 9988 C 943.938 0.24932 2.33271 0
M  V30 9989 C 944.954 -0.617066 1.62691 0
M  V30 9990 O 946.13 -0.524616 1.94447 0
M  V30 9991 C 943.195 -0.578094 3.41846 0
M  V30 9992 C 942.256 0.310866 4.28173 0
M  V30 9993 C 941.489 -0.477153 5.31563 0
M  V30 9994 O 941.712 -1.71028 5.44156 0
M  V30 9995 O 940.646 0.141287 6.01734 0
M  V30 9996 H 944.472 1.06837 2.84288 0
M  V30 9997 H 942.057 0.58657 1.37403 0
M  V30 9998 H 943.939 -1.04878 4.0814 0
M  V30 9999 H 942.614 -1.37444 2.93071 0
M  V30 10000 H 941.521 0.829081 3.64797 0
M  V30 10001 H 942.854 1.07161 4.80393 0
M  V30 10002 N 944.506 -1.46559 0.579492 0
M  V30 10003 C 945.438 -2.28383 -0.19337 0
M  V30 10004 C 946.451 -1.38324 -0.858511 0
M  V30 10005 O 947.64 -1.62952 -0.728615 0
M  V30 10006 C 944.74 -3.13262 -1.29306 0
M  V30 10007 C 943.913 -4.31426 -0.720459 0
M  V30 10008 C 942.972 -4.97728 -1.70744 0
M  V30 10009 O 941.998 -5.55423 -1.24476 0
M  V30 10010 N 943.2 -4.94445 -3.04146 0
M  V30 10011 H 945.965 -2.95353 0.508611 0
M  V30 10012 H 943.526 -1.56436 0.417046 0
M  V30 10013 H 945.518 -3.54483 -1.95254 0
M  V30 10014 H 944.088 -2.48388 -1.89795 0
M  V30 10015 H 943.308 -3.94028 0.116398 0
M  V30 10016 H 944.596 -5.07808 -0.31763 0
M  V30 10017 H 943.994 -4.4881 -3.44363 0
M  V30 10018 H 942.551 -5.39616 -3.65592 0
M  V30 10019 N 945.984 -0.3171 -1.54377 0
M  V30 10020 C 947.4 0.035766 -1.5956 0
M  V30 10021 C 947.6 1.51038 -1.33378 0
M  V30 10022 O 946.656 2.26546 -1.11505 0
M  V30 10023 C 947.969 -0.376652 -2.98332 0
M  V30 10024 C 949.517 -0.326765 -3.1129 0
M  V30 10025 C 949.992 -0.714247 -4.52396 0
M  V30 10026 N 951.483 -0.667402 -4.58367 0
M  V30 10027 C 952.218 -0.939494 -5.65651 0
M  V30 10028 N 951.714 -1.27839 -6.80903 0
M  V30 10029 N 953.507 -0.865484 -5.55397 0
M  V30 10030 H 945.658 -1.27794 -1.69654 0
M  V30 10031 H 947.921 -0.5192 -0.79318 0
M  V30 10032 H 947.627 -1.40381 -3.22469 0
M  V30 10033 H 947.501 0.261611 -3.76292 0
M  V30 10034 H 949.888 0.69117 -2.86892 0
M  V30 10035 H 949.969 -0.999873 -2.35449 0
M  V30 10036 H 949.613 -1.73007 -4.77526 0
M  V30 10037 H 949.543 -0.0188962 -5.26597 0
M  V30 10038 H 952.034 -0.417062 -3.75592 0
M  V30 10039 H 952.347 -1.47155 -7.5866 0
M  V30 10040 H 950.692 -1.31658 -6.82416 0
M  V30 10041 H 953.883 -0.600265 -4.64235 0
M  V30 10042 H 954.056 -1.0809 -6.38921 0
M  V30 10043 N 947.462 1.57535 -0.0451378 0
M  V30 10044 C 948.392 2.14208 0.929372 0
M  V30 10045 C 949.373 1.06221 1.32858 0
M  V30 10046 O 950.558 1.34132 1.40436 0
M  V30 10047 C 947.688 2.68217 2.20629 0
M  V30 10048 C 946.642 3.81134 1.94734 0
M  V30 10049 C 945.968 4.21636 3.28828 0
M  V30 10050 C 947.268 5.06531 1.27374 0
M  V30 10051 H 948.962 2.95886 0.457348 0
M  V30 10052 H 946.508 1.42332 0.218544 0
M  V30 10053 H 948.461 3.06502 2.89196 0
M  V30 10054 H 947.185 1.83722 2.70026 0
M  V30 10055 H 945.844 3.43312 1.28579 0
M  V30 10056 H 945.492 3.34099 3.76014 0
M  V30 10057 H 945.192 4.97736 3.12302 0
M  V30 10058 H 946.716 4.62516 3.98637 0
M  V30 10059 H 948.13 5.423 1.85967 0
M  V30 10060 H 946.527 5.87735 1.21194 0
M  V30 10061 H 947.597 4.84261 0.248913 0
M  V30 10062 N 948.94 -0.228186 1.55939 0
M  V30 10063 C 949.872 -1.30605 1.88348 0
M  V30 10064 C 950.885 -1.43375 0.771198 0
M  V30 10065 O 952.074 -1.44391 1.04945 0
M  V30 10066 C 949.174 -2.68248 2.07115 0
M  V30 10067 C 948.347 -2.77509 3.38094 0
M  V30 10068 C 947.406 -3.96121 3.46373 0
M  V30 10069 O 946.432 -3.8477 4.19453 0
M  V30 10070 N 947.634 -5.10132 2.77031 0
M  V30 10071 H 950.399 -1.03132 2.81396 0
M  V30 10072 H 947.96 -0.418245 1.56404 0
M  V30 10073 H 949.952 -3.45966 2.09976 0
M  V30 10074 H 948.522 -2.88348 1.20723 0
M  V30 10075 H 947.742 -1.8632 3.47388 0
M  V30 10076 H 949.03 -2.80662 4.2439 0
M  V30 10077 H 948.428 -5.22249 2.17424 0
M  V30 10078 H 946.985 -5.85916 2.85561 0
M  V30 10079 N 950.418 -1.49637 -0.494624 0
M  V30 10080 C 951.328 -1.69522 -1.62172 0
M  V30 10081 C 952.344 -0.577894 -1.64123 0
M  V30 10082 O 953.52 -0.853382 -1.82426 0
M  V30 10083 C 950.585 -1.7633 -2.9851 0
M  V30 10084 C 949.646 -2.99944 -3.07135 0
M  V30 10085 C 948.879 -3.06419 -4.36971 0
M  V30 10086 O 949.102 -2.20312 -5.26136 0
M  V30 10087 O 948.036 -3.9894 -4.507 0
M  V30 10088 H 951.862 -2.65017 -1.48324 0
M  V30 10089 H 949.447 -1.33454 -0.671603 0
M  V30 10090 H 951.329 -1.83125 -3.7953 0
M  V30 10091 H 950.004 -0.840155 -3.12607 0
M  V30 10092 H 948.911 -2.98664 -2.2528 0
M  V30 10093 H 950.244 -3.9176 -2.97968 0
M  V30 10094 N 951.896 0.746133 -1.38819 0
M  V30 10095 C 952.826 1.87344 -1.39372 0
M  V30 10096 C 953.807 1.68123 -0.258583 0
M  V30 10097 O 954.992 1.88606 -0.462769 0
M  V30 10098 C 952.122 3.24962 -1.22543 0
M  V30 10099 C 951.076 3.58799 -2.33339 0
M  V30 10100 C 950.402 4.95235 -2.01609 0
M  V30 10101 C 951.702 3.62911 -3.75624 0
M  V30 10102 H 953.396 1.87138 -2.33709 0
M  V30 10103 H 950.942 0.898937 -1.12495 0
M  V30 10104 H 952.895 4.03488 -1.21554 0
M  V30 10105 H 951.619 3.25667 -0.246707 0
M  V30 10106 H 950.278 2.82596 -2.33527 0
M  V30 10107 H 949.926 4.92508 -1.02202 0
M  V30 10108 H 949.626 5.18843 -2.75819 0
M  V30 10109 H 951.15 5.76131 -2.02251 0
M  V30 10110 H 952.564 4.31535 -3.77426 0
M  V30 10111 H 950.961 3.98031 -4.491 0
M  V30 10112 H 952.031 2.62967 -4.07402 0
M  V30 10113 N 953.375 1.23811 0.975125 0
M  V30 10114 C 954.285 1.0408 2.10249 0
M  V30 10115 C 955.301 -0.0162404 1.73992 0
M  V30 10116 O 956.477 0.180346 2.00591 0
M  V30 10117 C 953.542 0.640013 3.40741 0
M  V30 10118 C 952.603 1.7727 3.90991 0
M  V30 10119 C 951.836 1.39094 5.15256 0
M  V30 10120 O 952.059 0.277483 5.69725 0
M  V30 10121 O 950.993 2.21392 5.59704 0
M  V30 10122 H 954.819 1.98575 2.29786 0
M  V30 10123 H 952.404 1.02563 1.08633 0
M  V30 10124 H 954.286 0.427684 4.19224 0
M  V30 10125 H 952.961 -0.27589 3.22522 0
M  V30 10126 H 951.868 2.03971 3.13602 0
M  V30 10127 H 953.201 2.66711 4.13674 0
M  V30 10128 N 954.853 -1.17469 1.05066 0
M  V30 10129 C 956.13 -1.83625 0.673872 0
M  V30 10130 C 956.51 -1.93412 -0.845871 0
M  V30 10131 O 955.858 -1.4677 -1.75131 0
M  V30 10132 C 956.068 -3.21352 1.36139 0
M  V30 10133 C 957.416 -3.97274 1.49863 0
M  V30 10134 O 958.44 -3.30827 1.3203 0
M  V30 10135 O 957.299 -5.16349 1.79013 0
M  V30 10136 H 954.393 -0.792297 0.237055 0
M  V30 10137 H 956.939 -1.24776 1.15017 0
M  V30 10138 H 955.711 -3.0919 2.39827 0
M  V30 10139 H 955.334 -3.87867 0.874364 0
M  V30 10140 N 956.331 -0.831506 -1.3388 0
M  V30 10141 C 957.263 -0.216908 -2.28171 0
M  V30 10142 C 958.276 0.598141 -1.51414 0
M  V30 10143 O 959.465 0.426416 -1.73332 0
M  V30 10144 C 956.565 0.713831 -3.31297 0
M  V30 10145 C 955.738 -0.0602673 -4.37358 0
M  V30 10146 C 954.797 0.792696 -5.20195 0
M  V30 10147 O 953.823 0.234564 -5.68716 0
M  V30 10148 N 955.025 2.11119 -5.40748 0
M  V30 10149 H 957.79 -1.02704 -2.81553 0
M  V30 10150 H 955.351 -0.689272 -1.46495 0
M  V30 10151 H 957.343 1.28925 -3.83615 0
M  V30 10152 H 955.913 1.42469 -2.78247 0
M  V30 10153 H 955.133 -0.817041 -3.8564 0
M  V30 10154 H 956.421 -0.592822 -5.05335 0
M  V30 10155 H 955.819 2.58828 -5.03016 0
M  V30 10156 H 954.376 2.63527 -5.96151 0
M  V30 10157 N 957.809 1.4625 -0.587256 0
M  V30 10158 C 959.039 2.06444 -0.0802135 0
M  V30 10159 C 959.447 1.43585 1.23207 0
M  V30 10160 O 958.79 0.536956 1.75677 0
M  V30 10161 C 958.852 3.59165 0.155129 0
M  V30 10162 C 958.516 4.44243 -1.07225 0
M  V30 10163 C 959.513 4.80497 -1.98542 0
M  V30 10164 C 957.198 4.8531 -1.29537 0
M  V30 10165 C 959.192 5.56649 -3.10516 0
M  V30 10166 C 956.879 5.61221 -2.41815 0
M  V30 10167 C 957.877 5.96805 -3.32134 0
M  V30 10168 O 957.565 6.71181 -4.42461 0
M  V30 10169 H 957.297 0.673626 -0.0566063 0
M  V30 10170 H 959.851 1.88797 -0.809004 0
M  V30 10171 H 958.081 3.75137 0.938583 0
M  V30 10172 H 959.77 4.01271 0.611243 0
M  V30 10173 H 960.536 4.49345 -1.82522 0
M  V30 10174 H 956.415 4.5706 -0.601431 0
M  V30 10175 H 959.959 5.84343 -3.81037 0
M  V30 10176 H 955.856 5.91786 -2.57797 0
M  V30 10177 H 956.624 6.8961 -4.40886 0
M  V30 10178 N 959.287 0.325282 1.54207 0
M  V30 10179 C 960.703 -0.0273036 1.59577 0
M  V30 10180 C 960.903 -1.50329 1.34177 0
M  V30 10181 O 959.959 -2.25951 1.12705 0
M  V30 10182 C 961.272 0.392468 2.98128 0
M  V30 10183 C 962.82 0.343269 3.11112 0
M  V30 10184 C 963.295 0.738229 4.52011 0
M  V30 10185 N 964.786 0.691701 4.58006 0
M  V30 10186 C 965.521 0.969479 5.65145 0
M  V30 10187 N 965.017 1.31448 6.80216 0
M  V30 10188 N 966.81 0.894926 5.5493 0
M  V30 10189 H 958.961 1.28692 1.68974 0
M  V30 10190 H 961.224 0.523399 0.790416 0
M  V30 10191 H 960.93 1.42089 3.2172 0
M  V30 10192 H 960.804 -0.241651 3.76425 0
M  V30 10193 H 963.191 -0.675946 2.87254 0
M  V30 10194 H 963.272 1.01235 2.34915 0
M  V30 10195 H 962.916 1.75537 4.76602 0
M  V30 10196 H 962.846 0.0468226 5.26579 0
M  V30 10197 H 965.337 0.436975 3.75365 0
M  V30 10198 H 965.65 1.51177 7.57869 0
M  V30 10199 H 963.995 1.35276 6.81708 0
M  V30 10200 H 967.186 0.624876 4.6391 0
M  V30 10201 H 967.359 1.11476 6.38339 0
M  V30 10202 N 960.765 -1.57509 0.0534917 0
M  V30 10203 C 962.181 -1.56696 -0.303067 0
M  V30 10204 C 962.381 -1.06135 -1.71282 0
M  V30 10205 O 961.437 -0.71899 -2.42047 0
M  V30 10206 C 962.75 -3.00421 -0.129418 0
M  V30 10207 C 964.298 -3.12358 -0.200346 0
M  V30 10208 C 964.773 -4.57967 -0.0551971 0
M  V30 10209 N 966.264 -4.63066 -0.111398 0
M  V30 10210 C 966.999 -5.73395 -0.0232344 0
M  V30 10211 N 966.495 -6.92701 0.11741 0
M  V30 10212 N 968.288 -5.62045 -0.078984 0
M  V30 10213 H 960.439 -1.88696 0.975064 0
M  V30 10214 H 962.702 -0.869072 0.378706 0
M  V30 10215 H 962.408 -3.41456 0.842653 0
M  V30 10216 H 962.282 -3.66563 -0.889476 0
M  V30 10217 H 964.669 -2.71221 -1.16289 0
M  V30 10218 H 964.75 -2.48891 0.590506 0
M  V30 10219 H 964.394 -4.9979 0.904034 0
M  V30 10220 H 964.324 -5.19443 -0.865223 0
M  V30 10221 H 966.815 -3.77263 -0.219256 0
M  V30 10222 H 967.128 -7.72597 0.177326 0
M  V30 10223 H 965.473 -6.94833 0.152526 0
M  V30 10224 H 968.664 -4.67725 -0.187434 0
M  V30 10225 H 968.837 -6.48 -0.00681731 0
M  V30 10226 N 962.243 0.219913 -1.56058 0
M  V30 10227 C 963.153 1.29349 -1.95719 0
M  V30 10228 C 964.169 1.5119 -0.861248 0
M  V30 10229 O 965.345 1.64289 -1.16495 0
M  V30 10230 C 962.41 2.6229 -2.26726 0
M  V30 10231 C 961.471 2.48738 -3.49897 0
M  V30 10232 C 960.704 3.75339 -3.79416 0
M  V30 10233 O 960.927 4.78427 -3.10586 0
M  V30 10234 O 959.861 3.72352 -4.72903 0
M  V30 10235 H 963.687 0.986979 -2.87215 0
M  V30 10236 H 961.272 0.42291 -1.43289 0
M  V30 10237 H 963.154 3.408 -2.47857 0
M  V30 10238 H 961.829 2.92619 -1.38404 0
M  V30 10239 H 960.736 1.68422 -3.34043 0
M  V30 10240 H 962.069 2.23347 -4.38608 0
M  V30 10241 N 963.721 1.49897 0.486681 0
M  V30 10242 C 965.137 1.36977 0.819109 0
M  V30 10243 C 965.337 0.41385 1.97204 0
M  V30 10244 O 964.393 -0.149249 2.52059 0
M  V30 10245 C 965.706 2.78013 1.14584 0
M  V30 10246 C 967.254 2.86816 1.25321 0
M  V30 10247 C 967.729 4.28651 1.61316 0
M  V30 10248 N 969.22 4.31528 1.68337 0
M  V30 10249 C 969.955 5.38254 1.97662 0
M  V30 10250 N 969.451 6.55207 2.25113 0
M  V30 10251 N 971.244 5.25683 1.99033 0
M  V30 10252 H 963.395 2.10634 -0.273364 0
M  V30 10253 H 965.658 0.946116 -0.0597418 0
M  V30 10254 H 965.364 3.49728 0.371892 0
M  V30 10255 H 965.238 3.1428 2.08585 0
M  V30 10256 H 967.625 2.15329 2.01785 0
M  V30 10257 H 967.706 2.54112 0.293368 0
M  V30 10258 H 967.35 5.00669 0.853968 0
M  V30 10259 H 967.28 4.5883 2.58424 0
M  V30 10260 H 969.771 3.47189 1.49226 0
M  V30 10261 H 970.084 7.32359 2.46717 0
M  V30 10262 H 968.429 6.58408 2.22538 0
M  V30 10263 H 971.62 4.33316 1.77074 0
M  V30 10264 H 971.793 6.08949 2.21552 0
M  V30 10265 N 965.199 -0.738761 1.39212 0
M  V30 10266 C 966.109 -1.88324 1.39897 0
M  V30 10267 C 967.125 -1.71494 0.294229 0
M  V30 10268 O 968.301 -1.94162 0.535087 0
M  V30 10269 C 965.366 -3.23871 1.23726 0
M  V30 10270 C 964.427 -3.53121 2.44139 0
M  V30 10271 C 963.66 -4.82202 2.2873 0
M  V30 10272 O 963.883 -5.55649 1.28879 0
M  V30 10273 O 962.817 -5.11265 3.17634 0
M  V30 10274 H 966.643 -1.90701 2.36362 0
M  V30 10275 H 964.228 -0.886067 1.20288 0
M  V30 10276 H 966.11 -4.04882 1.16826 0
M  V30 10277 H 964.785 -3.22274 0.303551 0
M  V30 10278 H 963.692 -2.72212 2.56615 0
M  V30 10279 H 965.025 -3.59495 3.36191 0
M  V30 10280 N 966.677 -1.24326 -0.968545 0
M  V30 10281 C 967.587 -1.05194 -2.09694 0
M  V30 10282 C 968.603 0.00701291 -1.73999 0
M  V30 10283 O 969.779 -0.190981 -2.00492 0
M  V30 10284 C 966.844 -0.658075 -3.40397 0
M  V30 10285 C 965.905 -1.79341 -3.90045 0
M  V30 10286 C 965.138 -1.41824 -5.14511 0
M  V30 10287 O 965.361 -0.307693 -5.69569 0
M  V30 10288 O 964.295 -2.24358 -5.58522 0
M  V30 10289 H 968.121 -1.99791 -2.2873 0
M  V30 10290 H 965.706 -1.03138 -1.08088 0
M  V30 10291 H 967.588 -0.449911 -4.18991 0
M  V30 10292 H 966.263 0.258782 -3.22664 0
M  V30 10293 H 965.17 -2.05632 -3.12516 0
M  V30 10294 H 966.503 -2.68901 -4.12254 0
M  V30 10295 N 968.156 1.1691 -1.05688 0
M  V30 10296 C 969.119 2.19297 -0.666433 0
M  V30 10297 C 970.119 1.5826 0.284674 0
M  V30 10298 O 971.309 1.74068 0.0678757 0
M  V30 10299 C 968.441 3.40894 0.0203656 0
M  V30 10300 H 969.634 2.55354 -1.57272 0
M  V30 10301 H 967.187 1.31078 -0.851359 0
M  V30 10302 H 967.922 3.10388 0.939686 0
M  V30 10303 H 967.707 3.86446 -0.663464 0
M  V30 10304 H 969.197 4.16664 0.279475 0
M  V30 10305 N 969.634 0.838594 1.33437 0
M  V30 10306 C 970.862 0.447644 2.01999 0
M  V30 10307 C 971.277 -0.951053 1.63096 0
M  V30 10308 O 970.634 -1.61802 0.844169 0
M  V30 10309 C 970.685 0.558378 3.57162 0
M  V30 10310 O 970.406 1.90196 3.94661 0
M  V30 10311 C 971.907 0.164348 4.42995 0
M  V30 10312 H 969.127 0.177736 0.647032 0
M  V30 10313 H 971.671 1.13109 1.70372 0
M  V30 10314 H 969.826 -0.0771563 3.87323 0
M  V30 10315 H 970.24 1.88729 4.89369 0
M  V30 10316 H 971.714 0.292876 5.51222 0
M  V30 10317 H 972.191 -0.893713 4.30011 0
M  V30 10318 H 972.797 0.774306 4.18192 0
M  V30 10319 N 971.112 -1.45937 0.595003 0
M  V30 10320 C 972.342 -2.06399 0.0911607 0
M  V30 10321 C 972.75 -1.44236 -1.22444 0
M  V30 10322 O 972.093 -0.546265 -1.7539 0
M  V30 10323 C 972.155 -3.59242 -0.136079 0
M  V30 10324 C 971.819 -4.43668 1.09579 0
M  V30 10325 C 972.816 -4.79437 2.01088 0
M  V30 10326 C 970.501 -4.84616 1.32109 0
M  V30 10327 C 972.495 -5.54995 3.13464 0
M  V30 10328 C 970.182 -5.5993 2.44788 0
M  V30 10329 C 971.18 -5.95035 3.35294 0
M  V30 10330 O 970.868 -6.68825 4.46014 0
M  V30 10331 H 970.6 -0.673316 0.0601779 0
M  V30 10332 H 973.154 -1.88365 0.819005 0
M  V30 10333 H 971.384 -3.75629 -0.918676 0
M  V30 10334 H 973.073 -4.0159 -0.589954 0
M  V30 10335 H 973.839 -4.48371 1.84902 0
M  V30 10336 H 969.718 -4.56735 0.625662 0
M  V30 10337 H 973.262 -5.82314 3.84131 0
M  V30 10338 H 969.159 -5.90411 2.60931 0
M  V30 10339 H 969.927 -6.87262 4.44537 0
M  V30 10340 N 972.59 -0.333456 -1.54032 0
M  V30 10341 C 973.52 0.52051 -2.27625 0
M  V30 10342 C 974.501 1.1111 -1.28797 0
M  V30 10343 O 975.686 1.13438 -1.57625 0
M  V30 10344 C 972.816 1.67663 -3.04149 0
M  V30 10345 C 971.77 1.21487 -4.10396 0
M  V30 10346 C 971.096 2.45872 -4.74817 0
M  V30 10347 C 972.396 0.322603 -5.21303 0
M  V30 10348 H 974.09 -0.0933823 -2.99254 0
M  V30 10349 H 971.636 -0.0463526 -1.43925 0
M  V30 10350 H 973.589 2.28041 -3.54366 0
M  V30 10351 H 972.313 2.31727 -2.30153 0
M  V30 10352 H 970.972 0.633966 -3.61077 0
M  V30 10353 H 970.62 3.0832 -3.97426 0
M  V30 10354 H 970.32 2.15662 -5.46593 0
M  V30 10355 H 971.844 3.06994 -5.27814 0
M  V30 10356 H 973.258 0.832942 -5.67217 0
M  V30 10357 H 971.655 0.112843 -5.99994 0
M  V30 10358 H 972.725 -0.643954 -4.80605 0
M  V30 10359 N 974.068 1.57479 -0.061844 0
M  V30 10360 C 974.998 2.15181 0.9066 0
M  V30 10361 C 975.979 1.07624 1.31724 0
M  V30 10362 O 977.164 1.35614 1.39006 0
M  V30 10363 C 974.294 2.70542 2.17771 0
M  V30 10364 C 973.248 3.83178 1.9068 0
M  V30 10365 C 972.574 4.25099 3.24337 0
M  V30 10366 C 973.874 5.07853 1.21994 0
M  V30 10367 H 975.568 2.96355 0.42594 0
M  V30 10368 H 973.114 1.42556 0.203435 0
M  V30 10369 H 975.067 3.09552 2.85929 0
M  V30 10370 H 973.791 1.86575 2.68062 0
M  V30 10371 H 972.45 3.44656 1.24931 0
M  V30 10372 H 972.098 3.38069 3.72449 0
M  V30 10373 H 971.798 5.01021 3.07005 0
M  V30 10374 H 973.322 4.66718 3.93709 0
M  V30 10375 H 974.736 5.44242 1.80204 0
M  V30 10376 H 973.133 5.88987 1.14954 0
M  V30 10377 H 974.203 4.84497 0.197536 0
M  V30 10378 N 975.546 -0.211634 1.56173 0
M  V30 10379 C 976.456 -1.2831 1.96402 0
M  V30 10380 C 977.472 -1.50731 0.869254 0
M  V30 10381 O 978.648 -1.63669 1.17365 0
M  V30 10382 C 975.713 -2.61084 2.28114 0
M  V30 10383 C 974.774 -2.46879 3.51211 0
M  V30 10384 C 974.007 -3.73321 3.81401 0
M  V30 10385 O 974.23 -4.76773 3.13119 0
M  V30 10386 O 973.164 -3.69839 4.74871 0
M  V30 10387 H 976.99 -0.971733 2.87734 0
M  V30 10388 H 974.575 -0.415305 1.43512 0
M  V30 10389 H 976.457 -3.39481 2.49661 0
M  V30 10390 H 975.132 -2.91881 1.39954 0
M  V30 10391 H 974.039 -1.66648 3.34932 0
M  V30 10392 H 975.372 -2.21018 4.39786 0
M  V30 10393 N 977.024 -1.50153 -0.478725 0
M  V30 10394 C 977.956 -1.64603 -1.59494 0
M  V30 10395 C 978.969 -0.527789 -1.54007 0
M  V30 10396 O 980.158 -0.80069 -1.59534 0
M  V30 10397 C 977.258 -1.60738 -2.98356 0
M  V30 10398 C 976.431 -2.88468 -3.28794 0
M  V30 10399 C 975.49 -2.77349 -4.47173 0
M  V30 10400 O 974.516 -3.51302 -4.47857 0
M  V30 10401 N 975.718 -1.9039 -5.4839 0
M  V30 10402 H 978.483 -2.6088 -1.47518 0
M  V30 10403 H 976.044 -1.47521 -0.667011 0
M  V30 10404 H 978.036 -1.50923 -3.75505 0
M  V30 10405 H 976.606 -0.722273 -3.04141 0
M  V30 10406 H 975.826 -3.12467 -2.40329 0
M  V30 10407 H 977.114 -3.73102 -3.45937 0
M  V30 10408 H 976.512 -1.29606 -5.50653 0
M  V30 10409 H 975.069 -1.86484 -6.24553 0
M  V30 10410 N 978.502 0.731368 -1.39602 0
M  V30 10411 C 979.434 1.85575 -1.34516 0
M  V30 10412 C 980.447 1.60818 -0.253287 0
M  V30 10413 O 981.636 1.70984 -0.512505 0
M  V30 10414 C 978.736 3.21673 -1.06676 0
M  V30 10415 C 977.909 3.73757 -2.27211 0
M  V30 10416 C 976.968 4.88426 -1.95773 0
M  V30 10417 O 975.994 5.01898 -2.68491 0
M  V30 10418 N 977.196 5.73065 -0.926083 0
M  V30 10419 H 979.961 1.90442 -2.31413 0
M  V30 10420 H 977.522 0.912258 -1.33752 0
M  V30 10421 H 979.514 3.95959 -0.836577 0
M  V30 10422 H 978.084 3.12052 -0.185003 0
M  V30 10423 H 977.304 2.90781 -2.66158 0
M  V30 10424 H 978.592 4.05289 -3.07601 0
M  V30 10425 H 977.99 5.64774 -0.323497 0
M  V30 10426 H 976.547 6.47403 -0.755795 0
M  V30 10427 N 979.98 1.24838 0.961938 0
M  V30 10428 C 981.396 1.01502 1.23165 0
M  V30 10429 C 981.596 -0.272651 1.99647 0
M  V30 10430 O 980.652 -0.987297 2.32398 0
M  V30 10431 C 981.965 2.23366 2.01316 0
M  V30 10432 C 983.513 2.28051 2.14387 0
M  V30 10433 C 983.988 3.49552 2.95935 0
M  V30 10434 N 985.479 3.49904 3.03515 0
M  V30 10435 C 986.214 4.40577 3.66987 0
M  V30 10436 N 985.71 5.41512 4.3213 0
M  V30 10437 N 987.503 4.28275 3.64056 0
M  V30 10438 H 979.654 2.07576 0.450086 0
M  V30 10439 H 981.917 0.911205 0.261551 0
M  V30 10440 H 981.623 3.16913 1.5251 0
M  V30 10441 H 981.497 2.25949 3.02038 0
M  V30 10442 H 983.884 1.35032 2.62393 0
M  V30 10443 H 983.965 2.29491 1.12994 0
M  V30 10444 H 983.609 4.42889 2.4862 0
M  V30 10445 H 983.539 3.45357 3.97538 0
M  V30 10446 H 986.03 2.76885 2.57183 0
M  V30 10447 H 986.343 6.06924 4.78396 0
M  V30 10448 H 984.688 5.45393 4.3078 0
M  V30 10449 H 987.879 3.48653 3.12344 0
M  V30 10450 H 988.052 4.99138 4.13237 0
M  V30 10451 N 981.458 -1.16348 1.06306 0
M  V30 10452 C 982.388 -2.2291 0.695234 0
M  V30 10453 C 983.369 -1.67208 -0.312343 0
M  V30 10454 O 984.554 -1.93293 -0.187442 0
M  V30 10455 C 981.684 -3.47205 0.0810149 0
M  V30 10456 C 980.638 -4.15801 1.01458 0
M  V30 10457 C 979.964 -5.3405 0.263656 0
M  V30 10458 C 981.264 -4.66766 2.34365 0
M  V30 10459 H 982.958 -2.53934 1.58613 0
M  V30 10460 H 980.504 -1.22056 0.76409 0
M  V30 10461 H 982.457 -4.2098 -0.18818 0
M  V30 10462 H 981.181 -3.15482 -0.844897 0
M  V30 10463 H 979.84 -3.43954 1.26852 0
M  V30 10464 H 979.488 -4.9858 -0.665378 0
M  V30 10465 H 979.188 -5.80885 0.88582 0
M  V30 10466 H 980.712 -6.106 0.00200994 0
M  V30 10467 H 982.126 -5.3212 2.13356 0
M  V30 10468 H 980.523 -5.24223 2.9208 0
M  V30 10469 H 981.593 -3.82969 2.97426 0
M  V30 10470 N 982.937 -0.845659 -1.3299 0
M  V30 10471 C 984.214 -0.366306 -1.92139 0
M  V30 10472 C 984.594 1.14912 -1.77083 0
M  V30 10473 O 983.942 1.96667 -1.16338 0
M  V30 10474 C 984.152 -0.820716 -3.39213 0
M  V30 10475 C 985.5 -0.832667 -4.16355 0
M  V30 10476 O 986.524 -0.764764 -3.47893 0
M  V30 10477 O 985.383 -0.926658 -5.38586 0
M  V30 10478 H 982.477 -0.105063 -0.820299 0
M  V30 10479 H 985.023 -0.931962 -1.41819 0
M  V30 10480 H 983.795 -1.86357 -3.44074 0
M  V30 10481 H 983.418 -0.232009 -3.96923 0
M  V30 10482 N 984.415 1.45619 -0.602734 0
M  V30 10483 C 985.645 2.06348 -0.102105 0
M  V30 10484 C 986.053 1.44884 1.21677 0
M  V30 10485 O 985.396 0.555559 1.75098 0
M  V30 10486 C 985.458 3.59309 0.117026 0
M  V30 10487 C 985.122 4.43081 -1.11931 0
M  V30 10488 C 986.119 4.78364 -2.03627 0
M  V30 10489 C 983.804 4.83908 -1.34677 0
M  V30 10490 C 985.798 5.53325 -3.16403 0
M  V30 10491 C 983.485 5.58624 -2.47754 0
M  V30 10492 C 984.483 5.93249 -3.38445 0
M  V30 10493 O 984.171 6.6645 -4.49555 0
M  V30 10494 H 983.903 0.672988 -0.0637478 0
M  V30 10495 H 986.457 1.87928 -0.828983 0
M  V30 10496 H 984.687 3.76111 0.898742 0
M  V30 10497 H 986.376 4.01897 0.568649 0
M  V30 10498 H 987.142 4.47384 -1.87277 0
M  V30 10499 H 983.021 4.56396 -0.649875 0
M  V30 10500 H 986.565 5.80268 -3.87214 0
M  V30 10501 H 982.462 5.89019 -2.64059 0
M  V30 10502 H 983.23 6.84895 -4.48175 0
M  V30 10503 N 985.893 0.34162 1.53853 0
M  V30 10504 C 986.803 -0.524555 2.2866 0
M  V30 10505 C 987.819 -1.1136 1.33697 0
M  V30 10506 O 988.995 -1.1297 1.66732 0
M  V30 10507 C 986.06 -1.66065 3.04341 0
M  V30 10508 C 985.121 -1.10158 4.14926 0
M  V30 10509 C 984.354 -2.18353 4.86988 0
M  V30 10510 O 984.577 -3.39038 4.58704 0
M  V30 10511 O 983.511 -1.82756 5.73484 0
M  V30 10512 H 987.337 0.0835014 3.03585 0
M  V30 10513 H 984.922 0.106727 1.49018 0
M  V30 10514 H 986.804 -2.3217 3.51674 0
M  V30 10515 H 985.479 -2.25456 2.32275 0
M  V30 10516 H 984.386 -0.405109 3.719 0
M  V30 10517 H 985.719 -0.552567 4.89088 0
M  V30 10518 N 987.371 -1.57444 0.0701946 0
M  V30 10519 C 988.596 -1.98171 -0.61181 0
M  V30 10520 C 989.021 -0.94823 -1.62451 0
M  V30 10521 O 988.379 0.0863553 -1.81094 0
M  V30 10522 C 988.427 -3.37934 -1.2583 0
M  V30 10523 O 987.531 -3.37207 -2.37414 0
M  V30 10524 H 986.872 -0.645056 -0.157477 0
M  V30 10525 H 989.402 -2.04091 0.144235 0
M  V30 10526 H 989.412 -3.75083 -1.60552 0
M  V30 10527 H 988.087 -4.12684 -0.516234 0
M  V30 10528 H 986.664 -3.11826 -2.04497 0
M  V30 10529 N 988.849 0.203349 -1.56283 0
M  V30 10530 C 989.796 1.25205 -1.93888 0
M  V30 10531 C 990.766 1.45654 -0.798376 0
M  V30 10532 O 991.951 1.58924 -1.05583 0
M  V30 10533 C 989.091 2.59355 -2.27659 0
M  V30 10534 C 988.204 2.46553 -3.54733 0
M  V30 10535 C 987.339 3.73351 -3.77865 0
M  V30 10536 C 986.378 3.55347 -4.98392 0
M  V30 10537 N 985.515 4.74137 -5.17821 0
M  V30 10538 H 990.355 0.924356 -2.83301 0
M  V30 10539 H 987.892 0.445082 -1.40205 0
M  V30 10540 H 989.85 3.375 -2.45254 0
M  V30 10541 H 988.48 2.90184 -1.41396 0
M  V30 10542 H 987.532 1.59749 -3.45231 0
M  V30 10543 H 988.844 2.2918 -4.43033 0
M  V30 10544 H 987.998 4.59937 -3.95655 0
M  V30 10545 H 986.737 3.9367 -2.8788 0
M  V30 10546 H 985.742 2.67146 -4.80534 0
M  V30 10547 H 986.967 3.36482 -5.89879 0
M  V30 10548 H 984.913 4.94735 -4.30782 0
M  V30 10549 H 984.83 4.59558 -6.00285 0
M  V30 10550 H 986.098 5.62098 -5.40061 0
M  V30 10551 N 990.327 1.50405 0.470755 0
M  V30 10552 C 991.257 1.72222 1.57676 0
M  V30 10553 C 992.238 0.57121 1.60222 0
M  V30 10554 O 993.423 0.810381 1.76484 0
M  V30 10555 C 990.553 1.81666 2.95998 0
M  V30 10556 C 989.507 2.96857 3.08318 0
M  V30 10557 C 988.833 2.91445 4.4829 0
M  V30 10558 C 990.133 4.37361 2.85504 0
M  V30 10559 H 991.827 2.64825 1.39671 0
M  V30 10560 H 989.373 1.27438 0.67049 0
M  V30 10561 H 991.326 1.95514 3.73299 0
M  V30 10562 H 990.05 0.856856 3.1516 0
M  V30 10563 H 988.709 2.82661 2.33449 0
M  V30 10564 H 988.357 1.93309 4.64371 0
M  V30 10565 H 988.057 3.68776 4.57469 0
M  V30 10566 H 989.581 3.07341 5.27611 0
M  V30 10567 H 990.995 4.52081 3.52555 0
M  V30 10568 H 989.392 5.16145 3.06127 0
M  V30 10569 H 990.462 4.49708 1.81359 0
M  V30 10570 N 991.805 -0.723954 1.39988 0
M  V30 10571 C 992.715 -1.86829 1.41887 0
M  V30 10572 C 993.731 -1.71173 0.312401 0
M  V30 10573 O 994.907 -1.93583 0.555651 0
M  V30 10574 C 991.972 -3.22541 1.27154 0
M  V30 10575 C 991.033 -3.50512 2.47871 0
M  V30 10576 C 990.266 -4.79749 2.33831 0
M  V30 10577 O 990.489 -5.54251 1.34765 0
M  V30 10578 O 989.423 -5.07868 3.23039 0
M  V30 10579 H 993.249 -1.88183 2.38371 0
M  V30 10580 H 990.834 -0.873259 1.21221 0
M  V30 10581 H 992.716 -4.0362 1.21114 0
M  V30 10582 H 991.391 -3.21933 0.337715 0
M  V30 10583 H 990.298 -2.69475 2.59488 0
M  V30 10584 H 991.631 -3.55909 3.39985 0
M  V30 10585 N 993.283 -1.25346 -0.955304 0
M  V30 10586 C 994.246 -1.05754 -2.03344 0
M  V30 10587 C 995.246 -0.0105743 -1.60797 0
M  V30 10588 O 996.436 -0.252699 -1.72357 0
M  V30 10589 C 993.568 -0.605536 -3.35479 0
M  V30 10590 H 994.761 -2.01459 -2.22158 0
M  V30 10591 H 992.314 -1.07744 -1.1323 0
M  V30 10592 H 993.049 0.354154 -3.2236 0
M  V30 10593 H 992.834 -1.36134 -3.67709 0
M  V30 10594 H 994.324 -0.489867 -4.14717 0
M  V30 10595 N 994.761 1.15782 -1.06922 0
M  V30 10596 C 995.691 2.22538 -0.707045 0
M  V30 10597 C 996.672 1.67371 0.303471 0
M  V30 10598 O 997.857 1.9339 0.177189 0
M  V30 10599 C 994.987 3.47158 -0.0994269 0
M  V30 10600 C 993.941 4.15257 -1.03661 0
M  V30 10601 C 993.267 5.33902 -0.291974 0
M  V30 10602 C 994.567 4.65516 -2.36837 0
M  V30 10603 H 996.261 2.53089 -1.59958 0
M  V30 10604 H 993.807 1.21649 -0.770552 0
M  V30 10605 H 995.76 4.21073 0.165852 0
M  V30 10606 H 994.484 3.15926 0.828155 0
M  V30 10607 H 993.143 3.43276 -1.28674 0
M  V30 10608 H 992.791 4.98926 0.638928 0
M  V30 10609 H 992.491 5.80407 -0.916613 0
M  V30 10610 H 994.015 6.1059 -0.0343915 0
M  V30 10611 H 995.429 5.30981 -2.16175 0
M  V30 10612 H 993.826 5.22666 -2.94856 0
M  V30 10613 H 994.896 3.81387 -2.99453 0
M  V30 10614 N 996.239 0.8527 1.3254 0
M  V30 10615 C 997.171 0.253181 2.27797 0
M  V30 10616 C 998.184 -0.573977 1.52346 0
M  V30 10617 O 999.373 -0.398786 1.73988 0
M  V30 10618 C 996.473 -0.661034 3.32391 0
M  V30 10619 C 995.646 0.12984 4.37207 0
M  V30 10620 C 994.705 -0.709837 5.2139 0
M  V30 10621 O 993.731 -0.144056 5.69018 0
M  V30 10622 N 994.933 -2.0249 5.44039 0
M  V30 10623 H 997.698 1.07171 2.79883 0
M  V30 10624 H 995.259 0.712491 1.45379 0
M  V30 10625 H 997.251 -1.22806 3.85617 0
M  V30 10626 H 995.821 -1.38025 2.80478 0
M  V30 10627 H 995.041 0.878289 3.84291 0
M  V30 10628 H 996.329 0.673141 5.04328 0
M  V30 10629 H 995.727 -2.50792 5.0707 0
M  V30 10630 H 994.284 -2.5401 6.00269 0
M  V30 10631 N 997.718 -1.45297 0.610449 0
M  V30 10632 C 998.665 -2.30553 -0.106718 0
M  V30 10633 C 999.635 -1.42272 -0.85719 0
M  V30 10634 O 1000.82 -1.71199 -0.842357 0
M  V30 10635 C 997.96 -3.27226 -1.09623 0
M  V30 10636 C 997.073 -4.3061 -0.346329 0
M  V30 10637 C 996.208 -5.14389 -1.32581 0
M  V30 10638 C 995.247 -6.09497 -0.563892 0
M  V30 10639 N 994.384 -6.86047 -1.4928 0
M  V30 10640 H 999.224 -2.91344 0.626296 0
M  V30 10641 H 996.761 -1.43563 0.32065 0
M  V30 10642 H 998.719 -3.81744 -1.68308 0
M  V30 10643 H 997.349 -2.68182 -1.79662 0
M  V30 10644 H 996.401 -3.7873 0.356084 0
M  V30 10645 H 997.713 -4.98183 0.248026 0
M  V30 10646 H 996.867 -5.73321 -1.98464 0
M  V30 10647 H 995.606 -4.4684 -1.9541 0
M  V30 10648 H 994.611 -5.49693 0.108551 0
M  V30 10649 H 995.836 -6.79074 0.0593872 0
M  V30 10650 H 993.782 -6.21185 -2.10868 0
M  V30 10651 H 993.699 -7.49983 -0.951953 0
M  V30 10652 H 994.967 -7.49518 -2.14112 0
M  V30 10653 N 999.196 -0.349774 -1.5367 0
M  V30 10654 C 1000.13 0.538575 -2.22782 0
M  V30 10655 C 1001.14 1.05896 -1.23652 0
M  V30 10656 O 1002.33 0.968045 -1.4997 0
M  V30 10657 C 999.43 1.7546 -2.89943 0
M  V30 10658 C 998.603 1.36843 -4.15443 0
M  V30 10659 C 997.662 2.4448 -4.65957 0
M  V30 10660 O 996.688 2.07528 -5.3002 0
M  V30 10661 N 997.89 3.75829 -4.42417 0
M  V30 10662 H 1000.65 -0.053348 -2.99653 0
M  V30 10663 H 998.216 -0.174193 -1.6096 0
M  V30 10664 H 1000.21 2.46911 -3.20651 0
M  V30 10665 H 998.778 2.25375 -2.16622 0
M  V30 10666 H 997.998 0.484421 -3.91212 0
M  V30 10667 H 999.286 1.0865 -4.97064 0
M  V30 10668 H 998.684 4.08635 -3.91196 0
M  V30 10669 H 997.241 4.43432 -4.77714 0
M  V30 10670 N 1000.67 1.57404 -0.0785433 0
M  V30 10671 C 1001.61 2.08724 0.922464 0
M  V30 10672 C 1002.58 0.993912 1.28686 0
M  V30 10673 O 1003.77 1.26776 1.39499 0
M  V30 10674 C 1000.9 2.55051 2.2286 0
M  V30 10675 C 999.942 3.75884 2.01528 0
M  V30 10676 S 1000.77 5.2026 1.26844 0
M  V30 10677 C 1001.93 5.69924 2.58723 0
M  V30 10678 H 1002.16 2.93304 0.485807 0
M  V30 10679 H 999.697 1.53814 0.134377 0
M  V30 10680 H 1001.65 2.82402 2.97926 0
M  V30 10681 H 1000.32 1.70727 2.63649 0
M  V30 10682 H 999.509 4.06311 2.98207 0
M  V30 10683 H 999.111 3.48941 1.34596 0
M  V30 10684 H 1001.4 5.7718 3.5478 0
M  V30 10685 H 1002.35 6.68704 2.32897 0
M  V30 10686 H 1002.75 4.97773 2.66237 0
M  V30 10687 N 1002.15 -0.195058 1.56388 0
M  V30 10688 C 1003.43 -0.941335 1.71459 0
M  V30 10689 C 1003.81 -2.01375 0.633336 0
M  V30 10690 O 1003.16 -2.25715 -0.35567 0
M  V30 10691 C 1003.37 -1.52772 3.13786 0
M  V30 10692 C 1004.71 -2.00983 3.7402 0
M  V30 10693 O 1005.74 -1.62614 3.16915 0
M  V30 10694 O 1004.6 -2.71586 4.7424 0
M  V30 10695 H 1001.69 -0.441451 0.699321 0
M  V30 10696 H 1004.24 -0.184752 1.68691 0
M  V30 10697 H 1003.01 -0.754699 3.83953 0
M  V30 10698 H 1002.63 -2.34914 3.20782 0
M  V30 10699 N 1003.63 -1.50653 -0.462772 0
M  V30 10700 C 1004.85 -1.66103 -1.24196 0
M  V30 10701 C 1005.28 -0.347421 -1.84864 0
M  V30 10702 O 1004.64 0.689673 -1.6767 0
M  V30 10703 C 1004.69 -2.76027 -2.32037 0
M  V30 10704 O 1003.79 -2.37859 -3.36893 0
M  V30 10705 H 1003.13 -0.554672 -0.365014 0
M  V30 10706 H 1005.66 -1.97076 -0.549734 0
M  V30 10707 H 1005.67 -2.99354 -2.77221 0
M  V30 10708 H 1004.35 -3.71361 -1.87253 0
M  V30 10709 H 1002.92 -2.2501 -2.97363 0
M  V30 10710 N 1005.11 0.71652 -1.4037 0
M  V30 10711 C 1006.52 1.02447 -1.22379 0
M  V30 10712 C 1006.72 2.0126 -0.0983394 0
M  V30 10713 O 1005.78 2.46569 0.544071 0
M  V30 10714 C 1007.09 1.56909 -2.56515 0
M  V30 10715 C 1008.64 1.68898 -2.6352 0
M  V30 10716 C 1009.12 2.26765 -3.97922 0
M  V30 10717 N 1010.61 2.34152 -3.99658 0
M  V30 10718 C 1011.34 2.79907 -5.00439 0
M  V30 10719 N 1010.84 3.25422 -6.11615 0
M  V30 10720 N 1012.63 2.79283 -4.87809 0
M  V30 10721 H 1004.78 0.0615306 -2.12311 0
M  V30 10722 H 1007.05 0.0898994 -0.943728 0
M  V30 10723 H 1006.75 0.917649 -3.39517 0
M  V30 10724 H 1006.63 2.55446 -2.77538 0
M  V30 10725 H 1009.01 2.33159 -1.8089 0
M  V30 10726 H 1009.09 0.689626 -2.46329 0
M  V30 10727 H 1008.74 1.63126 -4.80991 0
M  V30 10728 H 1008.67 3.27413 -4.12442 0
M  V30 10729 H 1011.16 2.02006 -3.19378 0
M  V30 10730 H 1011.47 3.58899 -6.84406 0
M  V30 10731 H 1009.82 3.23383 -6.15181 0
M  V30 10732 H 1013.01 2.43061 -4.00049 0
M  V30 10733 H 1013.18 3.14626 -5.66493 0
M  V30 10734 N 1006.59 1.25851 0.948643 0
M  V30 10735 C 1007.82 1.13546 1.726 0
M  V30 10736 C 1008.22 -0.312857 1.86595 0
M  V30 10737 O 1007.57 -1.22657 1.36751 0
M  V30 10738 C 1007.63 1.72315 3.15512 0
M  V30 10739 C 1007.29 3.2136 3.24926 0
M  V30 10740 C 1008.29 4.18274 3.08777 0
M  V30 10741 C 1005.98 3.61683 3.48555 0
M  V30 10742 C 1007.97 5.53491 3.16112 0
M  V30 10743 C 1005.66 4.97035 3.55526 0
M  V30 10744 C 1006.65 5.92749 3.3932 0
M  V30 10745 O 1006.34 7.25637 3.45985 0
M  V30 10746 H 1006.07 0.396555 0.547467 0
M  V30 10747 H 1008.63 1.66822 1.19832 0
M  V30 10748 H 1006.86 1.13494 3.6967 0
M  V30 10749 H 1008.55 1.55024 3.7513 0
M  V30 10750 H 1009.31 3.88461 2.90385 0
M  V30 10751 H 1005.19 2.87674 3.60229 0
M  V30 10752 H 1008.74 6.28177 3.0338 0
M  V30 10753 H 1004.63 5.26512 3.73437 0
M  V30 10754 H 1005.4 7.33812 3.62577 0
M  V30 10755 N 1008.06 -1.15214 1.07534 0
M  V30 10756 C 1009.29 -1.89647 0.819614 0
M  V30 10757 C 1009.7 -1.78365 -0.631072 0
M  V30 10758 O 1009.05 -1.1346 -1.44474 0
M  V30 10759 C 1009.11 -3.40573 1.1511 0
M  V30 10760 C 1008.77 -3.7564 2.60276 0
M  V30 10761 C 1009.77 -3.76507 3.58523 0
M  V30 10762 C 1007.45 -4.05891 2.95901 0
M  V30 10763 C 1009.45 -4.07133 4.9043 0
M  V30 10764 C 1007.13 -4.36182 4.28005 0
M  V30 10765 C 1008.13 -4.36785 5.25079 0
M  V30 10766 O 1007.82 -4.66348 6.54809 0
M  V30 10767 H 1007.55 -0.607836 0.295822 0
M  V30 10768 H 1010.11 -1.46895 1.43565 0
M  V30 10769 H 1008.34 -3.83734 0.478033 0
M  V30 10770 H 1010.03 -3.96299 0.877615 0
M  V30 10771 H 1010.79 -3.53233 3.32342 0
M  V30 10772 H 1006.67 -4.0458 2.20989 0
M  V30 10773 H 1010.21 -4.07519 5.66193 0
M  V30 10774 H 1006.11 -4.58924 4.53937 0
M  V30 10775 H 1006.88 -4.84105 6.59988 0
M  V30 10776 N 1009.54 -0.859717 -1.32086 0
M  V30 10777 C 1010.95 -0.519529 -1.79326 0
M  V30 10778 C 1011.3 0.96295 -1.70944 0
M  V30 10779 O 1010.43 1.75139 -1.27104 0
M  V30 10780 C 1011.02 -0.936267 -3.25606 0
M  V30 10781 C 1009.58 -0.647899 -3.70782 0
M  V30 10782 C 1008.73 -1.13323 -2.53087 0
M  V30 10783 H 1011.68 -1.04643 -1.19312 0
M  V30 10784 H 1011.7 -0.254714 -3.79646 0
M  V30 10785 H 1011.21 -2.01527 -3.31675 0
M  V30 10786 H 1009.32 0.420172 -3.70223 0
M  V30 10787 H 1009.43 -1.21774 -4.63366 0
M  V30 10788 H 1007.79 -0.553325 -2.48617 0
M  V30 10789 H 1008.58 -2.21945 -2.61907 0
M  V30 10790 N 1011.02 1.44971 -0.618145 0
M  V30 10791 C 1011.93 2.34403 0.0960457 0
M  V30 10792 C 1012.95 1.51862 0.849355 0
M  V30 10793 O 1014.12 1.84632 0.804557 0
M  V30 10794 C 1011.19 3.29646 1.07397 0
M  V30 10795 C 1010.25 4.28095 0.321466 0
M  V30 10796 C 1009.48 5.18787 1.25281 0
M  V30 10797 O 1009.7 5.1313 2.49106 0
M  V30 10798 O 1008.64 5.97282 0.744156 0
M  V30 10799 H 1012.46 2.96898 -0.639176 0
M  V30 10800 H 1010.05 1.44529 -0.37837 0
M  V30 10801 H 1011.93 3.88307 1.63694 0
M  V30 10802 H 1010.61 2.69702 1.79004 0
M  V30 10803 H 1009.51 3.73019 -0.284223 0
M  V30 10804 H 1010.85 4.90923 -0.354315 0
M  V30 10805 N 1012.5 0.357919 1.53482 0
M  V30 10806 C 1013.74 -0.23451 2.0144 0
M  V30 10807 C 1014.08 -1.49044 1.24497 0
M  V30 10808 O 1013.35 -1.91566 0.336535 0
M  V30 10809 C 1013.64 -0.534193 3.56116 0
M  V30 10810 C 1013.49 0.734834 4.43757 0
M  V30 10811 C 1014.81 -1.33793 4.1927 0
M  V30 10812 H 1011.93 -0.0837595 0.732225 0
M  V30 10813 H 1014.57 0.481297 1.83803 0
M  V30 10814 H 1012.72 -1.144 3.71275 0
M  V30 10815 H 1014.39 1.37251 4.40409 0
M  V30 10816 H 1012.63 1.35678 4.12036 0
M  V30 10817 H 1013.3 0.48021 5.49907 0
M  V30 10818 H 1015.78 -0.822158 4.07897 0
M  V30 10819 H 1014.66 -1.51636 5.27539 0
M  V30 10820 H 1014.92 -2.34423 3.74831 0
M  V30 10821 N 1013.98 -1.5736 0.0868897 0
M  V30 10822 C 1014.92 -2.14793 -0.892571 0
M  V30 10823 C 1015.92 -1.08866 -1.29787 0
M  V30 10824 O 1017.12 -1.27223 -1.27335 0
M  V30 10825 H 1013.5 -0.686998 -0.305838 0
M  V30 10826 H 1015.47 -2.95927 -0.383393 0
M  V30 10827 C 1014.22 -2.73646 -2.14507 0
M  V30 10828 H 1013.54 -3.54835 -1.84207 0
M  V30 10829 H 1014.98 -3.17409 -2.81118 0
M  V30 10830 C 1013.44 -1.69138 -2.91366 0
M  V30 10831 O 1013.97 -1.12539 -3.85614 0
M  V30 10832 N 1012.18 -1.3982 -2.54752 0
M  V30 10833 H 1011.72 -1.86035 -1.78182 0
M  V30 10834 H 1011.68 -0.701316 -3.06478 0
M  V30 10835 N 1015.45 0.186762 -1.56489 0
M  V30 10836 C 1016.36 1.25169 -1.98419 0
M  V30 10837 C 1017.38 1.49329 -0.893124 0
M  V30 10838 O 1018.56 1.61781 -1.19954 0
M  V30 10839 C 1015.62 2.57422 -2.32239 0
M  V30 10840 C 1014.68 2.4126 -3.55095 0
M  V30 10841 C 1013.92 3.67206 -3.87292 0
M  V30 10842 O 1014.14 4.71731 -3.20665 0
M  V30 10843 O 1013.07 3.62238 -4.80695 0
M  V30 10844 H 1016.9 0.925834 -2.89244 0
M  V30 10845 H 1014.48 0.392421 -1.44154 0
M  V30 10846 H 1016.37 3.35466 -2.5503 0
M  V30 10847 H 1015.04 2.89618 -1.44579 0
M  V30 10848 H 1013.95 1.61299 -3.37541 0
M  V30 10849 H 1015.28 2.13994 -4.43247 0
M  V30 10850 N 1016.93 1.50896 0.454776 0
M  V30 10851 C 1017.84 1.73762 1.5762 0
M  V30 10852 C 1018.86 0.621206 1.62533 0
M  V30 10853 O 1020.03 0.901449 1.801 0
M  V30 10854 C 1017.1 1.84183 2.9373 0
M  V30 10855 C 1016.16 3.07982 2.99075 0
M  V30 10856 C 1015.39 3.17896 4.28693 0
M  V30 10857 O 1015.62 2.34184 5.20109 0
M  V30 10858 O 1014.55 4.10749 4.39964 0
M  V30 10859 H 1018.38 2.68856 1.41245 0
M  V30 10860 H 1015.96 1.35187 0.635984 0
M  V30 10861 H 1017.84 1.93123 3.74542 0
M  V30 10862 H 1016.52 0.922742 3.10269 0
M  V30 10863 H 1015.43 3.04531 2.17282 0
M  V30 10864 H 1016.76 3.99523 2.87476 0
M  V30 10865 N 1018.41 -0.709066 1.40748 0
M  V30 10866 C 1019.32 -1.85314 1.43861 0
M  V30 10867 C 1020.34 -1.70832 0.330539 0
M  V30 10868 O 1021.51 -1.92983 0.576152 0
M  V30 10869 C 1018.58 -3.21174 1.30568 0
M  V30 10870 C 1017.64 -3.47863 2.51574 0
M  V30 10871 C 1016.87 -4.77241 2.38906 0
M  V30 10872 O 1017.09 -5.52791 1.40636 0
M  V30 10873 O 1016.03 -5.04413 3.28407 0
M  V30 10874 H 1019.85 -1.85644 2.40354 0
M  V30 10875 H 1017.44 -0.860352 1.2214 0
M  V30 10876 H 1019.32 -4.02313 1.25388 0
M  V30 10877 H 1018 -3.21557 0.371841 0
M  V30 10878 H 1016.9 -2.66708 2.62331 0
M  V30 10879 H 1018.24 -3.52283 3.43741 0
M  V30 10880 N 1019.89 -1.26353 -0.941956 0
M  V30 10881 C 1020.8 -1.09618 -2.07415 0
M  V30 10882 C 1021.82 -0.0298963 -1.73974 0
M  V30 10883 O 1022.99 -0.233466 -2.00042 0
M  V30 10884 C 1020.06 -0.73013 -3.38925 0
M  V30 10885 C 1019.12 -1.87574 -3.86153 0
M  V30 10886 C 1018.35 -1.52706 -5.11387 0
M  V30 10887 O 1018.57 -0.428438 -5.68789 0
M  V30 10888 O 1017.51 -2.36154 -5.53638 0
M  V30 10889 H 1021.33 -2.04598 -2.2444 0
M  V30 10890 H 1018.92 -1.05407 -1.05876 0
M  V30 10891 H 1020.8 -0.538684 -4.17943 0
M  V30 10892 H 1019.48 0.190282 -3.2314 0
M  V30 10893 H 1018.38 -2.12214 -3.08084 0
M  V30 10894 H 1019.72 -2.77585 -4.06457 0
M  V30 10895 N 1021.37 1.14642 -1.08144 0
M  V30 10896 C 1022.28 2.23257 -0.720668 0
M  V30 10897 C 1023.29 1.71866 0.271648 0
M  V30 10898 O 1024.47 2.01064 0.116266 0
M  V30 10899 C 1021.53 3.46447 -0.132542 0
M  V30 10900 C 1020.6 4.12789 -1.17913 0
M  V30 10901 C 1019.83 5.30099 -0.618971 0
M  V30 10902 O 1020.05 5.6762 0.562418 0
M  V30 10903 O 1018.99 5.86154 -1.36774 0
M  V30 10904 H 1022.81 2.56463 -1.62667 0
M  V30 10905 H 1020.4 1.22521 -0.854932 0
M  V30 10906 H 1022.28 4.20959 0.19277 0
M  V30 10907 H 1020.95 3.14971 0.746662 0
M  V30 10908 H 1019.86 3.40163 -1.55693 0
M  V30 10909 H 1021.19 4.48365 -2.03051 0
M  V30 10910 N 1022.85 0.866709 1.31628 0
M  V30 10911 C 1024.26 0.529032 1.79048 0
M  V30 10912 C 1024.61 -0.953871 1.71452 0
M  V30 10913 O 1023.73 -1.74462 1.28031 0
M  V30 10914 C 1024.33 0.953522 3.25105 0
M  V30 10915 C 1022.89 0.667554 3.70433 0
M  V30 10916 C 1022.03 1.14664 2.52483 0
M  V30 10917 H 1024.98 1.05275 1.18756 0
M  V30 10918 H 1025.01 0.274844 3.79506 0
M  V30 10919 H 1024.52 2.03283 3.30602 0
M  V30 10920 H 1022.62 -0.400532 3.70441 0
M  V30 10921 H 1022.73 1.2423 4.62714 0
M  V30 10922 H 1021.1 0.566502 2.4832 0
M  V30 10923 H 1021.88 2.2333 2.60727 0
M  V30 10924 N 1024.32 -1.44642 0.625825 0
M  V30 10925 C 1025.23 -2.34451 -0.0836134 0
M  V30 10926 C 1026.25 -1.5231 -0.841289 0
M  V30 10927 O 1027.43 -1.85056 -0.794754 0
M  V30 10928 C 1024.49 -3.30211 -1.05648 0
M  V30 10929 C 1023.55 -4.28259 -0.298759 0
M  V30 10930 C 1022.78 -5.19444 -1.22528 0
M  V30 10931 O 1023.01 -5.14444 -2.46382 0
M  V30 10932 O 1021.94 -5.97668 -0.71247 0
M  V30 10933 H 1025.77 -2.96555 0.654912 0
M  V30 10934 H 1023.35 -1.44327 0.386029 0
M  V30 10935 H 1025.23 -3.8917 -1.61632 0
M  V30 10936 H 1023.91 -2.70648 -1.77571 0
M  V30 10937 H 1022.82 -3.72863 0.304001 0
M  V30 10938 H 1024.15 -4.90728 0.380345 0
M  V30 10939 N 1025.8 -0.366053 -1.5329 0
M  V30 10940 C 1027.08 0.279902 -1.93587 0
M  V30 10941 C 1027.46 1.66352 -1.29963 0
M  V30 10942 O 1026.81 2.23845 -0.458895 0
M  V30 10943 C 1027.02 0.329634 -3.4744 0
M  V30 10944 C 1028.36 0.569754 -4.2076 0
M  V30 10945 O 1029.39 0.410823 -3.53823 0
M  V30 10946 O 1028.25 0.879262 -5.3938 0
M  V30 10947 H 1025.34 0.16802 -0.809752 0
M  V30 10948 H 1027.89 -0.418871 -1.64449 0
M  V30 10949 H 1026.66 -0.640434 -3.86023 0
M  V30 10950 H 1026.28 1.07428 -3.82812 0
M  V30 10951 N 1027.28 1.57312 -0.0952337 0
M  V30 10952 C 1028.19 2.17556 0.877877 0
M  V30 10953 C 1029.21 1.14505 1.31014 0
M  V30 10954 O 1030.38 1.46876 1.37802 0
M  V30 10955 C 1027.45 2.74413 2.11892 0
M  V30 10956 C 1026.51 3.92419 1.74085 0
M  V30 10957 C 1025.74 4.46556 2.92273 0
M  V30 10958 O 1025.96 3.99631 4.07002 0
M  V30 10959 O 1024.9 5.37576 2.70732 0
M  V30 10960 H 1028.72 3.01116 0.395312 0
M  V30 10961 H 1026.31 1.48841 0.129123 0
M  V30 10962 H 1028.19 3.10754 2.84622 0
M  V30 10963 H 1026.87 1.93899 2.59201 0
M  V30 10964 H 1025.77 3.6089 0.985346 0
M  V30 10965 H 1027.11 4.74298 1.31539 0
M  V30 10966 N 1028.76 -0.17846 1.56586 0
M  V30 10967 C 1030 -0.897562 1.81856 0
M  V30 10968 C 1030.34 -1.82204 0.671955 0
M  V30 10969 O 1029.61 -1.91739 -0.326535 0
M  V30 10970 C 1029.89 -1.69942 3.17477 0
M  V30 10971 C 1029.75 -0.798545 4.42655 0
M  V30 10972 C 1031.07 -2.66861 3.49962 0
M  V30 10973 H 1028.19 -0.324863 0.661539 0
M  V30 10974 H 1030.83 -0.164106 1.8929 0
M  V30 10975 H 1028.98 -2.32471 3.11271 0
M  V30 10976 H 1030.65 -0.18668 4.60922 0
M  V30 10977 H 1028.89 -0.106181 4.3367 0
M  V30 10978 H 1029.56 -1.39496 5.34083 0
M  V30 10979 H 1032.04 -2.1446 3.56576 0
M  V30 10980 H 1030.92 -3.20037 4.45946 0
M  V30 10981 H 1031.18 -3.46715 2.74301 0
M  V30 10982 N 1030.24 -1.51135 -0.446768 0
M  V30 10983 C 1031.17 -1.67949 -1.55967 0
M  V30 10984 C 1032.18 -0.560337 -1.52853 0
M  V30 10985 O 1033.37 -0.83435 -1.578 0
M  V30 10986 C 1030.47 -1.6703 -2.9488 0
M  V30 10987 C 1029.64 -2.95377 -3.22601 0
M  V30 10988 C 1028.7 -2.86772 -4.4119 0
M  V30 10989 O 1027.73 -3.60722 -4.40304 0
M  V30 10990 N 1028.93 -2.01979 -5.44228 0
M  V30 10991 H 1031.69 -2.63951 -1.41951 0
M  V30 10992 H 1029.26 -1.48903 -0.635569 0
M  V30 10993 H 1031.25 -1.58854 -3.7222 0
M  V30 10994 H 1029.82 -0.786623 -3.02541 0
M  V30 10995 H 1029.04 -3.17494 -2.33647 0
M  V30 10996 H 1030.33 -3.80356 -3.37945 0
M  V30 10997 H 1029.72 -1.41257 -5.4778 0
M  V30 10998 H 1028.28 -1.99689 -6.20457 0
M  V30 10999 N 1031.71 0.701592 -1.41122 0
M  V30 11000 C 1032.96 1.46245 -1.41364 0
M  V30 11001 C 1033.31 1.9239 -0.0200662 0
M  V30 11002 O 1032.61 1.6622 0.952971 0
M  V30 11003 C 1032.8 2.693 -2.34973 0
M  V30 11004 C 1032.63 2.35193 -3.83294 0
M  V30 11005 C 1031.4 2.2585 -4.52018 0
M  V30 11006 C 1033.6 1.98555 -4.74426 0
M  V30 11007 N 1031.58 1.84565 -5.85499 0
M  V30 11008 C 1032.95 1.67981 -5.9681 0
M  V30 11009 C 1035.01 1.85313 -4.62129 0
M  V30 11010 C 1033.71 1.25496 -7.08268 0
M  V30 11011 C 1035.74 1.44232 -5.73543 0
M  V30 11012 C 1035.1 1.14564 -6.95021 0
M  V30 11013 H 1031.2 0.532679 -0.572518 0
M  V30 11014 H 1033.78 0.812296 -1.76946 0
M  V30 11015 H 1031.95 3.32045 -2.01496 0
M  V30 11016 H 1033.68 3.35734 -2.25976 0
M  V30 11017 H 1030.44 2.4405 -4.05878 0
M  V30 11018 H 1030.86 1.66421 -6.56226 0
M  V30 11019 H 1035.5 2.06905 -3.68714 0
M  V30 11020 H 1033.22 1.02647 -8.01554 0
M  V30 11021 H 1036.81 1.34544 -5.66029 0
M  V30 11022 H 1035.69 0.832556 -7.79768 0
M  V30 11023 N 1033.19 1.2685 0.935242 0
M  V30 11024 C 1034.42 1.15538 1.71635 0
M  V30 11025 C 1034.83 -0.288698 1.8658 0
M  V30 11026 O 1034.19 -1.19721 1.37743 0
M  V30 11027 C 1034.24 1.8259 3.11999 0
M  V30 11028 O 1033.96 3.21355 2.97763 0
M  V30 11029 C 1035.46 1.77307 4.06297 0
M  V30 11030 H 1032.68 0.402055 0.537208 0
M  V30 11031 H 1035.23 1.67582 1.17203 0
M  V30 11032 H 1033.38 1.3447 3.63313 0
M  V30 11033 H 1033.8 3.54626 3.86446 0
M  V30 11034 H 1035.27 2.28851 5.02326 0
M  V30 11035 H 1035.75 0.740823 4.32907 0
M  V30 11036 H 1036.35 2.25007 3.60904 0
M  V30 11037 N 1034.67 -1.14067 1.0875 0
M  V30 11038 C 1035.58 -2.22871 0.732498 0
M  V30 11039 C 1036.6 -1.72008 -0.26253 0
M  V30 11040 O 1037.77 -2.01123 -0.105601 0
M  V30 11041 C 1034.84 -3.46371 0.150913 0
M  V30 11042 C 1033.9 -4.12158 1.201 0
M  V30 11043 C 1033.13 -5.29763 0.647075 0
M  V30 11044 O 1033.35 -5.67911 -0.532307 0
M  V30 11045 O 1032.29 -5.8542 1.3988 0
M  V30 11046 H 1036.11 -2.55596 1.64025 0
M  V30 11047 H 1033.7 -1.22065 0.861417 0
M  V30 11048 H 1035.58 -4.21055 -0.170442 0
M  V30 11049 H 1034.26 -3.15362 -0.729948 0
M  V30 11050 H 1033.16 -3.39332 1.57494 0
M  V30 11051 H 1034.5 -4.47282 2.05426 0
M  V30 11052 N 1036.15 -0.873678 -1.31166 0
M  V30 11053 C 1037.56 -0.566109 -1.49223 0
M  V30 11054 C 1037.76 0.898889 -1.80339 0
M  V30 11055 O 1036.82 1.68084 -1.88425 0
M  V30 11056 C 1038.13 -1.46952 -2.62346 0
M  V30 11057 C 1039.68 -1.47195 -2.76229 0
M  V30 11058 C 1040.16 -2.36102 -3.92454 0
M  V30 11059 N 1041.65 -2.34003 -3.99746 0
M  V30 11060 C 1042.38 -2.99513 -4.88958 0
M  V30 11061 N 1041.88 -3.74206 -5.83045 0
M  V30 11062 N 1043.67 -2.88802 -4.82234 0
M  V30 11063 H 1035.82 -1.82156 -1.09239 0
M  V30 11064 H 1038.09 -0.779086 -0.54012 0
M  V30 11065 H 1037.79 -2.51213 -2.4614 0
M  V30 11066 H 1037.67 -1.17077 -3.5857 0
M  V30 11067 H 1040.05 -0.436902 -2.91848 0
M  V30 11068 H 1040.13 -1.81095 -1.80661 0
M  V30 11069 H 1039.78 -3.39685 -3.77593 0
M  V30 11070 H 1039.71 -1.99524 -4.87337 0
M  V30 11071 H 1042.2 -1.79713 -3.32433 0
M  V30 11072 H 1042.51 -4.21312 -6.47855 0
M  V30 11073 H 1040.86 -3.78314 -5.83012 0
M  V30 11074 H 1044.05 -2.29984 -4.07707 0
M  V30 11075 H 1044.22 -3.40136 -5.51554 0
M  V30 11076 N 1037.63 1.44308 -0.633487 0
M  V30 11077 C 1038.54 2.34492 0.0711787 0
M  V30 11078 C 1039.55 1.52754 0.8332 0
M  V30 11079 O 1040.73 1.85475 0.784929 0
M  V30 11080 C 1037.79 3.30767 1.03895 0
M  V30 11081 C 1036.85 4.28412 0.276043 0
M  V30 11082 C 1036.09 5.20087 1.19772 0
M  V30 11083 O 1036.31 5.15743 2.4365 0
M  V30 11084 O 1035.24 5.98038 0.680764 0
M  V30 11085 H 1039.07 2.96203 -0.67063 0
M  V30 11086 H 1036.66 1.4412 -0.393678 0
M  V30 11087 H 1038.54 3.90021 1.59566 0
M  V30 11088 H 1037.21 2.71586 1.76133 0
M  V30 11089 H 1036.12 3.72696 -0.32377 0
M  V30 11090 H 1037.45 4.9052 -0.406364 0
M  V30 11091 N 1039.1 0.374177 1.53094 0
M  V30 11092 C 1040.34 -0.21278 2.03289 0
M  V30 11093 C 1040.71 -1.45291 1.25517 0
M  V30 11094 O 1041.91 -2.11605 1.65761 0
M  V30 11095 C 1040.18 -0.48913 3.54037 0
M  V30 11096 S 1041.74 -1.04853 4.26088 0
M  V30 11097 H 1038.56 -0.0612752 0.708355 0
M  V30 11098 H 1041.16 0.519031 1.88484 0
M  V30 11099 H 1039.86 0.420786 4.08237 0
M  V30 11100 H 1039.39 -1.24978 3.7302 0
M  V30 11101 H 1041.41 -2.33213 4.3798 0
M  V30 11102 N 1040.58 -1.57259 0.103575 0
M  V30 11103 C 1041.49 -2.18018 -0.866327 0
M  V30 11104 C 1042.51 -1.15198 -1.30404 0
M  V30 11105 O 1043.68 -1.47605 -1.37021 0
M  V30 11106 C 1040.75 -2.75533 -2.10434 0
M  V30 11107 C 1039.81 -3.93337 -1.72002 0
M  V30 11108 C 1039.04 -4.481 -2.89901 0
M  V30 11109 O 1039.27 -4.01784 -4.04877 0
M  V30 11110 O 1038.2 -5.39004 -2.67877 0
M  V30 11111 H 1042.03 -3.01322 -0.379338 0
M  V30 11112 H 1039.61 -1.48907 -0.121228 0
M  V30 11113 H 1041.49 -3.12259 -2.8297 0
M  V30 11114 H 1040.17 -1.9527 -2.58169 0
M  V30 11115 H 1039.08 -3.61408 -0.966193 0
M  V30 11116 H 1040.41 -4.74989 -1.29022 0
M  V30 11117 N 1042.06 0.170153 -1.56679 0
M  V30 11118 C 1042.99 1.21285 -1.9953 0
M  V30 11119 C 1043.97 1.46104 -0.871071 0
M  V30 11120 O 1045.16 1.57419 -1.13724 0
M  V30 11121 C 1042.29 2.5515 -2.35618 0
M  V30 11122 C 1041.24 2.44898 -3.51011 0
M  V30 11123 C 1040.57 3.83263 -3.72845 0
M  V30 11124 C 1041.87 1.95271 -4.84424 0
M  V30 11125 H 1043.56 0.856646 -2.86883 0
M  V30 11126 H 1041.11 0.410634 -1.38021 0
M  V30 11127 H 1043.06 3.28299 -2.64193 0
M  V30 11128 H 1041.78 2.92561 -1.45175 0
M  V30 11129 H 1040.44 1.74203 -3.22566 0
M  V30 11130 H 1040.09 4.18069 -2.79691 0
M  V30 11131 H 1039.79 3.77272 -4.50488 0
M  V30 11132 H 1041.31 4.57996 -4.03822 0
M  V30 11133 H 1042.73 2.58195 -5.11867 0
M  V30 11134 H 1041.13 2.00225 -5.65712 0
M  V30 11135 H 1042.2 0.90709 -4.7634 0
M  V30 11136 N 1043.54 1.5137 0.438746 0
M  V30 11137 C 1044.5 1.71993 1.51496 0
M  V30 11138 C 1045.5 0.589978 1.49586 0
M  V30 11139 O 1046.69 0.857505 1.51633 0
M  V30 11140 C 1043.82 1.77508 2.91039 0
M  V30 11141 H 1045.02 2.68041 1.34514 0
M  V30 11142 H 1042.57 1.41338 0.667326 0
M  V30 11143 H 1043.3 0.832698 3.13427 0
M  V30 11144 H 1043.09 2.59627 2.9383 0
M  V30 11145 H 1044.58 1.95308 3.69113 0
M  V30 11146 N 1045.02 -0.694098 1.41492 0
M  V30 11147 C 1045.95 -1.82042 1.46229 0
M  V30 11148 C 1046.93 -1.67047 0.320803 0
M  V30 11149 O 1048.11 -1.86758 0.53245 0
M  V30 11150 C 1045.24 -3.2019 1.34519 0
M  V30 11151 C 1044.2 -3.49892 2.46495 0
M  V30 11152 C 1043.52 -4.87411 2.1985 0
M  V30 11153 C 1044.82 -3.4872 3.88834 0
M  V30 11154 H 1046.52 -1.78335 2.40493 0
M  V30 11155 H 1044.06 -0.856566 1.15754 0
M  V30 11156 H 1046.02 -3.98699 1.36445 0
M  V30 11157 H 1044.74 -3.24527 0.367406 0
M  V30 11158 H 1043.4 -2.73734 2.43854 0
M  V30 11159 H 1043.05 -4.88375 1.20411 0
M  V30 11160 H 1042.75 -5.08248 2.94885 0
M  V30 11161 H 1044.27 -5.68228 2.23494 0
M  V30 11162 H 1045.68 -4.1723 3.93182 0
M  V30 11163 H 1044.08 -3.81089 4.63564 0
M  V30 11164 H 1045.15 -2.47665 4.16881 0
M  V30 11165 N 1046.49 -1.27344 -0.928501 0
M  V30 11166 C 1047.74 -1.14813 -1.67897 0
M  V30 11167 C 1048.1 0.303129 -1.89997 0
M  V30 11168 O 1047.39 1.21844 -1.47867 0
M  V30 11169 C 1047.58 -1.86439 -3.04918 0
M  V30 11170 C 1047.41 -3.38381 -2.96189 0
M  V30 11171 C 1046.18 -4.07698 -2.98514 0
M  V30 11172 C 1048.38 -4.3437 -2.75367 0
M  V30 11173 N 1046.36 -5.46215 -2.80218 0
M  V30 11174 C 1047.73 -5.60149 -2.65768 0
M  V30 11175 C 1049.79 -4.2447 -2.60249 0
M  V30 11176 C 1048.49 -6.77157 -2.42593 0
M  V30 11177 C 1050.52 -5.41198 -2.3845 0
M  V30 11178 C 1049.88 -6.65933 -2.29593 0
M  V30 11179 H 1045.98 -0.47499 -0.621215 0
M  V30 11180 H 1048.56 -1.60802 -1.09776 0
M  V30 11181 H 1046.73 -1.42907 -3.61154 0
M  V30 11182 H 1048.46 -1.6642 -3.68899 0
M  V30 11183 H 1045.22 -3.59158 -3.08711 0
M  V30 11184 H 1045.64 -6.18985 -2.74203 0
M  V30 11185 H 1050.29 -3.28756 -2.65856 0
M  V30 11186 H 1048 -7.72955 -2.35725 0
M  V30 11187 H 1051.59 -5.35417 -2.27639 0
M  V30 11188 H 1050.47 -7.54732 -2.12952 0
M  V30 11189 N 1047.97 1.13488 -1.09353 0
M  V30 11190 C 1048.94 2.17066 -0.735863 0
M  V30 11191 C 1049.94 1.59086 0.234181 0
M  V30 11192 O 1051.13 1.74196 0.012463 0
M  V30 11193 C 1048.26 3.40786 -0.0880975 0
M  V30 11194 H 1049.45 2.50221 -1.65316 0
M  V30 11195 H 1047 1.28304 -0.89263 0
M  V30 11196 H 1047.74 3.1322 0.840462 0
M  V30 11197 H 1047.52 3.8414 -0.786073 0
M  V30 11198 H 1049.01 4.17342 0.146775 0
M  V30 11199 N 1049.45 0.880621 1.30701 0
M  V30 11200 C 1050.7 0.496875 1.96309 0
M  V30 11201 C 1051.03 -0.953064 1.69549 0
M  V30 11202 O 1050.28 -1.68782 0.990507 0
M  V30 11203 C 1050.58 0.713203 3.50212 0
M  V30 11204 C 1050.25 2.13756 3.97013 0
M  V30 11205 C 1048.91 2.52706 4.09503 0
M  V30 11206 C 1051.26 3.066 4.21481 0
M  V30 11207 C 1048.59 3.8372 4.43819 0
M  V30 11208 C 1050.94 4.3714 4.57265 0
M  V30 11209 C 1049.6 4.7599 4.67963 0
M  V30 11210 H 1048.87 0.18182 0.718347 0
M  V30 11211 H 1051.52 1.11564 1.55646 0
M  V30 11212 H 1049.83 0.0113694 3.91798 0
M  V30 11213 H 1051.52 0.39595 3.9904 0
M  V30 11214 H 1048.11 1.8252 3.87794 0
M  V30 11215 H 1052.3 2.77729 4.11315 0
M  V30 11216 H 1047.55 4.13568 4.50301 0
M  V30 11217 H 1051.73 5.09123 4.75149 0
M  V30 11218 H 1049.35 5.77549 4.94309 0
M  V30 11219 N 1050.93 -1.4397 0.641131 0
M  V30 11220 C 1052.35 -1.56607 0.30762 0
M  V30 11221 C 1052.55 -1.62694 -1.18882 0
M  V30 11222 O 1051.6 -1.57541 -1.97325 0
M  V30 11223 C 1052.91 -2.83289 1.00834 0
M  V30 11224 C 1054.46 -2.97016 0.98744 0
M  V30 11225 C 1054.94 -4.26514 1.66882 0
M  V30 11226 N 1056.43 -4.33351 1.63589 0
M  V30 11227 C 1057.16 -5.32292 2.13196 0
M  V30 11228 N 1056.66 -6.37582 2.71038 0
M  V30 11229 N 1058.45 -5.23866 2.03766 0
M  V30 11230 H 1050.6 -1.38262 1.61237 0
M  V30 11231 H 1052.87 -0.663221 0.677378 0
M  V30 11232 H 1052.57 -2.84812 2.06337 0
M  V30 11233 H 1052.45 -3.73134 0.552333 0
M  V30 11234 H 1054.83 -2.95041 -0.0591395 0
M  V30 11235 H 1054.91 -2.08493 1.48203 0
M  V30 11236 H 1054.56 -4.2925 2.71491 0
M  V30 11237 H 1054.49 -5.13912 1.14898 0
M  V30 11238 H 1056.98 -3.5788 1.21368 0
M  V30 11239 H 1057.29 -7.09378 3.06597 0
M  V30 11240 H 1055.64 -6.38239 2.75093 0
M  V30 11241 H 1058.83 -4.40524 1.58291 0
M  V30 11242 H 1059 -6.00819 2.42737 0
M  V30 11243 N 1052.41 -0.382291 -1.52893 0
M  V30 11244 C 1053.35 0.456234 -2.26246 0
M  V30 11245 C 1054.32 1.06366 -1.27575 0
M  V30 11246 O 1055.51 1.09301 -1.5639 0
M  V30 11247 C 1052.65 1.5813 -3.06739 0
M  V30 11248 C 1051.76 0.997416 -4.20328 0
M  V30 11249 C 1050.9 2.09296 -4.8823 0
M  V30 11250 C 1049.94 1.4846 -5.93823 0
M  V30 11251 N 1049.07 2.51916 -6.55349 0
M  V30 11252 H 1053.91 -0.175761 -2.97481 0
M  V30 11253 H 1051.45 -0.0985046 -1.4677 0
M  V30 11254 H 1053.41 2.24426 -3.51694 0
M  V30 11255 H 1052.04 2.18371 -2.37727 0
M  V30 11256 H 1051.09 0.224251 -3.79738 0
M  V30 11257 H 1052.4 0.512784 -4.96157 0
M  V30 11258 H 1051.56 2.83377 -5.36453 0
M  V30 11259 H 1050.3 2.61116 -4.1191 0
M  V30 11260 H 1049.3 0.729001 -5.44946 0
M  V30 11261 H 1050.53 0.97443 -6.72073 0
M  V30 11262 H 1048.47 3.02919 -5.81873 0
M  V30 11263 H 1048.39 2.08188 -7.26769 0
M  V30 11264 H 1049.66 3.25649 -7.08218 0
M  V30 11265 N 1053.89 1.57202 -0.111913 0
M  V30 11266 C 1055.13 1.96035 0.542393 0
M  V30 11267 C 1055.49 0.993925 1.64739 0
M  V30 11268 O 1054.78 0.0227369 1.91587 0
M  V30 11269 C 1054.97 3.39152 1.12741 0
M  V30 11270 C 1054.8 4.49628 0.0806232 0
M  V30 11271 C 1053.57 5.04095 -0.348737 0
M  V30 11272 C 1055.77 5.09546 -0.697655 0
M  V30 11273 N 1053.75 5.98141 -1.38204 0
M  V30 11274 C 1055.12 5.99468 -1.58234 0
M  V30 11275 C 1057.18 4.92229 -0.749324 0
M  V30 11276 C 1055.88 6.7393 -2.51418 0
M  V30 11277 C 1057.91 5.67366 -1.66884 0
M  V30 11278 C 1057.27 6.56968 -2.54112 0
M  V30 11279 H 1053.37 0.763672 0.168311 0
M  V30 11280 H 1055.95 1.93687 -0.198387 0
M  V30 11281 H 1054.12 3.42161 1.83794 0
M  V30 11282 H 1055.86 3.65125 1.74546 0
M  V30 11283 H 1052.61 4.73581 0.042288 0
M  V30 11284 H 1053.03 6.49868 -1.8974 0
M  V30 11285 H 1057.68 4.22706 -0.0890808 0
M  V30 11286 H 1055.39 7.42704 -3.18459 0
M  V30 11287 H 1058.98 5.55974 -1.71417 0
M  V30 11288 H 1057.86 7.1409 -3.24107 0
M  V30 11289 N 1055.36 -0.161842 1.56767 0
M  V30 11290 C 1056.31 -1.2002 1.97139 0
M  V30 11291 C 1057.28 -1.43486 0.836713 0
M  V30 11292 O 1058.47 -1.56069 1.0976 0
M  V30 11293 C 1055.61 -2.53228 2.34456 0
M  V30 11294 C 1054.72 -2.37062 3.61145 0
M  V30 11295 C 1053.85 -3.63202 3.87631 0
M  V30 11296 C 1052.89 -3.42008 5.07638 0
M  V30 11297 N 1052.03 -4.60242 5.30209 0
M  V30 11298 H 1056.87 -0.848918 2.85653 0
M  V30 11299 H 1054.41 -0.407753 1.41336 0
M  V30 11300 H 1056.36 -3.30879 2.54116 0
M  V30 11301 H 1054.99 -2.86333 1.4904 0
M  V30 11302 H 1054.05 -1.50539 3.49345 0
M  V30 11303 H 1055.36 -2.17353 4.48953 0
M  V30 11304 H 1054.51 -4.49285 4.0771 0
M  V30 11305 H 1053.25 -3.85899 2.98216 0
M  V30 11306 H 1052.26 -2.54312 4.87448 0
M  V30 11307 H 1053.48 -3.20724 5.98593 0
M  V30 11308 H 1051.43 -4.8314 4.43747 0
M  V30 11309 H 1051.34 -4.43481 6.12259 0
M  V30 11310 H 1052.61 -5.47581 5.54775 0
M  V30 11311 N 1056.84 -1.516 -0.430713 0
M  V30 11312 C 1058.09 -1.65801 -1.17821 0
M  V30 11313 C 1058.44 -0.372769 -1.88754 0
M  V30 11314 O 1057.74 0.631767 -1.80885 0
M  V30 11315 C 1057.93 -2.804 -2.21609 0
M  V30 11316 C 1057.76 -4.19944 -1.60863 0
M  V30 11317 C 1056.53 -4.85786 -1.39068 0
M  V30 11318 C 1058.73 -5.02806 -1.08124 0
M  V30 11319 N 1056.71 -6.09425 -0.73989 0
M  V30 11320 C 1058.08 -6.17501 -0.556114 0
M  V30 11321 C 1060.13 -4.88288 -0.973635 0
M  V30 11322 C 1058.84 -7.1927 0.0660558 0
M  V30 11323 C 1060.86 -5.9027 -0.36535 0
M  V30 11324 C 1060.23 -7.04242 0.149205 0
M  V30 11325 H 1056.32 -0.660545 -0.418574 0
M  V30 11326 H 1058.91 -1.88847 -0.473799 0
M  V30 11327 H 1057.08 -2.59006 -2.89431 0
M  V30 11328 H 1058.81 -2.83747 -2.88565 0
M  V30 11329 H 1055.57 -4.4377 -1.65425 0
M  V30 11330 H 1055.99 -6.75622 -0.431745 0
M  V30 11331 H 1060.63 -4.00421 -1.35731 0
M  V30 11332 H 1058.35 -8.06779 0.461848 0
M  V30 11333 H 1061.94 -5.81107 -0.283902 0
M  V30 11334 H 1060.82 -7.81804 0.61249 0
M  V30 11335 N 1058.32 0.686584 -1.41858 0
M  V30 11336 C 1059.55 1.47305 -1.44862 0
M  V30 11337 C 1059.96 1.8912 -0.0549286 0
M  V30 11338 O 1059.3 1.57941 0.938101 0
M  V30 11339 C 1059.36 2.76107 -2.30229 0
M  V30 11340 C 1059.03 2.5644 -3.78269 0
M  V30 11341 C 1060.02 2.21803 -4.70212 0
M  V30 11342 C 1057.71 2.71801 -4.22409 0
M  V30 11343 C 1059.7 2.02778 -6.04284 0
M  V30 11344 C 1057.39 2.52392 -5.56544 0
M  V30 11345 C 1058.39 2.17933 -6.47298 0
M  V30 11346 O 1058.08 1.98701 -7.78956 0
M  V30 11347 H 1057.81 0.460174 -0.495193 0
M  V30 11348 H 1060.36 0.852069 -1.86893 0
M  V30 11349 H 1058.59 3.40644 -1.83026 0
M  V30 11350 H 1060.28 3.37947 -2.24826 0
M  V30 11351 H 1061.05 2.09542 -4.37398 0
M  V30 11352 H 1056.93 2.97605 -3.52069 0
M  V30 11353 H 1060.47 1.75805 -6.75084 0
M  V30 11354 H 1056.37 2.64246 -5.88935 0
M  V30 11355 H 1057.13 2.13393 -7.90193 0
M  V30 11356 N 1059.8 1.27835 0.921735 0
M  V30 11357 C 1060.73 1.06874 2.02758 0
M  V30 11358 C 1061.74 0.0229418 1.62784 0
M  V30 11359 O 1062.93 0.265145 1.7652 0
M  V30 11360 C 1060.03 0.60037 3.3354 0
M  V30 11361 C 1059.2 1.71979 4.02172 0
M  V30 11362 C 1058.26 1.24615 5.11231 0
M  V30 11363 O 1057.29 1.94692 5.34868 0
M  V30 11364 N 1058.49 0.105021 5.80405 0
M  V30 11365 H 1061.26 2.02105 2.213 0
M  V30 11366 H 1058.82 1.19481 1.09251 0
M  V30 11367 H 1060.81 0.267281 4.03816 0
M  V30 11368 H 1059.38 -0.258872 3.11526 0
M  V30 11369 H 1058.6 2.22287 3.25549 0
M  V30 11370 H 1059.89 2.47092 4.44773 0
M  V30 11371 H 1059.29 -0.479745 5.63662 0
M  V30 11372 H 1057.84 -0.168846 6.51581 0
M  V30 11373 N 1061.28 -1.12907 1.09954 0
M  V30 11374 C 1062.52 -1.84306 0.838912 0
M  V30 11375 C 1062.85 -1.83825 -0.635508 0
M  V30 11376 O 1062.11 -1.27556 -1.48418 0
M  V30 11377 C 1062.4 -3.31885 1.32616 0
M  V30 11378 C 1062.07 -3.52542 2.81114 0
M  V30 11379 C 1060.73 -3.57888 3.21667 0
M  V30 11380 C 1063.08 -3.60065 3.76833 0
M  V30 11381 C 1060.41 -3.68296 4.567 0
M  V30 11382 C 1062.76 -3.72001 5.11662 0
M  V30 11383 C 1061.43 -3.75602 5.51797 0
M  V30 11384 H 1060.7 -0.674422 0.30698 0
M  V30 11385 H 1063.35 -1.33261 1.37527 0
M  V30 11386 H 1061.65 -3.85318 0.709719 0
M  V30 11387 H 1063.35 -3.85588 1.10105 0
M  V30 11388 H 1059.94 -3.4904 2.48735 0
M  V30 11389 H 1064.12 -3.55209 3.46612 0
M  V30 11390 H 1059.38 -3.69352 4.87226 0
M  V30 11391 H 1063.55 -3.76765 5.8568 0
M  V30 11392 H 1061.18 -3.83419 6.56425 0
M  V30 11393 N 1062.75 -0.88754 -1.30232 0
M  V30 11394 C 1063.98 -0.522306 -2.00199 0
M  V30 11395 C 1064.4 0.889866 -1.66514 0
M  V30 11396 O 1063.75 1.58558 -0.903639 0
M  V30 11397 C 1063.8 -0.690551 -3.54843 0
M  V30 11398 O 1063.53 -2.04713 -3.8733 0
M  V30 11399 C 1065.03 -0.328649 -4.4208 0
M  V30 11400 H 1062.25 -0.201628 -0.63999 0
M  V30 11401 H 1064.79 -1.19355 -1.66056 0
M  V30 11402 H 1062.95 -0.0666493 -3.87343 0
M  V30 11403 H 1063.36 -2.06762 -4.82027 0
M  V30 11404 H 1064.83 -0.497257 -5.49756 0
M  V30 11405 H 1065.31 0.733502 -4.33032 0
M  V30 11406 H 1065.92 -0.928982 -4.1503 0
M  V30 11407 N 1064.23 1.43628 -0.648757 0
M  V30 11408 C 1065.46 2.06732 -0.166284 0
M  V30 11409 C 1065.88 1.48281 1.15734 0
M  V30 11410 O 1065.24 0.591018 1.71396 0
M  V30 11411 C 1065.29 3.60502 -0.0838732 0
M  V30 11412 O 1064.39 4.01186 0.955185 0
M  V30 11413 H 1063.73 0.657479 -0.0928285 0
M  V30 11414 H 1066.26 1.84208 -0.890421 0
M  V30 11415 H 1066.27 4.07875 0.100923 0
M  V30 11416 H 1064.95 4.02424 -1.05014 0
M  V30 11417 H 1063.53 3.65412 0.743537 0
M  V30 11418 N 1065.71 0.390394 1.52688 0
M  V30 11419 C 1066.64 -0.43567 2.294 0
M  V30 11420 C 1067.62 -1.06253 1.32832 0
M  V30 11421 O 1068.81 -1.07509 1.61726 0
M  V30 11422 C 1065.94 -1.56259 3.10162 0
M  V30 11423 C 1064.89 -1.06172 4.14622 0
M  V30 11424 C 1064.22 -2.2808 4.83615 0
M  V30 11425 C 1065.52 -0.128902 5.22141 0
M  V30 11426 H 1067.21 0.204384 2.98702 0
M  V30 11427 H 1064.76 0.0997377 1.43654 0
M  V30 11428 H 1066.71 -2.14732 3.62585 0
M  V30 11429 H 1065.43 -2.23025 2.38595 0
M  V30 11430 H 1064.09 -0.499518 3.63181 0
M  V30 11431 H 1063.74 -2.93358 4.08595 0
M  V30 11432 H 1063.44 -1.95227 5.5422 0
M  V30 11433 H 1064.96 -2.87193 5.38844 0
M  V30 11434 H 1066.38 -0.621849 5.69917 0
M  V30 11435 H 1064.78 0.109919 5.99999 0
M  V30 11436 H 1065.85 0.821884 4.77884 0
M  V30 11437 N 1067.19 -1.57141 0.120249 0
M  V30 11438 C 1068.6 -1.5784 -0.236335 0
M  V30 11439 C 1068.8 -1.13304 -1.66626 0
M  V30 11440 O 1067.86 -0.821004 -2.3878 0
M  V30 11441 C 1069.17 -3.007 -0.00188211 0
M  V30 11442 C 1070.72 -3.12927 -0.0676838 0
M  V30 11443 C 1071.2 -4.57789 0.139092 0
M  V30 11444 N 1072.69 -4.63122 0.085104 0
M  V30 11445 C 1073.42 -5.72978 0.219983 0
M  V30 11446 N 1072.92 -6.91579 0.411102 0
M  V30 11447 N 1074.71 -5.61874 0.159469 0
M  V30 11448 H 1066.86 -1.84391 1.05422 0
M  V30 11449 H 1069.13 -0.852228 0.415225 0
M  V30 11450 H 1068.83 -3.37575 0.986718 0
M  V30 11451 H 1068.71 -3.70005 -0.733203 0
M  V30 11452 H 1071.09 -2.75909 -1.04681 0
M  V30 11453 H 1071.17 -2.46162 0.695538 0
M  V30 11454 H 1070.82 -4.95506 1.1152 0
M  V30 11455 H 1070.75 -5.22646 -0.644131 0
M  V30 11456 H 1073.24 -3.77854 -0.0590479 0
M  V30 11457 H 1073.55 -7.71149 0.504851 0
M  V30 11458 H 1071.9 -6.9356 0.447091 0
M  V30 11459 H 1075.09 -4.68099 0.0111131 0
M  V30 11460 H 1075.26 -6.47445 0.268028 0
M  V30 11461 N 1068.67 0.153526 -1.5685 0
M  V30 11462 C 1069.94 0.895545 -1.73895 0
M  V30 11463 C 1070.32 1.99625 -0.686504 0
M  V30 11464 O 1069.67 2.26579 0.2957 0
M  V30 11465 C 1069.88 1.44399 -3.17726 0
M  V30 11466 C 1071.23 1.90996 -3.79217 0
M  V30 11467 O 1072.25 1.54155 -3.21115 0
M  V30 11468 O 1071.11 2.58917 -4.81274 0
M  V30 11469 H 1068.21 0.422755 -0.710779 0
M  V30 11470 H 1070.75 0.139961 -1.69122 0
M  V30 11471 H 1069.52 0.652635 -3.85819 0
M  V30 11472 H 1069.15 2.26326 -3.26898 0
M  V30 11473 N 1070.14 1.51827 0.422667 0
M  V30 11474 C 1071.07 1.77152 1.52117 0
M  V30 11475 C 1072.06 0.621895 1.58324 0
M  V30 11476 O 1073.24 0.866118 1.73816 0
M  V30 11477 C 1070.37 1.90991 2.90068 0
M  V30 11478 C 1069.32 3.06516 2.98717 0
M  V30 11479 C 1068.65 3.05559 4.38791 0
M  V30 11480 C 1069.95 4.46223 2.71445 0
M  V30 11481 H 1071.64 2.69135 1.31175 0
M  V30 11482 H 1069.19 1.29507 0.629607 0
M  V30 11483 H 1071.14 2.07291 3.6689 0
M  V30 11484 H 1069.87 0.956688 3.12274 0
M  V30 11485 H 1068.53 2.89945 2.24338 0
M  V30 11486 H 1068.17 2.07985 4.57986 0
M  V30 11487 H 1067.87 3.83144 4.45505 0
M  V30 11488 H 1069.4 3.23971 5.17566 0
M  V30 11489 H 1070.81 4.63069 3.37994 0
M  V30 11490 H 1069.21 5.25623 2.89552 0
M  V30 11491 H 1070.28 4.5525 1.6696 0
M  V30 11492 N 1071.62 -0.679052 1.4222 0
M  V30 11493 C 1072.55 -1.80481 1.48152 0
M  V30 11494 C 1073.53 -1.66698 0.338502 0
M  V30 11495 O 1074.72 -1.86183 0.552228 0
M  V30 11496 C 1071.85 -3.18746 1.37908 0
M  V30 11497 C 1070.8 -3.47258 2.50192 0
M  V30 11498 C 1070.13 -4.85052 2.25008 0
M  V30 11499 C 1071.43 -3.44576 3.92511 0
M  V30 11500 H 1073.12 -1.75774 2.42371 0
M  V30 11501 H 1070.67 -0.844241 1.16656 0
M  V30 11502 H 1072.62 -3.97229 1.40666 0
M  V30 11503 H 1071.35 -3.24119 0.401806 0
M  V30 11504 H 1070 -2.71133 2.46744 0
M  V30 11505 H 1069.65 -4.8707 1.25584 0
M  V30 11506 H 1069.35 -5.05092 3.00259 0
M  V30 11507 H 1070.88 -5.65825 2.29508 0
M  V30 11508 H 1072.29 -4.13036 3.97585 0
M  V30 11509 H 1070.69 -3.76151 4.67579 0
M  V30 11510 H 1071.76 -2.4323 4.19484 0
M  V30 11511 N 1073.1 -1.28322 -0.914942 0
M  V30 11512 C 1074.35 -1.16587 -1.6667 0
M  V30 11513 C 1074.7 0.282961 -1.90308 0
M  V30 11514 O 1073.99 1.20269 -1.49151 0
M  V30 11515 C 1074.19 -1.89663 -3.02924 0
M  V30 11516 C 1074.02 -3.41504 -2.92584 0
M  V30 11517 C 1072.79 -4.10841 -2.94173 0
M  V30 11518 C 1074.99 -4.37266 -2.70745 0
M  V30 11519 N 1072.97 -5.49157 -2.74409 0
M  V30 11520 C 1074.34 -5.62937 -2.59812 0
M  V30 11521 C 1076.39 -4.27207 -2.55732 0
M  V30 11522 C 1075.1 -6.79692 -2.35397 0
M  V30 11523 C 1077.12 -5.43697 -2.32697 0
M  V30 11524 C 1076.48 -6.6833 -2.22517 0
M  V30 11525 H 1072.58 -0.481552 -0.616142 0
M  V30 11526 H 1075.17 -1.61957 -1.08065 0
M  V30 11527 H 1073.34 -1.46729 -3.59618 0
M  V30 11528 H 1075.07 -1.70323 -3.67113 0
M  V30 11529 H 1071.83 -3.62412 -3.04884 0
M  V30 11530 H 1072.25 -6.21858 -2.67622 0
M  V30 11531 H 1076.89 -3.31557 -2.62354 0
M  V30 11532 H 1074.61 -7.75412 -2.27514 0
M  V30 11533 H 1078.2 -5.37802 -2.21947 0
M  V30 11534 H 1077.08 -7.56949 -2.04936 0
M  V30 11535 N 1074.58 1.12322 -1.10551 0
M  V30 11536 C 1075.83 1.83495 -0.846998 0
M  V30 11537 C 1076.15 1.8457 0.629205 0
M  V30 11538 O 1075.42 1.30968 1.45686 0
M  V30 11539 H 1074 0.679479 -0.310351 0
M  V30 11540 H 1076.66 1.36004 -1.39602 0
M  V30 11541 H 1075.76 2.87651 -1.21092 0
M  V30 11542 N 1076.06 0.894434 1.2976 0
M  V30 11543 C 1077 0.357958 2.29829 0
M  V30 11544 C 1078 -0.540093 1.6056 0
M  V30 11545 O 1079.2 -0.423478 1.74948 0
M  V30 11546 H 1075.58 0.0971183 0.745702 0
M  V30 11547 H 1077.55 1.21542 2.72526 0
M  V30 11548 C 1076.3 -0.404126 3.45343 0
M  V30 11549 H 1075.62 0.277671 3.98835 0
M  V30 11550 H 1077.06 -0.744446 4.17413 0
M  V30 11551 C 1075.52 -1.6048 2.96222 0
M  V30 11552 O 1076.05 -2.70414 2.97051 0
M  V30 11553 N 1074.26 -1.44517 2.52117 0
M  V30 11554 H 1073.8 -0.55082 2.51642 0
M  V30 11555 H 1073.76 -2.24987 2.1961 0
M  V30 11556 N 1077.53 -1.43282 0.656365 0
M  V30 11557 C 1078.5 -2.29188 -0.0239173 0
M  V30 11558 C 1079.5 -1.42373 -0.747436 0
M  V30 11559 O 1080.69 -1.63969 -0.588213 0
M  V30 11560 C 1077.82 -3.24501 -1.0446 0
M  V30 11561 H 1079.01 -2.9083 0.731978 0
M  V30 11562 H 1076.57 -1.50614 0.417752 0
M  V30 11563 H 1077.3 -2.6776 -1.82962 0
M  V30 11564 H 1077.09 -3.88509 -0.52942 0
M  V30 11565 H 1078.58 -3.88971 -1.51958 0
M  V30 11566 N 1079.01 -0.398486 -1.52479 0
M  V30 11567 C 1080.26 0.182046 -2.00877 0
M  V30 11568 C 1080.58 1.47128 -1.2889 0
M  V30 11569 O 1081.78 2.13242 -1.68048 0
M  V30 11570 C 1080.24 0.374978 -3.57941 0
M  V30 11571 C 1079.85 -0.901544 -4.38835 0
M  V30 11572 C 1081.59 0.911378 -4.14601 0
M  V30 11573 C 1079.5 -0.676385 -5.87519 0
M  V30 11574 H 1078.43 0.0718068 -0.750573 0
M  V30 11575 H 1081.08 -0.522297 -1.7591 0
M  V30 11576 H 1079.46 1.14139 -3.79194 0
M  V30 11577 H 1080.63 -1.67329 -4.29346 0
M  V30 11578 H 1078.95 -1.36357 -3.93441 0
M  V30 11579 H 1081.55 1.09569 -5.23353 0
M  V30 11580 H 1081.89 1.88306 -3.71277 0
M  V30 11581 H 1082.42 0.204296 -3.97275 0
M  V30 11582 H 1079.16 -1.61933 -6.35184 0
M  V30 11583 H 1078.68 0.0562542 -5.99774 0
M  V30 11584 H 1080.36 -0.314454 -6.46235 0
M  V30 11585 N 1080.49 1.57075 -0.12858 0
M  V30 11586 C 1081.74 1.9552 0.527087 0
M  V30 11587 C 1082.07 1.01243 1.66072 0
M  V30 11588 O 1081.32 0.0381076 1.95663 0
M  V30 11589 C 1081.62 3.40329 1.09138 0
M  V30 11590 C 1081.29 4.50832 0.0781039 0
M  V30 11591 C 1079.95 4.80782 -0.200493 0
M  V30 11592 C 1082.3 5.17595 -0.61192 0
M  V30 11593 C 1079.63 5.74809 -1.17524 0
M  V30 11594 C 1081.98 6.12671 -1.57536 0
M  V30 11595 C 1080.64 6.41008 -1.86184 0
M  V30 11596 H 1079.91 0.715458 0.192875 0
M  V30 11597 H 1082.56 1.90328 -0.211515 0
M  V30 11598 H 1080.87 3.42262 1.90694 0
M  V30 11599 H 1082.56 3.67393 1.60696 0
M  V30 11600 H 1079.15 4.2751 0.30543 0
M  V30 11601 H 1083.34 4.94605 -0.40986 0
M  V30 11602 H 1078.59 5.95065 -1.40384 0
M  V30 11603 H 1082.77 6.63486 -2.11565 0
M  V30 11604 H 1080.39 7.13673 -2.61868 0
M  V30 11605 N 1081.97 -0.145205 1.5693 0
M  V30 11606 C 1082.9 -1.18096 2.01434 0
M  V30 11607 C 1083.88 -1.447 0.894204 0
M  V30 11608 O 1085.07 -1.55589 1.16214 0
M  V30 11609 C 1082.2 -2.51369 2.39647 0
M  V30 11610 C 1081.15 -2.39283 3.54863 0
M  V30 11611 C 1080.48 -3.77283 3.78895 0
M  V30 11612 C 1081.78 -1.8754 4.87469 0
M  V30 11613 H 1083.47 -0.810897 2.8821 0
M  V30 11614 H 1081.02 -0.388624 1.38657 0
M  V30 11615 H 1082.97 -3.24054 2.69382 0
M  V30 11616 H 1081.69 -2.90214 1.49811 0
M  V30 11617 H 1080.35 -1.6905 3.25296 0
M  V30 11618 H 1080 -4.13567 2.86307 0
M  V30 11619 H 1079.7 -3.70057 4.56433 0
M  V30 11620 H 1081.22 -4.51514 4.11057 0
M  V30 11621 H 1082.64 -2.50019 5.1591 0
M  V30 11622 H 1081.03 -1.912 5.68826 0
M  V30 11623 H 1082.1 -0.831194 4.77723 0
M  V30 11624 N 1083.45 -1.52049 -0.414609 0
M  V30 11625 C 1084.39 -1.74998 -1.5048 0
M  V30 11626 C 1085.36 -0.592251 -1.55182 0
M  V30 11627 O 1086.55 -0.829203 -1.7184 0
M  V30 11628 C 1083.69 -1.90157 -2.87983 0
M  V30 11629 C 1082.8 -3.17789 -2.92633 0
M  V30 11630 C 1081.94 -3.23411 -4.21401 0
M  V30 11631 C 1080.98 -4.45267 -4.20004 0
M  V30 11632 N 1080.11 -4.48312 -5.40334 0
M  V30 11633 H 1084.95 -2.68046 -1.30212 0
M  V30 11634 H 1082.49 -1.32824 -0.632154 0
M  V30 11635 H 1084.45 -1.96929 -3.67797 0
M  V30 11636 H 1083.08 -1.00496 -3.06758 0
M  V30 11637 H 1082.13 -3.20216 -2.05343 0
M  V30 11638 H 1083.44 -4.07634 -2.87465 0
M  V30 11639 H 1082.6 -3.29224 -5.09604 0
M  V30 11640 H 1081.34 -2.31495 -4.29257 0
M  V30 11641 H 1080.34 -4.39606 -3.30192 0
M  V30 11642 H 1081.57 -5.38472 -4.13793 0
M  V30 11643 H 1079.51 -3.59277 -5.48868 0
M  V30 11644 H 1079.43 -5.31994 -5.37139 0
M  V30 11645 H 1080.7 -4.58347 -6.30506 0
M  V30 11646 N 1084.93 0.6715 -1.42579 0
M  V30 11647 C 1085.84 1.81435 -1.48723 0
M  V30 11648 C 1086.85 1.69895 -0.375716 0
M  V30 11649 O 1088.03 1.91388 -0.627115 0
M  V30 11650 C 1085.09 3.17599 -1.39038 0
M  V30 11651 C 1084.15 3.41071 -2.60709 0
M  V30 11652 C 1083.39 4.7074 -2.51476 0
M  V30 11653 O 1083.61 5.48868 -1.55243 0
M  V30 11654 O 1082.54 4.95528 -3.41666 0
M  V30 11655 H 1086.37 1.79206 -2.45191 0
M  V30 11656 H 1083.95 0.827666 -1.24379 0
M  V30 11657 H 1085.84 3.98847 -1.3601 0
M  V30 11658 H 1084.51 3.20458 -0.456966 0
M  V30 11659 H 1083.42 2.59659 -2.69311 0
M  V30 11660 H 1084.75 3.43045 -3.5296 0
M  V30 11661 N 1086.4 1.28806 0.908124 0
M  V30 11662 C 1087.37 1.13228 1.99279 0
M  V30 11663 C 1088.37 0.0702456 1.60646 0
M  V30 11664 O 1089.56 0.316494 1.71301 0
M  V30 11665 C 1086.69 0.729629 3.33 0
M  V30 11666 H 1087.88 2.09566 2.14528 0
M  V30 11667 H 1085.43 1.11872 1.09153 0
M  V30 11668 H 1086.17 -0.234268 3.23453 0
M  V30 11669 H 1085.95 1.49688 3.62403 0
M  V30 11670 H 1087.44 0.643449 4.12613 0
M  V30 11671 N 1087.88 -1.11734 1.11145 0
M  V30 11672 C 1088.83 -2.19765 0.761982 0
M  V30 11673 C 1089.82 -1.67616 -0.24518 0
M  V30 11674 O 1091.03 -1.79695 -0.104781 0
M  V30 11675 H 1087.4 -0.71644 0.228513 0
M  V30 11676 H 1089.38 -2.4649 1.68183 0
M  V30 11677 C 1088.12 -3.47016 0.218057 0
M  V30 11678 H 1087.45 -3.87494 0.984299 0
M  V30 11679 H 1088.89 -4.23998 0.0116825 0
M  V30 11680 C 1087.35 -3.20088 -1.05096 0
M  V30 11681 O 1087.88 -3.40503 -2.1312 0
M  V30 11682 N 1086.08 -2.73844 -0.972523 0
M  V30 11683 H 1085.63 -2.57431 -0.0933459 0
M  V30 11684 H 1085.59 -2.56204 -1.82228 0
M  V30 11685 N 1089.36 -0.901303 -1.29284 0
M  V30 11686 C 1090.32 -0.385081 -2.25942 0
M  V30 11687 C 1091.32 0.481626 -1.53418 0
M  V30 11688 O 1092.51 0.286451 -1.71829 0
M  V30 11689 C 1089.64 0.449319 -3.37926 0
M  V30 11690 H 1090.84 -1.23877 -2.7312 0
M  V30 11691 H 1088.39 -0.679586 -1.40753 0
M  V30 11692 H 1089.13 1.32292 -2.9609 0
M  V30 11693 H 1088.91 -0.171731 -3.91724 0
M  V30 11694 H 1090.4 0.801746 -4.09831 0
M  V30 11695 N 1090.84 1.42931 -0.663954 0
M  V30 11696 C 1092.09 2.00904 -0.179011 0
M  V30 11697 C 1092.4 1.53056 1.21791 0
M  V30 11698 O 1093.61 2.03374 1.79865 0
M  V30 11699 C 1092.06 3.58892 -0.269198 0
M  V30 11700 C 1091.67 4.15731 -1.66949 0
M  V30 11701 C 1093.41 4.24207 0.157589 0
M  V30 11702 C 1091.32 5.66047 -1.71303 0
M  V30 11703 H 1090.25 0.75135 -0.0631623 0
M  V30 11704 H 1092.9 1.6378 -0.827556 0
M  V30 11705 H 1091.28 3.93469 0.447048 0
M  V30 11706 H 1092.46 3.92634 -2.41195 0
M  V30 11707 H 1090.77 3.62826 -2.04318 0
M  V30 11708 H 1093.37 5.34503 0.145057 0
M  V30 11709 H 1093.71 3.98901 1.19095 0
M  V30 11710 H 1094.25 3.94552 -0.507274 0
M  V30 11711 H 1090.98 5.96136 -2.72584 0
M  V30 11712 H 1090.5 5.91167 -1.01398 0
M  V30 11713 H 1092.18 6.30275 -1.46158 0
M  V30 11714 N 1092.32 0.406567 1.52266 0
M  V30 11715 C 1093.54 -0.172101 2.06685 0
M  V30 11716 C 1093.97 -1.38306 1.27488 0
M  V30 11717 O 1093.32 -1.78726 0.304441 0
M  V30 11718 C 1093.37 -0.503463 3.57068 0
M  V30 11719 O 1092.48 -1.59485 3.80314 0
M  V30 11720 H 1091.82 -0.0153209 0.663823 0
M  V30 11721 H 1094.35 0.579025 1.96236 0
M  V30 11722 H 1094.36 -0.762833 4.00805 0
M  V30 11723 H 1093.03 0.381775 4.14144 0
M  V30 11724 H 1091.61 -1.32784 3.48458 0
M  V30 11725 N 1093.79 -1.57004 0.136909 0
M  V30 11726 C 1095.04 -1.96087 -0.517477 0
M  V30 11727 C 1095.37 -1.0213 -1.65176 0
M  V30 11728 O 1094.65 -0.0617958 -1.94402 0
M  V30 11729 C 1094.93 -3.44958 -1.03323 0
M  V30 11730 C 1094.78 -4.49691 0.0988609 0
M  V30 11731 C 1096.1 -3.96091 -1.91832 0
M  V30 11732 H 1093.22 -0.712978 -0.186632 0
M  V30 11733 H 1095.86 -1.88767 0.216095 0
M  V30 11734 H 1094.01 -3.51327 -1.65836 0
M  V30 11735 H 1095.69 -4.55409 0.734847 0
M  V30 11736 H 1093.93 -4.271 0.75947 0
M  V30 11737 H 1094.6 -5.51165 -0.303554 0
M  V30 11738 H 1097.08 -3.92139 -1.39164 0
M  V30 11739 H 1095.95 -5.00742 -2.24831 0
M  V30 11740 H 1096.21 -3.37846 -2.85153 0
M  V30 11741 N 1095.27 0.136881 -1.57004 0
M  V30 11742 C 1096.18 1.18793 -2.023 0
M  V30 11743 C 1097.2 1.46412 -0.94018 0
M  V30 11744 O 1098.37 1.57883 -1.2504 0
M  V30 11745 C 1095.44 2.49903 -2.40311 0
M  V30 11746 C 1094.5 2.29841 -3.6259 0
M  V30 11747 C 1093.73 3.54699 -3.98779 0
M  V30 11748 O 1093.96 4.61291 -3.3551 0
M  V30 11749 O 1092.89 3.46761 -4.91976 0
M  V30 11750 H 1096.72 0.833345 -2.92043 0
M  V30 11751 H 1094.3 0.346361 -1.4533 0
M  V30 11752 H 1096.18 3.27183 -2.65574 0
M  V30 11753 H 1094.86 2.84872 -1.5372 0
M  V30 11754 H 1093.77 1.50478 -3.42501 0
M  V30 11755 H 1095.1 1.99784 -4.4983 0
M  V30 11756 N 1096.75 1.52266 0.40654 0
M  V30 11757 C 1097.68 1.78755 1.50229 0
M  V30 11758 C 1098.66 0.638652 1.57655 0
M  V30 11759 O 1099.85 0.884505 1.72888 0
M  V30 11760 C 1096.98 1.94057 2.88026 0
M  V30 11761 C 1095.93 3.09667 2.95449 0
M  V30 11762 C 1095.26 3.10196 4.35526 0
M  V30 11763 C 1096.56 4.49077 2.66697 0
M  V30 11764 H 1098.25 2.70511 1.28313 0
M  V30 11765 H 1095.8 1.30167 0.615836 0
M  V30 11766 H 1097.75 2.11171 3.64671 0
M  V30 11767 H 1096.47 0.989755 3.11242 0
M  V30 11768 H 1095.13 2.92308 2.2125 0
M  V30 11769 H 1094.78 2.12831 4.55754 0
M  V30 11770 H 1094.48 3.87847 4.41416 0
M  V30 11771 H 1096 3.29443 5.14101 0
M  V30 11772 H 1097.42 4.66628 3.33064 0
M  V30 11773 H 1095.82 5.28665 2.8396 0
M  V30 11774 H 1096.89 4.56995 1.62122 0
M  V30 11775 N 1098.23 -0.663929 1.42933 0
M  V30 11776 C 1099.18 -1.77717 1.47259 0
M  V30 11777 C 1100.15 -1.62922 0.323387 0
M  V30 11778 O 1101.33 -1.83319 0.529021 0
M  V30 11779 C 1098.47 -3.15814 1.39124 0
M  V30 11780 C 1097.58 -3.4182 2.64165 0
M  V30 11781 C 1096.72 -4.69705 2.48094 0
M  V30 11782 C 1095.76 -4.88781 3.68456 0
M  V30 11783 N 1094.89 -6.07915 3.51261 0
M  V30 11784 H 1099.73 -1.73355 2.42388 0
M  V30 11785 H 1097.27 -0.846121 1.2033 0
M  V30 11786 H 1099.23 -3.95633 1.32403 0
M  V30 11787 H 1097.86 -3.19274 0.475829 0
M  V30 11788 H 1096.91 -2.56176 2.81208 0
M  V30 11789 H 1098.22 -3.51805 3.53602 0
M  V30 11790 H 1097.38 -5.57632 2.39021 0
M  V30 11791 H 1096.12 -4.62022 1.56164 0
M  V30 11792 H 1095.12 -3.99292 3.7795 0
M  V30 11793 H 1096.35 -4.98301 4.61381 0
M  V30 11794 H 1094.29 -6.01384 2.62057 0
M  V30 11795 H 1094.21 -6.1881 4.34293 0
M  V30 11796 H 1095.48 -6.98492 3.4602 0
M  V30 11797 N 1099.71 -1.29285 -0.901281 0
M  V30 11798 C 1100.65 -1.1428 -2.00521 0
M  V30 11799 C 1101.62 -0.0365428 -1.6606 0
M  V30 11800 O 1102.81 -0.203771 -1.89709 0
M  V30 11801 C 1099.95 -0.823671 -3.35126 0
M  V30 11802 C 1099.06 -2.01021 -3.8238 0
M  V30 11803 C 1098.2 -1.6306 -5.05554 0
M  V30 11804 C 1097.24 -2.78304 -5.45173 0
M  V30 11805 N 1096.37 -2.4075 -6.59533 0
M  V30 11806 H 1101.21 -2.08729 -2.12688 0
M  V30 11807 H 1098.75 -1.0387 -1.04161 0
M  V30 11808 H 1100.71 -0.61934 -4.12577 0
M  V30 11809 H 1099.34 0.0839113 -3.22691 0
M  V30 11810 H 1098.39 -2.32629 -3.00978 0
M  V30 11811 H 1099.7 -2.8738 -4.07694 0
M  V30 11812 H 1098.86 -1.38906 -5.90584 0
M  V30 11813 H 1097.59 -0.738464 -4.82077 0
M  V30 11814 H 1096.6 -3.03142 -4.58678 0
M  V30 11815 H 1097.82 -3.68179 -5.70632 0
M  V30 11816 H 1095.77 -1.54022 -6.37662 0
M  V30 11817 H 1095.69 -3.20643 -6.84634 0
M  V30 11818 H 1096.96 -2.19912 -7.47836 0
M  V30 11819 N 1101.18 1.11143 -1.11736 0
M  V30 11820 C 1102.13 2.17274 -0.778513 0
M  V30 11821 C 1103.1 1.64186 0.251405 0
M  V30 11822 O 1104.29 1.90373 0.127629 0
M  V30 11823 C 1101.43 3.44324 -0.231246 0
M  V30 11824 C 1100.54 4.114 -1.31809 0
M  V30 11825 C 1099.67 5.26146 -0.73104 0
M  V30 11826 C 1098.71 5.85112 -1.79752 0
M  V30 11827 N 1097.85 6.91247 -1.22973 0
M  V30 11828 H 1102.69 2.45603 -1.68769 0
M  V30 11829 H 1100.23 1.20565 -0.842759 0
M  V30 11830 H 1102.19 4.1707 0.104045 0
M  V30 11831 H 1100.82 3.16369 0.641119 0
M  V30 11832 H 1099.87 3.36697 -1.77029 0
M  V30 11833 H 1101.18 4.51278 -2.12485 0
M  V30 11834 H 1100.33 6.05713 -0.345987 0
M  V30 11835 H 1099.07 4.87583 0.107 0
M  V30 11836 H 1098.08 5.0422 -2.19185 0
M  V30 11837 H 1099.3 6.25741 -2.63865 0
M  V30 11838 H 1097.25 6.54696 -0.41339 0
M  V30 11839 H 1097.17 7.29796 -1.97316 0
M  V30 11840 H 1098.43 7.74611 -0.87167 0
M  V30 11841 N 1102.66 0.908147 1.28804 0
M  V30 11842 C 1103.91 0.539201 1.95501 0
M  V30 11843 C 1104.24 -0.913759 1.7136 0
M  V30 11844 O 1103.52 -1.64904 1.03136 0
M  V30 11845 C 1103.8 0.842372 3.50109 0
M  V30 11846 C 1103.65 2.34765 3.83673 0
M  V30 11847 C 1104.97 0.334658 4.38826 0
M  V30 11848 H 1102.09 0.197373 0.71008 0
M  V30 11849 H 1104.73 1.13637 1.52272 0
M  V30 11850 H 1102.88 0.334143 3.8706 0
M  V30 11851 H 1104.55 2.92607 3.56621 0
M  V30 11852 H 1102.8 2.80494 3.30916 0
M  V30 11853 H 1103.47 2.51034 4.91616 0
M  V30 11854 H 1105.94 0.769961 4.08914 0
M  V30 11855 H 1104.82 0.575914 5.4587 0
M  V30 11856 H 1105.08 -0.764878 4.35433 0
M  V30 11857 N 1104.14 -1.42577 0.671525 0
M  V30 11858 C 1105.07 -2.2915 -0.0477361 0
M  V30 11859 C 1106.09 -1.43503 -0.768805 0
M  V30 11860 O 1107.27 -1.67256 -0.623509 0
M  V30 11861 C 1104.37 -3.20851 -1.09122 0
M  V30 11862 C 1103.55 -4.35134 -0.44463 0
M  V30 11863 C 1102.61 -5.07579 -1.38745 0
M  V30 11864 O 1101.63 -5.62215 -0.889015 0
M  V30 11865 N 1102.83 -5.12786 -2.72086 0
M  V30 11866 H 1105.6 -2.9152 0.695415 0
M  V30 11867 H 1103.16 -1.53467 0.515689 0
M  V30 11868 H 1105.15 -3.66183 -1.72315 0
M  V30 11869 H 1103.72 -2.59956 -1.73614 0
M  V30 11870 H 1102.94 -3.9249 0.36675 0
M  V30 11871 H 1104.23 -5.088 0.00595927 0
M  V30 11872 H 1103.63 -4.69802 -3.15123 0
M  V30 11873 H 1102.19 -5.61774 -3.30535 0
M  V30 11874 N 1105.62 -0.414636 -1.52048 0
M  V30 11875 C 1106.87 0.159349 -2.01872 0
M  V30 11876 C 1107.19 1.44674 -1.29999 0
M  V30 11877 O 1106.45 1.91641 -0.396511 0
M  V30 11878 C 1106.75 0.448327 -3.54577 0
M  V30 11879 C 1106.41 -0.75052 -4.4461 0
M  V30 11880 C 1105.08 -1.07935 -4.68939 0
M  V30 11881 C 1107.43 -1.55134 -4.97577 0
M  V30 11882 C 1104.76 -2.21008 -5.43482 0
M  V30 11883 C 1107.11 -2.67288 -5.73358 0
M  V30 11884 C 1105.77 -3.00651 -5.95958 0
M  V30 11885 H 1105.04 0.05831 -0.738702 0
M  V30 11886 H 1107.69 -0.557184 -1.83215 0
M  V30 11887 H 1105.99 1.24649 -3.71443 0
M  V30 11888 H 1107.69 0.90549 -3.90643 0
M  V30 11889 H 1104.28 -0.484257 -4.25856 0
M  V30 11890 H 1108.46 -1.31052 -4.78685 0
M  V30 11891 H 1103.72 -2.47197 -5.59199 0
M  V30 11892 H 1107.89 -3.29725 -6.13396 0
M  V30 11893 H 1105.52 -3.88384 -6.535 0
M  V30 11894 N 1107.1 1.56929 -0.145233 0
M  V30 11895 C 1108.03 2.13796 0.826078 0
M  V30 11896 C 1109.04 1.08697 1.21197 0
M  V30 11897 O 1110.23 1.3598 1.15635 0
M  V30 11898 C 1107.33 2.6443 2.11967 0
M  V30 11899 C 1106.5 3.9391 1.90142 0
M  V30 11900 C 1105.56 4.29872 3.03474 0
M  V30 11901 O 1104.59 4.98227 2.75242 0
M  V30 11902 N 1105.79 3.8931 4.30602 0
M  V30 11903 H 1108.56 2.97764 0.340073 0
M  V30 11904 H 1106.12 1.61854 0.0383928 0
M  V30 11905 H 1108.11 2.85502 2.86829 0
M  V30 11906 H 1106.68 1.85196 2.51836 0
M  V30 11907 H 1105.9 3.81481 0.993268 0
M  V30 11908 H 1107.19 4.78523 1.72896 0
M  V30 11909 H 1106.58 3.34229 4.56407 0
M  V30 11910 H 1105.14 4.15438 5.0225 0
M  V30 11911 N 1108.58 -0.128553 1.57075 0
M  V30 11912 C 1109.82 -0.83801 1.84347 0
M  V30 11913 C 1110.15 -1.80325 0.728906 0
M  V30 11914 O 1109.41 -1.93678 -0.280571 0
M  V30 11915 C 1109.7 -1.63027 3.18052 0
M  V30 11916 C 1109.37 -0.810171 4.43562 0
M  V30 11917 C 1108.03 -0.583984 4.77643 0
M  V30 11918 C 1110.38 -0.237896 5.20657 0
M  V30 11919 C 1107.71 0.224887 5.86269 0
M  V30 11920 C 1110.06 0.558114 6.30133 0
M  V30 11921 C 1108.73 0.794706 6.62752 0
M  V30 11922 H 1108 -0.30665 0.674572 0
M  V30 11923 H 1110.65 -0.100797 1.91235 0
M  V30 11924 H 1108.95 -2.43812 3.06697 0
M  V30 11925 H 1110.65 -2.183 3.36372 0
M  V30 11926 H 1107.24 -0.996547 4.16854 0
M  V30 11927 H 1111.42 -0.399881 4.94686 0
M  V30 11928 H 1106.68 0.417507 6.09973 0
M  V30 11929 H 1110.85 1.00859 6.89058 0
M  V30 11930 H 1108.48 1.42331 7.46757 0
M  V30 11931 N 1110.05 -1.5248 -0.398459 0
M  V30 11932 C 1111.3 -1.67309 -1.1461 0
M  V30 11933 C 1111.63 -0.407095 -1.89885 0
M  V30 11934 O 1110.91 0.594834 -1.85181 0
M  V30 11935 C 1111.19 -2.90204 -2.13198 0
M  V30 11936 C 1111.04 -4.26881 -1.4175 0
M  V30 11937 C 1112.36 -3.08634 -3.13741 0
M  V30 11938 H 1109.48 -0.608853 -0.415292 0
M  V30 11939 H 1112.12 -1.85057 -0.430573 0
M  V30 11940 H 1110.27 -2.75204 -2.74218 0
M  V30 11941 H 1111.95 -4.53631 -0.837676 0
M  V30 11942 H 1110.19 -4.27793 -0.719387 0
M  V30 11943 H 1110.86 -5.08939 -2.1374 0
M  V30 11944 H 1113.34 -3.22603 -2.62805 0
M  V30 11945 H 1112.21 -3.96117 -3.79977 0
M  V30 11946 H 1112.47 -2.22425 -3.82073 0
M  V30 11947 N 1111.53 0.65634 -1.43283 0
M  V30 11948 C 1112.46 1.78101 -1.51004 0
M  V30 11949 C 1113.44 1.66138 -0.36498 0
M  V30 11950 O 1114.63 1.85281 -0.581778 0
M  V30 11951 C 1111.76 3.16511 -1.42961 0
M  V30 11952 C 1110.71 3.43233 -2.55685 0
M  V30 11953 C 1110.04 4.81411 -2.32696 0
M  V30 11954 C 1111.34 3.38288 -3.97943 0
M  V30 11955 H 1113.03 1.71896 -2.45137 0
M  V30 11956 H 1110.58 0.825575 -1.17984 0
M  V30 11957 H 1112.53 3.94941 -1.46968 0
M  V30 11958 H 1111.25 3.23439 -0.45332 0
M  V30 11959 H 1109.91 2.67173 -2.51026 0
M  V30 11960 H 1109.56 4.85011 -1.33317 0
M  V30 11961 H 1109.26 5.00251 -3.08257 0
M  V30 11962 H 1110.79 5.62102 -2.38481 0
M  V30 11963 H 1112.2 4.06659 -4.04106 0
M  V30 11964 H 1110.6 3.68664 -4.73505 0
M  V30 11965 H 1111.67 2.36525 -4.23301 0
M  V30 11966 N 1113.01 1.29761 0.894412 0
M  V30 11967 C 1113.94 1.17902 2.01547 0
M  V30 11968 C 1114.92 0.0719402 1.69948 0
M  V30 11969 O 1116.11 0.252338 1.92554 0
M  V30 11970 C 1113.24 0.860262 3.36477 0
M  V30 11971 C 1112.19 1.92424 3.82305 0
M  V30 11972 C 1111.52 1.45868 5.14419 0
M  V30 11973 C 1112.82 3.33391 4.02054 0
M  V30 11974 H 1114.51 2.11688 2.11727 0
M  V30 11975 H 1112.06 1.01916 1.01731 0
M  V30 11976 H 1114.01 0.763987 4.14417 0
M  V30 11977 H 1112.73 -0.113289 3.26403 0
M  V30 11978 H 1111.39 2.00999 3.06586 0
M  V30 11979 H 1111.04 0.473654 5.00765 0
M  V30 11980 H 1110.74 2.17028 5.46052 0
M  V30 11981 H 1112.26 1.37601 5.94894 0
M  V30 11982 H 1113.68 3.27628 4.7046 0
M  V30 11983 H 1112.07 4.02555 4.4505 0
M  V30 11984 H 1113.14 3.75978 3.06216 0
M  V30 11985 N 1114.49 -1.10549 1.12324 0
M  V30 11986 C 1115.72 -1.8627 0.900618 0
M  V30 11987 C 1116.13 -1.80609 -0.550069 0
M  V30 11988 O 1115.49 -1.19396 -1.38025 0
M  V30 11989 C 1115.54 -3.34716 1.36556 0
M  V30 11990 O 1115.26 -3.40279 2.75938 0
M  V30 11991 C 1116.76 -4.27315 1.17969 0
M  V30 11992 H 1113.98 -0.588741 0.321908 0
M  V30 11993 H 1116.52 -1.39759 1.49291 0
M  V30 11994 H 1114.68 -3.78697 0.81652 0
M  V30 11995 H 1115.09 -4.32781 2.96312 0
M  V30 11996 H 1116.57 -5.29677 1.55391 0
M  V30 11997 H 1117.04 -4.39036 0.120158 0
M  V30 11998 H 1117.65 -3.89137 1.71617 0
M  V30 11999 N 1115.97 -0.914965 -1.28321 0
M  V30 12000 C 1117.24 -0.46764 -1.89928 0
M  V30 12001 C 1117.62 1.05364 -1.82925 0
M  V30 12002 O 1116.97 1.90223 -1.26599 0
M  V30 12003 C 1117.18 -0.999372 -3.34385 0
M  V30 12004 C 1118.53 -1.0522 -4.11356 0
M  V30 12005 O 1119.55 -0.9481 -3.4335 0
M  V30 12006 O 1118.41 -1.21085 -5.32917 0
M  V30 12007 H 1115.51 -0.148398 -0.813577 0
M  V30 12008 H 1118.05 -1.00583 -1.36679 0
M  V30 12009 H 1116.82 -2.04333 -3.33712 0
M  V30 12010 H 1116.45 -0.442083 -3.95135 0
M  V30 12011 N 1117.44 1.42219 -0.679077 0
M  V30 12012 C 1118.67 2.05815 -0.211649 0
M  V30 12013 C 1119.09 1.51037 1.13284 0
M  V30 12014 O 1118.44 0.651894 1.7046 0
M  V30 12015 C 1118.49 3.61218 -0.142663 0
M  V30 12016 O 1118.22 4.13965 -1.43402 0
M  V30 12017 C 1119.72 4.41934 0.347746 0
M  V30 12018 H 1116.94 0.663215 -0.101914 0
M  V30 12019 H 1119.48 1.82282 -0.927017 0
M  V30 12020 H 1117.64 3.83848 0.52342 0
M  V30 12021 H 1118.05 5.07872 -1.31021 0
M  V30 12022 H 1119.52 5.50921 0.344916 0
M  V30 12023 H 1120 4.16832 1.38377 0
M  V30 12024 H 1120.61 4.24332 -0.286751 0
M  V30 12025 N 1118.92 0.422693 1.51826 0
M  V30 12026 C 1119.85 -0.386913 2.30272 0
M  V30 12027 C 1120.83 -1.03411 1.35056 0
M  V30 12028 O 1122.02 -1.04055 1.6397 0
M  V30 12029 C 1119.15 -1.49645 3.13407 0
M  V30 12030 C 1118.1 -0.973532 4.16781 0
M  V30 12031 C 1117.43 -2.1777 4.88344 0
M  V30 12032 C 1118.73 -0.0181194 5.22297 0
M  V30 12033 H 1120.42 0.267697 2.98201 0
M  V30 12034 H 1117.97 0.130186 1.4341 0
M  V30 12035 H 1119.92 -2.06993 3.67059 0
M  V30 12036 H 1118.64 -2.17914 2.43272 0
M  V30 12037 H 1117.3 -0.42237 3.64159 0
M  V30 12038 H 1116.95 -2.84625 4.14726 0
M  V30 12039 H 1116.65 -1.83427 5.58237 0
M  V30 12040 H 1118.18 -2.75699 5.44814 0
M  V30 12041 H 1119.59 -0.500822 5.71108 0
M  V30 12042 H 1117.99 0.237163 5.99631 0
M  V30 12043 H 1119.06 0.923065 4.76033 0
M  V30 12044 N 1120.4 -1.5685 0.153553 0
M  V30 12045 C 1121.63 -2.0041 -0.501949 0
M  V30 12046 C 1122.04 -1.03272 -1.58529 0
M  V30 12047 O 1121.38 -0.0227479 -1.83686 0
M  V30 12048 C 1121.44 -3.40402 -1.15613 0
M  V30 12049 C 1121.11 -4.56486 -0.216596 0
M  V30 12050 C 1122.1 -5.16894 0.558267 0
M  V30 12051 C 1119.79 -5.02162 -0.117592 0
M  V30 12052 C 1121.78 -6.21392 1.41951 0
M  V30 12053 C 1119.47 -6.06514 0.747255 0
M  V30 12054 C 1120.47 -6.65999 1.51441 0
M  V30 12055 O 1120.16 -7.6833 2.36483 0
M  V30 12056 H 1119.89 -0.66247 -0.134574 0
M  V30 12057 H 1122.44 -2.03908 0.247086 0
M  V30 12058 H 1120.67 -3.33762 -1.95294 0
M  V30 12059 H 1122.36 -3.68028 -1.71202 0
M  V30 12060 H 1123.13 -4.825 0.491851 0
M  V30 12061 H 1119.01 -4.55586 -0.704462 0
M  V30 12062 H 1122.55 -6.67751 2.01877 0
M  V30 12063 H 1118.45 -6.40335 0.81494 0
M  V30 12064 H 1119.21 -7.85578 2.29803 0
M  V30 12065 N 1121.88 0.120221 -1.57141 0
M  V30 12066 C 1123.1 0.84637 -1.89344 0
M  V30 12067 C 1123.53 1.72702 -0.745365 0
M  V30 12068 O 1122.89 1.7873 0.304155 0
M  V30 12069 C 1122.93 1.65671 -3.20289 0
M  V30 12070 O 1122.04 2.76353 -3.06109 0
M  V30 12071 H 1121.38 0.234132 -0.621352 0
M  V30 12072 H 1123.91 0.102986 -2.04341 0
M  V30 12073 H 1123.92 2.04621 -3.52979 0
M  V30 12074 H 1122.59 1.01023 -4.03444 0
M  V30 12075 H 1121.17 2.40615 -2.84884 0
M  V30 12076 N 1123.36 1.52689 0.390367 0
M  V30 12077 C 1124.77 1.59623 0.968366 0
M  V30 12078 C 1125.12 0.44824 1.91011 0
M  V30 12079 O 1124.24 -0.428868 2.12108 0
M  V30 12080 C 1124.84 2.89312 1.76306 0
M  V30 12081 C 1123.4 2.98664 2.29079 0
M  V30 12082 C 1122.54 2.54725 1.09593 0
M  V30 12083 H 1125.5 1.57787 0.169959 0
M  V30 12084 H 1125.52 2.75721 2.62217 0
M  V30 12085 H 1125.03 3.72846 1.07738 0
M  V30 12086 H 1123.13 2.19665 3.00962 0
M  V30 12087 H 1123.24 4.03277 2.58659 0
M  V30 12088 H 1121.61 2.09012 1.45554 0
M  V30 12089 H 1122.39 3.40651 0.425625 0
M  V30 12090 N 1124.83 -0.648732 1.43629 0
M  V30 12091 C 1125.76 -1.77298 1.51947 0
M  V30 12092 C 1126.75 -1.65942 0.373785 0
M  V30 12093 O 1127.93 -1.8497 0.591596 0
M  V30 12094 C 1125.06 -3.15749 1.44638 0
M  V30 12095 C 1124.01 -3.41872 2.57502 0
M  V30 12096 C 1123.34 -4.8017 2.35246 0
M  V30 12097 C 1124.64 -3.36173 3.99731 0
M  V30 12098 H 1126.33 -1.70594 2.46045 0
M  V30 12099 H 1123.88 -0.819306 1.1842 0
M  V30 12100 H 1125.83 -3.94156 1.4906 0
M  V30 12101 H 1124.56 -3.23194 0.470466 0
M  V30 12102 H 1123.22 -2.65838 2.5244 0
M  V30 12103 H 1122.86 -4.84297 1.35887 0
M  V30 12104 H 1122.56 -4.9861 3.10906 0
M  V30 12105 H 1124.09 -5.6083 2.41459 0
M  V30 12106 H 1125.5 -4.0451 4.06257 0
M  V30 12107 H 1123.9 -3.66148 4.75453 0
M  V30 12108 H 1124.97 -2.34277 4.24549 0
M  V30 12109 N 1126.31 -1.30234 -0.887518 0
M  V30 12110 C 1127.72 -1.17048 -1.45453 0
M  V30 12111 C 1128.07 0.229793 -1.9485 0
M  V30 12112 O 1127.2 1.12628 -1.84781 0
M  V30 12113 C 1127.79 -2.11876 -2.64375 0
M  V30 12114 C 1126.35 -2.02676 -3.17174 0
M  V30 12115 C 1125.5 -2.02104 -1.89866 0
M  V30 12116 H 1128.45 -1.42541 -0.697694 0
M  V30 12117 H 1128.47 -1.69811 -3.40506 0
M  V30 12118 H 1127.98 -3.13781 -2.28392 0
M  V30 12119 H 1126.09 -1.03904 -3.57819 0
M  V30 12120 H 1126.2 -2.90939 -3.80646 0
M  V30 12121 H 1124.56 -1.4687 -2.0809 0
M  V30 12122 H 1125.35 -3.05735 -1.56145 0
M  V30 12123 N 1127.79 1.09952 -1.12909 0
M  V30 12124 C 1129.2 1.63516 -0.901087 0
M  V30 12125 C 1129.55 1.87932 0.563547 0
M  V30 12126 O 1128.68 1.625 1.42908 0
M  V30 12127 C 1129.27 2.97054 -1.62924 0
M  V30 12128 C 1127.83 3.47464 -1.44725 0
M  V30 12129 C 1126.98 2.21979 -1.66194 0
M  V30 12130 H 1129.93 0.933858 -1.28315 0
M  V30 12131 H 1129.95 3.64757 -1.08318 0
M  V30 12132 H 1129.46 2.79251 -2.69519 0
M  V30 12133 H 1127.56 3.70402 -0.40409 0
M  V30 12134 H 1127.68 4.25254 -2.20671 0
M  V30 12135 H 1126.04 2.30368 -1.0864 0
M  V30 12136 H 1126.82 2.06702 -2.74097 0
M  V30 12137 N 1129.27 0.921757 1.27833 0
M  V30 12138 C 1130.55 0.477706 1.89677 0
M  V30 12139 C 1130.93 -1.04392 1.83481 0
M  V30 12140 O 1130.27 -1.89549 1.27606 0
M  V30 12141 C 1130.48 1.01709 3.33851 0
M  V30 12142 C 1131.83 1.074 4.10792 0
M  V30 12143 O 1132.86 0.966295 3.42843 0
M  V30 12144 O 1131.71 1.23909 5.32268 0
M  V30 12145 H 1128.81 0.15271 0.812778 0
M  V30 12146 H 1131.35 1.01306 1.36144 0
M  V30 12147 H 1130.13 2.061 3.32623 0
M  V30 12148 H 1129.75 0.463031 3.94895 0
M  V30 12149 N 1130.75 -1.41857 0.686609 0
M  V30 12150 C 1131.68 -2.33481 0.0298353 0
M  V30 12151 C 1132.66 -1.51329 -0.776756 0
M  V30 12152 O 1133.84 -1.79895 -0.731535 0
M  V30 12153 C 1130.97 -3.35065 -0.913707 0
M  V30 12154 C 1129.93 -4.2746 -0.214861 0
M  V30 12155 C 1129.25 -5.19346 -1.27215 0
M  V30 12156 C 1130.55 -5.14252 0.913367 0
M  V30 12157 H 1132.25 -2.8865 0.795067 0
M  V30 12158 H 1129.79 -1.38792 0.383785 0
M  V30 12159 H 1131.75 -3.98082 -1.38234 0
M  V30 12160 H 1130.47 -2.78226 -1.7105 0
M  V30 12161 H 1129.13 -3.65855 0.233651 0
M  V30 12162 H 1128.78 -4.58827 -2.06124 0
M  V30 12163 H 1128.48 -5.81996 -0.80961 0
M  V30 12164 H 1130 -5.85239 -1.74147 0
M  V30 12165 H 1131.41 -5.70887 0.525424 0
M  V30 12166 H 1129.81 -5.85796 1.30244 0
M  V30 12167 H 1130.88 -4.51949 1.75699 0
M  V30 12168 N 1132.22 -0.430739 -1.51599 0
M  V30 12169 C 1133.15 0.374695 -2.30474 0
M  V30 12170 C 1134.14 1.02694 -1.35602 0
M  V30 12171 O 1135.32 1.03184 -1.6452 0
M  V30 12172 C 1132.45 1.47981 -3.14196 0
M  V30 12173 C 1131.4 0.951415 -4.17291 0
M  V30 12174 C 1130.73 2.15177 -4.89492 0
M  V30 12175 C 1132.03 -0.00957951 -5.22299 0
M  V30 12176 H 1133.72 -0.283508 -2.98055 0
M  V30 12177 H 1131.27 -0.13779 -1.43339 0
M  V30 12178 H 1133.22 2.05043 -3.68151 0
M  V30 12179 H 1131.95 2.16621 -2.44424 0
M  V30 12180 H 1130.61 0.403052 -3.64378 0
M  V30 12181 H 1130.25 2.82421 -4.1623 0
M  V30 12182 H 1129.95 1.80464 -5.59202 0
M  V30 12183 H 1131.48 2.72806 -5.46269 0
M  V30 12184 H 1132.89 0.470527 -5.71366 0
M  V30 12185 H 1131.29 -0.268959 -5.99497 0
M  V30 12186 H 1132.36 -0.948297 -4.75537 0
M  V30 12187 N 1133.7 1.56767 -0.161869 0
M  V30 12188 C 1135.11 1.83265 0.356466 0
M  V30 12189 C 1135.46 1.08127 1.63716 0
M  V30 12190 O 1134.59 0.33127 2.13849 0
M  V30 12191 C 1135.18 3.32437 0.653521 0
M  V30 12192 C 1133.74 3.59465 1.11633 0
M  V30 12193 C 1132.89 2.76909 0.147204 0
M  V30 12194 H 1135.84 1.53926 -0.386308 0
M  V30 12195 H 1135.86 3.49401 1.50662 0
M  V30 12196 H 1135.37 3.87098 -0.278766 0
M  V30 12197 H 1133.48 3.10206 2.06404 0
M  V30 12198 H 1133.59 4.67853 1.03202 0
M  V30 12199 H 1131.95 2.46457 0.642739 0
M  V30 12200 H 1132.74 3.34346 -0.778938 0
M  V30 12201 N 1135.18 -0.111886 1.57202 0
M  V30 12202 C 1136.59 -0.668261 1.74331 0
M  V30 12203 C 1136.94 -1.79959 0.781609 0
M  V30 12204 O 1136.07 -2.16356 -0.043833 0
M  V30 12205 C 1136.66 -1.219 3.1611 0
M  V30 12206 C 1135.22 -1.7216 3.34721 0
M  V30 12207 C 1134.37 -0.624223 2.70183 0
M  V30 12208 H 1137.32 0.114081 1.58289 0
M  V30 12209 H 1137.34 -2.08858 3.18054 0
M  V30 12210 H 1136.85 -0.395381 3.86081 0
M  V30 12211 H 1134.95 -2.56976 2.69803 0
M  V30 12212 H 1135.07 -1.82615 4.42932 0
M  V30 12213 H 1133.43 -1.05958 2.31614 0
M  V30 12214 H 1134.21 0.188537 3.42782 0
M  V30 12215 N 1136.66 -1.52894 -0.382264 0
M  V30 12216 C 1137.57 -1.81084 -1.4915 0
M  V30 12217 C 1138.58 -0.698045 -1.59384 0
M  V30 12218 O 1139.76 -0.98635 -1.75594 0
M  V30 12219 C 1136.83 -1.97987 -2.84608 0
M  V30 12220 C 1135.89 -3.219 -2.8404 0
M  V30 12221 C 1135.12 -3.37988 -4.13037 0
M  V30 12222 O 1135.34 -2.58733 -5.08344 0
M  V30 12223 O 1134.28 -4.31273 -4.19866 0
M  V30 12224 H 1138.1 -2.75289 -1.28257 0
M  V30 12225 H 1135.69 -1.38068 -0.57076 0
M  V30 12226 H 1137.57 -2.10773 -3.64901 0
M  V30 12227 H 1136.24 -1.06972 -3.05514 0
M  V30 12228 H 1135.15 -3.14551 -2.02505 0
M  V30 12229 H 1136.48 -4.12783 -2.68087 0
M  V30 12230 N 1138.14 0.641106 -1.43971 0
M  V30 12231 C 1139.1 1.73539 -1.49723 0
M  V30 12232 C 1140.1 1.56235 -0.380438 0
M  V30 12233 O 1141.29 1.61912 -0.642673 0
M  V30 12234 C 1138.42 3.1253 -1.36153 0
M  V30 12235 H 1139.62 1.69816 -2.47189 0
M  V30 12236 H 1137.17 0.853867 -1.30915 0
M  V30 12237 H 1137.9 3.21856 -0.39742 0
M  V30 12238 H 1137.69 3.26496 -2.17124 0
M  V30 12239 H 1139.18 3.92303 -1.43138 0
M  V30 12240 N 1139.62 1.30703 0.880598 0
M  V30 12241 C 1140.58 1.17429 1.96832 0
M  V30 12242 C 1141.58 0.104305 1.60461 0
M  V30 12243 O 1142.77 0.352758 1.70591 0
M  V30 12244 C 1139.9 0.800099 3.31378 0
M  V30 12245 H 1141.09 2.14069 2.10034 0
M  V30 12246 H 1138.65 1.14162 1.06755 0
M  V30 12247 H 1139.38 -0.165606 3.23877 0
M  V30 12248 H 1139.17 1.57341 3.59146 0
M  V30 12249 H 1140.66 0.730826 4.11155 0
M  V30 12250 N 1141.09 -1.09351 1.1349 0
M  V30 12251 C 1142.04 -2.16008 0.812981 0
M  V30 12252 C 1143.01 -1.64566 -0.225252 0
M  V30 12253 O 1144.2 -1.90552 -0.0973261 0
M  V30 12254 C 1141.34 -3.43913 0.285996 0
M  V30 12255 C 1140.45 -4.09251 1.38338 0
M  V30 12256 C 1139.58 -5.24916 0.814652 0
M  V30 12257 C 1138.62 -5.82178 1.89038 0
M  V30 12258 N 1137.76 -6.89203 1.33955 0
M  V30 12259 H 1142.6 -2.42887 1.72655 0
M  V30 12260 H 1140.14 -1.19209 0.861833 0
M  V30 12261 H 1142.09 -4.17183 -0.0376794 0
M  V30 12262 H 1140.72 -3.17349 -0.590707 0
M  V30 12263 H 1139.78 -3.33838 1.82363 0
M  V30 12264 H 1141.09 -4.4784 2.19638 0
M  V30 12265 H 1140.24 -6.05086 0.442306 0
M  V30 12266 H 1138.98 -4.87691 -0.029416 0
M  V30 12267 H 1137.99 -5.00669 2.27179 0
M  V30 12268 H 1139.21 -6.21464 2.73787 0
M  V30 12269 H 1137.16 -6.53956 0.517494 0
M  V30 12270 H 1137.07 -7.26565 2.08902 0
M  V30 12271 H 1138.34 -7.73126 0.994793 0
M  V30 12272 N 1142.57 -0.928524 -1.27343 0
M  V30 12273 C 1143.85 -0.487758 -1.89421 0
M  V30 12274 C 1144.23 1.03418 -1.84032 0
M  V30 12275 O 1143.58 1.8887 -1.2861 0
M  V30 12276 C 1143.79 -1.03478 -3.33307 0
M  V30 12277 C 1145.13 -1.09577 -4.10217 0
M  V30 12278 O 1146.16 -0.984463 -3.42326 0
M  V30 12279 O 1145.02 -1.2673 -5.31603 0
M  V30 12280 H 1142.11 -0.157018 -0.811957 0
M  V30 12281 H 1144.66 -1.02027 -1.35605 0
M  V30 12282 H 1143.43 -2.07861 -3.31526 0
M  V30 12283 H 1143.05 -0.483967 -3.94644 0
M  V30 12284 N 1144.05 1.41491 -0.694123 0
M  V30 12285 C 1145.47 1.55358 -0.365532 0
M  V30 12286 C 1145.67 1.66994 1.12762 0
M  V30 12287 O 1144.72 1.64756 1.91342 0
M  V30 12288 C 1146.03 2.79352 -1.11279 0
M  V30 12289 C 1147.58 2.93147 -1.097 0
M  V30 12290 C 1148.06 4.20027 -1.82597 0
M  V30 12291 N 1149.55 4.26981 -1.7956 0
M  V30 12292 C 1150.28 5.24013 -2.32805 0
M  V30 12293 N 1149.78 6.27083 -2.94515 0
M  V30 12294 N 1151.57 5.15943 -2.23069 0
M  V30 12295 H 1143.72 1.32183 -1.66257 0
M  V30 12296 H 1145.99 0.637624 -0.701527 0
M  V30 12297 H 1145.69 2.76958 -2.16765 0
M  V30 12298 H 1145.57 3.70827 -0.690439 0
M  V30 12299 H 1147.95 2.95057 -0.0504037 0
M  V30 12300 H 1148.03 2.02849 -1.55839 0
M  V30 12301 H 1147.68 4.18878 -2.87235 0
M  V30 12302 H 1147.61 5.09294 -1.33893 0
M  V30 12303 H 1150.1 3.53129 -1.34567 0
M  V30 12304 H 1150.41 6.97511 -3.32714 0
M  V30 12305 H 1148.76 6.27589 -2.98592 0
M  V30 12306 H 1151.95 4.34346 -1.74532 0
M  V30 12307 H 1152.12 5.91396 -2.64868 0
M  V30 12308 N 1145.53 0.438773 1.51369 0
M  V30 12309 C 1146.44 -0.378074 2.31534 0
M  V30 12310 C 1147.45 -1.02632 1.40508 0
M  V30 12311 O 1148.63 -1.02138 1.73579 0
M  V30 12312 C 1145.69 -1.46374 3.14286 0
M  V30 12313 C 1144.76 -0.835473 4.21092 0
M  V30 12314 C 1143.99 -1.86941 4.99889 0
M  V30 12315 O 1144.21 -3.0918 4.79337 0
M  V30 12316 O 1143.15 -1.45914 5.83946 0
M  V30 12317 H 1146.97 0.276401 3.0244 0
M  V30 12318 H 1144.56 0.201281 1.48038 0
M  V30 12319 H 1146.44 -2.09335 3.65728 0
M  V30 12320 H 1145.11 -2.10227 2.46143 0
M  V30 12321 H 1144.02 -0.167775 3.73724 0
M  V30 12322 H 1145.35 -0.240406 4.91613 0
M  V30 12323 N 1147.01 -1.56678 0.170181 0
M  V30 12324 C 1148.23 -2.01223 -0.481362 0
M  V30 12325 C 1148.65 -1.05039 -1.56883 0
M  V30 12326 O 1148.01 -0.0510751 -1.82429 0
M  V30 12327 C 1148.06 -3.45588 -1.06073 0
M  V30 12328 O 1147.78 -4.38097 -0.0166754 0
M  V30 12329 C 1149.28 -4.05527 -1.79061 0
M  V30 12330 H 1146.5 -0.659574 -0.1233 0
M  V30 12331 H 1149.04 -2.02689 0.271576 0
M  V30 12332 H 1147.2 -3.449 -1.76417 0
M  V30 12333 H 1147.61 -5.22615 -0.444276 0
M  V30 12334 H 1149.09 -5.08467 -2.1486 0
M  V30 12335 H 1149.56 -3.47554 -2.68519 0
M  V30 12336 H 1150.17 -4.09914 -1.13361 0
M  V30 12337 N 1148.48 0.103547 -1.57259 0
M  V30 12338 C 1149.9 0.457527 -1.52901 0
M  V30 12339 C 1150.1 1.80995 -0.8856 0
M  V30 12340 O 1149.16 2.48001 -0.474504 0
M  V30 12341 C 1150.47 0.427793 -2.97641 0
M  V30 12342 C 1152.02 0.51025 -3.08813 0
M  V30 12343 C 1152.49 0.51075 -4.55143 0
M  V30 12344 N 1153.98 0.571748 -4.59658 0
M  V30 12345 C 1154.72 0.593836 -5.70317 0
M  V30 12346 N 1154.21 0.572638 -6.90429 0
M  V30 12347 N 1156.01 0.638011 -5.58467 0
M  V30 12348 H 1148.16 -0.782408 -1.97464 0
M  V30 12349 H 1150.42 -0.290324 -0.90245 0
M  V30 12350 H 1150.13 -0.498608 -3.48148 0
M  V30 12351 H 1150 1.24991 -3.55889 0
M  V30 12352 H 1152.39 1.42707 -2.583 0
M  V30 12353 H 1152.47 -0.339846 -2.53532 0
M  V30 12354 H 1152.11 -0.40209 -5.06306 0
M  V30 12355 H 1152.04 1.37794 -5.08252 0
M  V30 12356 H 1154.53 0.593668 -3.73208 0
M  V30 12357 H 1154.85 0.592542 -7.70525 0
M  V30 12358 H 1153.19 0.539818 -6.929 0
M  V30 12359 H 1156.38 0.652042 -4.63536 0
M  V30 12360 H 1156.56 0.651756 -6.44714 0
M  V30 12361 N 1149.96 1.53094 0.37415 0
M  V30 12362 C 1151.37 1.60641 0.951381 0
M  V30 12363 C 1151.72 0.468474 1.90525 0
M  V30 12364 O 1150.85 -0.406347 2.12551 0
M  V30 12365 C 1151.44 2.91166 1.73228 0
M  V30 12366 C 1150 3.01077 2.25898 0
M  V30 12367 C 1149.15 2.55873 1.06885 0
M  V30 12368 H 1152.1 1.57959 0.153214 0
M  V30 12369 H 1152.12 2.78487 2.59278 0
M  V30 12370 H 1151.63 3.73968 1.03778 0
M  V30 12371 H 1149.73 2.22844 2.98615 0
M  V30 12372 H 1149.85 4.05998 2.54367 0
M  V30 12373 H 1148.21 2.10544 1.43329 0
M  V30 12374 H 1148.99 3.41084 0.38947 0
M  V30 12375 N 1151.44 -0.633461 1.44309 0
M  V30 12376 C 1152.69 -1.39306 1.46969 0
M  V30 12377 C 1153.01 -1.94235 0.101403 0
M  V30 12378 O 1152.27 -1.73959 -0.896475 0
M  V30 12379 C 1152.57 -2.57783 2.47554 0
M  V30 12380 C 1152.23 -2.21156 3.92939 0
M  V30 12381 C 1150.9 -2.1088 4.32531 0
M  V30 12382 C 1153.25 -1.9218 4.84475 0
M  V30 12383 C 1150.58 -1.69812 5.61588 0
M  V30 12384 C 1152.93 -1.52605 6.13917 0
M  V30 12385 C 1151.59 -1.40868 6.52466 0
M  V30 12386 H 1150.86 -0.509758 0.537799 0
M  V30 12387 H 1153.51 -0.718552 1.77508 0
M  V30 12388 H 1151.81 -3.30456 2.1049 0
M  V30 12389 H 1153.51 -3.16009 2.46859 0
M  V30 12390 H 1150.1 -2.30072 3.61614 0
M  V30 12391 H 1154.29 -1.9903 4.54644 0
M  V30 12392 H 1149.54 -1.59327 5.90275 0
M  V30 12393 H 1153.72 -1.29221 6.84306 0
M  V30 12394 H 1151.34 -1.08818 7.52371 0
M  V30 12395 N 1152.92 -1.31168 -0.873655 0
M  V30 12396 C 1154.33 -1.18584 -1.44203 0
M  V30 12397 C 1154.68 0.209114 -1.95082 0
M  V30 12398 O 1153.81 1.10662 -1.85965 0
M  V30 12399 C 1154.4 -2.14668 -2.62112 0
M  V30 12400 C 1152.96 -2.06029 -3.15006 0
M  V30 12401 C 1152.11 -2.04106 -1.87712 0
M  V30 12402 H 1155.06 -1.43273 -0.682536 0
M  V30 12403 H 1155.08 -1.73413 -3.38686 0
M  V30 12404 H 1154.59 -3.16186 -2.25051 0
M  V30 12405 H 1152.69 -1.07693 -3.56697 0
M  V30 12406 H 1152.8 -2.9496 -3.77539 0
M  V30 12407 H 1151.17 -1.49069 -2.0652 0
M  V30 12408 H 1151.95 -3.07373 -1.52894 0
M  V30 12409 N 1154.4 1.08748 -1.14068 0
M  V30 12410 C 1155.81 1.33125 -0.880341 0
M  V30 12411 C 1156.01 1.9569 0.480396 0
M  V30 12412 O 1155.07 2.2077 1.22543 0
M  V30 12413 C 1156.38 2.23618 -2.01036 0
M  V30 12414 C 1157.93 2.37108 -2.04326 0
M  V30 12415 C 1158.4 3.30941 -3.1661 0
M  V30 12416 N 1159.9 3.38517 -3.16166 0
M  V30 12417 C 1160.63 4.11142 -3.99687 0
M  V30 12418 N 1160.13 4.86505 -4.93239 0
M  V30 12419 N 1161.92 4.06938 -3.87761 0
M  V30 12420 H 1154.07 0.665164 -2.01716 0
M  V30 12421 H 1156.33 0.355612 -0.878774 0
M  V30 12422 H 1156.04 1.84885 -2.99183 0
M  V30 12423 H 1155.91 3.24056 -1.93049 0
M  V30 12424 H 1158.3 2.75101 -1.06787 0
M  V30 12425 H 1158.38 1.36424 -2.16384 0
M  V30 12426 H 1158.03 2.93669 -4.14392 0
M  V30 12427 H 1157.96 4.31545 -3.01789 0
M  V30 12428 H 1160.45 2.84786 -2.48405 0
M  V30 12429 H 1160.76 5.39372 -5.53441 0
M  V30 12430 H 1159.1 4.8557 -4.9724 0
M  V30 12431 H 1162.3 3.47166 -3.13996 0
M  V30 12432 H 1162.47 4.63275 -4.53079 0
M  V30 12433 N 1155.87 0.935264 1.26849 0
M  V30 12434 C 1157.1 0.596249 1.98122 0
M  V30 12435 C 1157.52 -0.827452 1.69702 0
M  V30 12436 O 1156.87 -1.55095 0.961864 0
M  V30 12437 C 1156.93 0.821773 3.52036 0
M  V30 12438 O 1156.65 2.18947 3.79465 0
M  V30 12439 C 1158.15 0.492498 4.40556 0
M  V30 12440 H 1155.37 0.225242 0.632066 0
M  V30 12441 H 1157.91 1.25435 1.61512 0
M  V30 12442 H 1156.07 0.210363 3.86828 0
M  V30 12443 H 1156.48 2.24509 4.74021 0
M  V30 12444 H 1157.95 0.700953 5.47531 0
M  V30 12445 H 1158.43 -0.57228 4.35456 0
M  V30 12446 H 1159.04 1.08238 4.11296 0
M  V30 12447 N 1157.35 -1.41121 0.701616 0
M  V30 12448 C 1158.6 -2.00359 0.232214 0
M  V30 12449 C 1158.91 -1.56231 -1.17691 0
M  V30 12450 O 1160.12 -2.08071 -1.74409 0
M  V30 12451 C 1158.58 -3.58052 0.364257 0
M  V30 12452 C 1158.18 -4.11158 1.77913 0
M  V30 12453 C 1159.93 -4.24476 -0.0450628 0
M  V30 12454 C 1157.84 -5.61306 1.8625 0
M  V30 12455 H 1156.77 -0.749411 0.0830609 0
M  V30 12456 H 1159.42 -1.61528 0.870689 0
M  V30 12457 H 1157.8 -3.94515 -0.342569 0
M  V30 12458 H 1158.97 -3.86101 2.5152 0
M  V30 12459 H 1157.29 -3.57282 2.13866 0
M  V30 12460 H 1159.88 -5.347 -0.00329209 0
M  V30 12461 H 1160.23 -4.01919 -1.08477 0
M  V30 12462 H 1160.76 -3.93069 0.611704 0
M  V30 12463 H 1157.5 -5.88699 2.88294 0
M  V30 12464 H 1157.02 -5.88271 1.17036 0
M  V30 12465 H 1158.7 -6.26179 1.62817 0
M  V30 12466 N 1158.83 -0.446794 -1.51134 0
M  V30 12467 C 1160.08 0.116666 -2.02464 0
M  V30 12468 C 1160.41 1.41532 -1.32975 0
M  V30 12469 O 1159.68 1.89278 -0.447651 0
M  V30 12470 C 1159.97 0.325659 -3.58624 0
M  V30 12471 C 1159.82 -0.992307 -4.38718 0
M  V30 12472 C 1161.14 1.09121 -4.26357 0
M  V30 12473 H 1158.26 0.0409262 -0.735863 0
M  V30 12474 H 1160.9 -0.587641 -1.80684 0
M  V30 12475 H 1159.05 0.925585 -3.77313 0
M  V30 12476 H 1160.72 -1.62694 -4.31658 0
M  V30 12477 H 1158.97 -1.5947 -4.03425 0
M  V30 12478 H 1159.64 -0.800005 -5.46172 0
M  V30 12479 H 1162.11 0.582944 -4.11996 0
M  V30 12480 H 1160.99 1.20621 -5.35483 0
M  V30 12481 H 1161.25 2.12171 -3.87861 0
M  V30 12482 N 1160.31 1.56586 -0.178487 0
M  V30 12483 C 1161.27 2.17091 0.73512 0
M  V30 12484 C 1162.27 1.12088 1.15295 0
M  V30 12485 O 1163.46 1.37563 1.06874 0
M  V30 12486 C 1160.59 2.75957 2.00151 0
M  V30 12487 H 1161.79 2.99176 0.208272 0
M  V30 12488 H 1159.34 1.56138 0.0710967 0
M  V30 12489 H 1160.07 1.97626 2.57127 0
M  V30 12490 H 1159.86 3.52809 1.7108 0
M  V30 12491 H 1161.35 3.2247 2.65335 0
M  V30 12492 N 1161.79 -0.095206 1.57312 0
M  V30 12493 C 1163.03 -0.799903 1.86358 0
M  V30 12494 C 1163.37 -1.78386 0.767593 0
M  V30 12495 O 1162.64 -1.93201 -0.224439 0
M  V30 12496 C 1162.92 -1.52875 3.26039 0
M  V30 12497 C 1162.78 -0.562781 4.46265 0
M  V30 12498 C 1164.1 -2.47935 3.63616 0
M  V30 12499 H 1161.21 -0.289339 0.677829 0
M  V30 12500 H 1163.86 -0.0635369 1.89894 0
M  V30 12501 H 1162.01 -2.15645 3.23156 0
M  V30 12502 H 1163.68 0.0579068 4.61264 0
M  V30 12503 H 1161.92 0.123847 4.33623 0
M  V30 12504 H 1162.59 -1.10989 5.40727 0
M  V30 12505 H 1165.07 -1.95257 3.67442 0
M  V30 12506 H 1163.94 -2.95948 4.62283 0
M  V30 12507 H 1164.21 -3.31687 2.92294 0
M  V30 12508 N 1163.26 -1.53291 -0.366026 0
M  V30 12509 C 1164.17 -1.82656 -1.47221 0
M  V30 12510 C 1165.19 -0.71491 -1.58635 0
M  V30 12511 O 1166.37 -1.00492 -1.74538 0
M  V30 12512 C 1163.43 -2.00995 -2.82492 0
M  V30 12513 C 1162.49 -3.24895 -2.8061 0
M  V30 12514 C 1161.73 -3.4235 -4.09429 0
M  V30 12515 O 1161.95 -2.6411 -5.05571 0
M  V30 12516 O 1160.88 -4.35702 -4.15268 0
M  V30 12517 H 1164.71 -2.76634 -1.2533 0
M  V30 12518 H 1162.29 -1.38665 -0.556084 0
M  V30 12519 H 1164.18 -2.14632 -3.62645 0
M  V30 12520 H 1162.85 -1.10207 -3.04362 0
M  V30 12521 H 1161.76 -3.16682 -1.99157 0
M  V30 12522 H 1163.09 -4.15604 -2.63694 0
M  V30 12523 N 1164.74 0.6258 -1.44643 0
M  V30 12524 C 1165.99 1.3873 -1.47925 0
M  V30 12525 C 1166.32 1.93868 -0.113469 0
M  V30 12526 O 1165.6 1.73976 0.869639 0
M  V30 12527 C 1165.88 2.54867 -2.54391 0
M  V30 12528 C 1165.73 2.05044 -4.00346 0
M  V30 12529 C 1167.05 3.57043 -2.57309 0
M  V30 12530 H 1164.17 0.503087 -0.538584 0
M  V30 12531 H 1166.81 0.707102 -1.76352 0
M  V30 12532 H 1164.96 3.12894 -2.30281 0
M  V30 12533 H 1166.63 1.51807 -4.35606 0
M  V30 12534 H 1164.88 1.36185 -4.11869 0
M  V30 12535 H 1165.55 2.88681 -4.70497 0
M  V30 12536 H 1168.02 3.08826 -2.78865 0
M  V30 12537 H 1166.9 4.35818 -3.33698 0
M  V30 12538 H 1167.16 4.11464 -1.61708 0
M  V30 12539 N 1166.22 1.31629 0.866686 0
M  V30 12540 C 1167.15 1.15377 1.98042 0
M  V30 12541 C 1168.17 0.0919633 1.6254 0
M  V30 12542 O 1169.35 0.339775 1.75236 0
M  V30 12543 C 1166.45 0.741295 3.30693 0
M  V30 12544 C 1165.63 1.88882 3.94516 0
M  V30 12545 C 1164.69 1.46186 5.05486 0
M  V30 12546 O 1163.71 2.17202 5.26129 0
M  V30 12547 N 1164.91 0.351096 5.79437 0
M  V30 12548 H 1167.68 2.11309 2.12529 0
M  V30 12549 H 1165.24 1.24007 1.04085 0
M  V30 12550 H 1167.23 0.438313 4.02319 0
M  V30 12551 H 1165.8 -0.12651 3.12344 0
M  V30 12552 H 1165.02 2.35894 3.15828 0
M  V30 12553 H 1166.31 2.65734 4.33892 0
M  V30 12554 H 1165.71 -0.240245 5.6519 0
M  V30 12555 H 1164.27 0.107663 6.51711 0
M  V30 12556 N 1167.7 -1.08142 1.14644 0
M  V30 12557 C 1168.98 -1.77254 0.827071 0
M  V30 12558 C 1169.36 -1.99885 -0.67891 0
M  V30 12559 O 1168.7 -1.61084 -1.62062 0
M  V30 12560 C 1168.91 -3.08658 1.62884 0
M  V30 12561 C 1170.26 -3.83143 1.82993 0
M  V30 12562 O 1171.29 -3.18447 1.59593 0
M  V30 12563 O 1170.15 -4.9932 2.2213 0
M  V30 12564 H 1167.24 -0.769356 0.30335 0
M  V30 12565 H 1169.79 -1.1458 1.25178 0
M  V30 12566 H 1168.56 -2.87753 2.65168 0
M  V30 12567 H 1168.18 -3.79061 1.19994 0
M  V30 12568 N 1169.18 -0.941978 -1.26351 0
M  V30 12569 C 1170.11 -0.409504 -2.25512 0
M  V30 12570 C 1171.12 0.467665 -1.55938 0
M  V30 12571 O 1172.31 0.277982 -1.76322 0
M  V30 12572 C 1169.41 0.430487 -3.36155 0
M  V30 12573 C 1168.58 -0.430714 -4.35274 0
M  V30 12574 C 1167.64 0.348976 -5.25042 0
M  V30 12575 O 1166.67 -0.24827 -5.68658 0
M  V30 12576 N 1167.87 1.64531 -5.56695 0
M  V30 12577 H 1170.64 -1.26196 -2.71836 0
M  V30 12578 H 1168.2 -0.810947 -1.40126 0
M  V30 12579 H 1170.19 0.959501 -3.93161 0
M  V30 12580 H 1168.76 1.18375 -2.8932 0
M  V30 12581 H 1167.98 -1.14093 -3.77328 0
M  V30 12582 H 1169.27 -1.01896 -4.98492 0
M  V30 12583 H 1168.67 2.15266 -5.23142 0
M  V30 12584 H 1167.22 2.12055 -6.16341 0
M  V30 12585 N 1170.66 1.40747 -0.709091 0
M  V30 12586 C 1171.6 2.30741 -0.0523584 0
M  V30 12587 C 1172.57 1.4784 0.757145 0
M  V30 12588 O 1173.76 1.76595 0.72242 0
M  V30 12589 C 1170.9 3.34 0.868203 0
M  V30 12590 C 1170.01 4.31972 0.0488686 0
M  V30 12591 C 1169.15 5.223 0.968311 0
M  V30 12592 C 1168.18 6.11934 0.142682 0
M  V30 12593 N 1167.32 6.947 1.01665 0
M  V30 12594 H 1172.16 2.86338 -0.825509 0
M  V30 12595 H 1169.7 1.41013 -0.418785 0
M  V30 12596 H 1171.66 3.92431 1.41611 0
M  V30 12597 H 1170.29 2.79921 1.6076 0
M  V30 12598 H 1169.34 3.75377 -0.616137 0
M  V30 12599 H 1170.65 4.95291 -0.590625 0
M  V30 12600 H 1169.8 5.85631 1.58498 0
M  V30 12601 H 1168.54 4.5924 1.64164 0
M  V30 12602 H 1167.55 5.47639 -0.486965 0
M  V30 12603 H 1168.77 6.77052 -0.527046 0
M  V30 12604 H 1166.72 6.34236 1.67575 0
M  V30 12605 H 1166.64 7.54759 0.433045 0
M  V30 12606 H 1167.9 7.62487 1.6197 0
M  V30 12607 N 1172.13 0.454803 1.50895 0
M  V30 12608 C 1173.08 -0.361974 2.29766 0
M  V30 12609 C 1174.08 -1.00519 1.36353 0
M  V30 12610 O 1175.28 -0.938159 1.53618 0
M  V30 12611 H 1171.66 -0.135559 0.739681 0
M  V30 12612 H 1173.63 0.323853 2.96637 0
M  V30 12613 C 1172.38 -1.44078 3.16444 0
M  V30 12614 H 1171.7 -0.955212 3.88221 0
M  V30 12615 H 1173.14 -1.98518 3.74655 0
M  V30 12616 C 1171.6 -2.43374 2.32961 0
M  V30 12617 O 1172.13 -3.48295 2.00133 0
M  V30 12618 N 1170.33 -2.14689 1.95849 0
M  V30 12619 H 1169.88 -1.29392 2.22745 0
M  V30 12620 H 1169.84 -2.81363 1.40292 0
M  V30 12621 N 1173.61 -1.56489 0.186789 0
M  V30 12622 C 1174.86 -1.96952 -0.453261 0
M  V30 12623 C 1175.18 -1.07451 -1.62725 0
M  V30 12624 O 1174.45 -0.144046 -1.9537 0
M  V30 12625 H 1173.03 -0.727295 -0.170445 0
M  V30 12626 H 1175.69 -1.92999 0.271584 0
M  V30 12627 H 1174.79 -3.01594 -0.802951 0
M  V30 12628 N 1175.09 0.086862 -1.5736 0
M  V30 12629 C 1176.05 1.08906 -2.01673 0
M  V30 12630 C 1177.05 1.32473 -0.911463 0
M  V30 12631 O 1178.24 1.28447 -1.17673 0
M  V30 12632 C 1175.37 2.43629 -2.38449 0
M  V30 12633 H 1176.57 0.707461 -2.91436 0
M  V30 12634 H 1174.12 0.332154 -1.5273 0
M  V30 12635 H 1174.86 2.8665 -1.51665 0
M  V30 12636 H 1174.64 2.2787 -3.19089 0
M  V30 12637 H 1176.13 3.15695 -2.73361 0
M  V30 12638 N 1176.57 1.53483 0.357892 0
M  V30 12639 C 1177.8 1.73956 1.12013 0
M  V30 12640 C 1178.21 0.472053 1.82803 0
M  V30 12641 O 1177.57 -0.555499 1.7384 0
M  V30 12642 C 1177.62 2.91015 2.14459 0
M  V30 12643 O 1177.34 4.12862 1.4655 0
M  V30 12644 C 1178.84 3.23423 3.0317 0
M  V30 12645 H 1176.06 0.58161 0.334621 0
M  V30 12646 H 1178.6 2.00256 0.414467 0
M  V30 12647 H 1176.76 2.67087 2.80612 0
M  V30 12648 H 1177.17 4.78468 2.14869 0
M  V30 12649 H 1178.65 4.08717 3.71018 0
M  V30 12650 H 1179.12 2.39114 3.68404 0
M  V30 12651 H 1179.73 3.49305 2.42624 0
M  V30 12652 N 1178.05 -0.61812 1.44973 0
M  V30 12653 C 1179 -1.72346 1.49268 0
M  V30 12654 C 1179.98 -1.56889 0.357042 0
M  V30 12655 O 1181.17 -1.66404 0.603212 0
M  V30 12656 C 1178.3 -3.11073 1.4522 0
M  V30 12657 C 1177.39 -3.31953 2.63947 0
M  V30 12658 N 1177.78 -3.23141 3.89119 0
M  V30 12659 C 1176.08 -3.62791 2.59419 0
M  V30 12660 C 1176.78 -3.45066 4.683 0
M  V30 12661 N 1175.75 -3.68558 3.99582 0
M  V30 12662 H 1179.55 -1.6401 2.43881 0
M  V30 12663 H 1177.07 -0.821029 1.40117 0
M  V30 12664 H 1179.07 -3.90356 1.46381 0
M  V30 12665 H 1177.73 -3.20565 0.516555 0
M  V30 12666 H 1178.74 -3.01773 4.20896 0
M  V30 12667 H 1175.41 -3.79185 1.74713 0
M  V30 12668 H 1176.8 -3.43735 5.77318 0
M  V30 12669 N 1179.52 -1.32087 -0.859693 0
M  V30 12670 C 1180.75 -1.25167 -1.64368 0
M  V30 12671 C 1181.16 0.183572 -1.88307 0
M  V30 12672 O 1180.5 1.12945 -1.44876 0
M  V30 12673 C 1180.57 -1.93641 -3.02892 0
M  V30 12674 C 1180.23 -3.4298 -3.02017 0
M  V30 12675 C 1181.23 -4.38551 -2.79229 0
M  V30 12676 C 1178.91 -3.84835 -3.22812 0
M  V30 12677 C 1180.91 -5.73952 -2.77232 0
M  V30 12678 C 1178.59 -5.20346 -3.20442 0
M  V30 12679 C 1179.59 -6.14716 -2.97681 0
M  V30 12680 O 1179.28 -7.47748 -2.95175 0
M  V30 12681 H 1179.01 -0.433327 -0.518848 0
M  V30 12682 H 1181.57 -1.7468 -1.08055 0
M  V30 12683 H 1179.8 -1.3869 -3.60974 0
M  V30 12684 H 1181.48 -1.80497 -3.63559 0
M  V30 12685 H 1182.25 -4.07542 -2.62935 0
M  V30 12686 H 1178.13 -3.11806 -3.39555 0
M  V30 12687 H 1181.67 -6.47584 -2.59385 0
M  V30 12688 H 1177.57 -5.50987 -3.36279 0
M  V30 12689 H 1178.34 -7.57046 -3.11165 0
M  V30 12690 N 1181 1.07532 -1.15215 0
M  V30 12691 C 1182.25 1.8052 -0.937234 0
M  V30 12692 C 1182.6 1.84954 0.530084 0
M  V30 12693 O 1181.9 1.32091 1.3879 0
M  V30 12694 C 1182.09 3.2518 -1.483 0
M  V30 12695 C 1181.92 3.34841 -3.00185 0
M  V30 12696 C 1180.69 3.45509 -3.68716 0
M  V30 12697 C 1182.89 3.25749 -3.97985 0
M  V30 12698 N 1180.87 3.44055 -5.08429 0
M  V30 12699 C 1182.24 3.31391 -5.24004 0
M  V30 12700 C 1184.29 3.09547 -3.89981 0
M  V30 12701 C 1183 3.22498 -6.42952 0
M  V30 12702 C 1185.02 3.01987 -5.08486 0
M  V30 12703 C 1184.39 3.08239 -6.33378 0
M  V30 12704 H 1180.48 0.673971 -0.396594 0
M  V30 12705 H 1183.07 1.2837 -1.46387 0
M  V30 12706 H 1181.24 3.75754 -0.983021 0
M  V30 12707 H 1182.97 3.86279 -1.20709 0
M  V30 12708 H 1179.73 3.49778 -3.193 0
M  V30 12709 H 1180.15 3.4686 -5.81392 0
M  V30 12710 H 1184.79 3.03568 -2.94289 0
M  V30 12711 H 1182.51 3.27236 -7.38879 0
M  V30 12712 H 1186.1 2.90557 -5.04051 0
M  V30 12713 H 1184.98 3.02431 -7.23537 0
M  V30 12714 N 1182.48 0.948665 1.2585 0
M  V30 12715 C 1183.71 0.617229 1.97479 0
M  V30 12716 C 1184.12 -0.809406 1.7057 0
M  V30 12717 O 1183.48 -1.54066 0.97826 0
M  V30 12718 C 1183.53 0.859065 3.51144 0
M  V30 12719 O 1183.25 2.2296 3.77121 0
M  V30 12720 C 1184.75 0.539197 4.40009 0
M  V30 12721 H 1181.97 0.231933 0.629641 0
M  V30 12722 H 1184.52 1.27141 1.60173 0
M  V30 12723 H 1182.67 0.25138 3.86584 0
M  V30 12724 H 1183.09 2.29524 4.71613 0
M  V30 12725 H 1184.56 0.758986 5.46757 0
M  V30 12726 H 1185.04 -0.526062 4.36038 0
M  V30 12727 H 1185.64 1.12594 4.10125 0
M  V30 12728 N 1183.96 -1.40369 0.716545 0
M  V30 12729 C 1184.89 -2.33365 0.0793533 0
M  V30 12730 C 1185.87 -1.52943 -0.744482 0
M  V30 12731 O 1187.05 -1.81406 -0.693212 0
M  V30 12732 C 1184.18 -3.36928 -0.842429 0
M  V30 12733 C 1183.14 -4.2782 -0.124142 0
M  V30 12734 C 1182.46 -5.21928 -1.1617 0
M  V30 12735 C 1183.76 -5.12199 1.02224 0
M  V30 12736 H 1185.46 -2.86899 0.856115 0
M  V30 12737 H 1183 -1.37946 0.413138 0
M  V30 12738 H 1184.96 -4.00925 -1.29759 0
M  V30 12739 H 1183.68 -2.81791 -1.6511 0
M  V30 12740 H 1182.34 -3.65277 0.311201 0
M  V30 12741 H 1181.99 -4.63096 -1.96345 0
M  V30 12742 H 1181.69 -5.83582 -0.685978 0
M  V30 12743 H 1183.21 -5.88802 -1.61694 0
M  V30 12744 H 1184.63 -5.69644 0.646399 0
M  V30 12745 H 1183.02 -5.82901 1.4264 0
M  V30 12746 H 1184.09 -4.4812 1.85246 0
M  V30 12747 N 1185.44 -0.462799 -1.50652 0
M  V30 12748 C 1186.35 0.341191 -2.32106 0
M  V30 12749 C 1187.36 1.00384 -1.42123 0
M  V30 12750 O 1188.54 0.993635 -1.75182 0
M  V30 12751 C 1185.6 1.41356 -3.16575 0
M  V30 12752 C 1184.66 0.768375 -4.22368 0
M  V30 12753 C 1183.9 1.78964 -5.028 0
M  V30 12754 O 1184.12 3.01515 -4.84195 0
M  V30 12755 O 1183.05 1.36606 -5.86193 0
M  V30 12756 H 1186.88 -0.324482 -3.01962 0
M  V30 12757 H 1184.47 -0.224807 -1.47699 0
M  V30 12758 H 1186.35 2.0349 -3.69012 0
M  V30 12759 H 1185.02 2.06285 -2.49456 0
M  V30 12760 H 1183.93 0.108297 -3.73943 0
M  V30 12761 H 1185.26 0.162164 -4.91933 0
M  V30 12762 N 1186.91 1.56388 -0.195085 0
M  V30 12763 C 1187.86 2.19091 0.725793 0
M  V30 12764 C 1188.83 1.13814 1.20977 0
M  V30 12765 O 1190.02 1.42065 1.27366 0
M  V30 12766 C 1187.16 2.85427 1.93973 0
M  V30 12767 C 1186.27 4.05229 1.49712 0
M  V30 12768 C 1185.4 4.59421 2.66656 0
M  V30 12769 C 1184.44 5.71581 2.19001 0
M  V30 12770 N 1183.58 6.2018 3.29123 0
M  V30 12771 H 1188.42 2.97429 0.184334 0
M  V30 12772 H 1185.96 1.46886 0.0792434 0
M  V30 12773 H 1187.92 3.22057 2.65208 0
M  V30 12774 H 1186.55 2.09652 2.4545 0
M  V30 12775 H 1185.6 3.74261 0.680641 0
M  V30 12776 H 1186.91 4.8635 1.10749 0
M  V30 12777 H 1186.06 4.98357 3.46014 0
M  V30 12778 H 1184.8 3.77407 3.08893 0
M  V30 12779 H 1183.81 5.32174 1.38097 0
M  V30 12780 H 1185.03 6.55413 1.77795 0
M  V30 12781 H 1182.98 5.41088 3.70891 0
M  V30 12782 H 1182.9 6.96353 2.94328 0
M  V30 12783 H 1184.16 6.63769 4.08694 0
M  V30 12784 N 1188.39 -0.0785156 1.57404 0
M  V30 12785 C 1189.32 -1.09446 2.06262 0
M  V30 12786 C 1190.3 -1.40777 0.954772 0
M  V30 12787 O 1191.49 -1.5052 1.22708 0
M  V30 12788 C 1188.62 -2.40979 2.50093 0
M  V30 12789 C 1187.57 -2.24017 3.64692 0
M  V30 12790 C 1186.9 -3.60873 3.94556 0
M  V30 12791 C 1188.2 -1.66696 4.94985 0
M  V30 12792 H 1189.89 -0.687928 2.9139 0
M  V30 12793 H 1187.44 -0.329466 1.4018 0
M  V30 12794 H 1189.39 -3.12337 2.82884 0
M  V30 12795 H 1188.12 -2.83599 1.61985 0
M  V30 12796 H 1186.77 -1.55101 3.32174 0
M  V30 12797 H 1186.42 -4.01051 3.0359 0
M  V30 12798 H 1186.12 -3.50365 4.71718 0
M  V30 12799 H 1187.65 -4.33673 4.29837 0
M  V30 12800 H 1189.06 -2.27913 5.2605 0
M  V30 12801 H 1187.46 -1.66902 5.76423 0
M  V30 12802 H 1188.53 -0.627827 4.80818 0
M  V30 12803 N 1189.87 -1.5367 -0.349747 0
M  V30 12804 C 1191.29 -1.43796 -0.692457 0
M  V30 12805 C 1191.49 -0.58972 -1.92677 0
M  V30 12806 O 1190.54 -0.078294 -2.52379 0
M  V30 12807 C 1191.86 -2.872 -0.890881 0
M  V30 12808 C 1193.4 -2.96935 -0.989892 0
M  V30 12809 C 1193.88 -4.41433 -1.22068 0
M  V30 12810 N 1195.37 -4.44932 -1.28802 0
M  V30 12811 C 1196.1 -5.53864 -1.48398 0
M  V30 12812 N 1195.6 -6.72814 -1.65208 0
M  V30 12813 N 1197.39 -5.41467 -1.50896 0
M  V30 12814 H 1189.54 -2.07317 0.461895 0
M  V30 12815 H 1191.81 -0.936895 0.144681 0
M  V30 12816 H 1191.51 -3.51656 -0.0555095 0
M  V30 12817 H 1191.39 -3.31784 -1.79442 0
M  V30 12818 H 1193.77 -2.32622 -1.81579 0
M  V30 12819 H 1193.86 -2.55721 -0.0633906 0
M  V30 12820 H 1193.5 -5.06325 -0.399729 0
M  V30 12821 H 1193.43 -4.80233 -2.16064 0
M  V30 12822 H 1195.92 -3.59214 -1.17361 0
M  V30 12823 H 1196.23 -7.51598 -1.79779 0
M  V30 12824 H 1194.58 -6.7577 -1.62356 0
M  V30 12825 H 1197.77 -4.47498 -1.37342 0
M  V30 12826 H 1197.94 -6.26423 -1.65826 0
M  V30 12827 N 1191.35 0.610423 -1.45298 0
M  V30 12828 C 1192.28 1.73507 -1.4976 0
M  V30 12829 C 1193.29 1.58092 -0.38867 0
M  V30 12830 O 1194.48 1.66026 -0.655571 0
M  V30 12831 C 1191.58 3.11475 -1.33554 0
M  V30 12832 C 1190.76 3.53156 -2.5807 0
M  V30 12833 C 1189.81 4.70076 -2.36463 0
M  V30 12834 O 1188.84 4.77337 -3.10061 0
M  V30 12835 N 1190.04 5.63155 -1.40843 0
M  V30 12836 H 1192.81 1.70144 -2.46721 0
M  V30 12837 H 1190.37 0.79562 -1.41002 0
M  V30 12838 H 1192.36 3.87444 -1.16914 0
M  V30 12839 H 1190.93 3.09361 -0.448803 0
M  V30 12840 H 1190.15 2.67178 -2.89844 0
M  V30 12841 H 1191.44 3.77761 -3.40843 0
M  V30 12842 H 1190.84 5.60001 -0.800982 0
M  V30 12843 H 1189.39 6.38669 -1.30175 0
M  V30 12844 N 1192.83 1.32541 0.852676 0
M  V30 12845 C 1194.24 1.11575 1.14119 0
M  V30 12846 C 1194.44 -0.102469 2.01239 0
M  V30 12847 O 1193.5 -0.786786 2.39929 0
M  V30 12848 C 1194.81 2.39624 1.81661 0
M  V30 12849 C 1196.36 2.454 1.94288 0
M  V30 12850 C 1196.83 3.73375 2.65245 0
M  V30 12851 N 1198.33 3.74368 2.72769 0
M  V30 12852 C 1199.06 4.70094 3.28328 0
M  V30 12853 N 1198.56 5.76187 3.84682 0
M  V30 12854 N 1200.35 4.57588 3.26449 0
M  V30 12855 H 1192.5 2.10644 0.272544 0
M  V30 12856 H 1194.76 0.930094 0.183385 0
M  V30 12857 H 1194.47 3.28698 1.25102 0
M  V30 12858 H 1194.34 2.50734 2.81802 0
M  V30 12859 H 1196.73 1.56784 2.50005 0
M  V30 12860 H 1196.81 2.38241 0.931379 0
M  V30 12861 H 1196.46 4.62366 2.10191 0
M  V30 12862 H 1196.39 3.77806 3.66838 0
M  V30 12863 H 1198.88 2.97685 2.32791 0
M  V30 12864 H 1199.19 6.45285 4.25238 0
M  V30 12865 H 1197.53 5.79939 3.83008 0
M  V30 12866 H 1200.73 3.7387 2.81672 0
M  V30 12867 H 1200.9 5.32365 3.69448 0
M  V30 12868 N 1194.3 -1.0692 1.15784 0
M  V30 12869 C 1195.23 -2.16216 0.881649 0
M  V30 12870 C 1196.22 -1.69253 -0.16951 0
M  V30 12871 O 1197.4 -1.94186 -0.0229511 0
M  V30 12872 C 1194.53 -3.4527 0.374982 0
M  V30 12873 C 1193.48 -4.05706 1.36332 0
M  V30 12874 C 1192.81 -5.29894 0.715317 0
M  V30 12875 C 1194.11 -4.45224 2.7308 0
M  V30 12876 H 1195.8 -2.39577 1.79563 0
M  V30 12877 H 1193.35 -1.15141 0.864784 0
M  V30 12878 H 1195.3 -4.2106 0.169279 0
M  V30 12879 H 1194.03 -3.21508 -0.574485 0
M  V30 12880 H 1192.69 -3.31965 1.55546 0
M  V30 12881 H 1192.33 -5.02425 -0.240436 0
M  V30 12882 H 1192.03 -5.71287 1.37494 0
M  V30 12883 H 1193.56 -6.08386 0.519489 0
M  V30 12884 H 1194.97 -5.12124 2.57686 0
M  V30 12885 H 1193.37 -4.97583 3.35457 0
M  V30 12886 H 1194.44 -3.56384 3.28813 0
M  V30 12887 N 1195.78 -0.955326 -1.25345 0
M  V30 12888 C 1197.06 -0.527828 -1.88344 0
M  V30 12889 C 1197.44 0.994911 -1.86185 0
M  V30 12890 O 1196.79 1.86099 -1.32587 0
M  V30 12891 C 1197 -1.10525 -3.31037 0
M  V30 12892 C 1198.35 -1.18253 -4.07801 0
M  V30 12893 O 1199.37 -1.05685 -3.4016 0
M  V30 12894 O 1198.23 -1.37978 -5.28795 0
M  V30 12895 H 1195.32 -0.174206 -0.808444 0
M  V30 12896 H 1197.87 -1.0488 -1.3341 0
M  V30 12897 H 1196.64 -2.14847 -3.27042 0
M  V30 12898 H 1196.26 -0.567568 -3.93528 0
M  V30 12899 N 1197.26 1.39987 -0.723979 0
M  V30 12900 C 1198.19 2.3332 -0.0917282 0
M  V30 12901 C 1199.17 1.53335 0.736361 0
M  V30 12902 O 1200.36 1.81771 0.683582 0
M  V30 12903 C 1197.49 3.3737 0.824549 0
M  V30 12904 C 1196.44 4.2788 0.101452 0
M  V30 12905 C 1195.77 5.22536 1.13401 0
M  V30 12906 C 1197.07 5.11649 -1.04939 0
M  V30 12907 H 1198.76 2.86441 -0.871318 0
M  V30 12908 H 1196.31 1.37725 -0.420448 0
M  V30 12909 H 1198.26 4.01607 1.27631 0
M  V30 12910 H 1196.98 2.82663 1.63613 0
M  V30 12911 H 1195.64 3.65107 -0.330569 0
M  V30 12912 H 1195.29 4.64131 1.93886 0
M  V30 12913 H 1194.99 5.83938 0.65502 0
M  V30 12914 H 1196.52 5.89651 1.58569 0
M  V30 12915 H 1197.93 5.69293 -0.6766 0
M  V30 12916 H 1196.33 5.82137 -1.45729 0
M  V30 12917 H 1197.4 4.47132 -1.8762 0
M  V30 12918 N 1198.74 0.470782 1.50404 0
M  V30 12919 C 1199.67 -0.369532 2.25188 0
M  V30 12920 C 1200.65 -0.996478 1.28488 0
M  V30 12921 O 1201.83 -1.03247 1.57709 0
M  V30 12922 C 1198.96 -1.51775 3.02791 0
M  V30 12923 C 1198.01 -1.00821 4.14412 0
M  V30 12924 S 1198.84 0.076844 5.35445 0
M  V30 12925 C 1200 -1.07525 6.16595 0
M  V30 12926 H 1200.23 0.265286 2.96114 0
M  V30 12927 H 1197.76 0.255662 1.52269 0
M  V30 12928 H 1199.72 -2.17582 3.48092 0
M  V30 12929 H 1198.38 -2.12408 2.31391 0
M  V30 12930 H 1197.57 -1.8678 4.68112 0
M  V30 12931 H 1197.18 -0.427851 3.71545 0
M  V30 12932 H 1199.47 -1.98693 6.47709 0
M  V30 12933 H 1200.41 -0.577518 7.05741 0
M  V30 12934 H 1200.82 -1.32894 5.48634 0
M  V30 12935 N 1200.22 -1.56282 0.203376 0
M  V30 12936 C 1201.63 -1.58871 -0.152335 0
M  V30 12937 C 1201.83 -1.21978 -1.60386 0
M  V30 12938 O 1200.89 -0.946422 -2.34092 0
M  V30 12939 C 1202.2 -3.00287 0.157515 0
M  V30 12940 C 1203.75 -3.12846 0.098287 0
M  V30 12941 C 1204.23 -4.56408 0.38156 0
M  V30 12942 N 1205.72 -4.6202 0.330475 0
M  V30 12943 C 1206.45 -5.71006 0.523397 0
M  V30 12944 N 1205.95 -6.88428 0.777115 0
M  V30 12945 N 1207.74 -5.60238 0.457082 0
M  V30 12946 H 1199.89 -1.78543 1.15048 0
M  V30 12947 H 1202.15 -0.829019 0.459816 0
M  V30 12948 H 1201.86 -3.3187 1.16427 0
M  V30 12949 H 1201.73 -3.73372 -0.536041 0
M  V30 12950 H 1204.12 -2.8107 -0.899085 0
M  V30 12951 H 1204.2 -2.42129 0.825045 0
M  V30 12952 H 1203.85 -4.88897 1.37629 0
M  V30 12953 H 1203.78 -5.25325 -0.366182 0
M  V30 12954 H 1206.27 -3.77636 0.141327 0
M  V30 12955 H 1206.58 -7.67389 0.912911 0
M  V30 12956 H 1204.93 -6.90215 0.814104 0
M  V30 12957 H 1208.12 -4.67382 0.259226 0
M  V30 12958 H 1208.29 -6.45114 0.610848 0
M  V30 12959 N 1201.7 0.070167 -1.57444 0
M  V30 12960 C 1202.61 1.10106 -2.07157 0
M  V30 12961 C 1203.62 1.42293 -1.00143 0
M  V30 12962 O 1204.8 1.52437 -1.31624 0
M  V30 12963 C 1201.86 2.39486 -2.50694 0
M  V30 12964 C 1200.92 2.14255 -3.72012 0
M  V30 12965 C 1200.16 3.37466 -4.13464 0
M  V30 12966 O 1200.38 4.46645 -3.54773 0
M  V30 12967 O 1199.31 3.25583 -5.0624 0
M  V30 12968 H 1203.14 0.70873 -2.95315 0
M  V30 12969 H 1200.72 0.28441 -1.46668 0
M  V30 12970 H 1202.61 3.15625 -2.79212 0
M  V30 12971 H 1201.28 2.78095 -1.65664 0
M  V30 12972 H 1200.19 1.35816 -3.48575 0
M  V30 12973 H 1201.52 1.80525 -4.57899 0
M  V30 12974 N 1203.17 1.53854 0.341593 0
M  V30 12975 C 1204.11 1.76797 1.44284 0
M  V30 12976 C 1205.08 0.617157 1.50432 0
M  V30 12977 O 1206.27 0.85254 1.68119 0
M  V30 12978 C 1203.4 1.86837 2.82506 0
M  V30 12979 C 1202.44 3.09001 2.93974 0
M  V30 12980 S 1203.27 4.68012 2.60241 0
M  V30 12981 C 1204.43 4.80933 4.00567 0
M  V30 12982 H 1204.66 2.69927 1.24606 0
M  V30 12983 H 1202.2 1.44747 0.537375 0
M  V30 12984 H 1204.15 1.93306 3.62137 0
M  V30 12985 H 1202.82 0.947162 2.99479 0
M  V30 12986 H 1202.01 3.12707 3.9526 0
M  V30 12987 H 1201.61 3.00768 2.22294 0
M  V30 12988 H 1203.9 4.62462 4.95111 0
M  V30 12989 H 1204.85 5.83025 4.01855 0
M  V30 12990 H 1205.25 4.09372 3.88684 0
M  V30 12991 N 1204.65 -0.602709 1.4562 0
M  V30 12992 C 1205.88 -1.38608 1.53203 0
M  V30 12993 C 1206.29 -1.88478 0.165098 0
M  V30 12994 O 1205.63 -1.63142 -0.844421 0
M  V30 12995 C 1205.69 -2.62214 2.45935 0
M  V30 12996 C 1205.36 -2.3395 3.92577 0
M  V30 12997 C 1206.36 -1.94011 4.82344 0
M  V30 12998 C 1204.04 -2.46711 4.37537 0
M  V30 12999 C 1206.03 -1.67202 6.15079 0
M  V30 13000 C 1203.72 -2.19515 5.70313 0
M  V30 13001 C 1204.72 -1.79823 6.58903 0
M  V30 13002 O 1204.41 -1.52948 7.89216 0
M  V30 13003 H 1204.14 -0.43052 0.52118 0
M  V30 13004 H 1206.69 -0.741655 1.91543 0
M  V30 13005 H 1204.92 -3.29394 2.02575 0
M  V30 13006 H 1206.61 -3.24264 2.44147 0
M  V30 13007 H 1207.38 -1.83684 4.48871 0
M  V30 13008 H 1203.26 -2.76572 3.68821 0
M  V30 13009 H 1206.8 -1.36146 6.84186 0
M  V30 13010 H 1202.7 -2.2946 6.03339 0
M  V30 13011 H 1203.47 -1.6696 8.01291 0
M  V30 13012 N 1206.13 -1.32992 -0.845635 0
M  V30 13013 C 1207.41 -1.14671 -1.58461 0
M  V30 13014 C 1207.79 0.289498 -2.09106 0
M  V30 13015 O 1207.13 1.28751 -1.88773 0
M  V30 13016 C 1207.34 -2.18206 -2.72373 0
M  V30 13017 C 1208.69 -2.5201 -3.41726 0
M  V30 13018 O 1209.72 -2.16821 -2.82608 0
M  V30 13019 O 1208.58 -3.12368 -4.48429 0
M  V30 13020 H 1205.67 -0.443088 -0.698285 0
M  V30 13021 H 1208.22 -1.44552 -0.888978 0
M  V30 13022 H 1206.99 -3.14707 -2.32541 0
M  V30 13023 H 1206.61 -1.89372 -3.49605 0
M  V30 13024 N 1207.61 1.06304 -1.1635 0
M  V30 13025 C 1209.02 1.31227 -0.90838 0
M  V30 13026 C 1209.22 1.96665 0.438779 0
M  V30 13027 O 1208.28 2.2332 1.17833 0
M  V30 13028 C 1209.59 2.19303 -2.05734 0
M  V30 13029 C 1211.14 2.3272 -2.09309 0
M  V30 13030 C 1211.62 3.24151 -3.23559 0
M  V30 13031 N 1213.11 3.31734 -3.23275 0
M  V30 13032 C 1213.84 4.02572 -4.08318 0
M  V30 13033 N 1213.34 4.75933 -5.03448 0
M  V30 13034 N 1215.13 3.98621 -3.96305 0
M  V30 13035 H 1207.28 0.622228 -2.03081 0
M  V30 13036 H 1209.54 0.336892 -0.886119 0
M  V30 13037 H 1209.25 1.78497 -3.03037 0
M  V30 13038 H 1209.12 3.19888 -1.99879 0
M  V30 13039 H 1211.51 2.72774 -1.12599 0
M  V30 13040 H 1211.59 1.31804 -2.19229 0
M  V30 13041 H 1211.24 2.84813 -4.20528 0
M  V30 13042 H 1211.17 4.25046 -3.10875 0
M  V30 13043 H 1213.66 2.79453 -2.5439 0
M  V30 13044 H 1213.97 5.27512 -5.64758 0
M  V30 13045 H 1212.32 4.74913 -5.07427 0
M  V30 13046 H 1215.51 3.40427 -3.21289 0
M  V30 13047 H 1215.68 4.5356 -4.62804 0
M  V30 13048 N 1209.09 0.96196 1.24836 0
M  V30 13049 C 1210.05 0.492443 2.23847 0
M  V30 13050 C 1211.05 -0.40788 1.55541 0
M  V30 13051 O 1212.24 -0.204143 1.73 0
M  V30 13052 C 1209.37 -0.287578 3.39685 0
M  V30 13053 H 1210.56 1.36767 2.66899 0
M  V30 13054 H 1208.12 0.745967 1.3735 0
M  V30 13055 H 1208.85 -1.18015 3.02064 0
M  V30 13056 H 1208.64 0.358431 3.90458 0
M  V30 13057 H 1210.13 -0.605297 4.1319 0
M  V30 13058 N 1210.56 -1.39601 0.731392 0
M  V30 13059 C 1211.53 -2.28992 0.0976037 0
M  V30 13060 C 1212.53 -1.46135 -0.670917 0
M  V30 13061 O 1213.72 -1.66856 -0.50047 0
M  V30 13062 C 1210.85 -3.29582 -0.871124 0
M  V30 13063 H 1212.04 -2.86541 0.885112 0
M  V30 13064 H 1209.59 -1.48188 0.497002 0
M  V30 13065 H 1210.33 -2.77082 -1.68512 0
M  V30 13066 H 1210.11 -3.9077 -0.322735 0
M  V30 13067 H 1211.6 -3.96479 -1.31126 0
M  V30 13068 N 1212.04 -0.478751 -1.50152 0
M  V30 13069 C 1212.95 0.316554 -2.32455 0
M  V30 13070 C 1213.97 0.98871 -1.4318 0
M  V30 13071 O 1215.14 0.974998 -1.76226 0
M  V30 13072 C 1212.21 1.3799 -3.18056 0
M  V30 13073 C 1211.27 0.723534 -4.23159 0
M  V30 13074 C 1210.5 1.73621 -5.0467 0
M  V30 13075 O 1210.73 2.96362 -4.87366 0
M  V30 13076 O 1209.66 1.30381 -5.87609 0
M  V30 13077 H 1213.49 -0.356491 -3.016 0
M  V30 13078 H 1211.07 -0.24046 -1.47452 0
M  V30 13079 H 1212.95 1.99565 -3.71149 0
M  V30 13080 H 1211.63 2.03627 -2.5163 0
M  V30 13081 H 1210.54 0.0686296 -3.74037 0
M  V30 13082 H 1211.87 0.109979 -4.92077 0
M  V30 13083 N 1213.52 1.56172 -0.211661 0
M  V30 13084 C 1214.77 1.98332 0.423332 0
M  V30 13085 C 1215.1 1.09895 1.60115 0
M  V30 13086 O 1214.37 0.154477 1.93886 0
M  V30 13087 C 1214.66 3.49495 0.86747 0
M  V30 13088 C 1214.51 4.48708 -0.313302 0
M  V30 13089 C 1215.83 4.04793 1.72716 0
M  V30 13090 H 1212.95 0.72107 0.152402 0
M  V30 13091 H 1215.59 1.87521 -0.305912 0
M  V30 13092 H 1213.74 3.58839 1.48885 0
M  V30 13093 H 1215.41 4.51385 -0.951291 0
M  V30 13094 H 1213.66 4.2299 -0.96238 0
M  V30 13095 H 1214.33 5.51985 0.0402402 0
M  V30 13096 H 1216.8 3.98332 1.20296 0
M  V30 13097 H 1215.68 5.10898 2.00684 0
M  V30 13098 H 1215.94 3.51067 2.68709 0
M  V30 13099 N 1215 -0.0618163 1.57479 0
M  V30 13100 C 1216.41 -0.612461 1.76368 0
M  V30 13101 C 1216.76 -1.77381 0.838466 0
M  V30 13102 O 1215.89 -2.16386 0.0250211 0
M  V30 13103 C 1216.48 -1.11782 3.19829 0
M  V30 13104 C 1215.04 -1.61424 3.40028 0
M  V30 13105 C 1214.19 -0.53795 2.72032 0
M  V30 13106 H 1217.14 0.164382 1.57846 0
M  V30 13107 H 1217.16 -1.98634 3.24538 0
M  V30 13108 H 1216.67 -0.272353 3.87143 0
M  V30 13109 H 1214.77 -2.48263 2.77842 0
M  V30 13110 H 1214.88 -1.68431 4.48517 0
M  V30 13111 H 1213.25 -0.985355 2.34868 0
M  V30 13112 H 1214.03 0.297495 3.42009 0
M  V30 13113 N 1216.48 -1.54033 -0.333429 0
M  V30 13114 C 1217.7 -1.76031 -1.09672 0
M  V30 13115 C 1218.13 -0.502844 -1.81254 0
M  V30 13116 O 1217.48 0.54509 -1.72912 0
M  V30 13117 C 1217.53 -2.947 -2.07809 0
M  V30 13118 O 1216.64 -2.65555 -3.15522 0
M  V30 13119 H 1215.98 -0.583611 -0.316692 0
M  V30 13120 H 1218.51 -2.01026 -0.380732 0
M  V30 13121 H 1218.52 -3.21771 -2.50853 0
M  V30 13122 H 1217.19 -3.85895 -1.55106 0
M  V30 13123 H 1215.77 -2.49403 -2.77223 0
M  V30 13124 N 1217.95 0.594978 -1.45938 0
M  V30 13125 C 1219.18 1.38482 -1.54394 0
M  V30 13126 C 1219.6 1.87222 -0.181563 0
M  V30 13127 O 1218.96 1.60869 0.836119 0
M  V30 13128 C 1219.01 2.55676 -2.54287 0
M  V30 13129 O 1218.11 3.5672 -2.06941 0
M  V30 13130 H 1217.46 0.412918 -0.519995 0
M  V30 13131 H 1219.99 0.722899 -1.91404 0
M  V30 13132 H 1220 3.02756 -2.73501 0
M  V30 13133 H 1218.67 2.19552 -3.53228 0
M  V30 13134 H 1217.25 3.16204 -1.97661 0
M  V30 13135 N 1219.43 1.33438 0.838571 0
M  V30 13136 C 1220.68 1.25097 1.5962 0
M  V30 13137 C 1221.01 -0.182798 1.93338 0
M  V30 13138 O 1220.29 -1.1242 1.5872 0
M  V30 13139 C 1220.57 2.12655 2.90603 0
M  V30 13140 C 1220.42 3.64491 2.63565 0
M  V30 13141 C 1221.74 1.99994 3.92033 0
M  V30 13142 H 1218.86 0.455776 0.579169 0
M  V30 13143 H 1221.5 1.63542 0.967169 0
M  V30 13144 H 1219.65 1.79998 3.44286 0
M  V30 13145 H 1221.32 4.0744 2.16312 0
M  V30 13146 H 1219.57 3.86356 1.9726 0
M  V30 13147 H 1220.24 4.21101 3.569 0
M  V30 13148 H 1222.71 2.28635 3.47657 0
M  V30 13149 H 1221.59 2.63509 4.81512 0
M  V30 13150 H 1221.85 0.972263 4.31277 0
M  V30 13151 N 1220.91 -1.05686 1.16912 0
M  V30 13152 C 1222.16 -1.77987 0.948875 0
M  V30 13153 C 1222.47 -1.8845 -0.524011 0
M  V30 13154 O 1223.68 -2.57442 -0.862322 0
M  V30 13155 C 1222.13 -3.19927 1.64848 0
M  V30 13156 C 1221.74 -3.1761 3.15956 0
M  V30 13157 C 1223.49 -3.96719 1.51044 0
M  V30 13158 C 1221.39 -4.54307 3.78628 0
M  V30 13159 H 1220.32 -0.667119 0.35138 0
M  V30 13160 H 1222.97 -1.18496 1.40111 0
M  V30 13161 H 1221.36 -3.79714 1.12397 0
M  V30 13162 H 1222.53 -2.67369 3.75301 0
M  V30 13163 H 1220.85 -2.54317 3.29715 0
M  V30 13164 H 1223.44 -4.97779 1.95243 0
M  V30 13165 H 1223.79 -4.13748 0.460268 0
M  V30 13166 H 1224.32 -3.43468 2.00685 0
M  V30 13167 H 1221.06 -4.42484 4.8362 0
M  V30 13168 H 1220.58 -5.04717 3.24069 0
M  V30 13169 H 1222.26 -5.23255 3.80543 0
M  V30 13170 N 1222.39 -0.968567 -1.24324 0
M  V30 13171 C 1223.3 -0.50703 -2.29055 0
M  V30 13172 C 1224.31 0.432431 -1.68541 0
M  V30 13173 O 1225.49 0.30526 -1.99073 0
M  V30 13174 C 1222.56 0.194589 -3.46153 0
M  V30 13175 C 1221.62 -0.784805 -4.22066 0
M  V30 13176 C 1220.85 -0.116574 -5.33573 0
M  V30 13177 O 1221.07 1.09492 -5.59792 0
M  V30 13178 O 1220.01 -0.809171 -5.96436 0
M  V30 13179 H 1223.83 -1.3777 -2.70653 0
M  V30 13180 H 1221.42 -0.735645 -1.30033 0
M  V30 13181 H 1223.3 0.588684 -4.17268 0
M  V30 13182 H 1221.97 1.04021 -3.06531 0
M  V30 13183 H 1220.88 -1.22938 -3.53323 0
M  V30 13184 H 1222.21 -1.59887 -4.65507 0
M  V30 13185 N 1223.87 1.39211 -0.738786 0
M  V30 13186 C 1225.14 1.9442 -0.214533 0
M  V30 13187 C 1225.52 1.67528 1.28443 0
M  V30 13188 O 1224.87 1.0056 2.05183 0
M  V30 13189 C 1225.08 3.44603 -0.552232 0
M  V30 13190 C 1226.43 4.21602 -0.503663 0
M  V30 13191 O 1227.45 3.52819 -0.489647 0
M  V30 13192 O 1226.31 5.44194 -0.50153 0
M  V30 13193 H 1223.41 0.826011 -0.0404247 0
M  V30 13194 H 1225.95 1.48689 -0.817902 0
M  V30 13195 H 1224.72 3.57626 -1.58806 0
M  V30 13196 H 1224.35 3.9752 0.0799096 0
M  V30 13197 N 1225.34 0.486708 1.49896 0
M  V30 13198 C 1226.58 -0.0613987 2.04308 0
M  V30 13199 C 1226.95 -1.3558 1.35948 0
M  V30 13200 O 1228.15 -1.98726 1.81001 0
M  V30 13201 C 1226.42 -0.225167 3.5669 0
M  V30 13202 S 1227.98 -0.729581 4.32692 0
M  V30 13203 H 1224.8 -0.00856238 0.710948 0
M  V30 13204 H 1227.4 0.657414 1.84115 0
M  V30 13205 H 1226.1 0.722447 4.03991 0
M  V30 13206 H 1225.63 -0.969639 3.81263 0
M  V30 13207 H 1227.65 -2.00082 4.54072 0
M  V30 13208 N 1226.82 -1.56058 0.219941 0
M  V30 13209 C 1228.1 -1.90087 -0.46112 0
M  V30 13210 C 1228.48 -1.13705 -1.77861 0
M  V30 13211 O 1227.83 -0.245868 -2.27173 0
M  V30 13212 C 1228.04 -3.42786 -0.655644 0
M  V30 13213 C 1229.39 -4.13517 -0.963803 0
M  V30 13214 O 1230.41 -3.48376 -0.742488 0
M  V30 13215 O 1229.27 -5.28692 -1.38374 0
M  V30 13216 H 1226.36 -0.790311 -0.243595 0
M  V30 13217 H 1228.91 -1.67665 0.262005 0
M  V30 13218 H 1227.68 -3.90341 0.273738 0
M  V30 13219 H 1227.3 -3.70982 -1.43032 0
M  V30 13220 N 1228.3 0.053464 -1.57509 0
M  V30 13221 C 1229.25 1.08014 -2.05999 0
M  V30 13222 C 1230.24 1.38958 -0.968862 0
M  V30 13223 O 1231.45 1.3815 -1.15389 0
M  V30 13224 H 1227.82 0.36575 -0.657062 0
M  V30 13225 H 1229.8 0.645169 -2.91342 0
M  V30 13226 C 1228.54 2.38004 -2.53475 0
M  V30 13227 H 1227.87 2.15048 -3.37038 0
M  V30 13228 H 1229.31 3.08244 -2.91138 0
M  V30 13229 C 1227.77 3.05259 -1.42543 0
M  V30 13230 O 1228.3 3.94097 -0.777832 0
M  V30 13231 N 1226.5 2.66182 -1.16599 0
M  V30 13232 H 1226.05 1.94027 -1.69444 0
M  V30 13233 H 1226.01 3.11503 -0.42585 0
M  V30 13234 N 1229.78 1.54207 0.325255 0
M  V30 13235 C 1231.03 1.72587 1.06497 0
M  V30 13236 C 1231.36 0.497228 1.87727 0
M  V30 13237 O 1230.63 -0.505804 1.87808 0
M  V30 13238 C 1230.92 3.00046 1.99109 0
M  V30 13239 C 1230.77 4.33158 1.21221 0
M  V30 13240 C 1232.09 3.23251 2.98658 0
M  V30 13241 H 1229.21 0.627974 0.38577 0
M  V30 13242 H 1231.85 1.869 0.34179 0
M  V30 13243 H 1230 2.87973 2.60775 0
M  V30 13244 H 1231.67 4.57111 0.620289 0
M  V30 13245 H 1229.91 4.30739 0.514462 0
M  V30 13246 H 1230.59 5.18558 1.89214 0
M  V30 13247 H 1233.06 3.34774 2.47114 0
M  V30 13248 H 1231.94 4.13796 3.60645 0
M  V30 13249 H 1232.2 2.40401 3.71026 0
M  V30 13250 N 1231.26 -0.58723 1.46251 0
M  V30 13251 C 1232.5 -1.3476 1.51551 0
M  V30 13252 C 1232.84 -1.93499 0.16483 0
M  V30 13253 O 1232.11 -1.7622 -0.823207 0
M  V30 13254 C 1232.39 -2.48033 2.61059 0
M  V30 13255 C 1232.25 -1.94358 4.05642 0
M  V30 13256 C 1233.57 -3.50096 2.66685 0
M  V30 13257 H 1230.69 -0.48863 0.551733 0
M  V30 13258 H 1233.33 -0.660097 1.78165 0
M  V30 13259 H 1231.48 -3.06679 2.38496 0
M  V30 13260 H 1233.15 -1.40204 4.39478 0
M  V30 13261 H 1231.39 -1.25217 4.15335 0
M  V30 13262 H 1232.06 -2.76105 4.77986 0
M  V30 13263 H 1234.54 -3.01324 2.86955 0
M  V30 13264 H 1233.42 -4.26817 3.45135 0
M  V30 13265 H 1233.68 -4.07032 1.7256 0
M  V30 13266 N 1232.74 -1.33881 -0.831482 0
M  V30 13267 C 1233.96 -1.28812 -1.61911 0
M  V30 13268 C 1234.38 0.139519 -1.88284 0
M  V30 13269 O 1233.74 1.08397 -1.46821 0
M  V30 13270 C 1233.79 -2.06806 -2.96502 0
M  V30 13271 O 1233.51 -3.44 -2.71285 0
M  V30 13272 C 1235.01 -2.09033 -3.90922 0
M  V30 13273 H 1232.23 -0.443473 -0.50356 0
M  V30 13274 H 1234.77 -1.76365 -1.03516 0
M  V30 13275 H 1232.93 -1.62915 -3.51479 0
M  V30 13276 H 1233.34 -3.84213 -3.57044 0
M  V30 13277 H 1234.82 -2.68044 -4.82552 0
M  V30 13278 H 1235.29 -1.08249 -4.25651 0
M  V30 13279 H 1235.9 -2.52975 -3.41883 0
M  V30 13280 N 1234.21 1.05064 -1.1747 0
M  V30 13281 C 1235.46 1.77737 -0.961979 0
M  V30 13282 C 1235.78 1.88198 0.510551 0
M  V30 13283 O 1235.05 1.39968 1.37062 0
M  V30 13284 H 1233.63 0.658366 -0.352935 0
M  V30 13285 H 1236.29 1.26851 -1.47969 0
M  V30 13286 H 1235.39 2.79368 -1.39141 0
M  V30 13287 N 1235.69 0.975146 1.23809 0
M  V30 13288 C 1236.94 0.639858 1.91704 0
M  V30 13289 C 1237.26 -0.828557 1.76522 0
M  V30 13290 O 1236.53 -1.59217 1.14135 0
M  V30 13291 H 1235.11 0.233667 0.709513 0
M  V30 13292 H 1237.77 1.23782 1.50545 0
M  V30 13293 H 1236.87 0.886915 2.99233 0
M  V30 13294 N 1237.17 -1.38817 0.746158 0
M  V30 13295 C 1238.45 -1.94303 0.224841 0
M  V30 13296 C 1238.83 -1.68207 -1.27552 0
M  V30 13297 O 1238.17 -1.01647 -2.04646 0
M  V30 13298 C 1238.38 -3.44306 0.5705 0
M  V30 13299 C 1239.73 -4.21329 0.526015 0
M  V30 13300 O 1240.76 -3.52554 0.508351 0
M  V30 13301 O 1239.62 -5.4392 0.530383 0
M  V30 13302 H 1236.71 -0.825785 0.0448047 0
M  V30 13303 H 1239.26 -1.48253 0.825775 0
M  V30 13304 H 1238.03 -3.56779 1.60701 0
M  V30 13305 H 1237.65 -3.97556 -0.0588271 0
M  V30 13306 N 1238.65 -0.49465 -1.49636 0
M  V30 13307 C 1240.06 -0.0452894 -1.86645 0
M  V30 13308 C 1240.41 1.36686 -1.40753 0
M  V30 13309 O 1239.53 2.01751 -0.78265 0
M  V30 13310 C 1240.13 -0.0754115 -3.38716 0
M  V30 13311 C 1238.69 0.318579 -3.75049 0
M  V30 13312 C 1237.84 -0.450712 -2.73613 0
M  V30 13313 H 1240.79 -0.707758 -1.42044 0
M  V30 13314 H 1240.81 0.721372 -3.73599 0
M  V30 13315 H 1240.32 -1.10331 -3.72087 0
M  V30 13316 H 1238.42 1.34995 -3.47285 0
M  V30 13317 H 1238.53 0.00354416 -4.791 0
M  V30 13318 H 1236.9 0.0986455 -2.54509 0
M  V30 13319 H 1237.68 -1.47857 -3.09828 0
M  V30 13320 N 1240.13 1.55939 -0.228214 0
M  V30 13321 C 1241.37 1.98476 0.401677 0
M  V30 13322 C 1241.7 1.116 1.59297 0
M  V30 13323 O 1240.96 0.162465 1.95024 0
M  V30 13324 C 1241.25 3.46581 0.872732 0
M  V30 13325 C 1240.92 4.50416 -0.208767 0
M  V30 13326 C 1239.58 4.78534 -0.505847 0
M  V30 13327 C 1241.93 5.12656 -0.939852 0
M  V30 13328 C 1239.26 5.66171 -1.53841 0
M  V30 13329 C 1241.61 6.01412 -1.9618 0
M  V30 13330 C 1240.28 6.2787 -2.26573 0
M  V30 13331 H 1239.55 0.726276 0.146984 0
M  V30 13332 H 1242.2 1.88598 -0.332128 0
M  V30 13333 H 1240.5 3.53696 1.68541 0
M  V30 13334 H 1242.2 3.76869 1.37006 0
M  V30 13335 H 1238.79 4.28587 0.0329308 0
M  V30 13336 H 1242.97 4.90997 -0.723581 0
M  V30 13337 H 1238.23 5.84933 -1.77944 0
M  V30 13338 H 1242.4 6.48688 -2.53332 0
M  V30 13339 H 1240.03 6.95574 -3.06725 0
M  V30 13340 N 1241.6 -0.0451101 1.57535 0
M  V30 13341 C 1242.83 -0.750231 1.92497 0
M  V30 13342 C 1243.24 -1.70268 0.824946 0
M  V30 13343 O 1242.59 -1.82511 -0.208656 0
M  V30 13344 C 1242.65 -1.57543 3.23141 0
M  V30 13345 C 1242.31 -0.789495 4.50129 0
M  V30 13346 C 1243.31 -0.0968367 5.1981 0
M  V30 13347 C 1240.99 -0.748776 4.96688 0
M  V30 13348 C 1242.99 0.626018 6.34318 0
M  V30 13349 C 1240.67 -0.0221652 6.11096 0
M  V30 13350 C 1241.67 0.664006 6.79765 0
M  V30 13351 O 1241.36 1.37885 7.91987 0
M  V30 13352 H 1241.09 -0.216895 0.64026 0
M  V30 13353 H 1243.65 -0.011558 2.05397 0
M  V30 13354 H 1241.88 -2.35754 3.06524 0
M  V30 13355 H 1243.57 -2.16168 3.4355 0
M  V30 13356 H 1244.33 -0.119429 4.84853 0
M  V30 13357 H 1240.21 -1.27235 4.43094 0
M  V30 13358 H 1243.75 1.16215 6.87852 0
M  V30 13359 H 1239.65 0.00240707 6.455 0
M  V30 13360 H 1240.42 1.29087 8.08257 0
M  V30 13361 N 1243.08 -1.54377 -0.317073 0
M  V30 13362 C 1244.36 -1.63551 -1.07287 0
M  V30 13363 C 1244.74 -0.473499 -2.05721 0
M  V30 13364 O 1244.09 0.531545 -2.22232 0
M  V30 13365 C 1244.3 -3.00842 -1.76904 0
M  V30 13366 C 1245.65 -3.57111 -2.29689 0
M  V30 13367 O 1246.67 -3.0319 -1.86961 0
M  V30 13368 O 1245.53 -4.51486 -3.07932 0
M  V30 13369 H 1242.62 -0.662557 -0.494922 0
M  V30 13370 H 1245.17 -1.66723 -0.316444 0
M  V30 13371 H 1243.94 -3.76854 -1.05341 0
M  V30 13372 H 1243.56 -3.01377 -2.59341 0
M  V30 13373 N 1244.56 0.579466 -1.4656 0
M  V30 13374 C 1245.98 0.903163 -1.31587 0
M  V30 13375 C 1246.18 1.99406 -0.28972 0
M  V30 13376 O 1245.23 2.50632 0.30658 0
M  V30 13377 C 1246.55 1.31745 -2.70303 0
M  V30 13378 C 1248.09 1.43012 -2.78418 0
M  V30 13379 C 1248.57 1.87805 -4.17724 0
M  V30 13380 N 1250.06 1.94993 -4.20157 0
M  V30 13381 C 1250.79 2.30934 -5.2484 0
M  V30 13382 N 1250.29 2.65645 -6.39847 0
M  V30 13383 N 1252.08 2.31517 -5.12207 0
M  V30 13384 H 1244.23 -0.141111 -2.11931 0
M  V30 13385 H 1246.5 -0.000460304 -0.948 0
M  V30 13386 H 1246.2 0.589864 -3.46718 0
M  V30 13387 H 1246.08 2.2783 -3.00622 0
M  V30 13388 H 1248.46 2.14856 -2.02289 0
M  V30 13389 H 1248.55 0.451701 -2.5178 0
M  V30 13390 H 1248.19 1.16539 -4.94349 0
M  V30 13391 H 1248.12 2.86611 -4.41771 0
M  V30 13392 H 1250.61 1.70645 -3.37178 0
M  V30 13393 H 1250.92 2.92032 -7.15498 0
M  V30 13394 H 1249.27 2.63276 -6.43204 0
M  V30 13395 H 1252.46 2.03824 -4.21394 0
M  V30 13396 H 1252.63 2.59199 -5.93902 0
M  V30 13397 N 1246.04 1.3432 0.824371 0
M  V30 13398 C 1247.29 1.26595 1.5805 0
M  V30 13399 C 1247.61 -0.164471 1.93803 0
M  V30 13400 O 1246.87 -1.12537 1.60106 0
M  V30 13401 C 1247.17 2.1008 2.89139 0
M  V30 13402 C 1246.83 3.59102 2.72684 0
M  V30 13403 C 1245.5 3.99726 2.67904 0
M  V30 13404 C 1247.85 4.53736 2.56463 0
M  V30 13405 C 1245.18 5.33178 2.44822 0
M  V30 13406 C 1247.53 5.87366 2.34913 0
M  V30 13407 C 1246.19 6.27155 2.28544 0
M  V30 13408 H 1245.46 0.463245 0.578347 0
M  V30 13409 H 1248.11 1.66048 0.953948 0
M  V30 13410 H 1246.41 1.6345 3.56078 0
M  V30 13411 H 1248.11 2.01451 3.46726 0
M  V30 13412 H 1244.7 3.26855 2.77244 0
M  V30 13413 H 1248.88 4.23248 2.5918 0
M  V30 13414 H 1244.14 5.63028 2.38348 0
M  V30 13415 H 1248.31 6.60286 2.21349 0
M  V30 13416 H 1245.94 7.30498 2.1042 0
M  V30 13417 N 1247.52 -1.0444 1.18026 0
M  V30 13418 C 1248.93 -1.5903 0.978076 0
M  V30 13419 C 1249.28 -1.90407 -0.473241 0
M  V30 13420 O 1248.4 -1.69133 -1.34992 0
M  V30 13421 C 1249 -2.88942 1.76912 0
M  V30 13422 C 1247.56 -3.40164 1.61139 0
M  V30 13423 C 1246.7 -2.13797 1.76596 0
M  V30 13424 H 1249.66 -0.871574 1.32625 0
M  V30 13425 H 1249.68 -3.59173 1.25598 0
M  V30 13426 H 1249.19 -2.66074 2.82535 0
M  V30 13427 H 1247.29 -3.68053 0.580353 0
M  V30 13428 H 1247.4 -4.14241 2.40709 0
M  V30 13429 H 1245.77 -2.24922 1.19507 0
M  V30 13430 H 1246.55 -1.93389 2.83647 0
M  V30 13431 N 1248.99 -0.981699 -1.2329 0
M  V30 13432 C 1250.24 -0.661895 -1.92329 0
M  V30 13433 C 1250.6 0.79602 -1.75161 0
M  V30 13434 O 1249.89 1.56687 -1.10271 0
M  V30 13435 C 1250.08 -0.989244 -3.43437 0
M  V30 13436 C 1249.91 -2.47743 -3.75305 0
M  V30 13437 C 1248.68 -3.13963 -3.95924 0
M  V30 13438 C 1250.88 -3.45817 -3.80677 0
M  V30 13439 N 1248.86 -4.52374 -4.15008 0
M  V30 13440 C 1250.23 -4.6964 -4.04769 0
M  V30 13441 C 1252.29 -3.4028 -3.63475 0
M  V30 13442 C 1250.99 -5.88605 -4.13445 0
M  V30 13443 C 1253.02 -4.5861 -3.73405 0
M  V30 13444 C 1252.38 -5.81229 -3.97935 0
M  V30 13445 H 1248.48 -0.293289 -0.724918 0
M  V30 13446 H 1251.06 -1.25942 -1.48481 0
M  V30 13447 H 1249.23 -0.420398 -3.86118 0
M  V30 13448 H 1250.96 -0.626579 -3.9982 0
M  V30 13449 H 1247.72 -2.64456 -3.92887 0
M  V30 13450 H 1248.14 -5.24134 -4.28501 0
M  V30 13451 H 1252.79 -2.46504 -3.43505 0
M  V30 13452 H 1250.5 -6.82795 -4.32223 0
M  V30 13453 H 1254.09 -4.55903 -3.61447 0
M  V30 13454 H 1252.97 -6.71263 -4.05433 0
M  V30 13455 N 1250.47 1.3842 -0.753509 0
M  V30 13456 C 1251.72 2.00119 -0.309633 0
M  V30 13457 C 1252.05 1.59811 1.10863 0
M  V30 13458 O 1251.3 0.827013 1.77367 0
M  V30 13459 C 1251.6 3.55375 -0.379937 0
M  V30 13460 C 1251.27 4.15393 -1.75384 0
M  V30 13461 C 1249.93 4.31499 -2.12984 0
M  V30 13462 C 1252.28 4.48503 -2.65508 0
M  V30 13463 C 1249.61 4.78011 -3.4018 0
M  V30 13464 C 1251.96 4.96431 -3.92095 0
M  V30 13465 C 1250.63 5.10744 -4.29764 0
M  V30 13466 H 1249.9 0.732286 -0.113303 0
M  V30 13467 H 1252.54 1.65468 -0.963975 0
M  V30 13468 H 1250.85 3.90161 0.357969 0
M  V30 13469 H 1252.54 4.00996 -0.0180738 0
M  V30 13470 H 1249.13 4.03271 -1.45156 0
M  V30 13471 H 1253.32 4.35661 -2.37724 0
M  V30 13472 H 1248.57 4.87277 -3.69284 0
M  V30 13473 H 1252.75 5.21021 -4.62072 0
M  V30 13474 H 1250.38 5.46545 -5.28387 0
M  V30 13475 N 1251.95 0.502579 1.49372 0
M  V30 13476 C 1253.37 0.158641 1.5881 0
M  V30 13477 C 1253.57 -1.33688 1.50764 0
M  V30 13478 O 1252.62 -2.11295 1.38241 0
M  V30 13479 C 1253.94 0.736843 2.91532 0
M  V30 13480 C 1255.48 0.703093 3.05001 0
M  V30 13481 C 1255.96 1.25938 4.40345 0
M  V30 13482 N 1257.45 1.22015 4.46841 0
M  V30 13483 C 1258.18 1.62076 5.50017 0
M  V30 13484 N 1257.68 2.09736 6.6029 0
M  V30 13485 N 1259.47 1.53482 5.4074 0
M  V30 13486 H 1251.62 1.47487 1.52844 0
M  V30 13487 H 1253.89 0.611851 0.724115 0
M  V30 13488 H 1253.59 1.78573 3.02992 0
M  V30 13489 H 1253.47 0.198178 3.76679 0
M  V30 13490 H 1255.85 -0.336965 2.9317 0
M  V30 13491 H 1255.94 1.27892 2.21534 0
M  V30 13492 H 1255.58 2.29823 4.52928 0
M  V30 13493 H 1255.51 0.659481 5.22454 0
M  V30 13494 H 1258 0.870957 3.67726 0
M  V30 13495 H 1258.31 2.3837 7.35119 0
M  V30 13496 H 1256.66 2.13712 6.61326 0
M  V30 13497 H 1259.85 1.16065 4.53483 0
M  V30 13498 H 1260.02 1.85026 6.21023 0
M  V30 13499 N 1253.43 -1.55816 0.23648 0
M  V30 13500 C 1254.36 -2.23924 -0.661834 0
M  V30 13501 C 1255.34 -1.21597 -1.18946 0
M  V30 13502 O 1256.52 -1.50222 -1.23073 0
M  V30 13503 C 1253.65 -2.93069 -1.86355 0
M  V30 13504 C 1252.61 -4.01996 -1.46913 0
M  V30 13505 C 1251.93 -4.58512 -2.75083 0
M  V30 13506 C 1253.23 -5.18265 -0.647964 0
M  V30 13507 H 1254.93 -2.99253 -0.0939368 0
M  V30 13508 H 1252.47 -1.43934 -0.0437407 0
M  V30 13509 H 1254.43 -3.39412 -2.49755 0
M  V30 13510 H 1253.15 -2.15212 -2.45665 0
M  V30 13511 H 1251.81 -3.56406 -0.858522 0
M  V30 13512 H 1251.46 -3.77368 -3.3257 0
M  V30 13513 H 1251.16 -5.32037 -2.49421 0
M  V30 13514 H 1252.68 -5.07583 -3.39399 0
M  V30 13515 H 1254.1 -5.60898 -1.18602 0
M  V30 13516 H 1252.49 -5.98114 -0.487823 0
M  V30 13517 H 1253.56 -4.83691 0.342151 0
M  V30 13518 N 1254.91 0.036755 -1.57557 0
M  V30 13519 C 1256.15 0.730186 -1.89199 0
M  V30 13520 C 1256.49 1.75414 -0.833271 0
M  V30 13521 O 1255.76 1.93901 0.152579 0
M  V30 13522 C 1256.04 1.40669 -3.31488 0
M  V30 13523 C 1255.9 0.396764 -4.48047 0
M  V30 13524 C 1257.22 2.34268 -3.72567 0
M  V30 13525 H 1254.33 0.263983 -0.6881 0
M  V30 13526 H 1256.98 -0.0069847 -1.89999 0
M  V30 13527 H 1255.13 2.03502 -3.30937 0
M  V30 13528 H 1256.8 -0.229062 -4.60731 0
M  V30 13529 H 1255.04 -0.284698 -4.32865 0
M  V30 13530 H 1255.71 0.908436 -5.44474 0
M  V30 13531 H 1258.19 1.81485 -3.74436 0
M  V30 13532 H 1257.06 2.78587 -4.72949 0
M  V30 13533 H 1257.33 3.20611 -3.04403 0
M  V30 13534 N 1256.39 1.54543 0.308881 0
M  V30 13535 C 1257.63 1.73107 1.043 0
M  V30 13536 C 1257.95 0.515481 1.88063 0
M  V30 13537 O 1257.22 -0.47036 1.90169 0
M  V30 13538 H 1255.8 0.638289 0.388068 0
M  V30 13539 H 1258.47 1.9188 0.341769 0
M  V30 13540 H 1257.56 2.61697 1.70063 0
M  V30 13541 N 1257.86 -0.571685 1.46866 0
M  V30 13542 C 1259.28 -0.896172 1.32064 0
M  V30 13543 C 1259.48 -1.9925 0.300291 0
M  V30 13544 O 1258.54 -2.50791 -0.293284 0
M  V30 13545 C 1259.85 -1.3031 2.70998 0
M  V30 13546 C 1261.4 -1.41533 2.79173 0
M  V30 13547 C 1261.87 -1.85587 4.18714 0
M  V30 13548 N 1263.36 -1.92762 4.21185 0
M  V30 13549 C 1264.1 -2.28148 5.26057 0
M  V30 13550 N 1263.59 -2.62248 6.41247 0
M  V30 13551 N 1265.39 -2.28797 5.13428 0
M  V30 13552 H 1257.54 0.152349 2.11853 0
M  V30 13553 H 1259.8 0.00548777 0.947984 0
M  V30 13554 H 1259.51 -0.571469 3.47026 0
M  V30 13555 H 1259.38 -2.26233 3.01826 0
M  V30 13556 H 1261.77 -2.1378 2.03426 0
M  V30 13557 H 1261.85 -0.438342 2.52016 0
M  V30 13558 H 1261.49 -1.13915 4.9496 0
M  V30 13559 H 1261.42 -2.84264 4.43285 0
M  V30 13560 H 1263.91 -1.68854 3.38078 0
M  V30 13561 H 1264.23 -2.88234 7.17036 0
M  V30 13562 H 1262.57 -2.59861 6.44591 0
M  V30 13563 H 1265.76 -2.01587 4.22469 0
M  V30 13564 H 1265.94 -2.56045 5.95269 0
M  V30 13565 N 1259.34 -1.34755 -0.817236 0
M  V30 13566 C 1260.3 -1.26687 -1.91006 0
M  V30 13567 C 1261.3 -0.180745 -1.59781 0
M  V30 13568 O 1262.49 -0.433748 -1.68714 0
M  V30 13569 C 1259.63 -0.957293 -3.27183 0
M  V30 13570 H 1260.82 -2.23846 -1.99582 0
M  V30 13571 H 1258.37 -1.19125 -1.01187 0
M  V30 13572 H 1259.11 0.0108917 -3.24298 0
M  V30 13573 H 1258.89 -1.74297 -3.5123 0
M  V30 13574 H 1260.38 -0.926161 -4.072 0
M  V30 13575 N 1260.82 1.03812 -1.18578 0
M  V30 13576 C 1262.07 1.77056 -0.982718 0
M  V30 13577 C 1262.39 1.88294 0.487421 0
M  V30 13578 O 1261.65 1.38946 1.37813 0
M  V30 13579 C 1261.95 3.20297 -1.5857 0
M  V30 13580 C 1261.61 3.29088 -3.0824 0
M  V30 13581 C 1260.28 3.31194 -3.4909 0
M  V30 13582 C 1262.63 3.28981 -4.04253 0
M  V30 13583 C 1259.96 3.30839 -4.84523 0
M  V30 13584 C 1262.31 3.30166 -5.39605 0
M  V30 13585 C 1260.97 3.30565 -5.79899 0
M  V30 13586 H 1260.24 0.647895 -0.359602 0
M  V30 13587 H 1262.89 1.21911 -1.47682 0
M  V30 13588 H 1261.19 3.7846 -1.01367 0
M  V30 13589 H 1262.89 3.75619 -1.40398 0
M  V30 13590 H 1259.48 3.28171 -2.75685 0
M  V30 13591 H 1263.67 3.26543 -3.73743 0
M  V30 13592 H 1258.92 3.29467 -5.15035 0
M  V30 13593 H 1263.1 3.29033 -6.13767 0
M  V30 13594 H 1260.72 3.30044 -6.84818 0
M  V30 13595 N 1262.3 0.988223 1.22768 0
M  V30 13596 C 1263.54 0.662441 1.91676 0
M  V30 13597 C 1263.88 -0.802931 1.76824 0
M  V30 13598 O 1263.15 -1.58011 1.13415 0
M  V30 13599 C 1263.43 1.06332 3.44043 0
M  V30 13600 C 1263.29 2.5869 3.67967 0
M  V30 13601 C 1264.61 0.613058 4.35809 0
M  V30 13602 H 1261.73 0.242132 0.69609 0
M  V30 13603 H 1264.37 1.23091 1.44736 0
M  V30 13604 H 1262.52 0.579623 3.84152 0
M  V30 13605 H 1264.19 3.14694 3.37291 0
M  V30 13606 H 1262.43 3.00971 3.12408 0
M  V30 13607 H 1263.1 2.8179 4.74656 0
M  V30 13608 H 1265.58 1.02846 4.0319 0
M  V30 13609 H 1264.46 0.921901 5.41103 0
M  V30 13610 H 1264.72 -0.48641 4.39416 0
M  V30 13611 N 1263.78 -1.38018 0.760839 0
M  V30 13612 C 1265.01 -2.03934 0.330804 0
M  V30 13613 C 1265.41 -1.57509 -1.04821 0
M  V30 13614 O 1264.76 -0.746718 -1.67839 0
M  V30 13615 C 1264.82 -3.58384 0.28303 0
M  V30 13616 C 1264.48 -4.27896 1.6048 0
M  V30 13617 C 1265.48 -4.52769 2.5553 0
M  V30 13618 C 1263.16 -4.65943 1.87624 0
M  V30 13619 C 1265.16 -5.14732 3.75938 0
M  V30 13620 C 1262.85 -5.27629 3.08304 0
M  V30 13621 C 1263.84 -5.51959 4.02281 0
M  V30 13622 O 1263.53 -6.12358 5.20838 0
M  V30 13623 H 1263.26 -0.661733 0.138148 0
M  V30 13624 H 1265.82 -1.77551 1.03271 0
M  V30 13625 H 1264.05 -3.83769 -0.47517 0
M  V30 13626 H 1265.74 -4.05727 -0.118464 0
M  V30 13627 H 1266.5 -4.23798 2.35839 0
M  V30 13628 H 1262.38 -4.46346 1.15308 0
M  V30 13629 H 1265.93 -5.33639 4.49305 0
M  V30 13630 H 1261.82 -5.56023 3.27886 0
M  V30 13631 H 1262.59 -6.30842 5.21517 0
M  V30 13632 N 1265.25 -0.510493 -1.49103 0
M  V30 13633 C 1266.18 0.251999 -2.32136 0
M  V30 13634 C 1267.16 0.953613 -1.40855 0
M  V30 13635 O 1268.35 0.943178 -1.69758 0
M  V30 13636 C 1265.48 1.31118 -3.21598 0
M  V30 13637 C 1264.43 0.72888 -4.21748 0
M  V30 13638 C 1263.76 1.88928 -5.0021 0
M  V30 13639 C 1265.06 -0.286425 -5.21514 0
M  V30 13640 H 1266.75 -0.441102 -2.96133 0
M  V30 13641 H 1264.3 -0.213577 -1.42407 0
M  V30 13642 H 1266.25 1.8524 -3.78503 0
M  V30 13643 H 1264.98 2.0336 -2.55563 0
M  V30 13644 H 1263.64 0.209336 -3.66002 0
M  V30 13645 H 1263.28 2.59961 -4.30615 0
M  V30 13646 H 1262.98 1.50568 -5.67981 0
M  V30 13647 H 1264.51 2.43465 -5.59962 0
M  V30 13648 H 1265.92 0.166997 -5.73057 0
M  V30 13649 H 1264.32 -0.586361 -5.97228 0
M  V30 13650 H 1265.39 -1.19904 -4.69842 0
M  V30 13651 N 1266.73 1.55688 -0.24474 0
M  V30 13652 C 1267.96 2.03743 0.387776 0
M  V30 13653 C 1268.38 1.1229 1.50906 0
M  V30 13654 O 1267.74 0.115445 1.80932 0
M  V30 13655 C 1267.79 3.49825 0.874927 0
M  V30 13656 O 1266.89 3.61504 1.98466 0
M  V30 13657 H 1266.23 0.658561 0.0848107 0
M  V30 13658 H 1268.76 2.01224 -0.370165 0
M  V30 13659 H 1268.77 3.90603 1.17871 0
M  V30 13660 H 1267.45 4.15864 0.0543852 0
M  V30 13661 H 1266.02 3.32622 1.68574 0
M  V30 13662 N 1268.21 -0.0283989 1.57574 0
M  V30 13663 C 1269.16 -1.04723 2.07692 0
M  V30 13664 C 1270.15 -1.37399 0.990847 0
M  V30 13665 O 1271.36 -1.36297 1.17572 0
M  V30 13666 H 1267.73 -0.355251 0.662798 0
M  V30 13667 H 1269.7 -0.598737 2.92331 0
M  V30 13668 C 1268.45 -2.33941 2.57229 0
M  V30 13669 H 1267.78 -2.09659 3.40416 0
M  V30 13670 H 1269.22 -3.03574 2.96005 0
M  V30 13671 C 1267.67 -3.02953 1.47381 0
M  V30 13672 O 1268.2 -3.9281 0.840431 0
M  V30 13673 N 1266.41 -2.64294 1.20819 0
M  V30 13674 H 1265.96 -1.91307 1.72509 0
M  V30 13675 H 1265.92 -3.10786 0.475353 0
M  V30 13676 N 1269.69 -1.54705 -0.300681 0
M  V30 13677 C 1270.62 -1.88679 -1.37559 0
M  V30 13678 C 1271.6 -0.74574 -1.52881 0
M  V30 13679 O 1272.78 -1.0015 -1.66384 0
M  V30 13680 C 1269.91 -2.13438 -2.73974 0
M  V30 13681 C 1268.87 -3.29284 -2.73415 0
M  V30 13682 C 1268.19 -3.39462 -4.13122 0
M  V30 13683 C 1269.49 -4.66382 -2.35128 0
M  V30 13684 H 1271.19 -2.78707 -1.09373 0
M  V30 13685 H 1268.73 -1.341 -0.524704 0
M  V30 13686 H 1270.69 -2.35791 -3.49257 0
M  V30 13687 H 1269.41 -1.20181 -3.03684 0
M  V30 13688 H 1268.07 -3.06855 -2.00588 0
M  V30 13689 H 1267.72 -2.43721 -4.4001 0
M  V30 13690 H 1267.42 -4.17334 -4.1365 0
M  V30 13691 H 1268.94 -3.64075 -4.90185 0
M  V30 13692 H 1270.36 -4.88463 -3.00128 0
M  V30 13693 H 1268.75 -5.4697 -2.46867 0
M  V30 13694 H 1269.82 -4.67078 -1.30256 0
M  V30 13695 N 1271.17 0.563888 -1.47167 0
M  V30 13696 C 1272.1 1.68137 -1.62025 0
M  V30 13697 C 1273.08 1.63481 -0.469899 0
M  V30 13698 O 1274.26 1.81206 -0.698432 0
M  V30 13699 C 1271.39 3.06779 -1.62801 0
M  V30 13700 C 1270.35 3.26278 -2.76996 0
M  V30 13701 C 1269.67 4.65638 -2.62841 0
M  V30 13702 C 1270.97 3.12295 -4.18651 0
M  V30 13703 H 1272.67 1.55958 -2.55573 0
M  V30 13704 H 1270.21 0.74887 -1.22996 0
M  V30 13705 H 1272.17 3.84795 -1.71787 0
M  V30 13706 H 1270.89 3.19901 -0.658097 0
M  V30 13707 H 1269.55 2.50668 -2.67509 0
M  V30 13708 H 1269.2 4.75551 -1.63892 0
M  V30 13709 H 1268.9 4.79635 -3.39447 0
M  V30 13710 H 1270.42 5.45798 -2.73746 0
M  V30 13711 H 1271.83 3.80136 -4.2915 0
M  V30 13712 H 1270.23 3.37805 -4.95992 0
M  V30 13713 H 1271.3 2.09126 -4.37486 0
M  V30 13714 N 1272.64 1.35187 0.810078 0
M  V30 13715 C 1273.87 1.31181 1.59609 0
M  V30 13716 C 1274.28 -0.113556 1.88859 0
M  V30 13717 O 1273.63 -1.07491 1.48968 0
M  V30 13718 C 1273.69 2.04749 2.95496 0
M  V30 13719 C 1273.35 3.53952 2.89079 0
M  V30 13720 C 1274.35 4.48612 2.6276 0
M  V30 13721 C 1272.03 3.96551 3.08306 0
M  V30 13722 C 1274.03 5.83846 2.5574 0
M  V30 13723 C 1271.71 5.31881 3.00909 0
M  V30 13724 C 1272.71 6.2534 2.74661 0
M  V30 13725 O 1272.4 7.58188 2.6722 0
M  V30 13726 H 1272.13 0.452285 0.502408 0
M  V30 13727 H 1274.69 1.78571 1.01497 0
M  V30 13728 H 1272.92 1.51992 3.55577 0
M  V30 13729 H 1274.61 1.93866 3.5661 0
M  V30 13730 H 1275.37 4.1702 2.47628 0
M  V30 13731 H 1271.25 3.24194 3.27749 0
M  V30 13732 H 1274.79 6.56765 2.35172 0
M  V30 13733 H 1270.69 5.63088 3.15598 0
M  V30 13734 H 1271.46 7.68073 2.82853 0
M  V30 13735 N 1274.12 -1.03182 1.19127 0
M  V30 13736 C 1275.53 -1.57984 0.994888 0
M  V30 13737 C 1275.88 -1.90898 -0.453019 0
M  V30 13738 O 1275.01 -1.70556 -1.33191 0
M  V30 13739 C 1275.6 -2.8705 1.79966 0
M  V30 13740 C 1274.16 -3.38435 1.64737 0
M  V30 13741 C 1273.31 -2.11912 1.78854 0
M  V30 13742 H 1276.26 -0.857458 1.33542 0
M  V30 13743 H 1276.28 -3.57821 1.294 0
M  V30 13744 H 1275.79 -2.63062 2.85341 0
M  V30 13745 H 1273.9 -3.67416 0.619358 0
M  V30 13746 H 1274.01 -4.11665 2.45089 0
M  V30 13747 H 1272.37 -2.23642 1.21886 0
M  V30 13748 H 1273.16 -1.90369 2.85682 0
M  V30 13749 N 1275.6 -0.99472 -1.22242 0
M  V30 13750 C 1276.85 -0.672596 -1.91322 0
M  V30 13751 C 1277.18 0.793542 -1.77247 0
M  V30 13752 O 1276.45 1.57407 -1.14251 0
M  V30 13753 C 1276.74 -1.08155 -3.43474 0
M  V30 13754 C 1276.59 -2.60638 -3.6659 0
M  V30 13755 C 1277.91 -0.636161 -4.35478 0
M  V30 13756 H 1275.03 -0.24582 -0.694796 0
M  V30 13757 H 1277.67 -1.23857 -1.44082 0
M  V30 13758 H 1275.82 -0.599987 -3.83839 0
M  V30 13759 H 1277.49 -3.16479 -3.35617 0
M  V30 13760 H 1275.74 -3.02624 -3.10808 0
M  V30 13761 H 1276.41 -2.84304 -4.73155 0
M  V30 13762 H 1278.88 -1.04982 -4.02639 0
M  V30 13763 H 1277.76 -0.950584 -5.40606 0
M  V30 13764 H 1278.02 0.4631 -4.39668 0
M  V30 13765 N 1277.08 1.37613 -0.768148 0
M  V30 13766 C 1278.49 1.82437 -0.396703 0
M  V30 13767 C 1278.84 1.64019 1.07668 0
M  V30 13768 O 1277.97 1.14932 1.83356 0
M  V30 13769 C 1278.56 3.31207 -0.713265 0
M  V30 13770 C 1277.12 3.74323 -0.39492 0
M  V30 13771 C 1276.27 2.60191 -0.958962 0
M  V30 13772 H 1279.22 1.26135 -0.963099 0
M  V30 13773 H 1279.24 3.805 0.00337228 0
M  V30 13774 H 1278.75 3.4458 -1.78567 0
M  V30 13775 H 1276.85 3.66521 0.670313 0
M  V30 13776 H 1276.96 4.70558 -0.900653 0
M  V30 13777 H 1275.33 2.51797 -0.383423 0
M  V30 13778 H 1276.11 2.76358 -2.03669 0
M  V30 13779 N 1278.56 0.518393 1.4883 0
M  V30 13780 C 1279.49 -0.239685 2.32267 0
M  V30 13781 C 1280.47 -0.94613 1.41359 0
M  V30 13782 O 1281.65 -0.934162 1.70256 0
M  V30 13783 C 1278.78 -1.29411 3.22289 0
M  V30 13784 C 1277.74 -0.706504 4.22129 0
M  V30 13785 C 1277.06 -1.86273 5.01205 0
M  V30 13786 C 1278.36 0.314079 5.21355 0
M  V30 13787 H 1280.06 0.4568 2.95895 0
M  V30 13788 H 1277.6 0.221126 1.42292 0
M  V30 13789 H 1279.56 -1.8323 3.7948 0
M  V30 13790 H 1278.28 -2.02001 2.56638 0
M  V30 13791 H 1276.94 -0.189924 3.66108 0
M  V30 13792 H 1276.59 -2.57674 4.31988 0
M  V30 13793 H 1276.29 -1.47554 5.68772 0
M  V30 13794 H 1277.81 -2.40492 5.61245 0
M  V30 13795 H 1279.22 -0.136604 5.73137 0
M  V30 13796 H 1277.62 0.618026 5.96909 0
M  V30 13797 H 1278.69 1.22394 4.69199 0
M  V30 13798 N 1280.03 -1.55556 0.252993 0
M  V30 13799 C 1281.28 -1.99385 -0.370599 0
M  V30 13800 C 1281.61 -1.14101 -1.57145 0
M  V30 13801 O 1280.89 -0.205828 -1.93408 0
M  V30 13802 C 1281.17 -3.51672 -0.774503 0
M  V30 13803 C 1281.02 -4.47719 0.432159 0
M  V30 13804 C 1282.34 -4.0923 -1.61923 0
M  V30 13805 H 1279.46 -0.724858 -0.133231 0
M  V30 13806 H 1282.1 -1.86644 0.355522 0
M  V30 13807 H 1280.25 -3.62661 -1.39318 0
M  V30 13808 H 1281.93 -4.48704 1.07063 0
M  V30 13809 H 1280.17 -4.2029 1.07419 0
M  V30 13810 H 1280.84 -5.51898 0.106123 0
M  V30 13811 H 1283.32 -4.01381 -1.09693 0
M  V30 13812 H 1282.19 -5.16039 -1.87068 0
M  V30 13813 H 1282.45 -3.58067 -2.59307 0
M  V30 13814 N 1281.51 0.0200419 -1.57587 0
M  V30 13815 C 1282.46 1.0259 -2.03615 0
M  V30 13816 C 1283.45 1.31504 -0.927116 0
M  V30 13817 O 1284.64 1.30938 -1.19098 0
M  V30 13818 C 1281.77 2.32424 -2.52654 0
M  V30 13819 C 1280.85 2.06561 -3.70396 0
M  V30 13820 N 1281.24 1.50787 -4.82801 0
M  V30 13821 C 1279.54 2.36802 -3.77943 0
M  V30 13822 C 1280.24 1.40935 -5.64369 0
M  V30 13823 N 1279.22 1.88806 -5.09758 0
M  V30 13824 H 1283.02 0.588835 -2.87941 0
M  V30 13825 H 1280.54 0.226163 -1.60817 0
M  V30 13826 H 1282.53 3.05303 -2.83894 0
M  V30 13827 H 1281.19 2.76801 -1.69738 0
M  V30 13828 H 1282.2 1.18935 -5.04058 0
M  V30 13829 H 1278.88 2.84192 -3.05845 0
M  V30 13830 H 1280.27 0.982261 -6.64681 0
M  V30 13831 N 1282.99 1.54862 0.292472 0
M  V30 13832 C 1284.41 1.46267 0.638611 0
M  V30 13833 C 1284.61 0.660824 1.90356 0
M  V30 13834 O 1283.66 0.171909 2.51914 0
M  V30 13835 C 1284.98 2.90309 0.783675 0
M  V30 13836 C 1286.52 3.00404 0.879004 0
M  V30 13837 C 1287 4.4566 1.056 0
M  V30 13838 N 1288.49 4.49406 1.122 0
M  V30 13839 C 1289.22 5.5899 1.2774 0
M  V30 13840 N 1288.72 6.78482 1.40123 0
M  V30 13841 N 1290.51 5.46695 1.30696 0
M  V30 13842 H 1282.66 2.0546 -0.538521 0
M  V30 13843 H 1284.93 0.930879 -0.179354 0
M  V30 13844 H 1284.63 3.5162 -0.0750437 0
M  V30 13845 H 1284.51 3.38215 1.67004 0
M  V30 13846 H 1286.89 2.39201 1.7282 0
M  V30 13847 H 1286.98 2.55781 -0.0315624 0
M  V30 13848 H 1286.62 5.07459 0.211535 0
M  V30 13849 H 1286.55 4.87921 1.98092 0
M  V30 13850 H 1289.04 3.63322 1.03948 0
M  V30 13851 H 1289.35 7.57752 1.5176 0
M  V30 13852 H 1287.7 6.81331 1.37163 0
M  V30 13853 H 1290.89 4.52288 1.20638 0
M  V30 13854 H 1291.06 6.32146 1.42463 0
M  V30 13855 N 1284.47 -0.556076 1.47464 0
M  V30 13856 C 1285.71 -1.31515 1.54375 0
M  V30 13857 C 1286.05 -1.93106 0.205837 0
M  V30 13858 O 1285.32 -1.77927 -0.785643 0
M  V30 13859 C 1285.61 -2.4244 2.66261 0
M  V30 13860 C 1285.46 -1.8571 4.09673 0
M  V30 13861 C 1286.78 -3.4436 2.74051 0
M  V30 13862 H 1283.9 -0.476817 0.561974 0
M  V30 13863 H 1286.54 -0.622157 1.79525 0
M  V30 13864 H 1284.69 -3.01551 2.44948 0
M  V30 13865 H 1286.36 -1.30851 4.42353 0
M  V30 13866 H 1284.6 -1.16379 4.17898 0
M  V30 13867 H 1285.27 -2.65904 4.83735 0
M  V30 13868 H 1287.75 -2.95169 2.93282 0
M  V30 13869 H 1286.63 -4.194 3.54111 0
M  V30 13870 H 1286.89 -4.03281 1.81155 0
M  V30 13871 N 1285.95 -1.35615 -0.802897 0
M  V30 13872 C 1286.91 -1.28705 -1.89651 0
M  V30 13873 C 1287.91 -0.197681 -1.5958 0
M  V30 13874 O 1289.1 -0.451618 -1.68244 0
M  V30 13875 C 1286.23 -0.991941 -3.26149 0
M  V30 13876 H 1287.43 -2.25951 -1.97196 0
M  V30 13877 H 1284.98 -1.20192 -0.999179 0
M  V30 13878 H 1285.71 -0.0235051 -3.24291 0
M  V30 13879 H 1285.5 -1.78013 -3.49362 0
M  V30 13880 H 1286.99 -0.969298 -4.06195 0
M  V30 13881 N 1287.43 1.02549 -1.19673 0
M  V30 13882 C 1288.67 1.75408 -0.995732 0
M  V30 13883 C 1288.99 1.89773 0.473863 0
M  V30 13884 O 1290.19 2.59638 0.793762 0
M  V30 13885 C 1288.65 3.15444 -1.73273 0
M  V30 13886 C 1288.26 3.09121 -3.24266 0
M  V30 13887 C 1290 3.92575 -1.61509 0
M  V30 13888 C 1287.91 4.44109 -3.9054 0
M  V30 13889 H 1286.84 0.657569 -0.368944 0
M  V30 13890 H 1289.49 1.14739 -1.43203 0
M  V30 13891 H 1287.87 3.76601 -1.22425 0
M  V30 13892 H 1289.05 2.57325 -3.82257 0
M  V30 13893 H 1287.36 2.45485 -3.36342 0
M  V30 13894 H 1289.96 4.92428 -2.08372 0
M  V30 13895 H 1290.3 4.12382 -0.569804 0
M  V30 13896 H 1290.83 3.38027 -2.09721 0
M  V30 13897 H 1287.57 4.29506 -4.95182 0
M  V30 13898 H 1287.09 4.95947 -3.37337 0
M  V30 13899 H 1288.77 5.12982 -3.94282 0
M  V30 13900 N 1288.9 1.00119 1.21713 0
M  V30 13901 C 1290.15 0.682733 1.90962 0
M  V30 13902 C 1290.48 -0.784131 1.77665 0
M  V30 13903 O 1289.76 -1.56799 1.15084 0
M  V30 13904 C 1290.04 1.09975 3.42896 0
M  V30 13905 C 1289.89 2.62578 3.65202 0
M  V30 13906 C 1291.21 0.659247 4.35134 0
M  V30 13907 H 1288.33 0.249501 0.693483 0
M  V30 13908 H 1290.97 1.24619 1.43423 0
M  V30 13909 H 1289.12 0.620334 3.83515 0
M  V30 13910 H 1290.8 3.18254 3.33934 0
M  V30 13911 H 1289.04 3.04268 3.09198 0
M  V30 13912 H 1289.71 2.86809 4.7164 0
M  V30 13913 H 1292.19 1.07116 4.02076 0
M  V30 13914 H 1291.06 0.979241 5.40095 0
M  V30 13915 H 1291.32 -0.439777 4.39907 0
M  V30 13916 N 1290.38 -1.37203 0.775435 0
M  V30 13917 C 1291.61 -2.04396 0.351737 0
M  V30 13918 C 1292.03 -1.58099 -1.01913 0
M  V30 13919 O 1291.39 -0.742932 -1.65379 0
M  V30 13920 C 1291.44 -3.58283 0.408105 0
M  V30 13921 O 1290.54 -4.08156 -0.590104 0
M  V30 13922 H 1289.88 -0.646451 0.151647 0
M  V30 13923 H 1292.41 -1.75443 1.05265 0
M  V30 13924 H 1292.42 -4.07127 0.266711 0
M  V30 13925 H 1291.1 -3.91335 1.40819 0
M  V30 13926 H 1289.67 -3.70622 -0.411524 0
M  V30 13927 N 1291.86 -0.526279 -1.48553 0
M  V30 13928 C 1292.77 0.24244 -2.33344 0
M  V30 13929 C 1293.79 0.942658 -1.46253 0
M  V30 13930 O 1294.96 0.91844 -1.79239 0
M  V30 13931 C 1292.03 1.27801 -3.22285 0
M  V30 13932 C 1291.09 0.588543 -4.25247 0
M  V30 13933 C 1290.32 1.57478 -5.09938 0
M  V30 13934 O 1290.54 2.80707 -4.96548 0
M  V30 13935 O 1289.48 1.11621 -5.9146 0
M  V30 13936 H 1293.3 -0.452262 -3.00314 0
M  V30 13937 H 1290.89 -0.287249 -1.46613 0
M  V30 13938 H 1292.77 1.87656 -3.7731 0
M  V30 13939 H 1291.45 1.95519 -2.57981 0
M  V30 13940 H 1290.35 -0.0504022 -3.74066 0
M  V30 13941 H 1291.69 -0.046627 -4.92178 0
M  V30 13942 N 1293.34 1.5542 -0.261239 0
M  V30 13943 C 1294.28 2.21972 0.632216 0
M  V30 13944 C 1295.25 1.18843 1.16041 0
M  V30 13945 O 1296.44 1.47339 1.21226 0
M  V30 13946 C 1293.58 2.93397 1.81693 0
M  V30 13947 C 1292.69 4.11214 1.3239 0
M  V30 13948 C 1291.83 4.70318 2.46931 0
M  V30 13949 C 1290.87 5.80355 1.94561 0
M  V30 13950 N 1290 6.33581 3.02523 0
M  V30 13951 H 1294.84 2.97944 0.058018 0
M  V30 13952 H 1292.38 1.4709 0.0168725 0
M  V30 13953 H 1294.34 3.33015 2.5131 0
M  V30 13954 H 1292.97 2.19874 2.36337 0
M  V30 13955 H 1292.02 3.76811 0.521292 0
M  V30 13956 H 1293.33 4.90609 0.900214 0
M  V30 13957 H 1292.49 5.12584 3.24565 0
M  V30 13958 H 1291.23 3.90169 2.92608 0
M  V30 13959 H 1290.23 5.37552 1.15402 0
M  V30 13960 H 1291.46 6.62364 1.49836 0
M  V30 13961 H 1289.4 5.56332 3.47608 0
M  V30 13962 H 1289.32 7.08209 2.64529 0
M  V30 13963 H 1290.59 6.80506 3.80174 0
M  V30 13964 N 1294.82 -0.0116844 1.57596 0
M  V30 13965 C 1296.06 -0.697577 1.89679 0
M  V30 13966 C 1296.38 -1.74956 0.861122 0
M  V30 13967 O 1295.65 -1.95629 -0.103031 0
M  V30 13968 H 1294.23 -0.26064 0.700054 0
M  V30 13969 H 1296.9 0.0264782 1.94882 0
M  V30 13970 H 1295.99 -1.17621 2.89088 0
M  V30 13971 N 1296.29 -1.55015 -0.284256 0
M  V30 13972 C 1297.2 -1.90203 -1.37332 0
M  V30 13973 C 1298.22 -0.797994 -1.54622 0
M  V30 13974 O 1299.4 -1.09602 -1.68965 0
M  V30 13975 C 1296.46 -2.15687 -2.71441 0
M  V30 13976 C 1295.52 -3.39313 -2.62993 0
M  V30 13977 C 1294.75 -3.63571 -3.90707 0
M  V30 13978 O 1294.98 -2.90538 -4.9086 0
M  V30 13979 O 1293.91 -4.57102 -3.91589 0
M  V30 13980 H 1297.74 -2.82888 -1.1049 0
M  V30 13981 H 1295.32 -1.41418 -0.481798 0
M  V30 13982 H 1297.2 -2.33553 -3.50758 0
M  V30 13983 H 1295.88 -1.26185 -2.98092 0
M  V30 13984 H 1294.79 -3.26793 -1.82091 0
M  V30 13985 H 1296.12 -4.28997 -2.41293 0
M  V30 13986 N 1297.77 0.548248 -1.47757 0
M  V30 13987 C 1299.02 1.30694 -1.55071 0
M  V30 13988 C 1299.35 1.92994 -0.216075 0
M  V30 13989 O 1298.63 1.78341 0.776196 0
M  V30 13990 C 1298.91 2.41024 -2.67543 0
M  V30 13991 C 1298.76 1.83534 -4.10652 0
M  V30 13992 C 1300.08 3.42902 -2.75874 0
M  V30 13993 H 1297.2 0.47383 -0.564494 0
M  V30 13994 H 1299.84 0.612628 -1.79852 0
M  V30 13995 H 1297.99 3.00248 -2.46543 0
M  V30 13996 H 1299.66 1.28503 -4.4304 0
M  V30 13997 H 1297.91 1.14161 -4.18509 0
M  V30 13998 H 1298.58 2.63335 -4.85138 0
M  V30 13999 H 1301.05 2.9361 -2.94843 0
M  V30 14000 H 1299.93 4.17516 -3.5633 0
M  V30 14001 H 1300.19 4.02314 -1.83291 0
M  V30 14002 N 1299.25 1.36039 0.795694 0
M  V30 14003 C 1300.2 1.29853 1.90806 0
M  V30 14004 C 1301.17 0.168387 1.65244 0
M  V30 14005 O 1302.35 0.353879 1.8749 0
M  V30 14006 C 1299.49 1.08737 3.27521 0
M  V30 14007 C 1298.6 2.30771 3.65197 0
M  V30 14008 C 1297.74 2.02718 4.90998 0
M  V30 14009 C 1296.78 3.20746 5.21333 0
M  V30 14010 N 1295.92 2.92399 6.38316 0
M  V30 14011 H 1300.76 2.2497 1.95429 0
M  V30 14012 H 1298.29 1.11819 0.955771 0
M  V30 14013 H 1300.25 0.945236 4.06351 0
M  V30 14014 H 1298.88 0.172781 3.22337 0
M  V30 14015 H 1297.93 2.5581 2.81541 0
M  V30 14016 H 1299.24 3.18869 3.83568 0
M  V30 14017 H 1298.4 1.85398 5.77679 0
M  V30 14018 H 1297.14 1.11921 4.74684 0
M  V30 14019 H 1296.14 3.38632 4.33138 0
M  V30 14020 H 1297.37 4.1236 5.3957 0
M  V30 14021 H 1295.31 2.04207 6.23406 0
M  V30 14022 H 1295.23 3.74034 6.56989 0
M  V30 14023 H 1296.5 2.78643 7.27996 0
M  V30 14024 N 1300.73 -1.01913 1.20215 0
M  V30 14025 C 1301.98 -1.75124 1.00876 0
M  V30 14026 C 1302.3 -1.89485 -0.460475 0
M  V30 14027 O 1301.57 -1.43552 -1.33302 0
M  V30 14028 H 1300.15 -0.648777 0.370266 0
M  V30 14029 H 1302.81 -1.22883 1.5128 0
M  V30 14030 H 1301.91 -2.7558 1.46499 0
M  V30 14031 N 1302.21 -1.00763 -1.2118 0
M  V30 14032 C 1303.45 -0.691826 -1.90316 0
M  V30 14033 C 1303.78 0.777678 -1.78276 0
M  V30 14034 O 1303.04 1.57962 -1.15526 0
M  V30 14035 C 1303.34 -1.06187 -3.41261 0
M  V30 14036 C 1303 -2.52608 -3.73497 0
M  V30 14037 C 1301.66 -2.92617 -3.82006 0
M  V30 14038 C 1304.02 -3.47442 -3.88502 0
M  V30 14039 C 1301.34 -4.26419 -4.02969 0
M  V30 14040 C 1303.7 -4.8092 -4.10973 0
M  V30 14041 C 1302.36 -5.20649 -4.17709 0
M  V30 14042 H 1301.63 -0.253157 -0.696414 0
M  V30 14043 H 1304.28 -1.26655 -1.43634 0
M  V30 14044 H 1302.58 -0.405428 -3.89697 0
M  V30 14045 H 1304.28 -0.795343 -3.93033 0
M  V30 14046 H 1300.87 -2.20603 -3.67468 0
M  V30 14047 H 1305.05 -3.17695 -3.81292 0
M  V30 14048 H 1300.31 -4.56767 -4.06416 0
M  V30 14049 H 1304.48 -5.54337 -4.21525 0
M  V30 14050 H 1302.11 -6.24343 -4.33705 0
M  V30 14051 N 1303.68 1.3679 -0.7827 0
M  V30 14052 C 1304.61 2.32721 -0.190604 0
M  V30 14053 C 1305.6 1.56321 0.670663 0
M  V30 14054 O 1306.78 1.84507 0.605871 0
M  V30 14055 C 1303.91 3.40564 0.680717 0
M  V30 14056 C 1302.86 4.27925 -0.080118 0
M  V30 14057 C 1302.19 5.26876 0.911361 0
M  V30 14058 C 1303.49 5.06738 -1.26545 0
M  V30 14059 H 1305.18 2.82488 -0.992023 0
M  V30 14060 H 1302.73 1.35818 -0.478484 0
M  V30 14061 H 1304.68 4.06659 1.10482 0
M  V30 14062 H 1303.41 2.89348 1.51477 0
M  V30 14063 H 1302.07 3.63376 -0.485125 0
M  V30 14064 H 1301.71 4.71936 1.74026 0
M  V30 14065 H 1301.41 5.8619 0.406762 0
M  V30 14066 H 1302.94 5.95846 1.33418 0
M  V30 14067 H 1304.35 5.65911 -0.917448 0
M  V30 14068 H 1302.75 5.75432 -1.70289 0
M  V30 14069 H 1303.82 4.38772 -2.06415 0
M  V30 14070 N 1305.16 0.53415 1.48272 0
M  V30 14071 C 1306.58 0.192291 1.58437 0
M  V30 14072 C 1306.78 -1.3046 1.53566 0
M  V30 14073 O 1305.83 -2.08316 1.42692 0
M  V30 14074 C 1307.15 0.798515 2.89904 0
M  V30 14075 C 1308.7 0.76763 3.03441 0
M  V30 14076 C 1309.17 1.3525 4.37574 0
M  V30 14077 N 1310.66 1.31466 4.44152 0
M  V30 14078 C 1311.4 1.73706 5.46456 0
M  V30 14079 N 1310.89 2.23695 6.55692 0
M  V30 14080 N 1312.69 1.64918 5.37363 0
M  V30 14081 H 1304.84 1.50696 1.49681 0
M  V30 14082 H 1307.1 0.627073 0.710973 0
M  V30 14083 H 1306.81 1.8496 2.99136 0
M  V30 14084 H 1306.68 0.278033 3.76174 0
M  V30 14085 H 1309.07 -0.274704 2.93819 0
M  V30 14086 H 1309.15 1.32562 2.18771 0
M  V30 14087 H 1308.79 2.39379 4.47951 0
M  V30 14088 H 1308.72 0.770153 5.20938 0
M  V30 14089 H 1311.21 0.948761 3.65796 0
M  V30 14090 H 1311.53 2.5391 7.29897 0
M  V30 14091 H 1309.87 2.27691 6.56644 0
M  V30 14092 H 1313.06 1.25658 4.50919 0
M  V30 14093 H 1313.23 1.98157 6.16958 0
M  V30 14094 N 1306.64 -1.55279 0.269478 0
M  V30 14095 C 1307.89 -1.99767 -0.34943 0
M  V30 14096 C 1308.22 -1.15762 -1.55926 0
M  V30 14097 O 1307.49 -0.22633 -1.93179 0
M  V30 14098 C 1307.78 -3.52474 -0.73716 0
M  V30 14099 C 1307.63 -4.47236 0.479621 0
M  V30 14100 C 1308.95 -4.10924 -1.57573 0
M  V30 14101 H 1306.07 -0.72623 -0.125535 0
M  V30 14102 H 1308.71 -1.86257 0.375298 0
M  V30 14103 H 1306.86 -3.64118 -1.35464 0
M  V30 14104 H 1308.53 -4.47543 1.11816 0
M  V30 14105 H 1306.78 -4.19127 1.11871 0
M  V30 14106 H 1307.45 -5.51754 0.164653 0
M  V30 14107 H 1309.92 -4.02522 -1.05429 0
M  V30 14108 H 1308.8 -5.17995 -1.81584 0
M  V30 14109 H 1309.06 -3.60798 -2.55495 0
M  V30 14110 N 1308.12 0.00332656 -1.576 0
M  V30 14111 C 1309.08 0.980628 -2.07163 0
M  V30 14112 C 1310.08 1.27455 -0.980402 0
M  V30 14113 O 1311.27 1.22029 -1.24317 0
M  V30 14114 C 1308.4 2.30647 -2.51028 0
M  V30 14115 H 1309.6 0.551982 -2.94776 0
M  V30 14116 H 1307.15 0.250728 -1.54276 0
M  V30 14117 H 1307.88 2.78207 -1.66647 0
M  V30 14118 H 1307.67 2.10635 -3.30719 0
M  V30 14119 H 1309.16 3.00761 -2.89711 0
M  V30 14120 N 1309.6 1.55164 0.276031 0
M  V30 14121 C 1310.84 1.75887 1.00953 0
M  V30 14122 C 1311.18 0.5567 1.8605 0
M  V30 14123 O 1310.45 -0.445799 1.89322 0
M  V30 14124 C 1310.73 3.06228 1.89463 0
M  V30 14125 C 1310.59 4.36795 1.07379 0
M  V30 14126 C 1311.91 3.32589 2.88223 0
M  V30 14127 H 1309.02 0.639929 0.365596 0
M  V30 14128 H 1311.67 1.87893 0.282156 0
M  V30 14129 H 1309.82 2.96124 2.51481 0
M  V30 14130 H 1311.49 4.58853 0.474549 0
M  V30 14131 H 1309.73 4.32157 0.377165 0
M  V30 14132 H 1310.4 5.24315 1.72621 0
M  V30 14133 H 1312.88 3.42467 2.36338 0
M  V30 14134 H 1311.75 4.2506 3.47297 0
M  V30 14135 H 1312.02 2.52083 3.6319 0
M  V30 14136 N 1311.07 -0.540404 1.48045 0
M  V30 14137 C 1312.01 -1.66164 1.57867 0
M  V30 14138 C 1313.02 -1.56058 0.463655 0
M  V30 14139 O 1314.21 -1.62709 0.734038 0
M  V30 14140 C 1311.31 -3.04748 1.48263 0
M  V30 14141 C 1310.48 -3.40441 2.74625 0
M  V30 14142 C 1309.54 -4.58259 2.58621 0
M  V30 14143 O 1308.57 -4.62 3.32482 0
M  V30 14144 N 1309.77 -5.55794 1.67551 0
M  V30 14145 H 1312.53 -1.58179 2.54557 0
M  V30 14146 H 1310.09 -0.727441 1.44637 0
M  V30 14147 H 1312.09 -3.81425 1.35267 0
M  V30 14148 H 1310.66 -3.06868 0.595892 0
M  V30 14149 H 1309.88 -2.53044 3.02262 0
M  V30 14150 H 1311.16 -3.61069 3.58478 0
M  V30 14151 H 1310.56 -5.55541 1.06725 0
M  V30 14152 H 1309.12 -6.3173 1.60499 0
M  V30 14153 N 1312.55 -1.36459 -0.788468 0
M  V30 14154 C 1313.52 -1.3071 -1.88275 0
M  V30 14155 C 1314.52 -0.214596 -1.59362 0
M  V30 14156 O 1315.71 -0.469437 -1.67756 0
M  V30 14157 C 1312.84 -1.02648 -3.25079 0
M  V30 14158 H 1314.03 -2.28029 -1.94788 0
M  V30 14159 H 1311.58 -1.21245 -0.986375 0
M  V30 14160 H 1312.32 -0.0578992 -3.24248 0
M  V30 14161 H 1312.1 -1.81708 -3.47454 0
M  V30 14162 H 1313.59 -1.01233 -4.05144 0
M  V30 14163 N 1314.03 1.01274 -1.20754 0
M  V30 14164 C 1315.28 1.74342 -1.01428 0
M  V30 14165 C 1315.59 1.90265 0.453708 0
M  V30 14166 O 1316.8 2.60465 0.76618 0
M  V30 14167 C 1315.25 3.13588 -1.76609 0
M  V30 14168 C 1314.86 3.05664 -3.27526 0
M  V30 14169 C 1316.61 3.9084 -1.65664 0
M  V30 14170 C 1314.51 4.39942 -3.95228 0
M  V30 14171 H 1313.44 0.653619 -0.375897 0
M  V30 14172 H 1316.09 1.13214 -1.44412 0
M  V30 14173 H 1314.48 3.75281 -1.26413 0
M  V30 14174 H 1315.65 2.53256 -3.84965 0
M  V30 14175 H 1313.97 2.41904 -3.38927 0
M  V30 14176 H 1316.56 4.9019 -2.13583 0
M  V30 14177 H 1316.91 4.11754 -0.61351 0
M  V30 14178 H 1317.44 3.35783 -2.13294 0
M  V30 14179 H 1314.18 4.24229 -4.9971 0
M  V30 14180 H 1313.7 4.92342 -3.42578 0
M  V30 14181 H 1315.38 5.08771 -3.99701 0
M  V30 14182 N 1315.51 1.01404 1.20644 0
M  V30 14183 C 1316.73 0.720839 1.9447 0
M  V30 14184 C 1317.16 -0.711711 1.74116 0
M  V30 14185 O 1316.52 -1.48938 1.03379 0
M  V30 14186 C 1316.57 1.05864 3.4471 0
M  V30 14187 O 1315.67 0.168901 4.12054 0
M  V30 14188 H 1315.01 0.267698 0.607646 0
M  V30 14189 H 1317.54 1.35672 1.53147 0
M  V30 14190 H 1317.55 1.00928 3.9532 0
M  V30 14191 H 1316.23 2.1024 3.58848 0
M  V30 14192 H 1314.8 0.275572 3.7188 0
M  V30 14193 N 1316.99 -1.36373 0.789944 0
M  V30 14194 C 1317.95 -2.28372 0.194639 0
M  V30 14195 C 1318.95 -1.48849 -0.608332 0
M  V30 14196 O 1320.14 -1.68829 -0.42925 0
M  V30 14197 C 1317.27 -3.3298 -0.730553 0
M  V30 14198 H 1318.47 -2.82529 1.00585 0
M  V30 14199 H 1316.02 -1.45946 0.559406 0
M  V30 14200 H 1316.75 -2.8398 -1.56608 0
M  V30 14201 H 1316.54 -3.91787 -0.156706 0
M  V30 14202 H 1318.03 -4.01684 -1.14192 0
M  V30 14203 N 1318.47 -0.542005 -1.47987 0
M  V30 14204 C 1319.74 0.0526494 -1.95529 0
M  V30 14205 C 1320.12 1.50092 -1.48444 0
M  V30 14206 O 1319.47 2.16981 -0.716347 0
M  V30 14207 C 1319.68 -0.0770524 -3.48915 0
M  V30 14208 C 1321.03 0.0760849 -4.24532 0
M  V30 14209 O 1322.05 -0.00384644 -3.562 0
M  V30 14210 O 1320.91 0.245406 -5.45949 0
M  V30 14211 H 1318.01 0.0726163 -0.823806 0
M  V30 14212 H 1320.55 -0.607454 -1.58455 0
M  V30 14213 H 1319.32 -1.08544 -3.75944 0
M  V30 14214 H 1318.95 0.621357 -3.92715 0
M  V30 14215 N 1319.94 1.55134 -0.277709 0
M  V30 14216 C 1320.85 2.26296 0.618658 0
M  V30 14217 C 1321.87 1.28978 1.16794 0
M  V30 14218 O 1323.05 1.61918 1.19768 0
M  V30 14219 C 1320.11 2.97214 1.78508 0
M  V30 14220 C 1319.17 4.10016 1.27221 0
M  V30 14221 C 1318.4 4.77543 2.38304 0
M  V30 14222 O 1318.63 4.44293 3.57715 0
M  V30 14223 O 1317.56 5.65437 2.06313 0
M  V30 14224 H 1321.39 3.03671 0.0421031 0
M  V30 14225 H 1318.97 1.49332 -0.0450166 0
M  V30 14226 H 1320.85 3.41773 2.46513 0
M  V30 14227 H 1319.53 2.22753 2.34867 0
M  V30 14228 H 1318.44 3.69907 0.558544 0
M  V30 14229 H 1319.77 4.86385 0.754333 0
M  V30 14230 N 1321.42 0.00503138 1.57599 0
M  V30 14231 C 1322.33 -1.00097 2.12174 0
M  V30 14232 C 1323.35 -1.37353 1.06818 0
M  V30 14233 O 1324.52 -1.45984 1.38747 0
M  V30 14234 C 1321.59 -2.27252 2.61835 0
M  V30 14235 C 1320.65 -1.96262 3.81811 0
M  V30 14236 C 1319.88 -3.17355 4.29094 0
M  V30 14237 O 1320.11 -4.2921 3.75679 0
M  V30 14238 O 1319.04 -3.01059 5.21198 0
M  V30 14239 H 1322.87 -0.567024 2.9836 0
M  V30 14240 H 1320.45 -0.214109 1.47858 0
M  V30 14241 H 1322.33 -3.01944 2.93952 0
M  V30 14242 H 1321.01 -2.69875 1.78744 0
M  V30 14243 H 1319.91 -1.19031 3.54658 0
M  V30 14244 H 1321.25 -1.58473 4.65991 0
M  V30 14245 N 1322.9 -1.55308 -0.267798 0
M  V30 14246 C 1323.86 -1.87765 -1.31442 0
M  V30 14247 C 1324.86 -0.752571 -1.42102 0
M  V30 14248 O 1326.05 -1.02072 -1.41163 0
M  V30 14249 C 1323.18 -2.08754 -2.69508 0
M  V30 14250 H 1324.38 -2.8133 -1.03891 0
M  V30 14251 H 1321.93 -1.47879 -0.506111 0
M  V30 14252 H 1322.67 -1.17588 -3.02231 0
M  V30 14253 H 1322.45 -2.90674 -2.63156 0
M  V30 14254 H 1323.94 -2.3512 -3.4512 0
M  V30 14255 N 1324.38 0.532545 -1.4833 0
M  V30 14256 C 1325.79 1.11451 -1.49785 0
M  V30 14257 C 1326.14 1.94386 -0.266207 0
M  V30 14258 O 1325.26 2.07121 0.62688 0
M  V30 14259 C 1325.86 2.0279 -2.71407 0
M  V30 14260 C 1324.42 2.56209 -2.75742 0
M  V30 14261 C 1323.57 1.33114 -2.43261 0
M  V30 14262 H 1326.52 0.317924 -1.55483 0
M  V30 14263 H 1326.54 2.87038 -2.49779 0
M  V30 14264 H 1326.05 1.42401 -3.61031 0
M  V30 14265 H 1324.15 3.20327 -1.9032 0
M  V30 14266 H 1324.26 2.95518 -3.77102 0
M  V30 14267 H 1322.63 1.64607 -1.94362 0
M  V30 14268 H 1323.41 0.744809 -3.35123 0
M  V30 14269 N 1325.86 1.36875 0.78122 0
M  V30 14270 C 1327.13 1.22101 1.52809 0
M  V30 14271 C 1327.51 -0.189402 2.10249 0
M  V30 14272 O 1326.86 -1.19598 1.94701 0
M  V30 14273 C 1327.07 2.30953 2.61652 0
M  V30 14274 C 1328.42 2.68027 3.29313 0
M  V30 14275 O 1329.44 2.30058 2.71941 0
M  V30 14276 O 1328.3 3.33407 4.33015 0
M  V30 14277 H 1325.4 0.4759 0.676349 0
M  V30 14278 H 1327.94 1.48629 0.818998 0
M  V30 14279 H 1326.71 3.25443 2.17261 0
M  V30 14280 H 1326.34 2.05837 3.40172 0
M  V30 14281 N 1327.33 -1.00632 1.21289 0
M  V30 14282 C 1328.56 -1.77709 1.05371 0
M  V30 14283 C 1328.97 -1.84933 -0.39956 0
M  V30 14284 O 1328.31 -1.30881 -1.28903 0
M  V30 14285 C 1328.38 -3.23206 1.5741 0
M  V30 14286 C 1328.04 -3.39563 3.05852 0
M  V30 14287 C 1329.04 -3.27952 4.03415 0
M  V30 14288 C 1326.72 -3.65048 3.4503 0
M  V30 14289 C 1328.72 -3.41587 5.38142 0
M  V30 14290 C 1326.4 -3.78325 4.7991 0
M  V30 14291 C 1327.4 -3.66601 5.76275 0
M  V30 14292 O 1327.09 -3.79458 7.08708 0
M  V30 14293 H 1326.82 -0.565369 0.370585 0
M  V30 14294 H 1329.38 -1.27483 1.6105 0
M  V30 14295 H 1327.61 -3.74562 0.96126 0
M  V30 14296 H 1329.29 -3.81953 1.37356 0
M  V30 14297 H 1330.06 -3.0819 3.74492 0
M  V30 14298 H 1325.94 -3.73256 2.70557 0
M  V30 14299 H 1329.48 -3.32353 6.13341 0
M  V30 14300 H 1325.38 -3.97591 5.08519 0
M  V30 14301 H 1326.15 -3.96413 7.161 0
M  V30 14302 N 1328.81 -1.02043 -1.20104 0
M  V30 14303 C 1330.06 -0.710566 -1.89197 0
M  V30 14304 C 1330.38 0.762471 -1.79475 0
M  V30 14305 O 1329.65 1.54871 -1.19965 0
M  V30 14306 H 1328.23 -0.259839 -0.700352 0
M  V30 14307 H 1330.89 -1.29285 -1.45848 0
M  V30 14308 H 1329.99 -0.997363 -2.95735 0
M  V30 14309 N 1330.29 1.35952 -0.797165 0
M  V30 14310 C 1331.52 2.0381 -0.38421 0
M  V30 14311 C 1331.94 1.597 0.993854 0
M  V30 14312 O 1331.3 0.769148 1.64176 0
M  V30 14313 C 1331.35 3.57589 -0.465054 0
M  V30 14314 O 1330.45 4.09043 0.525095 0
M  V30 14315 H 1329.79 0.643957 -0.161912 0
M  V30 14316 H 1332.32 1.73746 -1.08043 0
M  V30 14317 H 1332.33 4.06651 -0.331448 0
M  V30 14318 H 1331.01 3.89045 -1.47027 0
M  V30 14319 H 1329.58 3.7123 0.352509 0
M  V30 14320 N 1331.77 0.549846 1.47697 0
M  V30 14321 C 1333.02 0.0230048 2.02087 0
M  V30 14322 C 1333.34 -1.32865 1.4273 0
M  V30 14323 O 1332.61 -1.86492 0.59981 0
M  V30 14324 H 1331.19 0.00551514 0.74698 0
M  V30 14325 H 1333.85 0.718185 1.81185 0
M  V30 14326 H 1332.95 -0.0705813 3.1202 0
M  V30 14327 N 1333.25 -1.54984 0.285932 0
M  V30 14328 C 1334.49 -2.00126 -0.328223 0
M  V30 14329 C 1334.83 -1.17409 -1.54689 0
M  V30 14330 O 1334.1 -0.246806 -1.92928 0
M  V30 14331 C 1334.38 -3.53236 -0.699733 0
M  V30 14332 C 1334.24 -4.46702 0.527029 0
M  V30 14333 C 1335.56 -4.12572 -1.53206 0
M  V30 14334 H 1332.67 -0.727521 -0.117825 0
M  V30 14335 H 1335.32 -1.85848 0.395032 0
M  V30 14336 H 1333.47 -3.65534 -1.31594 0
M  V30 14337 H 1335.14 -4.46332 1.16557 0
M  V30 14338 H 1333.38 -4.17917 1.1631 0
M  V30 14339 H 1334.05 -5.51549 0.223165 0
M  V30 14340 H 1336.53 -4.03618 -1.01154 0
M  V30 14341 H 1335.4 -5.19891 -1.7608 0
M  V30 14342 H 1335.67 -3.63487 -2.51654 0
M  V30 14343 N 1334.72 -0.0133892 -1.57594 0
M  V30 14344 C 1336.14 0.342848 -1.55874 0
M  V30 14345 C 1336.34 1.73928 -1.01742 0
M  V30 14346 O 1335.4 2.43798 -0.657158 0
M  V30 14347 C 1336.71 0.205831 -2.99995 0
M  V30 14348 C 1338.26 0.279774 -3.11747 0
M  V30 14349 C 1338.73 0.171729 -4.57678 0
M  V30 14350 N 1340.22 0.22921 -4.62633 0
M  V30 14351 C 1340.96 0.169153 -5.7315 0
M  V30 14352 N 1340.45 0.0589166 -6.92775 0
M  V30 14353 N 1342.25 0.221995 -5.61661 0
M  V30 14354 H 1334.4 -0.926727 -1.91117 0
M  V30 14355 H 1336.66 -0.356466 -0.878428 0
M  V30 14356 H 1336.37 -0.755482 -3.4349 0
M  V30 14357 H 1336.24 0.982476 -3.6418 0
M  V30 14358 H 1338.63 1.23154 -2.68174 0
M  V30 14359 H 1338.71 -0.526974 -2.50313 0
M  V30 14360 H 1338.35 -0.776547 -5.01928 0
M  V30 14361 H 1338.28 0.997138 -5.17073 0
M  V30 14362 H 1340.77 0.315196 -3.76583 0
M  V30 14363 H 1341.09 0.0193526 -7.72798 0
M  V30 14364 H 1339.43 0.0243543 -6.94996 0
M  V30 14365 H 1342.62 0.306406 -4.67096 0
M  V30 14366 H 1342.8 0.171727 -6.47772 0
M  V30 14367 N 1336.2 1.55448 0.259558 0
M  V30 14368 C 1337.13 1.85678 1.34373 0
M  V30 14369 C 1338.15 0.742155 1.449 0
M  V30 14370 O 1339.34 1.02015 1.46476 0
M  V30 14371 C 1336.44 2.01668 2.72366 0
M  V30 14372 C 1335.61 3.32434 2.84265 0
M  V30 14373 C 1334.67 3.38322 4.03019 0
M  V30 14374 O 1333.69 4.11616 3.93143 0
M  V30 14375 N 1334.9 2.66697 5.1561 0
M  V30 14376 H 1337.66 2.79261 1.08781 0
M  V30 14377 H 1335.22 1.5553 0.449672 0
M  V30 14378 H 1337.21 2.02963 3.50126 0
M  V30 14379 H 1335.78 1.14889 2.90722 0
M  V30 14380 H 1335 3.43564 1.93281 0
M  V30 14381 H 1336.29 4.18649 2.89155 0
M  V30 14382 H 1335.69 2.06857 5.26523 0
M  V30 14383 H 1334.25 2.73699 5.91551 0
M  V30 14384 N 1337.68 -0.524672 1.4861 0
M  V30 14385 C 1338.91 -1.30958 1.60825 0
M  V30 14386 C 1339.33 -1.86142 0.270682 0
M  V30 14387 O 1338.69 -1.64675 -0.758415 0
M  V30 14388 C 1338.74 -2.43252 2.66197 0
M  V30 14389 O 1337.84 -3.4644 2.23725 0
M  V30 14390 H 1337.18 -0.387638 0.539104 0
M  V30 14391 H 1339.71 -0.630755 1.94635 0
M  V30 14392 H 1339.72 -2.89362 2.87635 0
M  V30 14393 H 1338.4 -2.02449 3.63301 0
M  V30 14394 H 1336.97 -3.06413 2.12522 0
M  V30 14395 N 1339.16 -1.37287 -0.77395 0
M  V30 14396 C 1340.41 -1.32112 -1.5294 0
M  V30 14397 C 1340.73 0.0946137 -1.9477 0
M  V30 14398 O 1340 1.03817 -1.66129 0
M  V30 14399 H 1338.58 -0.486047 -0.567245 0
M  V30 14400 H 1341.24 -1.71752 -0.921263 0
M  V30 14401 H 1340.34 -1.95873 -2.42982 0
M  V30 14402 N 1340.64 0.999871 -1.21821 0
M  V30 14403 C 1341.86 1.77405 -1.06467 0
M  V30 14404 C 1342.28 1.84828 0.385227 0
M  V30 14405 O 1341.64 1.31338 1.26714 0
M  V30 14406 C 1341.69 3.21062 -1.66137 0
M  V30 14407 O 1341.41 3.14054 -3.05454 0
M  V30 14408 C 1342.91 4.14958 -1.55963 0
M  V30 14409 H 1340.13 0.557368 -0.373607 0
M  V30 14410 H 1342.67 1.2575 -1.61267 0
M  V30 14411 H 1340.83 3.69808 -1.15416 0
M  V30 14412 H 1341.24 4.04346 -3.34073 0
M  V30 14413 H 1342.72 5.13536 -2.02448 0
M  V30 14414 H 1343.19 4.36171 -0.514949 0
M  V30 14415 H 1343.8 3.72105 -2.05956 0
M  V30 14416 N 1342.11 1.02678 1.19562 0
M  V30 14417 C 1343.08 0.610407 2.20922 0
M  V30 14418 C 1344.08 -0.324858 1.57484 0
M  V30 14419 O 1345.27 -0.112153 1.73839 0
M  V30 14420 C 1342.4 -0.107115 3.40732 0
M  V30 14421 H 1343.59 1.50722 2.59274 0
M  V30 14422 H 1341.15 0.817725 1.33203 0
M  V30 14423 H 1341.88 -1.01837 3.07896 0
M  V30 14424 H 1341.67 0.564901 3.88009 0
M  V30 14425 H 1343.16 -0.385423 4.15818 0
M  V30 14426 N 1343.59 -1.35528 0.804364 0
M  V30 14427 C 1344.54 -2.29832 0.211186 0
M  V30 14428 C 1345.51 -1.52704 -0.653503 0
M  V30 14429 O 1346.69 -1.81152 -0.599052 0
M  V30 14430 C 1343.83 -3.39188 -0.636054 0
M  V30 14431 C 1342.95 -4.31283 0.248824 0
M  V30 14432 C 1342.08 -5.2773 -0.60621 0
M  V30 14433 C 1341.12 -6.11463 0.279205 0
M  V30 14434 N 1340.26 -7.00054 -0.535672 0
M  V30 14435 H 1345.1 -2.79971 1.0208 0
M  V30 14436 H 1342.64 -1.37793 0.514931 0
M  V30 14437 H 1344.59 -4.01254 -1.14241 0
M  V30 14438 H 1343.22 -2.90331 -1.41095 0
M  V30 14439 H 1342.28 -3.70241 0.873263 0
M  V30 14440 H 1343.59 -4.90046 0.930417 0
M  V30 14441 H 1342.74 -5.95158 -1.17778 0
M  V30 14442 H 1341.48 -4.69458 -1.32138 0
M  V30 14443 H 1340.49 -5.42984 0.863066 0
M  V30 14444 H 1341.71 -6.71813 0.9922 0
M  V30 14445 H 1339.66 -6.44273 -1.23486 0
M  V30 14446 H 1339.57 -7.55949 0.0879213 0
M  V30 14447 H 1340.84 -7.71833 -1.09059 0
M  V30 14448 N 1345.07 -0.557671 -1.47404 0
M  V30 14449 C 1346.32 -0.0316382 -2.01675 0
M  V30 14450 C 1346.63 1.32656 -1.43742 0
M  V30 14451 O 1347.84 1.94253 -1.89678 0
M  V30 14452 C 1346.3 -0.00606931 -3.59899 0
M  V30 14453 C 1345.9 -1.36106 -4.26825 0
M  V30 14454 C 1347.65 0.467332 -4.2192 0
M  V30 14455 C 1345.55 -1.29457 -5.77057 0
M  V30 14456 H 1344.48 -0.00805738 -0.753957 0
M  V30 14457 H 1347.14 -0.705592 -1.69392 0
M  V30 14458 H 1345.52 0.733541 -3.89147 0
M  V30 14459 H 1346.69 -2.11842 -4.09218 0
M  V30 14460 H 1345.01 -1.77243 -3.76794 0
M  V30 14461 H 1347.6 0.535478 -5.32012 0
M  V30 14462 H 1347.95 1.47942 -3.89126 0
M  V30 14463 H 1348.48 -0.217434 -3.97205 0
M  V30 14464 H 1345.22 -2.28267 -6.14471 0
M  V30 14465 H 1344.74 -0.579022 -5.96999 0
M  V30 14466 H 1346.42 -0.996834 -6.39275 0
M  V30 14467 N 1346.55 1.54831 -0.294147 0
M  V30 14468 C 1347.77 2.04873 0.32276 0
M  V30 14469 C 1348.2 1.17034 1.47257 0
M  V30 14470 O 1347.56 0.172949 1.80473 0
M  V30 14471 C 1347.61 3.52431 0.76319 0
M  V30 14472 O 1346.71 3.67635 1.86865 0
M  V30 14473 H 1346.05 0.660926 0.0638162 0
M  V30 14474 H 1348.58 1.99944 -0.433995 0
M  V30 14475 H 1348.59 3.94155 1.05385 0
M  V30 14476 H 1347.27 4.15827 -0.0779464 0
M  V30 14477 H 1345.84 3.37816 1.57907 0
M  V30 14478 N 1348.03 0.0217466 1.57585 0
M  V30 14479 C 1349.27 -0.658487 1.91495 0
M  V30 14480 C 1349.6 -1.72557 0.897462 0
M  V30 14481 O 1348.86 -1.95471 -0.0946909 0
M  V30 14482 C 1349.16 -1.3197 3.32143 0
M  V30 14483 C 1348.82 -0.383706 4.49264 0
M  V30 14484 C 1347.48 -0.126065 4.81035 0
M  V30 14485 C 1349.84 0.259445 5.20554 0
M  V30 14486 C 1347.16 0.782659 5.81456 0
M  V30 14487 C 1349.52 1.15618 6.21945 0
M  V30 14488 C 1348.18 1.42278 6.5216 0
M  V30 14489 H 1347.45 -0.240958 0.700729 0
M  V30 14490 H 1350.1 0.0819351 1.91325 0
M  V30 14491 H 1348.4 -2.13469 3.28539 0
M  V30 14492 H 1350.1 -1.85245 3.55648 0
M  V30 14493 H 1346.69 -0.59469 4.24454 0
M  V30 14494 H 1350.87 0.073445 4.96246 0
M  V30 14495 H 1346.13 0.996995 6.03216 0
M  V30 14496 H 1350.3 1.66077 6.76307 0
M  V30 14497 H 1347.93 2.1286 7.29791 0
M  V30 14498 N 1349.51 -1.55583 -0.251311 0
M  V30 14499 C 1350.78 -1.67954 -1.00254 0
M  V30 14500 C 1351.16 -0.560326 -2.03528 0
M  V30 14501 O 1350.51 0.436811 -2.24286 0
M  V30 14502 C 1350.72 -3.08075 -1.63985 0
M  V30 14503 C 1352.07 -3.66531 -2.14336 0
M  V30 14504 O 1353.09 -3.10846 -1.73934 0
M  V30 14505 O 1351.95 -4.64141 -2.88506 0
M  V30 14506 H 1349.05 -0.682952 -0.466375 0
M  V30 14507 H 1351.59 -1.67916 -0.245447 0
M  V30 14508 H 1350.36 -3.80983 -0.892627 0
M  V30 14509 H 1349.99 -3.12105 -2.46325 0
M  V30 14510 N 1350.98 0.516783 -1.48886 0
M  V30 14511 C 1352.26 1.27808 -1.48069 0
M  V30 14512 C 1352.64 2.10154 -0.19963 0
M  V30 14513 O 1351.99 2.13342 0.818386 0
M  V30 14514 C 1352.2 2.14828 -2.75045 0
M  V30 14515 C 1353.55 2.74536 -3.23906 0
M  V30 14516 O 1354.57 2.25107 -2.76053 0
M  V30 14517 O 1353.43 3.6448 -4.07206 0
M  V30 14518 H 1350.52 0.577535 -0.591931 0
M  V30 14519 H 1353.07 0.532351 -1.61134 0
M  V30 14520 H 1351.84 1.53852 -3.59785 0
M  V30 14521 H 1351.46 2.96624 -2.64764 0
M  V30 14522 N 1352.46 1.37696 0.766659 0
M  V30 14523 C 1353.39 1.2975 1.88938 0
M  V30 14524 C 1354.41 0.212278 1.6141 0
M  V30 14525 O 1355.6 0.468825 1.72233 0
M  V30 14526 C 1352.7 0.984553 3.24283 0
M  V30 14527 C 1351.87 2.17625 3.79418 0
M  V30 14528 C 1350.93 1.83279 4.9325 0
M  V30 14529 O 1349.95 2.55631 5.08568 0
M  V30 14530 N 1351.16 0.779941 5.75237 0
M  V30 14531 H 1353.92 2.26492 1.96269 0
M  V30 14532 H 1351.48 1.31387 0.946001 0
M  V30 14533 H 1353.47 0.735536 3.9796 0
M  V30 14534 H 1352.04 0.105527 3.12422 0
M  V30 14535 H 1351.26 2.58672 2.9746 0
M  V30 14536 H 1352.55 2.97187 4.12986 0
M  V30 14537 H 1351.95 0.179661 5.65415 0
M  V30 14538 H 1350.51 0.59079 6.49117 0
M  V30 14539 N 1353.94 -0.993397 1.22349 0
M  V30 14540 C 1354.89 -2.06784 0.960445 0
M  V30 14541 C 1355.87 -1.60655 -0.0887385 0
M  V30 14542 O 1357.07 -1.76581 0.121716 0
M  V30 14543 C 1354.19 -3.39034 0.539552 0
M  V30 14544 C 1353.28 -3.91798 1.62344 0
M  V30 14545 N 1353.67 -4.17791 2.85104 0
M  V30 14546 C 1351.97 -4.20197 1.49501 0
M  V30 14547 C 1352.67 -4.6067 3.55187 0
M  V30 14548 N 1351.65 -4.64333 2.82658 0
M  V30 14549 H 1355.45 -2.24821 1.89295 0
M  V30 14550 H 1352.96 -1.17509 1.12095 0
M  V30 14551 H 1354.96 -4.15573 0.332419 0
M  V30 14552 H 1353.62 -3.22397 -0.38606 0
M  V30 14553 H 1354.63 -4.05999 3.21536 0
M  V30 14554 H 1351.31 -4.12634 0.635546 0
M  V30 14555 H 1352.7 -4.89408 4.60358 0
M  V30 14556 N 1355.42 -1.03311 -1.19015 0
M  V30 14557 C 1356.66 -0.732039 -1.88805 0
M  V30 14558 C 1356.99 0.739688 -1.79886 0
M  V30 14559 O 1356.25 1.55476 -1.18851 0
M  V30 14560 C 1356.55 -1.13402 -3.38932 0
M  V30 14561 C 1356.21 -2.60473 -3.68055 0
M  V30 14562 C 1354.87 -3.00654 -3.75713 0
M  V30 14563 C 1357.23 -3.55604 -3.81045 0
M  V30 14564 C 1354.55 -4.3487 -3.93833 0
M  V30 14565 C 1356.91 -4.89529 -4.00679 0
M  V30 14566 C 1355.57 -5.29392 -4.06571 0
M  V30 14567 H 1354.84 -0.267872 -0.690888 0
M  V30 14568 H 1357.49 -1.29673 -1.40915 0
M  V30 14569 H 1355.79 -0.487997 -3.88749 0
M  V30 14570 H 1357.49 -0.878532 -3.91258 0
M  V30 14571 H 1354.08 -2.28348 -3.62706 0
M  V30 14572 H 1358.26 -3.25711 -3.74467 0
M  V30 14573 H 1353.52 -4.65285 -3.96636 0
M  V30 14574 H 1357.69 -5.63153 -4.09672 0
M  V30 14575 H 1355.32 -6.33402 -4.20364 0
M  V30 14576 N 1356.9 1.35099 -0.81154 0
M  V30 14577 C 1357.81 2.33499 -0.22705 0
M  V30 14578 C 1358.82 1.62095 0.632562 0
M  V30 14579 O 1360 1.93938 0.543147 0
M  V30 14580 C 1357.06 3.41279 0.610687 0
M  V30 14581 C 1356.12 4.2845 -0.269994 0
M  V30 14582 C 1355.36 5.31083 0.527854 0
M  V30 14583 O 1355.58 5.42499 1.76213 0
M  V30 14584 O 1354.51 6.01842 -0.083862 0
M  V30 14585 H 1358.34 2.85294 -1.04119 0
M  V30 14586 H 1355.92 1.37957 -0.573432 0
M  V30 14587 H 1357.81 4.07121 1.08768 0
M  V30 14588 H 1356.48 2.91746 1.40235 0
M  V30 14589 H 1355.39 3.65572 -0.794234 0
M  V30 14590 H 1356.72 4.81394 -1.02572 0
M  V30 14591 N 1358.37 0.56548 1.47106 0
M  V30 14592 C 1359.32 -0.177564 2.30116 0
M  V30 14593 C 1360.29 -0.900534 1.39569 0
M  V30 14594 O 1361.48 -0.894603 1.68527 0
M  V30 14595 C 1358.62 -1.19633 3.237 0
M  V30 14596 C 1357.73 -0.47858 4.29341 0
M  V30 14597 C 1356.86 -1.48336 5.10068 0
M  V30 14598 C 1355.9 -0.751049 6.07475 0
M  V30 14599 N 1355.04 -1.70306 6.81132 0
M  V30 14600 H 1359.88 0.536409 2.93132 0
M  V30 14601 H 1357.42 0.276352 1.44481 0
M  V30 14602 H 1359.37 -1.79967 3.76388 0
M  V30 14603 H 1358 -1.87823 2.6253 0
M  V30 14604 H 1357.06 0.239454 3.79646 0
M  V30 14605 H 1358.37 0.0947147 4.9871 0
M  V30 14606 H 1357.52 -2.16 5.66947 0
M  V30 14607 H 1356.26 -2.09058 4.4062 0
M  V30 14608 H 1355.27 -0.0605336 5.49767 0
M  V30 14609 H 1356.49 -0.14946 6.78936 0
M  V30 14610 H 1354.44 -2.2987 6.14407 0
M  V30 14611 H 1354.35 -1.18213 7.46701 0
M  V30 14612 H 1355.62 -2.37058 7.42579 0
M  V30 14613 N 1359.85 -1.54672 0.302354 0
M  V30 14614 C 1361.1 -2.00167 -0.306524 0
M  V30 14615 C 1361.43 -1.19073 -1.53791 0
M  V30 14616 O 1360.68 -0.255328 -1.94027 0
M  V30 14617 C 1360.98 -3.5035 -0.70638 0
M  V30 14618 C 1360.65 -4.48907 0.423429 0
M  V30 14619 C 1359.31 -4.75575 0.733586 0
M  V30 14620 C 1361.66 -5.07588 1.18338 0
M  V30 14621 C 1358.99 -5.58186 1.80679 0
M  V30 14622 C 1361.34 -5.91367 2.24651 0
M  V30 14623 C 1360.01 -6.16345 2.56272 0
M  V30 14624 H 1359.28 -0.732462 -0.112165 0
M  V30 14625 H 1361.92 -1.86798 0.421732 0
M  V30 14626 H 1360.23 -3.61335 -1.51474 0
M  V30 14627 H 1361.92 -3.82977 -1.18869 0
M  V30 14628 H 1358.51 -4.28256 0.171591 0
M  V30 14629 H 1362.7 -4.86985 0.957018 0
M  V30 14630 H 1357.95 -5.75776 2.05649 0
M  V30 14631 H 1362.13 -6.35862 2.83994 0
M  V30 14632 H 1359.76 -6.80148 3.39563 0
M  V30 14633 N 1361.33 -0.0301034 -1.57571 0
M  V30 14634 C 1362.26 0.980187 -2.07183 0
M  V30 14635 C 1363.28 1.2882 -0.995449 0
M  V30 14636 O 1364.46 1.25268 -1.27162 0
M  V30 14637 C 1361.56 2.30734 -2.48224 0
M  V30 14638 C 1360.74 2.18434 -3.78953 0
M  V30 14639 C 1359.8 3.34092 -4.06533 0
M  V30 14640 O 1358.82 3.10934 -4.76769 0
M  V30 14641 N 1360.02 4.57914 -3.56784 0
M  V30 14642 H 1362.79 0.556877 -2.94481 0
M  V30 14643 H 1360.35 0.156632 -1.61141 0
M  V30 14644 H 1362.34 3.06936 -2.63766 0
M  V30 14645 H 1360.91 2.64703 -1.66287 0
M  V30 14646 H 1360.13 1.26953 -3.73198 0
M  V30 14647 H 1361.42 2.07421 -4.64601 0
M  V30 14648 H 1360.82 4.79623 -2.99964 0
M  V30 14649 H 1359.38 5.31281 -3.77603 0
M  V30 14650 N 1362.81 1.55714 0.243056 0
M  V30 14651 C 1364.03 1.82126 0.992219 0
M  V30 14652 C 1364.46 0.607665 1.78014 0
M  V30 14653 O 1363.82 -0.443351 1.75796 0
M  V30 14654 C 1363.86 3.06314 1.90274 0
M  V30 14655 O 1362.97 2.83499 2.99503 0
M  V30 14656 H 1362.31 0.601082 0.282128 0
M  V30 14657 H 1364.84 2.02904 0.262881 0
M  V30 14658 H 1364.85 3.35849 2.31666 0
M  V30 14659 H 1363.52 3.94282 1.32344 0
M  V30 14660 H 1362.1 2.65141 2.62211 0
M  V30 14661 N 1364.29 -0.50888 1.49158 0
M  V30 14662 C 1365.2 -1.63782 1.67966 0
M  V30 14663 C 1366.21 -1.64667 0.562207 0
M  V30 14664 O 1367.39 -1.83232 0.835935 0
M  V30 14665 C 1364.45 -3.00179 1.73474 0
M  V30 14666 C 1363.51 -3.09983 2.97 0
M  V30 14667 C 1362.75 -4.39875 3.02235 0
M  V30 14668 O 1362.97 -5.28214 2.15282 0
M  V30 14669 O 1361.9 -4.54486 3.94621 0
M  V30 14670 H 1365.73 -1.50846 2.63589 0
M  V30 14671 H 1363.32 -0.684306 1.32807 0
M  V30 14672 H 1365.2 -3.8126 1.79495 0
M  V30 14673 H 1363.87 -3.13394 0.810287 0
M  V30 14674 H 1362.78 -2.28119 2.965 0
M  V30 14675 H 1364.11 -3.01693 3.88899 0
M  V30 14676 N 1365.76 -1.381 -0.759346 0
M  V30 14677 C 1366.99 -1.37389 -1.55367 0
M  V30 14678 C 1367.41 0.0356097 -1.88066 0
M  V30 14679 O 1366.77 1.0161 -1.5015 0
M  V30 14680 C 1366.82 -2.23098 -2.83302 0
M  V30 14681 O 1365.92 -1.64412 -3.7821 0
M  V30 14682 H 1365.27 -0.468894 -0.470143 0
M  V30 14683 H 1367.8 -1.81787 -0.938858 0
M  V30 14684 H 1367.81 -2.36753 -3.32283 0
M  V30 14685 H 1366.48 -3.25544 -2.58831 0
M  V30 14686 H 1365.06 -1.59867 -3.36893 0
M  V30 14687 N 1367.24 0.986894 -1.22875 0
M  V30 14688 C 1368.48 1.74243 -1.06859 0
M  V30 14689 C 1368.85 1.88024 0.388736 0
M  V30 14690 O 1370.05 2.60318 0.669907 0
M  V30 14691 C 1368.32 3.10668 -1.76692 0
M  V30 14692 S 1369.88 4.01884 -1.76166 0
M  V30 14693 H 1366.7 0.59931 -0.382555 0
M  V30 14694 H 1369.3 1.17951 -1.55909 0
M  V30 14695 H 1368 2.98285 -2.81877 0
M  V30 14696 H 1367.53 3.7203 -1.27897 0
M  V30 14697 H 1369.55 4.89451 -0.815627 0
M  V30 14698 N 1368.72 1.0394 1.18466 0
M  V30 14699 C 1370.13 0.77011 1.70077 0
M  V30 14700 C 1370.48 -0.70916 1.82935 0
M  V30 14701 O 1369.61 -1.55209 1.50795 0
M  V30 14702 C 1370.2 1.39132 3.08914 0
M  V30 14703 C 1368.76 1.17037 3.57742 0
M  V30 14704 C 1367.91 1.48279 2.34326 0
M  V30 14705 H 1370.86 1.20598 1.03159 0
M  V30 14706 H 1370.88 0.793861 3.72126 0
M  V30 14707 H 1370.39 2.46795 2.99523 0
M  V30 14708 H 1368.49 0.112435 3.7243 0
M  V30 14709 H 1368.61 1.8665 4.41247 0
M  V30 14710 H 1366.97 0.902438 2.38177 0
M  V30 14711 H 1367.75 2.57047 2.27556 0
M  V30 14712 N 1370.2 -1.34667 0.818693 0
M  V30 14713 C 1371.44 -1.98708 0.405359 0
M  V30 14714 C 1371.78 -1.64767 -1.02788 0
M  V30 14715 O 1371.05 -0.91714 -1.71519 0
M  V30 14716 C 1371.34 -3.55016 0.602966 0
M  V30 14717 C 1371.19 -3.98713 2.08201 0
M  V30 14718 C 1372.51 -4.40085 0.0362489 0
M  V30 14719 H 1369.63 -0.721831 0.148756 0
M  V30 14720 H 1372.27 -1.59628 1.03047 0
M  V30 14721 H 1370.42 -3.88435 0.0708453 0
M  V30 14722 H 1372.09 -3.75647 2.67745 0
M  V30 14723 H 1370.33 -3.49179 2.57403 0
M  V30 14724 H 1371 -5.0751 2.17111 0
M  V30 14725 H 1373.48 -4.13195 0.490837 0
M  V30 14726 H 1372.36 -5.4852 0.204344 0
M  V30 14727 H 1372.62 -4.29243 -1.05845 0
M  V30 14728 N 1371.68 -0.573274 -1.46804 0
M  V30 14729 C 1372.92 -0.0553432 -2.02724 0
M  V30 14730 C 1373.26 1.29753 -1.44492 0
M  V30 14731 O 1372.53 1.84804 -0.606455 0
M  V30 14732 C 1372.81 0.0205511 -3.60094 0
M  V30 14733 C 1372.67 -1.36055 -4.2873 0
M  V30 14734 C 1373.99 0.725944 -4.34071 0
M  V30 14735 H 1371.1 -0.0215858 -0.736684 0
M  V30 14736 H 1373.75 -0.738657 -1.75054 0
M  V30 14737 H 1371.9 0.602481 -3.838 0
M  V30 14738 H 1373.57 -1.98692 -4.16316 0
M  V30 14739 H 1371.81 -1.93087 -3.88458 0
M  V30 14740 H 1372.48 -1.26001 -5.37427 0
M  V30 14741 H 1374.96 0.231677 -4.15455 0
M  V30 14742 H 1373.83 0.74805 -5.43779 0
M  V30 14743 H 1374.1 1.78536 -4.04447 0
M  V30 14744 N 1373.15 1.5451 -0.310553 0
M  V30 14745 C 1374.4 1.99931 0.29532 0
M  V30 14746 C 1374.72 1.20042 1.53672 0
M  V30 14747 O 1373.99 0.298841 1.93607 0
M  V30 14748 H 1372.57 0.738539 0.112111 0
M  V30 14749 H 1375.24 1.9023 -0.424092 0
M  V30 14750 H 1374.33 3.07021 0.560749 0
M  V30 14751 N 1374.63 0.0384594 1.57553 0
M  V30 14752 C 1375.57 -0.975285 2.06309 0
M  V30 14753 C 1376.54 -1.31174 0.96084 0
M  V30 14754 O 1377.73 -1.4268 1.23185 0
M  V30 14755 C 1374.86 -2.29279 2.49297 0
M  V30 14756 C 1373.9 -2.11028 3.70634 0
M  V30 14757 S 1374.73 -1.40043 5.16864 0
M  V30 14758 C 1375.89 -2.73143 5.63155 0
M  V30 14759 H 1376.12 -0.560293 2.91973 0
M  V30 14760 H 1373.66 -0.173479 1.53422 0
M  V30 14761 H 1375.61 -3.05016 2.74728 0
M  V30 14762 H 1374.28 -2.67909 1.63962 0
M  V30 14763 H 1373.47 -3.08451 3.9859 0
M  V30 14764 H 1373.07 -1.43433 3.45403 0
M  V30 14765 H 1375.36 -3.69354 5.67965 0
M  V30 14766 H 1376.31 -2.49839 6.6256 0
M  V30 14767 H 1376.71 -2.78819 4.90836 0
M  V30 14768 N 1376.11 -1.55841 -0.234795 0
M  V30 14769 C 1377.34 -1.82649 -0.982547 0
M  V30 14770 C 1377.76 -0.617097 -1.77689 0
M  V30 14771 O 1377.12 0.434022 -1.76028 0
M  V30 14772 C 1377.17 -3.07319 -1.88646 0
M  V30 14773 O 1376.27 -2.85084 -2.97995 0
M  V30 14774 H 1375.61 -0.60257 -0.278936 0
M  V30 14775 H 1378.14 -2.03041 -0.252117 0
M  V30 14776 H 1378.15 -3.37073 -2.29882 0
M  V30 14777 H 1376.83 -3.94978 -1.30251 0
M  V30 14778 H 1375.4 -2.66528 -2.60801 0
M  V30 14779 N 1377.59 0.500963 -1.49426 0
M  V30 14780 C 1379.01 0.832142 -1.36189 0
M  V30 14781 C 1379.21 1.9759 -0.395014 0
M  V30 14782 O 1378.26 2.51905 0.173294 0
M  V30 14783 C 1379.57 1.17232 -2.76907 0
M  V30 14784 C 1381.12 1.28052 -2.85607 0
M  V30 14785 C 1381.6 1.65399 -4.27092 0
M  V30 14786 N 1383.09 1.72448 -4.29902 0
M  V30 14787 C 1383.82 2.02789 -5.36343 0
M  V30 14788 N 1383.32 2.31354 -6.53029 0
M  V30 14789 N 1385.11 2.0404 -5.23759 0
M  V30 14790 H 1377.26 -0.253253 -2.10885 0
M  V30 14791 H 1379.53 -0.0507111 -0.946643 0
M  V30 14792 H 1379.23 0.405247 -3.49357 0
M  V30 14793 H 1379.11 2.11574 -3.12276 0
M  V30 14794 H 1381.49 2.03831 -2.13394 0
M  V30 14795 H 1381.57 0.317603 -2.53821 0
M  V30 14796 H 1381.22 0.901704 -4.99832 0
M  V30 14797 H 1381.15 2.6279 -4.56343 0
M  V30 14798 H 1383.64 1.52532 -3.45749 0
M  V30 14799 H 1383.95 2.53695 -7.29972 0
M  V30 14800 H 1382.3 2.28811 -6.56255 0
M  V30 14801 H 1385.49 1.812 -4.31606 0
M  V30 14802 H 1385.66 2.27353 -6.06807 0
M  V30 14803 N 1379.07 1.38501 0.752011 0
M  V30 14804 C 1380.29 1.38212 1.54636 0
M  V30 14805 C 1380.72 -0.0256356 1.88083 0
M  V30 14806 O 1380.08 -1.00812 1.50687 0
M  V30 14807 C 1380.12 2.24597 2.82114 0
M  V30 14808 O 1379.23 1.66415 3.77332 0
M  V30 14809 H 1378.57 0.47138 0.46765 0
M  V30 14810 H 1381.1 1.82283 0.929205 0
M  V30 14811 H 1381.11 2.38511 3.31023 0
M  V30 14812 H 1379.78 3.26913 2.57101 0
M  V30 14813 H 1378.36 1.61651 3.36041 0
M  V30 14814 N 1380.55 -0.980364 1.23396 0
M  V30 14815 C 1381.79 -1.71826 1.06397 0
M  V30 14816 C 1382.11 -1.90854 -0.399958 0
M  V30 14817 O 1381.38 -1.47721 -1.28668 0
M  V30 14818 H 1379.96 -0.636669 0.390719 0
M  V30 14819 H 1382.63 -1.18008 1.55113 0
M  V30 14820 H 1381.72 -2.7078 1.55192 0
M  V30 14821 N 1382.02 -1.04567 -1.17913 0
M  V30 14822 C 1383.25 -0.772204 -1.9195 0
M  V30 14823 C 1383.67 0.671303 -1.76462 0
M  V30 14824 O 1383.02 1.45805 -1.0976 0
M  V30 14825 C 1383.07 -1.13539 -3.43207 0
M  V30 14826 O 1382.8 -2.52223 -3.58211 0
M  V30 14827 C 1384.3 -0.887146 -4.34332 0
M  V30 14828 H 1381.52 -0.281234 -0.609219 0
M  V30 14829 H 1384.06 -1.39467 -1.49563 0
M  V30 14830 H 1382.22 -0.557784 -3.83363 0
M  V30 14831 H 1382.63 -2.66275 -4.51882 0
M  V30 14832 H 1384.1 -1.19107 -5.38997 0
M  V30 14833 H 1384.58 0.1779 -4.3884 0
M  V30 14834 H 1385.19 -1.44829 -3.99881 0
M  V30 14835 N 1383.5 1.34231 -0.825823 0
M  V30 14836 C 1384.73 2.02949 -0.427354 0
M  V30 14837 C 1385.15 1.61772 0.959755 0
M  V30 14838 O 1384.51 0.803799 1.62508 0
M  V30 14839 C 1384.56 3.56522 -0.540799 0
M  V30 14840 O 1383.66 4.10065 0.438213 0
M  V30 14841 H 1383 0.640378 -0.175535 0
M  V30 14842 H 1385.53 1.71416 -1.11704 0
M  V30 14843 H 1385.54 4.05857 -0.41763 0
M  V30 14844 H 1384.22 3.85839 -1.55246 0
M  V30 14845 H 1382.79 3.71894 0.273687 0
M  V30 14846 N 1384.98 0.581051 1.46498 0
M  V30 14847 C 1385.91 -0.19094 2.28403 0
M  V30 14848 C 1386.92 -0.857039 1.38415 0
M  V30 14849 O 1388.11 -0.726881 1.6303 0
M  V30 14850 C 1385.21 -1.28972 3.134 0
M  V30 14851 C 1384.39 -0.715867 4.31502 0
M  V30 14852 C 1383.45 -1.70215 4.97909 0
M  V30 14853 O 1382.47 -1.23885 5.55555 0
M  V30 14854 N 1383.67 -3.0362 4.94768 0
M  V30 14855 H 1386.44 0.511754 2.95298 0
M  V30 14856 H 1384 0.41871 1.56392 0
M  V30 14857 H 1385.99 -1.94877 3.5469 0
M  V30 14858 H 1384.56 -1.8953 2.4859 0
M  V30 14859 H 1383.78 0.120591 3.94016 0
M  V30 14860 H 1385.07 -0.312226 5.07841 0
M  V30 14861 H 1384.47 -3.43885 4.49177 0
M  V30 14862 H 1383.02 -3.65018 5.40005 0
M  V30 14863 N 1386.46 -1.54343 0.318742 0
M  V30 14864 C 1387.37 -2.27856 -0.558442 0
M  V30 14865 C 1388.38 -1.32029 -1.13333 0
M  V30 14866 O 1389.56 -1.65037 -1.15433 0
M  V30 14867 C 1386.62 -3.01842 -1.70565 0
M  V30 14868 C 1385.69 -4.13245 -1.16305 0
M  V30 14869 C 1384.92 -4.83693 -2.25559 0
M  V30 14870 O 1385.14 -4.53621 -3.4581 0
M  V30 14871 O 1384.08 -5.70708 -1.91249 0
M  V30 14872 H 1387.9 -3.03676 0.0384247 0
M  V30 14873 H 1385.49 -1.4916 0.0845936 0
M  V30 14874 H 1387.37 -3.48189 -2.37365 0
M  V30 14875 H 1386.04 -2.28902 -2.28879 0
M  V30 14876 H 1384.95 -3.71258 -0.460274 0
M  V30 14877 H 1386.28 -4.88214 -0.625111 0
M  V30 14878 N 1387.94 -0.0468143 -1.5753 0
M  V30 14879 C 1388.85 0.944362 -2.14753 0
M  V30 14880 C 1389.86 1.34473 -1.10422 0
M  V30 14881 O 1391.04 1.42254 -1.42569 0
M  V30 14882 C 1388.1 2.2023 -2.67768 0
M  V30 14883 C 1387.16 1.8607 -3.8688 0
M  V30 14884 C 1386.4 3.05867 -4.37357 0
M  V30 14885 O 1386.62 4.19099 -3.86927 0
M  V30 14886 O 1385.55 2.87134 -5.28997 0
M  V30 14887 H 1389.38 0.48772 -2.99758 0
M  V30 14888 H 1386.96 0.174831 -1.48374 0
M  V30 14889 H 1388.85 2.94044 -3.01855 0
M  V30 14890 H 1387.52 2.65041 -1.85836 0
M  V30 14891 H 1386.43 1.09586 -3.5769 0
M  V30 14892 H 1387.76 1.46062 -4.70028 0
M  V30 14893 N 1389.41 1.55964 0.226527 0
M  V30 14894 C 1390.34 1.95028 1.284 0
M  V30 14895 C 1391.33 0.817833 1.49149 0
M  V30 14896 O 1392.51 1.07975 1.61416 0
M  V30 14897 C 1389.64 2.26266 2.63478 0
M  V30 14898 C 1388.59 3.41954 2.57393 0
M  V30 14899 C 1387.92 3.58786 3.96456 0
M  V30 14900 C 1389.22 4.77069 2.12608 0
M  V30 14901 H 1390.91 2.83608 0.959513 0
M  V30 14902 H 1388.46 1.36451 0.460125 0
M  V30 14903 H 1390.41 2.52186 3.3761 0
M  V30 14904 H 1389.14 1.34533 2.97604 0
M  V30 14905 H 1387.8 3.16076 1.85719 0
M  V30 14906 H 1387.44 2.64437 4.27881 0
M  V30 14907 H 1387.14 4.36595 3.93267 0
M  V30 14908 H 1388.67 3.87048 4.72256 0
M  V30 14909 H 1390.08 5.02226 2.76481 0
M  V30 14910 H 1388.48 5.58126 2.2049 0
M  V30 14911 H 1389.55 4.7276 1.07823 0
M  V30 14912 N 1390.89 -0.493031 1.4969 0
M  V30 14913 C 1392.31 -0.824908 1.36629 0
M  V30 14914 C 1392.51 -1.97378 0.405487 0
M  V30 14915 O 1391.56 -2.51993 -0.159933 0
M  V30 14916 C 1392.88 -1.15761 2.77524 0
M  V30 14917 C 1394.43 -1.26536 2.86282 0
M  V30 14918 C 1394.9 -1.63131 4.27963 0
M  V30 14919 N 1396.39 -1.70165 4.30811 0
M  V30 14920 C 1397.13 -1.99942 5.37411 0
M  V30 14921 N 1396.62 -2.27888 6.54247 0
M  V30 14922 N 1398.42 -2.0126 5.24834 0
M  V30 14923 H 1390.57 0.264433 2.10748 0
M  V30 14924 H 1392.83 0.0557306 0.94636 0
M  V30 14925 H 1392.54 -0.386714 3.49567 0
M  V30 14926 H 1392.41 -2.09915 3.13393 0
M  V30 14927 H 1394.8 -2.02696 2.14472 0
M  V30 14928 H 1394.88 -0.304137 2.53986 0
M  V30 14929 H 1394.52 -0.875184 5.00303 0
M  V30 14930 H 1394.45 -2.60367 4.5773 0
M  V30 14931 H 1396.94 -1.50696 3.46553 0
M  V30 14932 H 1397.26 -2.4982 7.31307 0
M  V30 14933 H 1395.6 -2.25327 6.57459 0
M  V30 14934 H 1398.79 -1.78909 4.32561 0
M  V30 14935 H 1398.96 -2.24131 6.08004 0
M  V30 14936 N 1392.37 -1.38898 -0.744656 0
M  V30 14937 C 1393.62 -1.34909 -1.49941 0
M  V30 14938 C 1393.93 0.0553979 -1.95522 0
M  V30 14939 O 1395.14 0.21785 -2.70625 0
M  V30 14940 C 1393.59 -2.36954 -2.70889 0
M  V30 14941 C 1393.2 -3.83069 -2.32298 0
M  V30 14942 C 1394.95 -2.42024 -3.48747 0
M  V30 14943 C 1392.85 -4.76777 -3.4991 0
M  V30 14944 H 1391.78 -0.501512 -0.563029 0
M  V30 14945 H 1394.43 -1.64497 -0.813201 0
M  V30 14946 H 1392.82 -2.00421 -3.41537 0
M  V30 14947 H 1393.99 -4.28588 -1.69259 0
M  V30 14948 H 1392.31 -3.81202 -1.67554 0
M  V30 14949 H 1394.9 -3.0923 -4.36212 0
M  V30 14950 H 1395.25 -1.44184 -3.90534 0
M  V30 14951 H 1395.78 -2.774 -2.85121 0
M  V30 14952 H 1392.52 -5.75844 -3.13183 0
M  V30 14953 H 1392.04 -4.35944 -4.11962 0
M  V30 14954 H 1393.72 -4.95219 -4.16374 0
M  V30 14955 N 1393.85 0.973806 -1.23914 0
M  V30 14956 C 1395.09 1.71852 -1.07678 0
M  V30 14957 C 1395.43 1.90357 0.384425 0
M  V30 14958 O 1394.7 1.46063 1.28436 0
M  V30 14959 C 1394.99 3.1129 -1.81026 0
M  V30 14960 C 1394.84 3.00315 -3.3486 0
M  V30 14961 C 1396.16 4.10835 -1.57805 0
M  V30 14962 H 1393.28 0.623749 -0.392564 0
M  V30 14963 H 1395.92 1.13325 -1.52504 0
M  V30 14964 H 1394.07 3.61255 -1.42922 0
M  V30 14965 H 1395.74 2.57823 -3.82524 0
M  V30 14966 H 1393.98 2.36667 -3.63553 0
M  V30 14967 H 1394.65 3.9907 -3.81376 0
M  V30 14968 H 1397.13 3.69705 -1.90939 0
M  V30 14969 H 1396.01 5.06478 -2.11591 0
M  V30 14970 H 1396.27 4.39091 -0.514894 0
M  V30 14971 N 1395.33 1.05191 1.17357 0
M  V30 14972 C 1396.24 0.663617 2.25018 0
M  V30 14973 C 1397.25 -0.315299 1.71119 0
M  V30 14974 O 1398.43 -0.167398 2.00703 0
M  V30 14975 C 1395.49 0.0443307 3.46672 0
M  V30 14976 C 1394.55 1.07369 4.15656 0
M  V30 14977 C 1393.79 0.483864 5.31502 0
M  V30 14978 O 1394.01 -0.706692 5.66005 0
M  V30 14979 O 1392.94 1.21812 5.89445 0
M  V30 14980 H 1396.77 1.56088 2.60519 0
M  V30 14981 H 1394.36 0.823474 1.24657 0
M  V30 14982 H 1396.24 -0.299839 4.20332 0
M  V30 14983 H 1394.91 -0.826579 3.12969 0
M  V30 14984 H 1393.82 1.46985 3.44015 0
M  V30 14985 H 1395.15 1.91575 4.53387 0
M  V30 14986 N 1396.8 -1.33791 0.83293 0
M  V30 14987 C 1398.05 -1.97582 0.42494 0
M  V30 14988 C 1398.37 -1.66328 -1.01784 0
M  V30 14989 O 1397.64 -0.959141 -1.70814 0
M  V30 14990 H 1396.22 -0.730923 0.154143 0
M  V30 14991 H 1398.89 -1.63257 1.06458 0
M  V30 14992 H 1397.98 -3.07177 0.552127 0
M  V30 14993 N 1398.28 -0.588812 -1.46187 0
M  V30 14994 C 1399.21 0.178825 -2.28501 0
M  V30 14995 C 1400.23 0.849686 -1.38867 0
M  V30 14996 O 1401.42 0.718224 -1.63413 0
M  V30 14997 C 1398.52 1.27309 -3.14079 0
M  V30 14998 C 1397.69 0.692974 -4.31876 0
M  V30 14999 C 1396.75 1.67572 -4.98805 0
M  V30 15000 O 1395.77 1.20937 -5.56204 0
M  V30 15001 N 1396.98 3.00992 -4.96371 0
M  V30 15002 H 1399.74 -0.527407 -2.95023 0
M  V30 15003 H 1397.3 -0.426998 -1.56168 0
M  V30 15004 H 1399.29 1.92993 -3.55719 0
M  V30 15005 H 1397.86 1.88209 -2.49592 0
M  V30 15006 H 1397.08 -0.141485 -3.93946 0
M  V30 15007 H 1398.37 0.28529 -5.08 0
M  V30 15008 H 1397.77 3.41498 -4.50994 0
M  V30 15009 H 1396.33 3.62149 -5.41933 0
M  V30 15010 N 1399.76 1.54172 -0.326923 0
M  V30 15011 C 1401.01 2.00233 0.274098 0
M  V30 15012 C 1401.33 1.21665 1.5239 0
M  V30 15013 O 1400.6 0.319359 1.93279 0
M  V30 15014 H 1399.18 0.739687 0.104271 0
M  V30 15015 H 1401.84 1.8977 -0.444244 0
M  V30 15016 H 1400.94 3.07599 0.528154 0
M  V30 15017 N 1401.24 0.0551678 1.57503 0
M  V30 15018 C 1402.17 -0.947102 2.08717 0
M  V30 15019 C 1403.18 -1.2722 1.01582 0
M  V30 15020 O 1404.37 -1.23229 1.29139 0
M  V30 15021 C 1401.47 -2.26756 2.51863 0
M  V30 15022 C 1400.65 -2.12378 3.8238 0
M  V30 15023 C 1399.7 -3.27582 4.11797 0
M  V30 15024 O 1398.73 -3.03309 4.81656 0
M  V30 15025 N 1399.93 -4.5218 3.64024 0
M  V30 15026 H 1402.7 -0.509957 2.9533 0
M  V30 15027 H 1400.26 -0.130976 1.61369 0
M  V30 15028 H 1402.25 -3.02701 2.68616 0
M  V30 15029 H 1400.82 -2.62024 1.70477 0
M  V30 15030 H 1400.04 -1.21 3.7517 0
M  V30 15031 H 1401.33 -2.00003 4.67842 0
M  V30 15032 H 1400.73 -4.7479 3.07556 0
M  V30 15033 H 1399.28 -5.25206 3.86008 0
M  V30 15034 N 1402.72 -1.56081 -0.218252 0
M  V30 15035 C 1403.96 -1.78893 -0.940296 0
M  V30 15036 C 1404.29 -0.62425 -1.84738 0
M  V30 15037 O 1403.56 0.358686 -1.92588 0
M  V30 15038 H 1402.14 -0.659828 -0.350193 0
M  V30 15039 H 1404.8 -1.93546 -0.229316 0
M  V30 15040 H 1403.89 -2.71167 -1.54516 0
M  V30 15041 N 1404.2 0.485086 -1.49949 0
M  V30 15042 C 1405.16 1.56713 -1.67253 0
M  V30 15043 C 1406.16 1.51329 -0.543701 0
M  V30 15044 O 1407.35 1.54198 -0.810472 0
M  V30 15045 C 1404.48 2.9636 -1.68475 0
M  V30 15046 H 1405.67 1.42693 -2.63778 0
M  V30 15047 H 1403.23 0.710473 -1.39219 0
M  V30 15048 H 1403.96 3.1584 -0.735924 0
M  V30 15049 H 1403.75 3.01675 -2.50469 0
M  V30 15050 H 1405.24 3.74945 -1.83865 0
M  V30 15051 N 1405.67 1.39291 0.737279 0
M  V30 15052 C 1406.95 1.26901 1.48847 0
M  V30 15053 C 1407.33 -0.122417 2.10745 0
M  V30 15054 O 1406.68 -1.13343 1.98408 0
M  V30 15055 C 1406.89 2.3916 2.54172 0
M  V30 15056 C 1408.24 2.78368 3.20619 0
M  V30 15057 O 1409.26 2.38593 2.64484 0
M  V30 15058 O 1408.12 3.47014 4.22189 0
M  V30 15059 H 1405.21 0.497176 0.660867 0
M  V30 15060 H 1407.76 1.51159 0.771299 0
M  V30 15061 H 1406.53 3.3219 2.06797 0
M  V30 15062 H 1406.15 2.16555 3.33451 0
M  V30 15063 N 1407.15 -0.967221 1.24429 0
M  V30 15064 C 1408.4 -1.71279 1.08588 0
M  V30 15065 C 1408.73 -1.90558 -0.374325 0
M  V30 15066 O 1408.01 -1.46742 -1.27659 0
M  V30 15067 C 1408.29 -3.10326 1.82674 0
M  V30 15068 C 1408.14 -2.98535 3.36447 0
M  V30 15069 C 1409.46 -4.09993 1.59981 0
M  V30 15070 H 1406.58 -0.621658 0.395867 0
M  V30 15071 H 1409.22 -1.12514 1.53103 0
M  V30 15072 H 1407.37 -3.60492 1.44836 0
M  V30 15073 H 1409.04 -2.55791 3.83886 0
M  V30 15074 H 1407.29 -2.34736 3.64803 0
M  V30 15075 H 1407.96 -3.97041 3.83487 0
M  V30 15076 H 1410.43 -3.68687 1.92897 0
M  V30 15077 H 1409.31 -5.05349 2.14274 0
M  V30 15078 H 1409.57 -4.38812 0.538173 0
M  V30 15079 N 1408.63 -1.05812 -1.16797 0
M  V30 15080 C 1409.88 -0.770398 -1.8684 0
M  V30 15081 C 1410.2 0.704986 -1.8181 0
M  V30 15082 O 1409.47 1.50977 -1.24832 0
M  V30 15083 H 1408.05 -0.281989 -0.691731 0
M  V30 15084 H 1410.71 -1.33859 -1.41661 0
M  V30 15085 H 1409.81 -1.09094 -2.92412 0
M  V30 15086 N 1410.11 1.33347 -0.840014 0
M  V30 15087 C 1411.52 1.80077 -0.492851 0
M  V30 15088 C 1411.87 1.69495 0.988221 0
M  V30 15089 O 1410.99 1.2449 1.77006 0
M  V30 15090 C 1411.59 3.2696 -0.887827 0
M  V30 15091 C 1410.15 3.71703 -0.592785 0
M  V30 15092 C 1409.3 2.54742 -1.09554 0
M  V30 15093 H 1412.25 1.20853 -1.02861 0
M  V30 15094 H 1412.27 3.79983 -0.198327 0
M  V30 15095 H 1411.78 3.3463 -1.96581 0
M  V30 15096 H 1409.88 3.69559 0.475086 0
M  V30 15097 H 1409.99 4.65123 -1.14882 0
M  V30 15098 H 1408.36 2.49411 -0.516357 0
M  V30 15099 H 1409.14 2.65173 -2.18032 0
M  V30 15100 N 1411.59 0.596556 1.45873 0
M  V30 15101 C 1412.81 0.0916466 2.07197 0
M  V30 15102 C 1413.24 -1.21004 1.44012 0
M  V30 15103 O 1412.59 -1.73415 0.528844 0
M  V30 15104 C 1412.64 -0.0461457 3.6057 0
M  V30 15105 O 1411.75 -1.09919 3.97481 0
M  V30 15106 H 1411.09 0.0690655 0.660398 0
M  V30 15107 H 1413.62 0.823434 1.87299 0
M  V30 15108 H 1413.63 -0.2479 4.07246 0
M  V30 15109 H 1412.3 0.904381 4.05948 0
M  V30 15110 H 1410.88 -0.874788 3.62494 0
M  V30 15111 N 1413.06 -1.53996 0.335095 0
M  V30 15112 C 1414.03 -2.23385 -0.513015 0
M  V30 15113 C 1415.03 -1.23117 -1.03435 0
M  V30 15114 O 1416.22 -1.47616 -0.924944 0
M  V30 15115 C 1413.35 -2.94691 -1.71377 0
M  V30 15116 H 1414.54 -2.99753 0.0937306 0
M  V30 15117 H 1412.09 -1.56061 0.086326 0
M  V30 15118 H 1412.83 -2.22488 -2.35944 0
M  V30 15119 H 1412.61 -3.68228 -1.34723 0
M  V30 15120 H 1414.1 -3.47525 -2.31552 0
M  V30 15121 N 1414.54 -0.0635198 -1.57472 0
M  V30 15122 C 1415.82 0.648029 -1.84553 0
M  V30 15123 C 1416.2 1.88295 -0.954371 0
M  V30 15124 O 1415.55 2.28492 -0.0185351 0
M  V30 15125 C 1415.76 0.993573 -3.34558 0
M  V30 15126 C 1417.1 1.3706 -4.0187 0
M  V30 15127 O 1418.13 1.08555 -3.39255 0
M  V30 15128 O 1416.99 1.90309 -5.12294 0
M  V30 15129 H 1414.08 0.321047 -0.76214 0
M  V30 15130 H 1416.63 -0.0938223 -1.6944 0
M  V30 15131 H 1415.4 0.116139 -3.91128 0
M  V30 15132 H 1415.02 1.79246 -3.54904 0
M  V30 15133 N 1416.02 1.56195 0.209972 0
M  V30 15134 C 1416.93 1.96539 1.28101 0
M  V30 15135 C 1417.95 0.870858 1.50639 0
M  V30 15136 O 1419.12 1.17539 1.63544 0
M  V30 15137 C 1416.19 2.28392 2.60841 0
M  V30 15138 C 1415.25 3.51474 2.46505 0
M  V30 15139 C 1414.48 3.81798 3.72915 0
M  V30 15140 O 1414.7 3.13627 4.76439 0
M  V30 15141 O 1413.64 4.75264 3.69334 0
M  V30 15142 H 1417.46 2.87838 0.968671 0
M  V30 15143 H 1415.05 1.43556 0.413777 0
M  V30 15144 H 1416.93 2.50022 3.39215 0
M  V30 15145 H 1415.61 1.40264 2.91732 0
M  V30 15146 H 1414.51 3.35109 1.66292 0
M  V30 15147 H 1415.85 4.40021 2.2055 0
M  V30 15148 N 1417.5 -0.477127 1.50204 0
M  V30 15149 C 1418.74 -1.23147 1.6113 0
M  V30 15150 C 1419.08 -1.91743 0.307909 0
M  V30 15151 O 1418.35 -1.81841 -0.690223 0
M  V30 15152 C 1418.63 -2.27985 2.78738 0
M  V30 15153 C 1418.49 -1.63733 4.18941 0
M  V30 15154 C 1419.81 -3.29349 2.9192 0
M  V30 15155 H 1416.93 -0.446358 0.586459 0
M  V30 15156 H 1419.57 -0.52612 1.8257 0
M  V30 15157 H 1417.72 -2.88143 2.60588 0
M  V30 15158 H 1419.39 -1.07218 4.48667 0
M  V30 15159 H 1417.63 -0.940634 4.23479 0
M  V30 15160 H 1418.3 -2.39888 4.9715 0
M  V30 15161 H 1420.78 -2.79208 3.08516 0
M  V30 15162 H 1419.66 -4.0004 3.75845 0
M  V30 15163 H 1419.92 -3.93111 2.02278 0
M  V30 15164 N 1418.98 -1.3968 -0.729882 0
M  V30 15165 C 1419.92 -1.3896 -1.86528 0
M  V30 15166 C 1420.92 -0.272027 -1.67202 0
M  V30 15167 O 1422.12 -0.442328 -1.74481 0
M  V30 15168 H 1418.5 -0.434045 -0.614092 0
M  V30 15169 H 1420.47 -2.34721 -1.84252 0
M  V30 15170 C 1419.22 -1.255 -3.24261 0
M  V30 15171 H 1418.54 -2.10767 -3.39731 0
M  V30 15172 H 1419.98 -1.29054 -4.03882 0
M  V30 15173 C 1418.44 0.0361127 -3.36881 0
M  V30 15174 O 1418.97 1.0044 -3.8894 0
M  V30 15175 N 1417.18 0.100874 -2.90425 0
M  V30 15176 H 1416.72 -0.687797 -2.48248 0
M  V30 15177 H 1416.68 0.964251 -2.99248 0
M  V30 15178 N 1420.45 0.960609 -1.2494 0
M  V30 15179 C 1421.4 2.07763 -1.04581 0
M  V30 15180 C 1422.4 1.69386 0.0214505 0
M  V30 15181 O 1423.6 1.79503 -0.133683 0
M  V30 15182 H 1419.98 0.679944 -0.321216 0
M  V30 15183 H 1421.95 2.22094 -1.99291 0
M  V30 15184 C 1420.7 3.41088 -0.674876 0
M  V30 15185 H 1420.02 3.71082 -1.4879 0
M  V30 15186 H 1421.46 4.20123 -0.572079 0
M  V30 15187 C 1419.92 3.31172 0.6186 0
M  V30 15188 O 1420.45 3.65688 1.66238 0
M  V30 15189 N 1418.66 2.84297 0.601984 0
M  V30 15190 H 1418.2 2.56406 -0.24778 0
M  V30 15191 H 1418.16 2.78045 1.4676 0
M  V30 15192 N 1421.93 1.0643 1.16234 0
M  V30 15193 C 1422.88 0.670457 2.22728 0
M  V30 15194 C 1423.87 -0.31428 1.66459 0
M  V30 15195 O 1425.08 -0.178996 1.79108 0
M  V30 15196 H 1421.46 0.198692 0.725276 0
M  V30 15197 H 1423.43 1.57846 2.53233 0
M  V30 15198 C 1422.18 0.074379 3.4762 0
M  V30 15199 H 1421.5 0.823227 3.91233 0
M  V30 15200 H 1422.94 -0.163652 4.23684 0
M  V30 15201 C 1421.4 -1.18242 3.15469 0
M  V30 15202 O 1421.93 -2.27018 3.314 0
M  V30 15203 N 1420.13 -1.08493 2.69588 0
M  V30 15204 H 1419.68 -0.199714 2.56825 0
M  V30 15205 H 1419.64 -1.92666 2.48449 0
M  V30 15206 N 1423.41 -1.329 0.847073 0
M  V30 15207 C 1424.64 -2.0171 0.460497 0
M  V30 15208 C 1425.05 -1.63699 -0.940649 0
M  V30 15209 O 1424.41 -0.854454 -1.61262 0
M  V30 15210 C 1424.46 -3.56799 0.581108 0
M  V30 15211 O 1424.18 -3.93442 1.92705 0
M  V30 15212 C 1425.68 -4.42882 0.192552 0
M  V30 15213 H 1422.9 -0.645887 0.181853 0
M  V30 15214 H 1425.45 -1.69648 1.14192 0
M  V30 15215 H 1423.6 -3.87364 -0.0524924 0
M  V30 15216 H 1424.02 -4.88157 1.91841 0
M  V30 15217 H 1425.49 -5.51025 0.327969 0
M  V30 15218 H 1425.97 -4.30571 -0.866315 0
M  V30 15219 H 1426.57 -4.17691 0.800918 0
M  V30 15220 N 1424.89 -0.604284 -1.45555 0
M  V30 15221 C 1426.13 -0.101149 -2.0415 0
M  V30 15222 C 1426.49 1.24348 -1.46292 0
M  V30 15223 O 1427.69 1.83714 -1.9622 0
M  V30 15224 C 1425.96 -0.0589898 -3.57351 0
M  V30 15225 S 1427.52 0.383434 -4.37122 0
M  V30 15226 H 1424.34 -0.0479603 -0.709381 0
M  V30 15227 H 1426.94 -0.801643 -1.78309 0
M  V30 15228 H 1425.65 -1.04119 -3.96973 0
M  V30 15229 H 1425.18 0.663601 -3.87763 0
M  V30 15230 H 1427.19 1.63367 -4.68536 0
M  V30 15231 N 1426.37 1.53816 -0.343257 0
M  V30 15232 C 1427.59 2.05796 0.257418 0
M  V30 15233 C 1428.02 1.2166 1.43459 0
M  V30 15234 O 1427.37 0.230278 1.79832 0
M  V30 15235 C 1427.42 3.54681 0.65068 0
M  V30 15236 O 1426.53 3.73394 1.75074 0
M  V30 15237 H 1425.87 0.662622 0.042757 0
M  V30 15238 H 1428.4 1.98462 -0.497386 0
M  V30 15239 H 1428.41 3.97308 0.927914 0
M  V30 15240 H 1427.08 4.15368 -0.210199 0
M  V30 15241 H 1425.66 3.42669 1.4708 0
M  V30 15242 N 1427.84 0.0718701 1.57436 0
M  V30 15243 C 1428.81 -0.880671 2.11605 0
M  V30 15244 C 1429.81 -1.22632 1.0401 0
M  V30 15245 O 1431 -1.15958 1.29997 0
M  V30 15246 C 1428.13 -2.18407 2.61746 0
M  V30 15247 H 1429.32 -0.410712 2.97074 0
M  V30 15248 H 1426.88 -0.176836 1.55296 0
M  V30 15249 H 1427.61 -2.6994 1.79731 0
M  V30 15250 H 1427.4 -1.94616 3.40392 0
M  V30 15251 H 1428.89 -2.86596 3.03731 0
M  V30 15252 N 1429.32 -1.56304 -0.201686 0
M  V30 15253 C 1430.57 -1.80504 -0.92446 0
M  V30 15254 C 1430.9 -0.644832 -1.83182 0
M  V30 15255 O 1430.18 0.354963 -1.91234 0
M  V30 15256 C 1430.46 -3.14919 -1.74636 0
M  V30 15257 C 1430.31 -4.41421 -0.864169 0
M  V30 15258 C 1431.63 -3.45962 -2.72026 0
M  V30 15259 H 1428.75 -0.656643 -0.334648 0
M  V30 15260 H 1431.39 -1.89025 -0.192188 0
M  V30 15261 H 1429.54 -3.07785 -2.37066 0
M  V30 15262 H 1431.21 -4.60594 -0.255084 0
M  V30 15263 H 1429.46 -4.33465 -0.170548 0
M  V30 15264 H 1430.13 -5.31954 -1.47409 0
M  V30 15265 H 1432.6 -3.53353 -2.1973 0
M  V30 15266 H 1431.48 -4.41146 -3.26622 0
M  V30 15267 H 1431.74 -2.69124 -3.50749 0
M  V30 15268 N 1430.8 0.469154 -1.50455 0
M  V30 15269 C 1432.21 1.04997 -1.54378 0
M  V30 15270 C 1432.56 1.93082 -0.348414 0
M  V30 15271 O 1431.69 2.09594 0.538469 0
M  V30 15272 C 1432.28 1.91096 -2.79764 0
M  V30 15273 C 1430.84 2.44283 -2.86361 0
M  V30 15274 C 1429.99 1.22676 -2.48688 0
M  V30 15275 H 1432.94 0.251692 -1.56691 0
M  V30 15276 H 1432.96 2.76186 -2.61728 0
M  V30 15277 H 1432.47 1.26961 -3.66746 0
M  V30 15278 H 1430.57 3.11966 -2.03735 0
M  V30 15279 H 1430.69 2.79258 -3.89297 0
M  V30 15280 H 1429.05 1.56215 -2.01169 0
M  V30 15281 H 1429.83 0.602002 -3.37981 0
M  V30 15282 N 1432.28 1.40065 0.722464 0
M  V30 15283 C 1433.69 1.33876 1.30131 0
M  V30 15284 C 1434.04 0.00899369 1.96198 0
M  V30 15285 O 1433.17 -0.893082 1.97112 0
M  V30 15286 C 1433.76 2.42469 2.36631 0
M  V30 15287 C 1432.32 2.39762 2.90157 0
M  V30 15288 C 1431.47 2.23704 1.63865 0
M  V30 15289 H 1434.42 1.49971 0.519077 0
M  V30 15290 H 1434.44 2.0998 3.17315 0
M  V30 15291 H 1433.95 3.39239 1.88517 0
M  V30 15292 H 1432.05 1.46669 3.42519 0
M  V30 15293 H 1432.16 3.35092 3.42419 0
M  V30 15294 H 1430.53 1.71098 1.88674 0
M  V30 15295 H 1431.31 3.22462 1.17785 0
M  V30 15296 N 1433.76 -0.95397 1.25448 0
M  V30 15297 C 1434.67 -2.08452 1.07634 0
M  V30 15298 C 1435.68 -1.73995 0.013294 0
M  V30 15299 O 1436.86 -2.00256 0.214367 0
M  V30 15300 C 1433.92 -3.39606 0.697756 0
M  V30 15301 C 1432.99 -3.87926 1.83881 0
M  V30 15302 C 1432.22 -5.12821 1.47819 0
M  V30 15303 O 1432.44 -5.69172 0.374143 0
M  V30 15304 O 1431.38 -5.55866 2.3086 0
M  V30 15305 H 1435.2 -2.26382 2.02447 0
M  V30 15306 H 1432.79 -1.06877 1.04392 0
M  V30 15307 H 1434.67 -4.18438 0.498778 0
M  V30 15308 H 1433.34 -3.22944 -0.221108 0
M  V30 15309 H 1432.25 -3.10095 2.09265 0
M  V30 15310 H 1433.58 -4.09087 2.73694 0
M  V30 15311 N 1435.24 -1.07045 -1.15668 0
M  V30 15312 C 1436.48 -0.790172 -1.86013 0
M  V30 15313 C 1436.8 0.685663 -1.82548 0
M  V30 15314 O 1436.07 1.49644 -1.26426 0
M  V30 15315 H 1434.65 -0.28931 -0.688701 0
M  V30 15316 H 1437.32 -1.35354 -1.40233 0
M  V30 15317 H 1436.41 -1.1219 -2.91239 0
M  V30 15318 N 1436.71 1.32449 -0.85411 0
M  V30 15319 C 1437.64 2.31383 -0.313697 0
M  V30 15320 C 1438.62 1.59656 0.586858 0
M  V30 15321 O 1439.81 1.87459 0.507216 0
M  V30 15322 C 1436.94 3.43693 0.499235 0
M  V30 15323 C 1435.89 4.26899 -0.306839 0
M  V30 15324 C 1435.22 5.30966 0.630795 0
M  V30 15325 C 1436.52 4.99318 -1.53229 0
M  V30 15326 H 1438.21 2.76832 -1.14037 0
M  V30 15327 H 1435.76 1.33091 -0.549805 0
M  V30 15328 H 1437.71 4.11944 0.887709 0
M  V30 15329 H 1436.44 2.96971 1.35926 0
M  V30 15330 H 1435.1 3.60294 -0.677061 0
M  V30 15331 H 1434.74 4.80498 1.48765 0
M  V30 15332 H 1434.44 5.87522 0.0954635 0
M  V30 15333 H 1435.97 6.0208 1.01646 0
M  V30 15334 H 1437.38 5.60253 -1.21614 0
M  V30 15335 H 1435.78 5.65596 -2.00552 0
M  V30 15336 H 1436.85 4.27213 -2.29383 0
M  V30 15337 N 1438.19 0.611994 1.45232 0
M  V30 15338 C 1439.12 -0.0914869 2.33321 0
M  V30 15339 C 1440.1 -0.854315 1.4709 0
M  V30 15340 O 1441.29 -0.823994 1.75852 0
M  V30 15341 C 1438.42 -1.08652 3.29867 0
M  V30 15342 C 1437.37 -0.436615 4.25767 0
M  V30 15343 C 1436.7 -1.54021 5.12037 0
M  V30 15344 C 1438 0.645005 5.18302 0
M  V30 15345 H 1439.69 0.644053 2.92391 0
M  V30 15346 H 1437.24 0.311171 1.40598 0
M  V30 15347 H 1439.19 -1.58726 3.90364 0
M  V30 15348 H 1437.91 -1.85271 2.68965 0
M  V30 15349 H 1436.57 0.0432918 3.66574 0
M  V30 15350 H 1436.22 -2.29679 4.475 0
M  V30 15351 H 1435.92 -1.11084 5.77005 0
M  V30 15352 H 1437.45 -2.04313 5.75403 0
M  V30 15353 H 1438.86 0.228166 5.72846 0
M  V30 15354 H 1437.26 0.996387 5.9177 0
M  V30 15355 H 1438.33 1.51985 4.60466 0
M  V30 15356 N 1439.67 -1.53632 0.351409 0
M  V30 15357 C 1440.6 -2.28217 -0.49391 0
M  V30 15358 C 1441.58 -1.30085 -1.09599 0
M  V30 15359 O 1442.77 -1.58938 -1.1159 0
M  V30 15360 C 1439.9 -3.06085 -1.64102 0
M  V30 15361 C 1438.85 -4.11786 -1.16689 0
M  V30 15362 C 1438.18 -4.77654 -2.40314 0
M  V30 15363 C 1439.48 -5.21644 -0.261742 0
M  V30 15364 H 1441.17 -2.99125 0.1283 0
M  V30 15365 H 1438.72 -1.43861 0.0631462 0
M  V30 15366 H 1440.67 -3.57003 -2.2389 0
M  V30 15367 H 1439.39 -2.32842 -2.29025 0
M  V30 15368 H 1438.05 -3.61792 -0.591784 0
M  V30 15369 H 1437.7 -4.00997 -3.03661 0
M  V30 15370 H 1437.4 -5.49072 -2.09268 0
M  V30 15371 H 1438.92 -5.3136 -3.00813 0
M  V30 15372 H 1440.34 -5.6815 -0.766689 0
M  V30 15373 H 1438.73 -6.00085 -0.0428132 0
M  V30 15374 H 1439.8 -4.79821 0.699999 0
M  V30 15375 N 1441.15 -0.0802183 -1.57396 0
M  V30 15376 C 1442.42 0.628419 -1.8523 0
M  V30 15377 C 1442.8 1.87272 -0.974288 0
M  V30 15378 O 1442.15 2.2846 -0.0427687 0
M  V30 15379 C 1442.36 0.958033 -3.35593 0
M  V30 15380 C 1443.71 1.3279 -4.03301 0
M  V30 15381 O 1444.73 1.04951 -3.40388 0
M  V30 15382 O 1443.59 1.84865 -5.14283 0
M  V30 15383 H 1440.69 0.312945 -0.765503 0
M  V30 15384 H 1443.23 -0.111788 -1.69331 0
M  V30 15385 H 1442.01 0.074648 -3.91229 0
M  V30 15386 H 1441.63 1.75472 -3.56785 0
M  V30 15387 N 1442.63 1.56409 0.193394 0
M  V30 15388 C 1443.85 1.8519 0.933775 0
M  V30 15389 C 1444.28 0.663991 1.75991 0
M  V30 15390 O 1443.63 -0.387198 1.77117 0
M  V30 15391 C 1443.68 3.12212 1.80432 0
M  V30 15392 O 1442.79 2.92884 2.90332 0
M  V30 15393 H 1442.13 0.609754 0.262862 0
M  V30 15394 H 1444.66 2.03638 0.198195 0
M  V30 15395 H 1444.67 3.4305 2.20864 0
M  V30 15396 H 1443.34 3.98292 1.19733 0
M  V30 15397 H 1441.92 2.73349 2.53643 0
M  V30 15398 N 1444.1 -0.461169 1.50702 0
M  V30 15399 C 1445.33 -1.24019 1.66235 0
M  V30 15400 C 1445.75 -1.84827 0.349388 0
M  V30 15401 O 1445.11 -1.67743 -0.687888 0
M  V30 15402 C 1445.16 -2.31743 2.76274 0
M  V30 15403 O 1444.26 -3.3664 2.38217 0
M  V30 15404 H 1443.6 -0.364424 0.55506 0
M  V30 15405 H 1446.13 -0.547636 1.97135 0
M  V30 15406 H 1446.14 -2.76902 2.99649 0
M  V30 15407 H 1444.82 -1.86858 3.7156 0
M  V30 15408 H 1443.4 -2.97123 2.25327 0
M  V30 15409 N 1445.58 -1.40446 -0.715026 0
M  V30 15410 C 1446.49 -1.43074 -1.85922 0
M  V30 15411 C 1447.51 -0.323294 -1.7097 0
M  V30 15412 O 1448.68 -0.567966 -1.93226 0
M  V30 15413 C 1445.75 -1.29206 -3.21725 0
M  V30 15414 C 1444.81 -2.50097 -3.48927 0
M  V30 15415 C 1444.04 -2.36881 -4.7825 0
M  V30 15416 O 1444.27 -1.38292 -5.53382 0
M  V30 15417 O 1443.2 -3.26266 -5.058 0
M  V30 15418 H 1447.03 -2.39565 -1.86661 0
M  V30 15419 H 1444.61 -1.21775 -0.865522 0
M  V30 15420 H 1446.49 -1.23681 -4.02841 0
M  V30 15421 H 1445.17 -0.358207 -3.21712 0
M  V30 15422 H 1444.07 -2.61199 -2.67817 0
M  V30 15423 H 1445.41 -3.42244 -3.53737 0
M  V30 15424 N 1447.06 0.947303 -1.25952 0
M  V30 15425 C 1448.01 2.04511 -1.06976 0
M  V30 15426 C 1448.98 1.66084 0.023347 0
M  V30 15427 O 1450.16 1.9032 -0.135247 0
M  V30 15428 C 1447.3 3.37878 -0.70232 0
M  V30 15429 C 1446.41 3.89379 -1.87105 0
M  V30 15430 C 1445.55 5.11104 -1.44728 0
M  V30 15431 C 1444.59 5.54852 -2.58469 0
M  V30 15432 N 1443.73 6.67784 -2.16817 0
M  V30 15433 H 1448.57 2.20075 -2.00925 0
M  V30 15434 H 1446.1 1.07837 -1.00048 0
M  V30 15435 H 1448.06 4.14542 -0.470199 0
M  V30 15436 H 1446.69 3.22179 0.20019 0
M  V30 15437 H 1445.74 3.09169 -2.21627 0
M  V30 15438 H 1447.05 4.17789 -2.72496 0
M  V30 15439 H 1446.21 5.95208 -1.17525 0
M  V30 15440 H 1444.95 4.84426 -0.564191 0
M  V30 15441 H 1443.95 4.69308 -2.86409 0
M  V30 15442 H 1445.18 5.83534 -3.47368 0
M  V30 15443 H 1443.12 6.428 -1.30934 0
M  V30 15444 H 1443.04 6.95749 -2.95753 0
M  V30 15445 H 1444.31 7.55278 -1.92809 0
M  V30 15446 N 1448.54 1.07657 1.15099 0
M  V30 15447 C 1449.5 0.703558 2.18135 0
M  V30 15448 C 1450.5 -0.257771 1.5872 0
M  V30 15449 O 1451.69 -0.0383211 1.74158 0
M  V30 15450 C 1448.82 0.0374978 3.40879 0
M  V30 15451 H 1450.02 1.61583 2.52648 0
M  V30 15452 H 1447.57 0.873484 1.29615 0
M  V30 15453 H 1448.3 -0.886868 3.11938 0
M  V30 15454 H 1448.09 0.728961 3.85264 0
M  V30 15455 H 1449.58 -0.208714 4.17078 0
M  V30 15456 N 1450.02 -1.31994 0.861122 0
M  V30 15457 C 1450.98 -2.27019 0.315421 0
M  V30 15458 C 1451.98 -1.51864 -0.528575 0
M  V30 15459 O 1453.17 -1.70867 -0.339154 0
M  V30 15460 C 1450.3 -3.36384 -0.553021 0
M  V30 15461 H 1451.49 -2.768 1.1542 0
M  V30 15462 H 1449.05 -1.42776 0.635982 0
M  V30 15463 H 1449.78 -2.91882 -1.41335 0
M  V30 15464 H 1449.57 -3.92067 0.0511919 0
M  V30 15465 H 1451.06 -4.07172 -0.927392 0
M  V30 15466 N 1451.49 -0.619688 -1.44906 0
M  V30 15467 C 1452.42 0.0791121 -2.33366 0
M  V30 15468 C 1453.41 0.846503 -1.47541 0
M  V30 15469 O 1454.59 0.814657 -1.76287 0
M  V30 15470 C 1451.72 1.06901 -3.30438 0
M  V30 15471 C 1450.67 0.41403 -4.25993 0
M  V30 15472 C 1450 1.51303 -5.12846 0
M  V30 15473 C 1451.3 -0.672483 -5.17953 0
M  V30 15474 H 1452.99 -0.659551 -2.92045 0
M  V30 15475 H 1450.54 -0.318623 -1.40431 0
M  V30 15476 H 1452.49 1.56653 -3.912 0
M  V30 15477 H 1451.22 1.83842 -2.69944 0
M  V30 15478 H 1449.88 -0.0627315 -3.66546 0
M  V30 15479 H 1449.52 2.27303 -4.48712 0
M  V30 15480 H 1449.22 1.08022 -5.77586 0
M  V30 15481 H 1450.75 2.01258 -5.76479 0
M  V30 15482 H 1452.16 -0.258542 -5.72717 0
M  V30 15483 H 1450.56 -1.02776 -5.91234 0
M  V30 15484 H 1451.63 -1.54425 -4.59653 0
M  V30 15485 N 1452.97 1.53444 -0.359552 0
M  V30 15486 C 1454.25 1.93467 0.288106 0
M  V30 15487 C 1454.63 1.29256 1.66901 0
M  V30 15488 O 1453.98 0.449402 2.24037 0
M  V30 15489 C 1454.19 3.47297 0.344359 0
M  V30 15490 C 1455.54 4.20515 0.587585 0
M  V30 15491 O 1456.56 3.53646 0.425818 0
M  V30 15492 O 1455.42 5.39003 0.902119 0
M  V30 15493 H 1452.51 0.809033 0.171451 0
M  V30 15494 H 1455.06 1.64625 -0.411896 0
M  V30 15495 H 1453.83 3.86292 -0.624064 0
M  V30 15496 H 1453.45 3.82353 1.0905 0
M  V30 15497 N 1454.45 0.0885642 1.57351 0
M  V30 15498 C 1455.7 -0.575536 1.93732 0
M  V30 15499 C 1456.02 -1.69126 0.970644 0
M  V30 15500 O 1455.29 -1.95888 0.0215907 0
M  V30 15501 H 1453.87 -0.215592 0.715213 0
M  V30 15502 H 1456.53 0.150362 1.94319 0
M  V30 15503 H 1455.63 -0.989979 2.95983 0
M  V30 15504 N 1455.93 -1.56509 -0.185096 0
M  V30 15505 C 1457.34 -1.71024 -0.748856 0
M  V30 15506 C 1457.69 -0.69681 -1.83409 0
M  V30 15507 O 1456.82 0.144711 -2.15916 0
M  V30 15508 C 1457.41 -3.1008 -1.36513 0
M  V30 15509 C 1455.97 -3.26325 -1.87587 0
M  V30 15510 C 1455.12 -2.66977 -0.749579 0
M  V30 15511 H 1458.07 -1.58649 0.0401175 0
M  V30 15512 H 1458.09 -3.07965 -2.23468 0
M  V30 15513 H 1457.6 -3.83816 -0.575051 0
M  V30 15514 H 1455.7 -2.57522 -2.69283 0
M  V30 15515 H 1455.81 -4.33931 -2.03078 0
M  V30 15516 H 1454.18 -2.26419 -1.16647 0
M  V30 15517 H 1454.96 -3.43288 0.0284301 0
M  V30 15518 N 1457.41 0.45317 -1.50944 0
M  V30 15519 C 1458.34 1.55655 -1.74051 0
M  V30 15520 C 1459.32 1.59545 -0.58987 0
M  V30 15521 O 1460.5 1.75526 -0.830922 0
M  V30 15522 C 1457.63 2.93857 -1.85109 0
M  V30 15523 C 1456.59 3.04832 -3.00435 0
M  V30 15524 C 1455.91 4.44858 -2.96657 0
M  V30 15525 C 1457.21 2.80381 -4.40663 0
M  V30 15526 H 1458.91 1.36571 -2.66437 0
M  V30 15527 H 1456.45 0.655572 -1.28212 0
M  V30 15528 H 1458.41 3.70992 -1.99857 0
M  V30 15529 H 1457.13 3.14138 -0.893579 0
M  V30 15530 H 1455.79 2.30134 -2.85366 0
M  V30 15531 H 1455.44 4.62083 -1.98716 0
M  V30 15532 H 1455.14 4.53134 -3.7409 0
M  V30 15533 H 1456.66 5.23989 -3.13478 0
M  V30 15534 H 1458.07 3.47255 -4.56165 0
M  V30 15535 H 1456.47 3.00083 -5.19683 0
M  V30 15536 H 1457.54 1.76099 -4.51793 0
M  V30 15537 N 1458.88 1.40823 0.707568 0
M  V30 15538 C 1460.16 1.3003 1.46122 0
M  V30 15539 C 1460.54 -0.0776873 2.10957 0
M  V30 15540 O 1459.89 -1.09109 2.00767 0
M  V30 15541 C 1460.1 2.44498 2.49042 0
M  V30 15542 C 1461.45 2.85106 3.14642 0
M  V30 15543 O 1462.47 2.44149 2.59364 0
M  V30 15544 O 1461.33 3.55892 4.14733 0
M  V30 15545 H 1458.42 0.511082 0.650172 0
M  V30 15546 H 1460.97 1.52761 0.739062 0
M  V30 15547 H 1459.74 3.36502 1.99705 0
M  V30 15548 H 1459.37 2.23579 3.28783 0
M  V30 15549 N 1460.36 -0.94061 1.26453 0
M  V30 15550 C 1461.33 -2.02096 1.0812 0
M  V30 15551 C 1462.33 -1.60773 0.0293393 0
M  V30 15552 O 1463.52 -1.72051 0.272796 0
M  V30 15553 C 1460.65 -3.34749 0.644646 0
M  V30 15554 H 1461.84 -2.19792 2.04038 0
M  V30 15555 H 1459.39 -1.11965 1.09058 0
M  V30 15556 H 1460.13 -3.22752 -0.316509 0
M  V30 15557 H 1459.91 -3.66095 1.40416 0
M  V30 15558 H 1461.4 -4.14117 0.538233 0
M  V30 15559 N 1461.84 -1.08266 -1.14527 0
M  V30 15560 C 1462.8 -0.715117 -2.17758 0
M  V30 15561 C 1463.8 0.24935 -1.58855 0
M  V30 15562 O 1464.99 0.0290846 -1.74176 0
M  V30 15563 C 1462.13 -0.055575 -3.40855 0
M  V30 15564 H 1463.32 -1.62921 -2.51787 0
M  V30 15565 H 1460.87 -0.880346 -1.2915 0
M  V30 15566 H 1461.61 0.870312 -3.12404 0
M  V30 15567 H 1461.39 -0.749382 -3.84872 0
M  V30 15568 H 1462.88 0.186592 -4.17183 0
M  V30 15569 N 1463.32 1.31536 -0.86811 0
M  V30 15570 C 1464.25 2.31037 -0.33822 0
M  V30 15571 C 1465.23 1.60269 0.569892 0
M  V30 15572 O 1466.42 1.87987 0.487305 0
M  V30 15573 C 1463.55 3.44203 0.462753 0
M  V30 15574 C 1462.5 4.26549 -0.3521 0
M  V30 15575 C 1461.83 5.31605 0.574443 0
M  V30 15576 C 1463.13 4.97665 -1.58516 0
M  V30 15577 H 1464.82 2.75607 -1.16967 0
M  V30 15578 H 1462.37 1.325 -0.56389 0
M  V30 15579 H 1464.32 4.12862 0.843967 0
M  V30 15580 H 1463.04 2.98396 1.32769 0
M  V30 15581 H 1461.7 3.59555 -0.715237 0
M  V30 15582 H 1461.35 4.82048 1.43661 0
M  V30 15583 H 1461.05 5.87591 0.0331436 0
M  V30 15584 H 1462.57 6.03124 0.952541 0
M  V30 15585 H 1463.99 5.58931 -1.27549 0
M  V30 15586 H 1462.38 5.63437 -2.06539 0
M  V30 15587 H 1463.45 4.24756 -2.33902 0
M  V30 15588 N 1464.8 0.627364 1.44575 0
M  V30 15589 C 1466.07 0.0614392 1.95503 0
M  V30 15590 C 1466.45 -1.41182 1.56942 0
M  V30 15591 O 1465.8 -2.12435 0.841634 0
M  V30 15592 C 1466.01 0.280349 3.47872 0
M  V30 15593 C 1467.36 0.171559 4.24253 0
M  V30 15594 O 1468.38 0.211515 3.55571 0
M  V30 15595 O 1467.24 0.0733152 5.46451 0
M  V30 15596 H 1464.34 -0.0244626 0.826638 0
M  V30 15597 H 1466.88 0.698805 1.54644 0
M  V30 15598 H 1465.66 1.30278 3.68976 0
M  V30 15599 H 1465.28 -0.391336 3.95669 0
M  V30 15600 N 1466.28 -1.53251 0.367684 0
M  V30 15601 C 1467.23 -2.22578 -0.494287 0
M  V30 15602 C 1468.21 -1.22175 -1.047 0
M  V30 15603 O 1469.4 -1.47613 -0.976696 0
M  V30 15604 C 1466.53 -3.02007 -1.63238 0
M  V30 15605 C 1465.62 -4.09788 -1.09244 0
M  V30 15606 N 1466.01 -5.05048 -0.275665 0
M  V30 15607 C 1464.31 -4.24532 -1.36705 0
M  V30 15608 C 1465.01 -5.81696 0.0201973 0
M  V30 15609 N 1463.98 -5.40518 -0.577991 0
M  V30 15610 H 1467.78 -2.93583 0.136532 0
M  V30 15611 H 1465.3 -1.61446 0.175813 0
M  V30 15612 H 1467.3 -3.50193 -2.26209 0
M  V30 15613 H 1465.96 -2.32533 -2.26624 0
M  V30 15614 H 1466.97 -5.1783 0.0853053 0
M  V30 15615 H 1463.64 -3.66285 -2.00354 0
M  V30 15616 H 1465.03 -6.68444 0.680622 0
M  V30 15617 N 1467.75 -0.0969077 -1.57302 0
M  V30 15618 C 1468.68 0.858443 -2.17147 0
M  V30 15619 C 1469.66 1.29294 -1.10531 0
M  V30 15620 O 1470.85 1.3595 -1.38676 0
M  V30 15621 C 1467.98 2.11691 -2.75326 0
M  V30 15622 C 1466.93 1.82097 -3.8733 0
M  V30 15623 C 1466.26 3.14787 -4.32219 0
M  V30 15624 C 1467.56 1.10651 -5.10444 0
M  V30 15625 H 1469.25 0.35982 -2.9723 0
M  V30 15626 H 1466.8 0.17163 -1.42974 0
M  V30 15627 H 1468.75 2.78963 -3.15844 0
M  V30 15628 H 1467.48 2.63839 -1.925 0
M  V30 15629 H 1466.14 1.17222 -3.47354 0
M  V30 15630 H 1465.78 3.64826 -3.46281 0
M  V30 15631 H 1465.48 2.95769 -5.07735 0
M  V30 15632 H 1467.01 3.83215 -4.75372 0
M  V30 15633 H 1468.42 1.68036 -5.48121 0
M  V30 15634 H 1466.82 1.01805 -5.91401 0
M  V30 15635 H 1467.89 0.0895634 -4.84817 0
M  V30 15636 N 1469.23 1.56605 0.176793 0
M  V30 15637 C 1470.65 1.50601 0.528354 0
M  V30 15638 C 1470.85 0.800205 1.8493 0
M  V30 15639 O 1469.9 0.358299 2.49945 0
M  V30 15640 C 1471.22 2.95322 0.566172 0
M  V30 15641 C 1472.76 3.06097 0.653751 0
M  V30 15642 C 1473.24 4.52265 0.722511 0
M  V30 15643 N 1474.73 4.5649 0.785548 0
M  V30 15644 C 1475.47 5.66926 0.859232 0
M  V30 15645 N 1474.96 6.87006 0.894088 0
M  V30 15646 N 1476.75 5.54883 0.897832 0
M  V30 15647 H 1468.91 2.00899 -0.689442 0
M  V30 15648 H 1471.17 0.915011 -0.24791 0
M  V30 15649 H 1470.87 3.50095 -0.33566 0
M  V30 15650 H 1470.75 3.49671 1.41456 0
M  V30 15651 H 1473.14 2.51361 1.54601 0
M  V30 15652 H 1473.22 2.54842 -0.221207 0
M  V30 15653 H 1472.86 5.0763 -0.165469 0
M  V30 15654 H 1472.79 5.01271 1.61353 0
M  V30 15655 H 1475.28 3.70032 0.767117 0
M  V30 15656 H 1475.59 7.66922 0.951333 0
M  V30 15657 H 1473.94 6.89628 0.862457 0
M  V30 15658 H 1477.13 4.5999 0.867564 0
M  V30 15659 H 1477.3 6.40972 0.951795 0
M  V30 15660 N 1470.71 -0.445159 1.51182 0
M  V30 15661 C 1471.64 -1.5473 1.74874 0
M  V30 15662 C 1472.62 -1.5923 0.598323 0
M  V30 15663 O 1473.81 -1.75083 0.840219 0
M  V30 15664 C 1470.94 -2.92872 1.86664 0
M  V30 15665 C 1469.89 -3.03235 3.02048 0
M  V30 15666 C 1469.22 -4.43279 2.99012 0
M  V30 15667 C 1470.52 -2.7804 4.42144 0
M  V30 15668 H 1472.21 -1.35156 2.67158 0
M  V30 15669 H 1469.76 -0.648763 1.28558 0
M  V30 15670 H 1471.71 -3.69927 2.01822 0
M  V30 15671 H 1470.43 -3.1366 0.910225 0
M  V30 15672 H 1469.09 -2.28617 2.86583 0
M  V30 15673 H 1468.74 -4.61023 2.01163 0
M  V30 15674 H 1468.44 -4.51144 3.76488 0
M  V30 15675 H 1469.96 -5.22319 3.16252 0
M  V30 15676 H 1471.38 -3.44831 4.58 0
M  V30 15677 H 1469.77 -2.97323 5.21267 0
M  V30 15678 H 1470.84 -1.737 4.52721 0
M  V30 15679 N 1472.19 -1.41197 -0.700089 0
M  V30 15680 C 1473.44 -1.40034 -1.45722 0
M  V30 15681 C 1473.76 -0.00876281 -1.94998 0
M  V30 15682 O 1473.03 0.948647 -1.71399 0
M  V30 15683 H 1471.61 -0.515433 -0.540683 0
M  V30 15684 H 1474.27 -1.76394 -0.828926 0
M  V30 15685 H 1473.36 -2.08477 -2.32258 0
M  V30 15686 N 1473.67 0.933891 -1.2695 0
M  V30 15687 C 1474.61 2.05498 -1.08964 0
M  V30 15688 C 1475.61 1.69394 -0.0144837 0
M  V30 15689 O 1476.81 1.79179 -0.171729 0
M  V30 15690 H 1473.19 0.672978 -0.335566 0
M  V30 15691 H 1475.16 2.17817 -2.03957 0
M  V30 15692 C 1473.91 3.39579 -0.747074 0
M  V30 15693 H 1473.23 3.67842 -1.56628 0
M  V30 15694 H 1474.67 4.18815 -0.661064 0
M  V30 15695 C 1473.13 3.3241 0.548214 0
M  V30 15696 O 1473.66 3.69132 1.58443 0
M  V30 15697 N 1471.87 2.85509 0.541545 0
M  V30 15698 H 1471.41 2.55822 -0.302112 0
M  V30 15699 H 1471.37 2.81095 1.4083 0
M  V30 15700 N 1475.14 1.08871 1.13951 0
M  V30 15701 C 1476.37 0.842913 1.88951 0
M  V30 15702 C 1476.79 -0.605348 1.78832 0
M  V30 15703 O 1476.14 -1.41631 1.15095 0
M  V30 15704 C 1476.19 1.26198 3.38757 0
M  V30 15705 O 1475.92 2.65344 3.48603 0
M  V30 15706 C 1477.42 1.04773 4.30741 0
M  V30 15707 H 1474.64 0.303651 0.598362 0
M  V30 15708 H 1477.18 1.44922 1.44284 0
M  V30 15709 H 1475.34 0.699682 3.81029 0
M  V30 15710 H 1475.75 2.82863 4.41688 0
M  V30 15711 H 1477.22 1.39029 5.34205 0
M  V30 15712 H 1477.7 -0.0149046 4.39197 0
M  V30 15713 H 1478.31 1.5957 3.9423 0
M  V30 15714 N 1476.62 -1.31073 0.875073 0
M  V30 15715 C 1477.87 -1.96518 0.488549 0
M  V30 15716 C 1478.2 -1.69144 -0.960243 0
M  V30 15717 O 1477.45 -0.983344 -1.69201 0
M  V30 15718 C 1477.75 -3.50511 0.698351 0
M  V30 15719 C 1477.42 -3.97915 2.12071 0
M  V30 15720 C 1476.08 -4.10571 2.50968 0
M  V30 15721 C 1478.43 -4.22777 3.0481 0
M  V30 15722 C 1475.76 -4.45442 3.81836 0
M  V30 15723 C 1478.11 -4.59114 4.35198 0
M  V30 15724 C 1476.77 -4.69977 4.74002 0
M  V30 15725 H 1476.04 -0.719111 0.178773 0
M  V30 15726 H 1478.69 -1.56117 1.10904 0
M  V30 15727 H 1477 -3.918 -0.00523937 0
M  V30 15728 H 1478.69 -3.99205 0.379031 0
M  V30 15729 H 1475.28 -3.88565 1.80874 0
M  V30 15730 H 1479.47 -4.12489 2.75983 0
M  V30 15731 H 1474.72 -4.52051 4.11655 0
M  V30 15732 H 1478.9 -4.77303 5.07105 0
M  V30 15733 H 1476.52 -4.96753 5.75448 0
M  V30 15734 N 1478.1 -0.635022 -1.4424 0
M  V30 15735 C 1479.33 -0.14826 -2.06368 0
M  V30 15736 C 1479.74 1.17875 -1.47482 0
M  V30 15737 O 1479.1 1.72384 -0.599168 0
M  V30 15738 C 1479.15 -0.031519 -3.61486 0
M  V30 15739 O 1478.87 -1.30605 -4.18179 0
M  V30 15740 C 1480.37 0.483479 -4.40656 0
M  V30 15741 H 1477.59 -0.081472 -0.666036 0
M  V30 15742 H 1480.14 -0.870526 -1.85046 0
M  V30 15743 H 1478.29 0.641208 -3.82057 0
M  V30 15744 H 1478.71 -1.15341 -5.11661 0
M  V30 15745 H 1480.18 0.514164 -5.496 0
M  V30 15746 H 1480.66 1.51129 -4.12379 0
M  V30 15747 H 1481.26 -0.156131 -4.25013 0
M  V30 15748 N 1479.58 1.53054 -0.375806 0
M  V30 15749 C 1480.83 2.01401 0.210673 0
M  V30 15750 C 1481.15 1.26275 1.47935 0
M  V30 15751 O 1480.41 0.347611 1.92588 0
M  V30 15752 C 1480.71 3.53321 0.538419 0
M  V30 15753 C 1480.37 4.46376 -0.637126 0
M  V30 15754 C 1479.04 4.71534 -0.959653 0
M  V30 15755 C 1481.39 5.01364 -1.42421 0
M  V30 15756 C 1478.72 5.4893 -2.07105 0
M  V30 15757 C 1481.07 5.79975 -2.5261 0
M  V30 15758 C 1479.73 6.03416 -2.85386 0
M  V30 15759 H 1479 0.736979 0.0770907 0
M  V30 15760 H 1481.65 1.84574 -0.510376 0
M  V30 15761 H 1479.95 3.6815 1.34062 0
M  V30 15762 H 1481.65 3.88212 1.00461 0
M  V30 15763 H 1478.24 4.2695 -0.375722 0
M  V30 15764 H 1482.42 4.81865 -1.18828 0
M  V30 15765 H 1477.68 5.65309 -2.32886 0
M  V30 15766 H 1481.85 6.21588 -3.14008 0
M  V30 15767 H 1479.48 6.63172 -3.71627 0
M  V30 15768 N 1481.06 0.105248 1.57248 0
M  V30 15769 C 1482.47 -0.251385 1.57608 0
M  V30 15770 C 1482.67 -1.677 1.11709 0
M  V30 15771 O 1481.73 -2.39552 0.798182 0
M  V30 15772 C 1483.04 -0.0305755 3.00684 0
M  V30 15773 C 1484.59 -0.0975409 3.12848 0
M  V30 15774 C 1485.06 0.0954024 4.57901 0
M  V30 15775 N 1486.56 0.040908 4.63182 0
M  V30 15776 C 1487.29 0.165298 5.73162 0
M  V30 15777 N 1486.79 0.345091 6.9194 0
M  V30 15778 N 1488.58 0.105847 5.62 0
M  V30 15779 H 1480.73 1.03658 1.85388 0
M  V30 15780 H 1482.99 0.407074 0.856151 0
M  V30 15781 H 1482.7 0.954461 3.38501 0
M  V30 15782 H 1482.57 -0.768477 3.69289 0
M  V30 15783 H 1484.96 -1.07309 2.74898 0
M  V30 15784 H 1485.04 0.672017 2.46815 0
M  V30 15785 H 1484.69 1.06786 4.96547 0
M  V30 15786 H 1484.62 -0.693974 5.22007 0
M  V30 15787 H 1487.11 -0.0951009 3.7778 0
M  V30 15788 H 1487.42 0.431243 7.71596 0
M  V30 15789 H 1485.76 0.38089 6.93955 0
M  V30 15790 H 1488.96 -0.0335544 4.68088 0
M  V30 15791 H 1489.13 0.206235 6.47672 0
M  V30 15792 N 1482.53 -1.56697 -0.168486 0
M  V30 15793 C 1483.78 -1.82424 -0.885965 0
M  V30 15794 C 1484.11 -0.683543 -1.81773 0
M  V30 15795 O 1483.39 0.314319 -1.91943 0
M  V30 15796 C 1483.67 -3.18553 -1.67917 0
M  V30 15797 C 1483.52 -4.43154 -0.770343 0
M  V30 15798 C 1484.84 -3.51654 -2.64627 0
M  V30 15799 H 1481.96 -0.663594 -0.320644 0
M  V30 15800 H 1484.6 -1.89391 -0.15205 0
M  V30 15801 H 1482.75 -3.12745 -2.30484 0
M  V30 15802 H 1484.43 -4.61032 -0.157328 0
M  V30 15803 H 1482.67 -4.33729 -0.0785653 0
M  V30 15804 H 1483.34 -5.34961 -1.36092 0
M  V30 15805 H 1485.82 -3.57934 -2.12185 0
M  V30 15806 H 1484.69 -4.47975 -3.17191 0
M  V30 15807 H 1484.95 -2.76503 -3.44961 0
M  V30 15808 N 1484.01 0.437135 -1.51416 0
M  V30 15809 C 1485.24 1.20898 -1.67903 0
M  V30 15810 C 1485.66 1.85009 -0.376458 0
M  V30 15811 O 1485.01 1.7072 0.645051 0
M  V30 15812 C 1485.06 2.29286 -2.79482 0
M  V30 15813 O 1484.78 1.67798 -4.04692 0
M  V30 15814 C 1486.29 3.19561 -3.07238 0
M  V30 15815 H 1483.51 0.364381 -0.563442 0
M  V30 15816 H 1486.05 0.517931 -1.97833 0
M  V30 15817 H 1484.2 2.94107 -2.5215 0
M  V30 15818 H 1484.62 2.39433 -4.6666 0
M  V30 15819 H 1486.09 3.91748 -3.88893 0
M  V30 15820 H 1486.57 3.80327 -2.19654 0
M  V30 15821 H 1487.18 2.60441 -3.3623 0
M  V30 15822 N 1485.49 1.41566 0.692592 0
M  V30 15823 C 1486.74 1.41292 1.4548 0
M  V30 15824 C 1487.07 0.0229093 1.94186 0
M  V30 15825 O 1486.34 -0.949849 1.6973 0
M  V30 15826 C 1486.63 2.42225 2.66457 0
M  V30 15827 C 1486.48 3.90345 2.23496 0
M  V30 15828 C 1487.8 2.40374 3.68658 0
M  V30 15829 H 1484.92 0.51453 0.527663 0
M  V30 15830 H 1487.56 1.72862 0.788598 0
M  V30 15831 H 1485.71 2.15435 3.23296 0
M  V30 15832 H 1487.38 4.2805 1.71962 0
M  V30 15833 H 1485.63 4.05068 1.55249 0
M  V30 15834 H 1486.3 4.56518 3.10314 0
M  V30 15835 H 1488.77 2.64156 3.21498 0
M  V30 15836 H 1487.65 3.13004 4.5091 0
M  V30 15837 H 1487.91 1.42338 4.1856 0
M  V30 15838 N 1486.97 -0.927146 1.27443 0
M  V30 15839 C 1487.9 -2.04483 1.12735 0
M  V30 15840 C 1488.88 -1.70076 0.0286662 0
M  V30 15841 O 1490.06 -1.93133 0.203252 0
M  V30 15842 C 1487.19 -3.38557 0.774352 0
M  V30 15843 C 1486.15 -3.87078 1.82632 0
M  V30 15844 C 1485.47 -5.17964 1.32729 0
M  V30 15845 C 1486.77 -4.10409 3.23051 0
M  V30 15846 H 1488.47 -2.17046 2.06231 0
M  V30 15847 H 1486.01 -1.04292 0.992937 0
M  V30 15848 H 1487.97 -4.16227 0.658273 0
M  V30 15849 H 1486.69 -3.26009 -0.196321 0
M  V30 15850 H 1485.35 -3.11602 1.93132 0
M  V30 15851 H 1485 -5.01808 0.346059 0
M  V30 15852 H 1484.7 -5.51398 2.03061 0
M  V30 15853 H 1486.22 -5.98203 1.22416 0
M  V30 15854 H 1487.64 -4.78646 3.15549 0
M  V30 15855 H 1486.03 -4.5515 3.91099 0
M  V30 15856 H 1487.1 -3.15685 3.68064 0
M  V30 15857 N 1488.45 -1.09474 -1.13372 0
M  V30 15858 C 1489.38 -0.692446 -2.1849 0
M  V30 15859 C 1490.39 0.265942 -1.60613 0
M  V30 15860 O 1491.58 0.0519189 -1.78424 0
M  V30 15861 C 1488.68 0.000306083 -3.389 0
M  V30 15862 C 1487.85 -0.979745 -4.26286 0
M  V30 15863 C 1486.91 -0.320309 -5.25224 0
M  V30 15864 O 1485.94 -0.968089 -5.60907 0
M  V30 15865 N 1487.14 0.92536 -5.73077 0
M  V30 15866 H 1489.91 -1.59681 -2.53618 0
M  V30 15867 H 1487.47 -0.982256 -1.28699 0
M  V30 15868 H 1489.46 0.45268 -4.0216 0
M  V30 15869 H 1488.03 0.806927 -3.02006 0
M  V30 15870 H 1487.25 -1.61067 -3.59793 0
M  V30 15871 H 1488.54 -1.64348 -4.81526 0
M  V30 15872 H 1487.93 1.47119 -5.46235 0
M  V30 15873 H 1486.49 1.32105 -6.38272 0
M  V30 15874 N 1489.92 1.30607 -0.882012 0
M  V30 15875 C 1490.89 2.26489 -0.351498 0
M  V30 15876 C 1491.89 1.52686 0.504348 0
M  V30 15877 O 1493.08 1.71385 0.311928 0
M  V30 15878 C 1490.21 3.37222 0.499435 0
M  V30 15879 H 1491.4 2.74929 -1.19809 0
M  V30 15880 H 1488.96 1.41746 -0.658616 0
M  V30 15881 H 1489.69 2.94093 1.36673 0
M  V30 15882 H 1489.48 3.91936 -0.11356 0
M  V30 15883 H 1490.97 4.08596 0.862497 0
M  V30 15884 N 1491.4 0.642663 1.43901 0
M  V30 15885 C 1492.63 0.157518 2.06801 0
M  V30 15886 C 1493.05 -1.16361 1.47789 0
M  V30 15887 O 1492.41 -1.71645 0.583747 0
M  V30 15888 C 1492.46 0.0685904 3.60535 0
M  V30 15889 O 1491.56 -0.972183 4.00777 0
M  V30 15890 H 1490.9 0.0900406 0.657867 0
M  V30 15891 H 1493.43 0.882604 1.84584 0
M  V30 15892 H 1493.44 -0.118212 4.07829 0
M  V30 15893 H 1492.12 1.03307 4.02865 0
M  V30 15894 H 1490.7 -0.75902 3.65094 0
M  V30 15895 N 1492.88 -1.52852 0.383918 0
M  V30 15896 C 1494.11 -2.06406 -0.202764 0
M  V30 15897 C 1494.53 -1.25421 -1.40183 0
M  V30 15898 O 1493.89 -0.277876 -1.79158 0
M  V30 15899 C 1493.94 -3.56281 -0.556414 0
M  V30 15900 O 1493.04 -3.77904 -1.65113 0
M  V30 15901 H 1492.38 -0.663523 -0.0251737 0
M  V30 15902 H 1494.91 -1.97074 0.54983 0
M  V30 15903 H 1494.92 -3.99629 -0.822249 0
M  V30 15904 H 1493.6 -4.14665 0.320253 0
M  V30 15905 H 1492.17 -3.46448 -1.37943 0
M  V30 15906 N 1494.36 -0.113586 -1.5719 0
M  V30 15907 C 1495.61 0.545507 -1.94183 0
M  V30 15908 C 1495.92 1.68176 -0.998816 0
M  V30 15909 O 1497.13 2.40324 -1.26319 0
M  V30 15910 C 1495.58 1.02178 -3.45091 0
M  V30 15911 C 1495.19 -0.0857195 -4.47918 0
M  V30 15912 C 1496.94 1.65255 -3.91013 0
M  V30 15913 C 1494.84 0.406946 -5.89998 0
M  V30 15914 H 1493.77 0.20755 -0.724872 0
M  V30 15915 H 1496.42 -0.192567 -1.82487 0
M  V30 15916 H 1494.81 1.81411 -3.52003 0
M  V30 15917 H 1495.98 -0.861821 -4.52669 0
M  V30 15918 H 1494.29 -0.622816 -4.11716 0
M  V30 15919 H 1496.89 2.0322 -4.94576 0
M  V30 15920 H 1497.23 2.52888 -3.30687 0
M  V30 15921 H 1497.77 0.925727 -3.86879 0
M  V30 15922 H 1494.51 -0.433199 -6.54067 0
M  V30 15923 H 1494.03 1.14965 -5.88679 0
M  V30 15924 H 1495.71 0.869934 -6.41125 0
M  V30 15925 N 1495.84 1.56784 0.160173 0
M  V30 15926 C 1497.06 1.87129 0.894283 0
M  V30 15927 C 1497.49 0.701172 1.74543 0
M  V30 15928 O 1496.85 -0.349542 1.77899 0
M  V30 15929 C 1496.89 3.15969 1.73769 0
M  V30 15930 O 1496 2.98977 2.84054 0
M  V30 15931 H 1495.34 0.615192 0.249869 0
M  V30 15932 H 1497.87 2.04012 0.154956 0
M  V30 15933 H 1497.88 3.47657 2.13538 0
M  V30 15934 H 1496.55 4.00742 1.11258 0
M  V30 15935 H 1495.13 2.78668 2.47788 0
M  V30 15936 N 1497.32 -0.429099 1.51646 0
M  V30 15937 C 1498.28 -1.50398 1.72954 0
M  V30 15938 C 1499.28 -1.49207 0.599491 0
M  V30 15939 O 1500.47 -1.51084 0.867143 0
M  V30 15940 C 1497.6 -2.89903 1.79358 0
M  V30 15941 H 1498.79 -1.32805 2.68892 0
M  V30 15942 H 1496.35 -0.658313 1.4176 0
M  V30 15943 H 1497.08 -3.12891 0.852639 0
M  V30 15944 H 1496.87 -2.92171 2.61492 0
M  V30 15945 H 1498.36 -3.67862 1.97654 0
M  V30 15946 N 1498.79 -1.41931 -0.685074 0
M  V30 15947 C 1499.7 -1.46985 -1.82846 0
M  V30 15948 C 1500.72 -0.359487 -1.70246 0
M  V30 15949 O 1501.9 -0.608824 -1.91977 0
M  V30 15950 C 1498.96 -1.36001 -3.18912 0
M  V30 15951 C 1498.02 -2.57442 -3.43543 0
M  V30 15952 C 1497.25 -2.46972 -4.73118 0
M  V30 15953 O 1497.48 -1.49999 -5.50324 0
M  V30 15954 O 1496.41 -3.36922 -4.98766 0
M  V30 15955 H 1500.24 -2.4347 -1.81538 0
M  V30 15956 H 1497.82 -1.23583 -0.839497 0
M  V30 15957 H 1499.7 -1.32198 -4.00127 0
M  V30 15958 H 1498.38 -0.426366 -3.2088 0
M  V30 15959 H 1497.29 -2.66821 -2.62217 0
M  V30 15960 H 1498.62 -3.49671 -3.46398 0
M  V30 15961 N 1500.27 0.920374 -1.27933 0
M  V30 15962 C 1501.5 1.70028 -1.17363 0
M  V30 15963 C 1501.91 1.87246 0.271214 0
M  V30 15964 O 1501.25 1.39449 1.19581 0
M  V30 15965 C 1501.31 3.11595 -1.79301 0
M  V30 15966 C 1500.98 3.17687 -3.28518 0
M  V30 15967 C 1501.98 2.99383 -4.25048 0
M  V30 15968 C 1499.66 3.40412 -3.69357 0
M  V30 15969 C 1501.65 3.03704 -5.60395 0
M  V30 15970 C 1499.34 3.44367 -5.04832 0
M  V30 15971 C 1500.34 3.26032 -6.0016 0
M  V30 15972 O 1500.03 3.29735 -7.33164 0
M  V30 15973 H 1499.76 0.538497 -0.408652 0
M  V30 15974 H 1502.31 1.16086 -1.6945 0
M  V30 15975 H 1500.54 3.6705 -1.217 0
M  V30 15976 H 1502.23 3.71584 -1.63341 0
M  V30 15977 H 1503 2.8166 -3.94833 0
M  V30 15978 H 1498.88 3.53731 -2.95627 0
M  V30 15979 H 1502.42 2.89312 -6.34779 0
M  V30 15980 H 1498.32 3.61616 -5.347 0
M  V30 15981 H 1499.09 3.46141 -7.41707 0
M  V30 15982 N 1501.75 1.10074 1.1279 0
M  V30 15983 C 1502.71 0.74967 2.16593 0
M  V30 15984 C 1503.71 -0.224046 1.59232 0
M  V30 15985 O 1504.9 -0.00137104 1.742 0
M  V30 15986 C 1502.03 0.109795 3.40723 0
M  V30 15987 H 1503.23 1.66906 2.49164 0
M  V30 15988 H 1500.78 0.900781 1.27733 0
M  V30 15989 H 1501.52 -0.820501 3.13749 0
M  V30 15990 H 1501.3 0.810517 3.83631 0
M  V30 15991 H 1502.79 -0.120198 4.17427 0
M  V30 15992 N 1503.23 -1.30138 0.888926 0
M  V30 15993 C 1504.5 -1.90831 0.42928 0
M  V30 15994 C 1504.88 -1.80765 -1.09028 0
M  V30 15995 O 1504.23 -1.22741 -1.92735 0
M  V30 15996 C 1504.44 -3.36331 0.931798 0
M  V30 15997 C 1505.79 -4.13393 0.969106 0
M  V30 15998 O 1506.81 -3.45191 0.878731 0
M  V30 15999 O 1505.67 -5.35249 1.10323 0
M  V30 16000 H 1502.77 -0.816401 0.131976 0
M  V30 16001 H 1505.31 -1.38678 0.978086 0
M  V30 16002 H 1504.09 -3.37761 1.97568 0
M  V30 16003 H 1503.71 -3.95945 0.362383 0
M  V30 16004 N 1504.71 -0.650285 -1.43559 0
M  V30 16005 C 1505.95 -0.159832 -2.01066 0
M  V30 16006 C 1506.27 1.23246 -1.51887 0
M  V30 16007 O 1507.47 1.81797 -2.01648 0
M  V30 16008 C 1505.93 -0.23494 -3.59132 0
M  V30 16009 C 1505.54 -1.62975 -4.17305 0
M  V30 16010 C 1507.28 0.198061 -4.24038 0
M  V30 16011 C 1505.19 -1.65894 -5.67656 0
M  V30 16012 H 1504.12 -0.0559899 -0.751918 0
M  V30 16013 H 1506.77 -0.811891 -1.64562 0
M  V30 16014 H 1505.15 0.484573 -3.93024 0
M  V30 16015 H 1506.33 -2.37438 -3.94918 0
M  V30 16016 H 1504.64 -2.00847 -3.64759 0
M  V30 16017 H 1507.24 0.196054 -5.3434 0
M  V30 16018 H 1507.58 1.22896 -3.97747 0
M  V30 16019 H 1508.11 -0.469602 -3.95018 0
M  V30 16020 H 1504.85 -2.66883 -5.9871 0
M  V30 16021 H 1504.37 -0.957519 -5.92108 0
M  V30 16022 H 1506.05 -1.40137 -6.31641 0
M  V30 16023 N 1506.18 1.52647 -0.392018 0
M  V30 16024 C 1507.43 2.01613 0.1893 0
M  V30 16025 C 1507.76 1.27837 1.46588 0
M  V30 16026 O 1507.01 0.368018 1.92209 0
M  V30 16027 C 1507.31 3.53872 0.500914 0
M  V30 16028 C 1506.98 4.45675 -0.684434 0
M  V30 16029 C 1505.64 4.70489 -1.00961 0
M  V30 16030 C 1507.99 4.99825 -1.4773 0
M  V30 16031 C 1505.32 5.46703 -2.12915 0
M  V30 16032 C 1507.67 5.77263 -2.58747 0
M  V30 16033 C 1506.34 6.00355 -2.9177 0
M  V30 16034 H 1505.61 0.737755 0.0692697 0
M  V30 16035 H 1508.25 1.84022 -0.529924 0
M  V30 16036 H 1506.56 3.69551 1.3015 0
M  V30 16037 H 1508.26 3.89256 0.963382 0
M  V30 16038 H 1504.85 4.26527 -0.420985 0
M  V30 16039 H 1509.03 4.80577 -1.23932 0
M  V30 16040 H 1504.29 5.62807 -2.38868 0
M  V30 16041 H 1508.46 6.18223 -3.20583 0
M  V30 16042 H 1506.09 6.59194 -3.7864 0
M  V30 16043 N 1507.66 0.121921 1.57128 0
M  V30 16044 C 1508.9 -0.538423 1.97181 0
M  V30 16045 C 1509.27 -1.63661 1.00394 0
M  V30 16046 O 1510.47 -2.35606 1.29396 0
M  V30 16047 C 1508.74 -1.05469 3.41484 0
M  V30 16048 S 1510.3 -1.72315 4.0355 0
M  V30 16049 H 1507.12 -0.174913 0.689149 0
M  V30 16050 H 1509.72 0.207694 1.94394 0
M  V30 16051 H 1508.42 -0.244297 4.09672 0
M  V30 16052 H 1507.95 -1.83602 3.47928 0
M  V30 16053 H 1509.97 -3.0091 3.94547 0
M  V30 16054 N 1509.14 -1.56867 -0.151857 0
M  V30 16055 C 1510.07 -1.94494 -1.21263 0
M  V30 16056 C 1511.09 -0.84021 -1.39443 0
M  V30 16057 O 1512.27 -1.11863 -1.391 0
M  V30 16058 C 1509.37 -2.19952 -2.57826 0
M  V30 16059 C 1508.55 -3.51227 -2.60689 0
M  V30 16060 C 1507.61 -3.65282 -3.78756 0
M  V30 16061 O 1506.63 -4.3772 -3.63854 0
M  V30 16062 N 1507.83 -3.01582 -4.96012 0
M  V30 16063 H 1510.6 -2.86092 -0.892845 0
M  V30 16064 H 1508.16 -1.58258 -0.341463 0
M  V30 16065 H 1510.15 -2.266 -3.35312 0
M  V30 16066 H 1508.72 -1.34643 -2.82117 0
M  V30 16067 H 1507.94 -3.56062 -1.69155 0
M  V30 16068 H 1509.23 -4.37574 -2.59628 0
M  V30 16069 H 1508.63 -2.42637 -5.11022 0
M  V30 16070 H 1507.19 -3.13799 -5.71291 0
M  V30 16071 N 1510.62 0.421051 -1.51871 0
M  V30 16072 C 1511.87 1.16908 -1.65344 0
M  V30 16073 C 1512.19 1.90801 -0.377538 0
M  V30 16074 O 1511.45 1.84972 0.639061 0
M  V30 16075 C 1511.75 2.19819 -2.81806 0
M  V30 16076 C 1511.41 1.62821 -4.20476 0
M  V30 16077 C 1510.08 1.47 -4.58197 0
M  V30 16078 C 1512.43 1.21079 -5.06941 0
M  V30 16079 C 1509.76 0.879359 -5.80073 0
M  V30 16080 C 1512.11 0.634373 -6.29411 0
M  V30 16081 C 1510.77 0.4632 -6.65891 0
M  V30 16082 H 1510.04 0.427798 -0.605037 0
M  V30 16083 H 1512.69 0.457896 -1.85945 0
M  V30 16084 H 1510.99 2.97037 -2.55492 0
M  V30 16085 H 1512.69 2.77548 -2.89427 0
M  V30 16086 H 1509.28 1.76115 -3.90745 0
M  V30 16087 H 1513.46 1.32115 -4.78392 0
M  V30 16088 H 1508.72 0.734646 -6.0697 0
M  V30 16089 H 1512.89 0.302484 -6.95743 0
M  V30 16090 H 1510.52 0.00341397 -7.602 0
M  V30 16091 N 1512.1 1.42293 0.677538 0
M  V30 16092 C 1513.04 1.45787 1.81243 0
M  V30 16093 C 1514.04 0.333895 1.66077 0
M  V30 16094 O 1515.24 0.50678 1.72719 0
M  V30 16095 H 1511.62 0.456538 0.597559 0
M  V30 16096 H 1513.59 2.41398 1.75413 0
M  V30 16097 C 1512.34 1.37449 3.19379 0
M  V30 16098 H 1511.66 2.23231 3.31674 0
M  V30 16099 H 1513.1 1.43955 3.98814 0
M  V30 16100 C 1511.56 0.0889433 3.36783 0
M  V30 16101 O 1512.09 -0.859357 3.924 0
M  V30 16102 N 1510.3 0.00698476 2.90599 0
M  V30 16103 H 1509.84 0.779459 2.45524 0
M  V30 16104 H 1509.8 -0.852522 3.02621 0
M  V30 16105 N 1513.57 -0.913576 1.28419 0
M  V30 16106 C 1514.82 -1.66273 1.15584 0
M  V30 16107 C 1515.15 -1.92242 -0.295541 0
M  V30 16108 O 1514.4 -1.52104 -1.23137 0
M  V30 16109 C 1514.7 -3.02722 1.89985 0
M  V30 16110 C 1514.37 -2.96413 3.3978 0
M  V30 16111 C 1513.03 -2.94399 3.80635 0
M  V30 16112 C 1515.38 -2.86648 4.35296 0
M  V30 16113 C 1512.71 -2.80422 5.15345 0
M  V30 16114 C 1515.06 -2.74211 5.7008 0
M  V30 16115 C 1513.73 -2.70556 6.1021 0
M  V30 16116 H 1513 -0.608435 0.422951 0
M  V30 16117 H 1515.64 -1.06438 1.59196 0
M  V30 16118 H 1513.95 -3.66344 1.38923 0
M  V30 16119 H 1515.65 -3.59591 1.7747 0
M  V30 16120 H 1512.24 -2.98775 3.07297 0
M  V30 16121 H 1516.42 -2.87291 4.04695 0
M  V30 16122 H 1511.68 -2.75987 5.45565 0
M  V30 16123 H 1515.85 -2.65624 6.43752 0
M  V30 16124 H 1513.48 -2.59483 7.14544 0
M  V30 16125 N 1515.05 -1.1067 -1.12204 0
M  V30 16126 C 1516.3 -0.845439 -1.83126 0
M  V30 16127 C 1516.61 0.631022 -1.85142 0
M  V30 16128 O 1517.82 1.00827 -2.52084 0
M  V30 16129 C 1516.28 -1.46265 -3.28838 0
M  V30 16130 C 1515.88 -2.97258 -3.35174 0
M  V30 16131 C 1517.63 -1.28088 -4.04714 0
M  V30 16132 C 1515.54 -3.52002 -4.75235 0
M  V30 16133 H 1514.47 -0.312617 -0.686139 0
M  V30 16134 H 1517.12 -1.33098 -1.26321 0
M  V30 16135 H 1515.5 -0.904781 -3.85525 0
M  V30 16136 H 1516.67 -3.59381 -2.88413 0
M  V30 16137 H 1514.99 -3.14617 -2.72773 0
M  V30 16138 H 1517.58 -1.6643 -5.08139 0
M  V30 16139 H 1517.93 -0.222682 -4.15704 0
M  V30 16140 H 1518.46 -1.80696 -3.54392 0
M  V30 16141 H 1515.2 -4.57499 -4.69441 0
M  V30 16142 H 1514.72 -2.94648 -5.22439 0
M  V30 16143 H 1516.4 -3.49967 -5.4418 0
M  V30 16144 N 1516.53 1.29665 -0.895815 0
M  V30 16145 C 1517.48 2.2542 -0.34201 0
M  V30 16146 C 1518.46 1.5172 0.535712 0
M  V30 16147 O 1519.66 1.72909 0.378364 0
M  V30 16148 C 1516.79 3.4056 0.43287 0
M  V30 16149 C 1515.87 4.21603 -0.459552 0
M  V30 16150 N 1516.26 4.8098 -1.565 0
M  V30 16151 C 1514.56 4.45261 -0.256632 0
M  V30 16152 C 1515.26 5.41792 -2.11746 0
M  V30 16153 N 1514.24 5.24968 -1.411 0
M  V30 16154 H 1518.04 2.68885 -1.18651 0
M  V30 16155 H 1515.55 1.4423 -0.74643 0
M  V30 16156 H 1517.55 4.08219 0.846334 0
M  V30 16157 H 1516.21 2.98633 1.27468 0
M  V30 16158 H 1517.22 4.79877 -1.94777 0
M  V30 16159 H 1513.9 4.13899 0.547131 0
M  V30 16160 H 1515.29 5.9887 -3.04637 0
M  V30 16161 N 1518.01 0.657889 1.43212 0
M  V30 16162 C 1519.42 0.325876 1.56238 0
M  V30 16163 C 1519.62 -1.16975 1.6407 0
M  V30 16164 O 1518.68 -1.95473 1.59833 0
M  V30 16165 C 1519.99 1.04134 2.82093 0
M  V30 16166 C 1521.54 1.02204 2.95844 0
M  V30 16167 C 1522.02 1.71849 4.24537 0
M  V30 16168 N 1523.51 1.68635 4.31412 0
M  V30 16169 C 1524.24 2.19393 5.29768 0
M  V30 16170 N 1523.74 2.7846 6.34375 0
M  V30 16171 N 1525.53 2.09866 5.21452 0
M  V30 16172 H 1517.68 1.62839 1.36371 0
M  V30 16173 H 1519.95 0.685072 0.655271 0
M  V30 16174 H 1519.65 2.09647 2.82385 0
M  V30 16175 H 1519.53 0.595842 3.72464 0
M  V30 16176 H 1521.91 -0.0247029 2.9509 0
M  V30 16177 H 1521.99 1.50627 2.06749 0
M  V30 16178 H 1521.64 2.76482 4.26052 0
M  V30 16179 H 1521.57 1.20888 5.12536 0
M  V30 16180 H 1524.06 1.25536 3.56439 0
M  V30 16181 H 1524.37 3.14855 7.05752 0
M  V30 16182 H 1522.72 2.82523 6.34985 0
M  V30 16183 H 1525.91 1.63422 4.38647 0
M  V30 16184 H 1526.08 2.49732 5.97945 0
M  V30 16185 N 1519.49 -1.52437 0.400108 0
M  V30 16186 C 1520.44 -2.23576 -0.446964 0
M  V30 16187 C 1521.42 -1.24368 -1.02085 0
M  V30 16188 O 1522.61 -1.49652 -0.945165 0
M  V30 16189 C 1519.74 -3.05402 -1.56795 0
M  V30 16190 C 1518.83 -4.12013 -1.00527 0
M  V30 16191 N 1519.22 -5.05519 -0.168475 0
M  V30 16192 C 1517.52 -4.27337 -1.27669 0
M  V30 16193 C 1518.22 -5.81523 0.143579 0
M  V30 16194 N 1517.19 -5.41623 -0.463209 0
M  V30 16195 H 1521 -2.93227 0.198775 0
M  V30 16196 H 1518.51 -1.61036 0.210019 0
M  V30 16197 H 1520.51 -3.54912 -2.1873 0
M  V30 16198 H 1519.17 -2.37288 -2.2164 0
M  V30 16199 H 1520.18 -5.17532 0.195125 0
M  V30 16200 H 1516.85 -3.70452 -1.92539 0
M  V30 16201 H 1518.24 -6.6685 0.822256 0
M  V30 16202 N 1520.96 -0.130252 -1.57061 0
M  V30 16203 C 1522.24 0.569171 -1.87136 0
M  V30 16204 C 1522.62 1.84078 -1.03337 0
M  V30 16205 O 1521.97 2.28208 -0.11543 0
M  V30 16206 C 1522.18 0.850782 -3.38471 0
M  V30 16207 C 1523.53 1.19892 -4.07322 0
M  V30 16208 O 1524.55 0.940682 -3.43554 0
M  V30 16209 O 1523.41 1.6841 -5.19904 0
M  V30 16210 H 1520.5 0.288433 -0.775071 0
M  V30 16211 H 1523.05 -0.165603 -1.6889 0
M  V30 16212 H 1521.82 -0.0498562 -3.91268 0
M  V30 16213 H 1521.45 1.64032 -3.62187 0
M  V30 16214 N 1522.44 1.56945 0.143535 0
M  V30 16215 C 1523.35 2.01795 1.1965 0
M  V30 16216 C 1524.37 0.933965 1.4681 0
M  V30 16217 O 1525.55 1.2437 1.58411 0
M  V30 16218 C 1522.61 2.39249 2.5092 0
M  V30 16219 C 1521.67 3.61613 2.31376 0
M  V30 16220 C 1520.9 3.97271 3.56386 0
M  V30 16221 O 1521.13 3.33552 4.62709 0
M  V30 16222 O 1520.06 4.90501 3.48844 0
M  V30 16223 H 1523.89 2.91687 0.845718 0
M  V30 16224 H 1521.47 1.45182 0.352518 0
M  V30 16225 H 1523.35 2.64184 3.28306 0
M  V30 16226 H 1522.03 1.52511 2.85521 0
M  V30 16227 H 1520.94 3.4186 1.51929 0
M  V30 16228 H 1522.27 4.48979 2.01689 0
M  V30 16229 N 1523.92 -0.412991 1.52093 0
M  V30 16230 C 1524.88 -1.48555 1.7454 0
M  V30 16231 C 1525.88 -1.48563 0.615283 0
M  V30 16232 O 1527.07 -1.50155 0.883119 0
M  V30 16233 C 1524.21 -2.87984 1.82423 0
M  V30 16234 H 1525.4 -1.29945 2.70285 0
M  V30 16235 H 1522.95 -0.643241 1.4245 0
M  V30 16236 H 1523.69 -3.11969 0.885777 0
M  V30 16237 H 1523.47 -2.89381 2.64577 0
M  V30 16238 H 1524.96 -3.65745 2.01545 0
M  V30 16239 N 1525.4 -1.4265 -0.669982 0
M  V30 16240 C 1526.65 -1.43376 -1.43002 0
M  V30 16241 C 1526.97 -0.0519386 -1.94431 0
M  V30 16242 O 1526.23 0.940456 -1.71621 0
M  V30 16243 C 1526.53 -2.40913 -2.63999 0
M  V30 16244 C 1526.19 -3.87183 -2.31085 0
M  V30 16245 C 1524.86 -4.27024 -2.21819 0
M  V30 16246 C 1527.21 -4.79428 -2.04447 0
M  V30 16247 C 1524.54 -5.57084 -1.84049 0
M  V30 16248 C 1526.89 -6.09835 -1.68179 0
M  V30 16249 C 1525.55 -6.4867 -1.57428 0
M  V30 16250 H 1524.82 -0.524651 -0.52328 0
M  V30 16251 H 1527.47 -1.75622 -0.763494 0
M  V30 16252 H 1525.77 -2.02012 -3.35706 0
M  V30 16253 H 1527.47 -2.38737 -3.22189 0
M  V30 16254 H 1524.06 -3.55642 -2.392 0
M  V30 16255 H 1528.25 -4.49431 -2.10535 0
M  V30 16256 H 1523.5 -5.86029 -1.74298 0
M  V30 16257 H 1527.68 -6.80796 -1.46594 0
M  V30 16258 H 1525.3 -7.49358 -1.2793 0
M  V30 16259 N 1526.88 0.906753 -1.28902 0
M  V30 16260 C 1528.1 1.69547 -1.19452 0
M  V30 16261 C 1528.53 1.86531 0.242418 0
M  V30 16262 O 1527.89 1.38052 1.17521 0
M  V30 16263 C 1527.93 3.06139 -1.90556 0
M  V30 16264 O 1527.04 3.9401 -1.21779 0
M  V30 16265 H 1526.38 0.518902 -0.41429 0
M  V30 16266 H 1528.91 1.13327 -1.70347 0
M  V30 16267 H 1528.92 3.56326 -1.98736 0
M  V30 16268 H 1527.59 2.93094 -2.95074 0
M  V30 16269 H 1526.17 3.52444 -1.2181 0
M  V30 16270 N 1528.36 1.11264 1.11616 0
M  V30 16271 C 1529.58 0.882802 1.87121 0
M  V30 16272 C 1530 -0.567279 1.80076 0
M  V30 16273 O 1529.36 -1.39158 1.18074 0
M  V30 16274 C 1529.41 1.33355 3.36004 0
M  V30 16275 O 1529.13 2.72678 3.42897 0
M  V30 16276 C 1530.63 1.13886 4.28421 0
M  V30 16277 H 1527.85 0.316275 0.591786 0
M  V30 16278 H 1530.39 1.4795 1.41177 0
M  V30 16279 H 1528.55 0.780347 3.79459 0
M  V30 16280 H 1528.96 2.92168 4.35589 0
M  V30 16281 H 1530.44 1.50329 5.31136 0
M  V30 16282 H 1530.91 0.078259 4.3913 0
M  V30 16283 H 1531.52 1.67896 3.90757 0
M  V30 16284 N 1529.83 -1.29188 0.902679 0
M  V30 16285 C 1530.74 -2.3138 0.387363 0
M  V30 16286 C 1531.76 -1.66067 -0.519396 0
M  V30 16287 O 1532.94 -1.97219 -0.408257 0
M  V30 16288 C 1530 -3.44675 -0.374137 0
M  V30 16289 C 1529.06 -4.25572 0.564503 0
M  V30 16290 C 1528.29 -5.33458 -0.160748 0
M  V30 16291 O 1528.52 -5.53349 -1.38423 0
M  V30 16292 O 1527.45 -5.99834 0.498259 0
M  V30 16293 H 1531.28 -2.77444 1.23525 0
M  V30 16294 H 1528.86 -1.33679 0.667106 0
M  V30 16295 H 1530.74 -4.13647 -0.80464 0
M  V30 16296 H 1529.42 -3.00714 -1.19804 0
M  V30 16297 H 1528.33 -3.59232 1.04418 0
M  V30 16298 H 1529.66 -4.73184 1.3549 0
M  V30 16299 N 1531.31 -0.665475 -1.42861 0
M  V30 16300 C 1532.72 -0.26225 -1.84849 0
M  V30 16301 C 1533.07 1.19372 -1.55707 0
M  V30 16302 O 1532.2 1.91269 -1.01218 0
M  V30 16303 C 1532.79 -0.469189 -3.35535 0
M  V30 16304 C 1531.35 -0.120172 -3.76208 0
M  V30 16305 C 1530.5 -0.766153 -2.66506 0
M  V30 16306 H 1533.45 -0.868296 -1.32839 0
M  V30 16307 H 1533.47 0.281571 -3.79457 0
M  V30 16308 H 1532.98 -1.52894 -3.56714 0
M  V30 16309 H 1531.08 0.936505 -3.60639 0
M  V30 16310 H 1531.2 -0.554188 -4.75884 0
M  V30 16311 H 1529.56 -0.198292 -2.53927 0
M  V30 16312 H 1530.34 -1.82918 -2.9051 0
M  V30 16313 N 1532.79 1.52222 -0.408187 0
M  V30 16314 C 1533.72 2.29892 0.408868 0
M  V30 16315 C 1534.7 1.34063 1.04695 0
M  V30 16316 O 1535.89 1.6297 1.05615 0
M  V30 16317 C 1533.02 3.11964 1.52629 0
M  V30 16318 C 1531.97 4.15833 1.01326 0
M  V30 16319 C 1531.3 4.86244 2.2242 0
M  V30 16320 C 1532.6 5.22256 0.0679573 0
M  V30 16321 H 1534.29 2.98443 -0.23923 0
M  V30 16322 H 1531.84 1.43528 -0.116496 0
M  V30 16323 H 1533.79 3.65067 2.10486 0
M  V30 16324 H 1532.51 2.41181 2.20225 0
M  V30 16325 H 1531.17 3.63739 0.4571 0
M  V30 16326 H 1530.82 4.11991 2.88569 0
M  V30 16327 H 1530.52 5.56461 1.88746 0
M  V30 16328 H 1532.04 5.42159 2.80885 0
M  V30 16329 H 1533.46 5.70604 0.555295 0
M  V30 16330 H 1531.85 5.9983 -0.179934 0
M  V30 16331 H 1532.92 4.76892 -0.877599 0
M  V30 16332 N 1534.27 0.138579 1.5699 0
M  V30 16333 C 1535.21 -0.804305 2.16332 0
M  V30 16334 C 1536.18 -1.25002 1.09379 0
M  V30 16335 O 1537.37 -1.32405 1.37381 0
M  V30 16336 C 1534.51 -2.04137 2.78248 0
M  V30 16337 C 1533.62 -1.64223 3.99568 0
M  V30 16338 C 1532.76 -2.83046 4.49509 0
M  V30 16339 C 1531.8 -2.39465 5.63314 0
M  V30 16340 N 1530.93 -3.51267 6.07911 0
M  V30 16341 H 1535.77 -0.29144 2.96571 0
M  V30 16342 H 1533.31 -0.132146 1.46505 0
M  V30 16343 H 1535.27 -2.76646 3.12286 0
M  V30 16344 H 1533.9 -2.52849 2.00667 0
M  V30 16345 H 1532.95 -0.815123 3.71564 0
M  V30 16346 H 1534.26 -1.2821 4.82041 0
M  V30 16347 H 1533.42 -3.63755 4.85559 0
M  V30 16348 H 1532.16 -3.22298 3.66026 0
M  V30 16349 H 1531.16 -1.57193 5.2685 0
M  V30 16350 H 1532.39 -2.01307 6.48577 0
M  V30 16351 H 1530.33 -3.90156 5.27365 0
M  V30 16352 H 1530.25 -3.19241 6.85289 0
M  V30 16353 H 1531.52 -4.32358 6.48604 0
M  V30 16354 N 1535.75 -1.57019 -0.13521 0
M  V30 16355 C 1536.69 -2.0011 -1.18569 0
M  V30 16356 C 1537.69 -0.895372 -1.43804 0
M  V30 16357 O 1538.89 -1.08057 -1.43957 0
M  V30 16358 H 1535.27 -0.637176 -0.399388 0
M  V30 16359 H 1537.24 -2.87597 -0.795636 0
M  V30 16360 C 1535.99 -2.40769 -2.50849 0
M  V30 16361 H 1535.31 -3.25412 -2.32265 0
M  V30 16362 H 1536.75 -2.74733 -3.22951 0
M  V30 16363 C 1535.21 -1.26494 -3.12251 0
M  V30 16364 O 1535.74 -0.572067 -3.97606 0
M  V30 16365 N 1533.95 -1.02615 -2.7188 0
M  V30 16366 H 1533.49 -1.59136 -2.02567 0
M  V30 16367 H 1533.45 -0.263464 -3.13294 0
M  V30 16368 N 1537.22 0.404919 -1.52309 0
M  V30 16369 C 1538.45 1.17309 -1.70429 0
M  V30 16370 C 1538.87 1.84169 -0.415617 0
M  V30 16371 O 1538.22 1.7205 0.608693 0
M  V30 16372 C 1538.28 2.23306 -2.84282 0
M  V30 16373 O 1538 1.59176 -4.0816 0
M  V30 16374 C 1539.5 3.12972 -3.13948 0
M  V30 16375 H 1536.72 0.352348 -0.571045 0
M  V30 16376 H 1539.26 0.475851 -1.98887 0
M  V30 16377 H 1537.42 2.88693 -2.58332 0
M  V30 16378 H 1537.83 2.29481 -4.71634 0
M  V30 16379 H 1539.3 3.83411 -3.97115 0
M  V30 16380 H 1539.78 3.75582 -2.27672 0
M  V30 16381 H 1540.39 2.53251 -3.41678 0
M  V30 16382 N 1538.7 1.43003 0.662408 0
M  V30 16383 C 1539.95 1.43848 1.41958 0
M  V30 16384 C 1540.27 0.06046 1.94906 0
M  V30 16385 O 1539.54 -0.90287 1.73854 0
M  V30 16386 H 1538.12 0.529587 0.526827 0
M  V30 16387 H 1540.78 1.7853 0.781867 0
M  V30 16388 H 1539.88 2.14562 2.26649 0
M  V30 16389 N 1540.18 -0.899904 1.29381 0
M  V30 16390 C 1541.6 -1.18067 1.07388 0
M  V30 16391 C 1541.8 -2.00739 -0.174951 0
M  V30 16392 O 1540.85 -2.36937 -0.872771 0
M  V30 16393 C 1542.17 -1.90182 2.32919 0
M  V30 16394 C 1543.71 -2.03009 2.38236 0
M  V30 16395 C 1544.19 -2.78533 3.6357 0
M  V30 16396 N 1545.68 -2.86088 3.64291 0
M  V30 16397 C 1546.41 -3.45062 4.57952 0
M  V30 16398 N 1545.91 -4.05204 5.61945 0
M  V30 16399 N 1547.7 -3.42734 4.45522 0
M  V30 16400 H 1539.85 -0.348306 2.09525 0
M  V30 16401 H 1542.12 -0.216796 0.922878 0
M  V30 16402 H 1541.82 -1.36871 3.23974 0
M  V30 16403 H 1541.7 -2.90658 2.40412 0
M  V30 16404 H 1544.08 -2.55495 1.47669 0
M  V30 16405 H 1544.17 -1.01666 2.34729 0
M  V30 16406 H 1543.81 -2.26723 4.54488 0
M  V30 16407 H 1543.74 -3.8022 3.64335 0
M  V30 16408 H 1546.23 -2.43372 2.891 0
M  V30 16409 H 1546.54 -4.48225 6.29535 0
M  V30 16410 H 1544.89 -4.03667 5.65755 0
M  V30 16411 H 1548.08 -2.94967 3.63472 0
M  V30 16412 H 1548.25 -3.884 5.187 0
M  V30 16413 N 1541.66 -1.11854 -1.11024 0
M  V30 16414 C 1542.91 -0.868355 -1.82494 0
M  V30 16415 C 1543.23 0.607622 -1.85292 0
M  V30 16416 O 1542.5 1.44147 -1.32659 0
M  V30 16417 H 1541.08 -0.31826 -0.67581 0
M  V30 16418 H 1543.74 -1.4118 -1.34366 0
M  V30 16419 H 1542.84 -1.24441 -2.86218 0
M  V30 16420 N 1543.14 1.28707 -0.909517 0
M  V30 16421 C 1544.55 1.77212 -0.587613 0
M  V30 16422 C 1544.9 1.74495 0.896986 0
M  V30 16423 O 1544.02 1.33698 1.70158 0
M  V30 16424 C 1544.62 3.21794 -1.05989 0
M  V30 16425 C 1543.18 3.68038 -0.788983 0
M  V30 16426 C 1542.32 2.48576 -1.22903 0
M  V30 16427 H 1545.28 1.1523 -1.09122 0
M  V30 16428 H 1545.3 3.78397 -0.399469 0
M  V30 16429 H 1544.81 3.23739 -2.14043 0
M  V30 16430 H 1542.91 3.71558 0.278523 0
M  V30 16431 H 1543.02 4.58379 -1.39376 0
M  V30 16432 H 1541.39 2.46323 -0.647838 0
M  V30 16433 H 1542.17 2.53243 -2.31782 0
M  V30 16434 N 1544.61 0.673042 1.42506 0
M  V30 16435 C 1546.03 0.272049 1.84707 0
M  V30 16436 C 1546.38 -1.18545 1.56338 0
M  V30 16437 O 1545.5 -1.9073 1.02231 0
M  V30 16438 C 1546.1 0.486977 3.35282 0
M  V30 16439 C 1544.66 0.140122 3.76139 0
M  V30 16440 C 1543.8 0.780276 2.66096 0
M  V30 16441 H 1546.75 0.875329 1.32377 0
M  V30 16442 H 1546.77 -0.261443 3.79601 0
M  V30 16443 H 1546.29 1.54784 3.55898 0
M  V30 16444 H 1544.39 -0.917366 3.6113 0
M  V30 16445 H 1544.5 0.579417 4.75583 0
M  V30 16446 H 1542.86 0.211756 2.53818 0
M  V30 16447 H 1543.65 1.84456 2.89536 0
M  V30 16448 N 1546.09 -1.52004 0.416254 0
M  V30 16449 C 1547.02 -2.30106 -0.396671 0
M  V30 16450 C 1548 -1.34616 -1.03983 0
M  V30 16451 O 1549.19 -1.63528 -1.04749 0
M  V30 16452 C 1546.32 -3.12769 -1.50972 0
M  V30 16453 C 1545.27 -4.16365 -0.99119 0
M  V30 16454 C 1544.6 -4.87417 -2.19838 0
M  V30 16455 C 1545.9 -5.22284 -0.0402599 0
M  V30 16456 H 1547.59 -2.98312 0.255054 0
M  V30 16457 H 1545.14 -1.43464 0.124106 0
M  V30 16458 H 1547.09 -3.66178 -2.08547 0
M  V30 16459 H 1545.82 -2.42346 -2.18943 0
M  V30 16460 H 1544.47 -3.63976 -0.437803 0
M  V30 16461 H 1544.12 -4.13516 -2.8638 0
M  V30 16462 H 1543.82 -5.57454 -1.85792 0
M  V30 16463 H 1545.35 -5.43641 -2.78006 0
M  V30 16464 H 1546.76 -5.70891 -0.525027 0
M  V30 16465 H 1545.16 -5.99726 0.211742 0
M  V30 16466 H 1546.23 -4.7642 0.902877 0
M  V30 16467 N 1547.57 -0.146903 -1.56914 0
M  V30 16468 C 1548.82 0.503237 -1.95734 0
M  V30 16469 C 1549.14 1.65407 -1.03275 0
M  V30 16470 O 1548.41 1.95673 -0.0942784 0
M  V30 16471 H 1546.99 0.188899 -0.722721 0
M  V30 16472 H 1549.65 -0.222379 -1.93627 0
M  V30 16473 H 1548.75 0.879445 -2.99453 0
M  V30 16474 N 1549.05 1.57088 0.126881 0
M  V30 16475 C 1550.3 1.84436 0.836048 0
M  V30 16476 C 1550.62 0.730824 1.80248 0
M  V30 16477 O 1549.88 -0.278509 1.93708 0
M  V30 16478 C 1550.18 3.18225 1.62688 0
M  V30 16479 C 1549.84 4.43648 0.80545 0
M  V30 16480 C 1548.51 4.77705 0.578901 0
M  V30 16481 C 1550.86 5.20682 0.232355 0
M  V30 16482 C 1548.19 5.86245 -0.231126 0
M  V30 16483 C 1550.54 6.30073 -0.564819 0
M  V30 16484 C 1549.2 6.62667 -0.801759 0
M  V30 16485 H 1548.47 0.674898 0.305932 0
M  V30 16486 H 1551.12 1.91245 0.0987618 0
M  V30 16487 H 1549.42 3.06956 2.43485 0
M  V30 16488 H 1551.12 3.36604 2.17942 0
M  V30 16489 H 1547.71 4.16959 0.99211 0
M  V30 16490 H 1551.89 4.94729 0.394616 0
M  V30 16491 H 1547.15 6.09928 -0.423998 0
M  V30 16492 H 1551.32 6.8895 -1.01592 0
M  V30 16493 H 1548.95 7.46605 -1.43126 0
M  V30 16494 N 1550.53 -0.396836 1.52522 0
M  V30 16495 C 1551.76 -1.16235 1.70801 0
M  V30 16496 C 1552.16 -1.8442 0.422591 0
M  V30 16497 O 1551.51 -1.732 -0.612171 0
M  V30 16498 C 1551.57 -2.25922 2.79642 0
M  V30 16499 C 1551.23 -1.7777 4.21007 0
M  V30 16500 C 1552.23 -1.25873 5.04432 0
M  V30 16501 C 1549.92 -1.84231 4.67295 0
M  V30 16502 C 1551.91 -0.810733 6.32223 0
M  V30 16503 C 1549.6 -1.39043 5.95072 0
M  V30 16504 C 1550.59 -0.875508 6.77365 0
M  V30 16505 O 1550.28 -0.430197 8.02748 0
M  V30 16506 H 1550.01 -0.354799 0.575407 0
M  V30 16507 H 1552.57 -0.471344 1.99919 0
M  V30 16508 H 1550.8 -2.98424 2.45927 0
M  V30 16509 H 1552.49 -2.87629 2.86399 0
M  V30 16510 H 1553.25 -1.20244 4.69858 0
M  V30 16511 H 1549.13 -2.23253 4.03335 0
M  V30 16512 H 1552.68 -0.408137 6.96405 0
M  V30 16513 H 1548.57 -1.44354 6.29152 0
M  V30 16514 H 1549.34 -0.552389 8.16634 0
M  V30 16515 N 1552.01 -1.43353 -0.654814 0
M  V30 16516 C 1552.96 -1.44834 -1.76089 0
M  V30 16517 C 1553.94 -0.316999 -1.57746 0
M  V30 16518 O 1555.13 -0.560668 -1.67885 0
M  V30 16519 C 1552.26 -1.37256 -3.14668 0
M  V30 16520 C 1551.35 -2.55413 -3.38563 0
M  V30 16521 N 1551.74 -3.80769 -3.3294 0
M  V30 16522 C 1550.04 -2.50103 -3.69276 0
M  V30 16523 C 1550.74 -4.59366 -3.56872 0
M  V30 16524 N 1549.71 -3.90073 -3.78608 0
M  V30 16525 H 1553.51 -2.39628 -1.70164 0
M  V30 16526 H 1551.03 -1.37982 -0.856422 0
M  V30 16527 H 1553.03 -1.364 -3.93955 0
M  V30 16528 H 1551.69 -0.434805 -3.21776 0
M  V30 16529 H 1552.7 -4.13079 -3.12387 0
M  V30 16530 H 1549.37 -1.65007 -3.83509 0
M  V30 16531 H 1550.76 -5.68383 -3.58316 0
M  V30 16532 N 1553.48 0.89303 -1.29857 0
M  V30 16533 C 1554.73 1.64657 -1.18389 0
M  V30 16534 C 1555.06 1.92417 0.262587 0
M  V30 16535 O 1554.34 1.53936 1.18887 0
M  V30 16536 C 1554.62 2.99148 -2.00456 0
M  V30 16537 C 1554.47 2.78411 -3.53281 0
M  V30 16538 C 1555.79 3.99968 -1.83613 0
M  V30 16539 H 1552.91 0.59752 -0.431438 0
M  V30 16540 H 1555.55 1.03397 -1.59402 0
M  V30 16541 H 1553.7 3.51435 -1.65607 0
M  V30 16542 H 1555.38 2.32974 -3.98147 0
M  V30 16543 H 1553.62 2.13067 -3.77869 0
M  V30 16544 H 1554.29 3.74008 -4.05983 0
M  V30 16545 H 1556.77 3.56813 -2.14064 0
M  V30 16546 H 1555.64 4.91997 -2.43373 0
M  V30 16547 H 1555.9 4.34928 -0.793098 0
M  V30 16548 N 1554.96 1.12442 1.10429 0
M  V30 16549 C 1555.89 0.750131 2.16577 0
M  V30 16550 C 1556.91 -0.223265 1.61262 0
M  V30 16551 O 1558.1 -0.00459454 1.78499 0
M  V30 16552 C 1555.2 0.0895474 3.38782 0
M  V30 16553 C 1554.37 1.09242 4.23539 0
M  V30 16554 C 1553.43 0.45945 5.2419 0
M  V30 16555 O 1552.45 1.11646 5.58143 0
M  V30 16556 N 1553.66 -0.773093 5.75329 0
M  V30 16557 H 1556.42 1.66349 2.49295 0
M  V30 16558 H 1553.98 1.01603 1.26049 0
M  V30 16559 H 1555.97 -0.345895 4.03219 0
M  V30 16560 H 1554.54 -0.726572 3.04039 0
M  V30 16561 H 1553.76 1.70549 3.55396 0
M  V30 16562 H 1555.05 1.77057 4.76999 0
M  V30 16563 H 1554.45 -1.32585 5.49943 0
M  V30 16564 H 1553.01 -1.15135 6.41551 0
M  V30 16565 N 1556.44 -1.28223 0.91633 0
M  V30 16566 C 1557.39 -2.29188 0.396916 0
M  V30 16567 C 1558.38 -1.61453 -0.512763 0
M  V30 16568 O 1559.59 -1.75641 -0.393723 0
M  V30 16569 H 1555.96 -0.743947 0.109761 0
M  V30 16570 H 1557.93 -2.70423 1.2615 0
M  V30 16571 C 1556.68 -3.4598 -0.345452 0
M  V30 16572 H 1556.01 -3.98306 0.345326 0
M  V30 16573 H 1557.45 -4.18617 -0.67349 0
M  V30 16574 C 1555.9 -2.98904 -1.55429 0
M  V30 16575 O 1556.43 -3.01598 -2.65333 0
M  V30 16576 N 1554.64 -2.54534 -1.40217 0
M  V30 16577 H 1554.19 -2.52541 -0.508029 0
M  V30 16578 H 1554.15 -2.23397 -2.21227 0
M  V30 16579 N 1557.92 -0.68059 -1.42147 0
M  V30 16580 C 1559.17 -0.202445 -2.00681 0
M  V30 16581 C 1559.48 1.19997 -1.54467 0
M  V30 16582 O 1560.69 1.77479 -2.05459 0
M  V30 16583 C 1559.14 -0.311064 -3.58553 0
M  V30 16584 C 1558.75 -1.7179 -4.13754 0
M  V30 16585 C 1560.49 0.108072 -4.24362 0
M  V30 16586 C 1558.4 -1.77897 -5.64009 0
M  V30 16587 H 1557.33 -0.0719266 -0.750561 0
M  V30 16588 H 1559.98 -0.846614 -1.62803 0
M  V30 16589 H 1558.36 0.401098 -3.93963 0
M  V30 16590 H 1559.54 -2.45761 -3.89793 0
M  V30 16591 H 1557.85 -2.08539 -3.60417 0
M  V30 16592 H 1560.45 0.0826684 -5.34636 0
M  V30 16593 H 1560.79 1.14431 -4.00264 0
M  V30 16594 H 1561.33 -0.553285 -3.93933 0
M  V30 16595 H 1558.06 -2.79523 -5.92914 0
M  V30 16596 H 1557.58 -1.0829 -5.89944 0
M  V30 16597 H 1559.26 -1.53504 -6.28527 0
M  V30 16598 N 1559.4 1.51781 -0.424309 0
M  V30 16599 C 1560.36 2.25996 0.381903 0
M  V30 16600 C 1561.36 1.28938 0.960813 0
M  V30 16601 O 1562.55 1.52757 0.837306 0
M  V30 16602 C 1559.68 3.04181 1.53904 0
M  V30 16603 H 1560.87 2.98697 -0.268336 0
M  V30 16604 H 1558.43 1.55293 -0.177167 0
M  V30 16605 H 1559.16 2.35866 2.22571 0
M  V30 16606 H 1558.95 3.75457 1.13025 0
M  V30 16607 H 1560.44 3.60434 2.10896 0
M  V30 16608 N 1560.87 0.155222 1.56834 0
M  V30 16609 C 1562.12 -0.494557 1.96677 0
M  V30 16610 C 1562.45 -1.63973 1.04051 0
M  V30 16611 O 1561.73 -1.94316 0.0844791 0
M  V30 16612 C 1562.01 -0.992902 3.46141 0
M  V30 16613 C 1561.86 0.151335 4.49545 0
M  V30 16614 C 1563.18 -1.87197 3.98303 0
M  V30 16615 H 1560.3 -0.178298 0.715107 0
M  V30 16616 H 1562.94 0.23811 1.88502 0
M  V30 16617 H 1561.09 -1.61724 3.53239 0
M  V30 16618 H 1562.77 0.787945 4.54521 0
M  V30 16619 H 1561.01 0.809262 4.26185 0
M  V30 16620 H 1561.68 -0.23921 5.51481 0
M  V30 16621 H 1564.16 -1.34578 3.93736 0
M  V30 16622 H 1563.03 -2.18972 5.03331 0
M  V30 16623 H 1563.29 -2.81191 3.41151 0
M  V30 16624 N 1562.35 -1.57153 -0.118549 0
M  V30 16625 C 1563.26 -2.03673 -1.16424 0
M  V30 16626 C 1564.28 -0.957203 -1.45305 0
M  V30 16627 O 1565.45 -1.26874 -1.56413 0
M  V30 16628 C 1562.52 -2.43211 -2.47082 0
M  V30 16629 C 1561.58 -3.65248 -2.25593 0
M  V30 16630 C 1560.81 -4.02891 -3.50021 0
M  V30 16631 O 1561.04 -3.40871 -4.57344 0
M  V30 16632 O 1559.97 -4.95989 -3.40996 0
M  V30 16633 H 1563.8 -2.92996 -0.799206 0
M  V30 16634 H 1561.38 -1.45724 -0.329376 0
M  V30 16635 H 1563.26 -2.69374 -3.24061 0
M  V30 16636 H 1561.94 -1.57034 -2.83058 0
M  V30 16637 H 1560.84 -3.44234 -1.46471 0
M  V30 16638 H 1562.18 -4.52131 -1.94521 0
M  V30 16639 N 1563.83 0.388742 -1.5273 0
M  V30 16640 C 1565.08 1.13543 -1.68035 0
M  V30 16641 C 1565.41 1.89622 -0.419177 0
M  V30 16642 O 1564.68 1.85556 0.583031 0
M  V30 16643 C 1564.97 2.11346 -2.91556 0
M  V30 16644 C 1564.82 1.39029 -4.27775 0
M  V30 16645 C 1566.14 3.11769 -3.10625 0
M  V30 16646 H 1563.26 0.411406 -0.611485 0
M  V30 16647 H 1565.9 0.418781 -1.85327 0
M  V30 16648 H 1564.05 2.7246 -2.76944 0
M  V30 16649 H 1565.72 0.808775 -4.54155 0
M  V30 16650 H 1563.96 0.692133 -4.28243 0
M  V30 16651 H 1564.64 2.10495 -5.1029 0
M  V30 16652 H 1567.11 2.60745 -3.2427 0
M  V30 16653 H 1565.99 3.77447 -3.98529 0
M  V30 16654 H 1566.25 3.80649 -2.24853 0
M  V30 16655 N 1565.31 1.43698 0.647203 0
M  V30 16656 C 1566.54 1.49085 1.43462 0
M  V30 16657 C 1566.95 0.110605 1.88476 0
M  V30 16658 O 1566.31 -0.880365 1.59862 0
M  V30 16659 C 1566.36 2.44186 2.66562 0
M  V30 16660 O 1566.08 3.76844 2.23429 0
M  V30 16661 C 1567.58 2.58876 3.59858 0
M  V30 16662 H 1564.8 0.506148 0.440517 0
M  V30 16663 H 1567.34 1.88502 0.792931 0
M  V30 16664 H 1565.5 2.07949 3.26858 0
M  V30 16665 H 1565.91 4.2804 3.0312 0
M  V30 16666 H 1567.39 3.29482 4.42883 0
M  V30 16667 H 1567.86 1.63567 4.07606 0
M  V30 16668 H 1568.47 2.95949 3.05441 0
M  V30 16669 N 1566.79 -0.886131 1.30328 0
M  V30 16670 C 1567.73 -1.99174 1.16612 0
M  V30 16671 C 1568.7 -1.66006 0.0559202 0
M  V30 16672 O 1569.89 -1.89458 0.225897 0
M  V30 16673 C 1567.03 -3.34142 0.862726 0
M  V30 16674 C 1566.14 -3.80008 2.05469 0
M  V30 16675 C 1565.28 -5.03617 1.68949 0
M  V30 16676 C 1564.32 -5.41888 2.84647 0
M  V30 16677 N 1563.45 -6.56678 2.48431 0
M  V30 16678 H 1568.29 -2.10238 2.11197 0
M  V30 16679 H 1565.83 -1.02941 1.05079 0
M  V30 16680 H 1567.79 -4.11826 0.667447 0
M  V30 16681 H 1566.42 -3.22767 -0.0462461 0
M  V30 16682 H 1565.47 -2.98243 2.36126 0
M  V30 16683 H 1566.78 -4.04312 2.92119 0
M  V30 16684 H 1565.94 -5.88923 1.45789 0
M  V30 16685 H 1564.67 -4.81182 0.794674 0
M  V30 16686 H 1563.68 -4.55109 3.08474 0
M  V30 16687 H 1564.9 -5.66296 3.74813 0
M  V30 16688 H 1562.85 -6.35821 1.61453 0
M  V30 16689 H 1562.77 -6.80846 3.28611 0
M  V30 16690 H 1564.04 -7.45219 2.28624 0
M  V30 16691 N 1568.26 -1.13026 -1.09832 0
M  V30 16692 C 1569.49 -0.912803 -1.86233 0
M  V30 16693 C 1569.91 0.532955 -1.80392 0
M  V30 16694 O 1569.27 1.37783 -1.17837 0
M  V30 16695 C 1569.32 -1.40002 -3.32313 0
M  V30 16696 O 1568.42 -0.582537 -4.08265 0
M  V30 16697 H 1567.77 -0.327464 -0.577636 0
M  V30 16698 H 1570.3 -1.5039 -1.38723 0
M  V30 16699 H 1570.31 -1.40182 -3.83162 0
M  V30 16700 H 1568.98 -2.4527 -3.3588 0
M  V30 16701 H 1567.56 -0.648255 -3.67222 0
M  V30 16702 N 1569.74 1.27735 -0.923117 0
M  V30 16703 C 1570.99 1.9457 -0.561149 0
M  V30 16704 C 1571.32 1.72591 0.896805 0
M  V30 16705 O 1570.57 1.04546 1.65434 0
M  V30 16706 C 1570.87 3.47677 -0.827959 0
M  V30 16707 C 1570.54 3.8977 -2.26693 0
M  V30 16708 C 1569.2 4.00973 -2.66033 0
M  V30 16709 C 1571.55 4.11173 -3.20291 0
M  V30 16710 C 1568.88 4.30963 -3.98105 0
M  V30 16711 C 1571.23 4.42645 -4.51938 0
M  V30 16712 C 1569.9 4.52061 -4.91119 0
M  V30 16713 H 1569.17 0.711981 -0.205339 0
M  V30 16714 H 1571.81 1.51894 -1.16621 0
M  V30 16715 H 1570.12 3.91549 -0.140178 0
M  V30 16716 H 1571.81 3.97523 -0.526932 0
M  V30 16717 H 1568.4 3.81584 -1.95171 0
M  V30 16718 H 1572.59 4.01962 -2.91102 0
M  V30 16719 H 1567.84 4.36461 -4.28149 0
M  V30 16720 H 1572.02 4.58153 -5.2447 0
M  V30 16721 H 1569.65 4.75053 -5.93488 0
M  V30 16722 N 1571.22 0.688118 1.41784 0
M  V30 16723 C 1572.47 0.213085 2.00571 0
M  V30 16724 C 1572.78 -1.19176 1.55101 0
M  V30 16725 O 1573.99 -1.76387 2.06397 0
M  V30 16726 C 1572.44 0.330075 3.58383 0
M  V30 16727 C 1572.05 1.73981 4.12837 0
M  V30 16728 C 1573.8 -0.0855651 4.24414 0
M  V30 16729 C 1571.7 1.80886 5.63058 0
M  V30 16730 H 1570.63 0.075906 0.750169 0
M  V30 16731 H 1573.28 0.855236 1.62351 0
M  V30 16732 H 1571.67 -0.380199 3.94171 0
M  V30 16733 H 1572.84 2.47825 3.88484 0
M  V30 16734 H 1571.16 2.10447 3.59306 0
M  V30 16735 H 1573.75 -0.0543142 5.34672 0
M  V30 16736 H 1574.1 -1.12307 4.00865 0
M  V30 16737 H 1574.63 0.574169 3.93635 0
M  V30 16738 H 1571.37 2.82663 5.91424 0
M  V30 16739 H 1570.89 1.11417 5.89361 0
M  V30 16740 H 1572.57 1.56835 6.27704 0
M  V30 16741 N 1572.7 -1.51554 0.432352 0
M  V30 16742 C 1573.61 -2.31371 -0.387885 0
M  V30 16743 C 1574.62 -1.40072 -1.03227 0
M  V30 16744 O 1575.8 -1.73145 -1.02873 0
M  V30 16745 C 1572.87 -3.13662 -1.47705 0
M  V30 16746 C 1571.93 -4.20734 -0.853315 0
M  V30 16747 C 1571.16 -4.99092 -1.89058 0
M  V30 16748 O 1571.38 -4.78022 -3.11209 0
M  V30 16749 O 1570.32 -5.83322 -1.48389 0
M  V30 16750 H 1574.14 -3.02554 0.263578 0
M  V30 16751 H 1571.73 -1.48122 0.195004 0
M  V30 16752 H 1573.61 -3.64837 -2.10884 0
M  V30 16753 H 1572.28 -2.45249 -2.11269 0
M  V30 16754 H 1571.19 -3.73649 -0.183616 0
M  V30 16755 H 1572.52 -4.91506 -0.261244 0
M  V30 16756 N 1574.18 -0.163538 -1.56749 0
M  V30 16757 C 1575.41 0.489178 -2.00725 0
M  V30 16758 C 1575.81 1.57869 -1.04279 0
M  V30 16759 O 1575.16 1.83668 -0.0344434 0
M  V30 16760 C 1575.22 1.13443 -3.41132 0
M  V30 16761 C 1574.88 0.187525 -4.56615 0
M  V30 16762 C 1575.88 -0.591169 -5.16528 0
M  V30 16763 C 1573.57 0.0856149 -5.02227 0
M  V30 16764 C 1575.56 -1.45905 -6.20476 0
M  V30 16765 C 1573.25 -0.785859 -6.06026 0
M  V30 16766 C 1574.24 -1.55678 -6.65021 0
M  V30 16767 O 1573.93 -2.41371 -7.66809 0
M  V30 16768 H 1573.66 0.130353 -0.663313 0
M  V30 16769 H 1576.22 -0.260065 -2.03747 0
M  V30 16770 H 1574.45 1.93165 -3.34999 0
M  V30 16771 H 1576.14 1.68856 -3.69111 0
M  V30 16772 H 1576.9 -0.522563 -4.82177 0
M  V30 16773 H 1572.78 0.675439 -4.56025 0
M  V30 16774 H 1576.33 -2.06125 -6.66452 0
M  V30 16775 H 1572.22 -0.855696 -6.39803 0
M  V30 16776 H 1572.99 -2.34801 -7.84099 0
M  V30 16777 N 1575.65 1.57214 0.110213 0
M  V30 16778 C 1576.9 1.84498 0.815059 0
M  V30 16779 C 1577.22 0.750531 1.80628 0
M  V30 16780 O 1578.42 0.910042 2.55794 0
M  V30 16781 C 1576.88 3.27138 1.50028 0
M  V30 16782 C 1576.49 4.44616 0.549603 0
M  V30 16783 C 1578.23 3.63662 2.18975 0
M  V30 16784 C 1576.14 5.78285 1.23855 0
M  V30 16785 H 1575.07 0.688165 0.308132 0
M  V30 16786 H 1577.72 1.83374 0.0678595 0
M  V30 16787 H 1576.1 3.22758 2.29441 0
M  V30 16788 H 1577.27 4.60312 -0.211944 0
M  V30 16789 H 1575.59 4.16387 -0.0333571 0
M  V30 16790 H 1578.19 4.60804 2.71226 0
M  V30 16791 H 1578.53 2.91532 2.97178 0
M  V30 16792 H 1579.06 3.69865 1.46439 0
M  V30 16793 H 1575.8 6.53608 0.497629 0
M  V30 16794 H 1575.32 5.66459 1.9719 0
M  V30 16795 H 1577 6.22338 1.76929 0
M  V30 16796 N 1577.13 -0.380637 1.52934 0
M  V30 16797 C 1578.08 -1.46544 1.78307 0
M  V30 16798 C 1579.05 -1.53825 0.626671 0
M  V30 16799 O 1580.23 -1.6995 0.867276 0
M  V30 16800 C 1577.37 -2.83676 1.96525 0
M  V30 16801 C 1576.49 -2.85481 3.24229 0
M  V30 16802 C 1575.62 -4.14092 3.32718 0
M  V30 16803 C 1574.66 -4.09982 4.54512 0
M  V30 16804 N 1573.8 -5.30214 4.60237 0
M  V30 16805 H 1578.64 -1.24209 2.7088 0
M  V30 16806 H 1576.18 -0.60241 1.34199 0
M  V30 16807 H 1578.13 -3.63319 2.05073 0
M  V30 16808 H 1576.76 -3.04443 1.07304 0
M  V30 16809 H 1575.82 -1.98159 3.24711 0
M  V30 16810 H 1577.13 -2.78313 4.13936 0
M  V30 16811 H 1576.28 -5.02144 3.40494 0
M  V30 16812 H 1575.02 -4.23993 2.41 0
M  V30 16813 H 1574.03 -3.20317 4.46852 0
M  V30 16814 H 1575.25 -4.01696 5.47556 0
M  V30 16815 H 1573.2 -5.40729 3.71414 0
M  V30 16816 H 1573.11 -5.25155 5.43827 0
M  V30 16817 H 1574.38 -6.2014 4.72279 0
M  V30 16818 N 1578.61 -1.44039 -0.639573 0
M  V30 16819 C 1579.84 -1.50063 -1.43164 0
M  V30 16820 C 1580.26 -0.123906 -1.87691 0
M  V30 16821 O 1579.62 0.885192 -1.58221 0
M  V30 16822 C 1579.67 -2.46305 -2.63375 0
M  V30 16823 O 1578.77 -1.95874 -3.62915 0
M  V30 16824 H 1578.11 -0.507052 -0.428713 0
M  V30 16825 H 1580.64 -1.8909 -0.781415 0
M  V30 16826 H 1580.65 -2.64062 -3.11023 0
M  V30 16827 H 1579.33 -3.46309 -2.3031 0
M  V30 16828 H 1577.9 -1.87844 -3.22132 0
M  V30 16829 N 1580.09 0.879207 -1.30796 0
M  V30 16830 C 1581.02 1.99134 -1.13482 0
M  V30 16831 C 1582.03 1.6262 -0.0764492 0
M  V30 16832 O 1583.22 1.75553 -0.323038 0
M  V30 16833 C 1580.32 3.31386 -0.709706 0
M  V30 16834 C 1579.5 3.963 -1.85108 0
M  V30 16835 C 1578.55 5.06858 -1.41356 0
M  V30 16836 O 1577.58 5.28178 -2.12172 0
M  V30 16837 N 1578.78 5.79746 -0.295789 0
M  V30 16838 H 1581.55 2.14536 -2.09271 0
M  V30 16839 H 1579.11 1.05264 -1.23009 0
M  V30 16840 H 1581.1 4.02719 -0.399903 0
M  V30 16841 H 1579.67 3.12209 0.156309 0
M  V30 16842 H 1578.89 3.18065 -2.3287 0
M  V30 16843 H 1580.18 4.36408 -2.61582 0
M  V30 16844 H 1579.58 5.64935 0.294166 0
M  V30 16845 H 1578.13 6.51784 -0.0454707 0
M  V30 16846 N 1581.57 1.13606 1.09231 0
M  V30 16847 C 1582.98 0.91148 1.62938 0
M  V30 16848 C 1583.33 -0.55157 1.88287 0
M  V30 16849 O 1582.45 -1.4187 1.63407 0
M  V30 16850 C 1583.05 1.64812 2.96011 0
M  V30 16851 C 1581.61 1.46935 3.46536 0
M  V30 16852 C 1580.76 1.67605 2.20916 0
M  V30 16853 H 1583.71 1.28907 0.925669 0
M  V30 16854 H 1583.73 1.10638 3.6406 0
M  V30 16855 H 1583.24 2.71291 2.77529 0
M  V30 16856 H 1581.34 0.427667 3.70138 0
M  V30 16857 H 1581.45 2.23374 4.2384 0
M  V30 16858 H 1579.82 1.10105 2.29672 0
M  V30 16859 H 1580.6 2.75408 2.04952 0
M  V30 16860 N 1583.05 -1.27244 0.929878 0
M  V30 16861 C 1584.29 -1.93559 0.567267 0
M  V30 16862 C 1584.61 -1.73864 -0.896138 0
M  V30 16863 O 1585.81 -2.34538 -1.36763 0
M  V30 16864 C 1584.27 -3.46756 0.963743 0
M  V30 16865 C 1583.88 -3.75204 2.44798 0
M  V30 16866 C 1585.62 -4.19139 0.672487 0
M  V30 16867 C 1583.53 -5.21787 2.78375 0
M  V30 16868 H 1582.46 -0.724617 0.208437 0
M  V30 16869 H 1585.11 -1.44502 1.13099 0
M  V30 16870 H 1583.49 -3.94634 0.328654 0
M  V30 16871 H 1584.67 -3.38075 3.13116 0
M  V30 16872 H 1582.98 -3.16029 2.71136 0
M  V30 16873 H 1585.58 -5.27074 0.899816 0
M  V30 16874 H 1585.92 -4.14466 -0.390378 0
M  V30 16875 H 1586.45 -3.77091 1.26678 0
M  V30 16876 H 1583.19 -5.31552 3.83579 0
M  V30 16877 H 1582.71 -5.60054 2.14708 0
M  V30 16878 H 1584.39 -5.89685 2.66234 0
M  V30 16879 N 1584.52 -0.695628 -1.41417 0
M  V30 16880 C 1585.77 -0.226954 -2.01526 0
M  V30 16881 C 1586.1 1.1704 -1.54968 0
M  V30 16882 O 1585.38 1.78999 -0.760895 0
M  V30 16883 C 1585.66 -0.284704 -3.58973 0
M  V30 16884 C 1585.51 -1.71901 -4.15656 0
M  V30 16885 C 1586.83 0.355454 -4.38662 0
M  V30 16886 H 1583.95 -0.0839425 -0.732204 0
M  V30 16887 H 1586.59 -0.884359 -1.68164 0
M  V30 16888 H 1584.74 0.275041 -3.87525 0
M  V30 16889 H 1586.42 -2.3326 -3.97979 0
M  V30 16890 H 1584.66 -2.25314 -3.70696 0
M  V30 16891 H 1585.33 -1.71095 -5.24815 0
M  V30 16892 H 1587.81 -0.121256 -4.15923 0
M  V30 16893 H 1586.68 0.284503 -5.48162 0
M  V30 16894 H 1586.94 1.43617 -4.18123 0
M  V30 16895 N 1586 1.51322 -0.440383 0
M  V30 16896 C 1587.25 2.02113 0.125062 0
M  V30 16897 C 1587.58 1.32436 1.42446 0
M  V30 16898 O 1586.83 0.428981 1.9094 0
M  V30 16899 C 1587.13 3.55287 0.388079 0
M  V30 16900 C 1586.8 4.43272 -0.825876 0
M  V30 16901 C 1585.46 4.67039 -1.15878 0
M  V30 16902 C 1587.81 4.94872 -1.63557 0
M  V30 16903 C 1585.14 5.39652 -2.30201 0
M  V30 16904 C 1587.49 5.68739 -2.76981 0
M  V30 16905 C 1586.15 5.90769 -3.10722 0
M  V30 16906 H 1585.42 0.739585 0.0457635 0
M  V30 16907 H 1588.07 1.82243 -0.588201 0
M  V30 16908 H 1586.38 3.73505 1.18327 0
M  V30 16909 H 1588.07 3.92124 0.839055 0
M  V30 16910 H 1584.66 4.24972 -0.556468 0
M  V30 16911 H 1588.85 4.76391 -1.39158 0
M  V30 16912 H 1584.1 5.54923 -2.56653 0
M  V30 16913 H 1588.28 6.07711 -3.40089 0
M  V30 16914 H 1585.9 6.46814 -3.9942 0
M  V30 16915 N 1587.48 0.171848 1.5666 0
M  V30 16916 C 1588.39 -0.770721 2.21579 0
M  V30 16917 C 1589.41 -1.25273 1.20759 0
M  V30 16918 O 1590.58 -1.30474 1.53422 0
M  V30 16919 C 1587.65 -1.98256 2.84422 0
M  V30 16920 C 1586.71 -1.54738 4.00443 0
M  V30 16921 C 1585.94 -2.70145 4.6028 0
M  V30 16922 O 1586.16 -3.87026 4.19007 0
M  V30 16923 O 1585.1 -2.44189 5.50141 0
M  V30 16924 H 1588.92 -0.247974 3.02686 0
M  V30 16925 H 1586.51 -0.0563734 1.49294 0
M  V30 16926 H 1588.39 -2.69127 3.24266 0
M  V30 16927 H 1587.07 -2.49435 2.0631 0
M  V30 16928 H 1585.97 -0.808152 3.65267 0
M  V30 16929 H 1587.31 -1.08249 4.80149 0
M  V30 16930 N 1588.96 -1.5727 -0.101874 0
M  V30 16931 C 1590.2 -1.86017 -0.807795 0
M  V30 16932 C 1590.54 -0.760024 -1.7871 0
M  V30 16933 O 1589.81 0.232627 -1.93104 0
M  V30 16934 C 1590.09 -3.25388 -1.54255 0
M  V30 16935 C 1589.95 -4.46023 -0.581693 0
M  V30 16936 C 1591.27 -3.62561 -2.49474 0
M  V30 16937 H 1588.39 -0.676596 -0.29221 0
M  V30 16938 H 1591.03 -1.89865 -0.0715861 0
M  V30 16939 H 1589.18 -3.22239 -2.17013 0
M  V30 16940 H 1590.85 -4.61284 0.0383529 0
M  V30 16941 H 1589.09 -4.33672 0.105465 0
M  V30 16942 H 1589.76 -5.40251 -1.1328 0
M  V30 16943 H 1592.24 -3.66611 -1.96813 0
M  V30 16944 H 1591.12 -4.61025 -2.97905 0
M  V30 16945 H 1591.38 -2.90885 -3.32924 0
M  V30 16946 N 1590.44 0.372521 -1.53134 0
M  V30 16947 C 1591.68 1.11589 -1.6898 0
M  V30 16948 C 1592.01 1.89503 -0.438049 0
M  V30 16949 O 1591.27 1.86911 0.579891 0
M  V30 16950 C 1591.56 2.10742 -2.88656 0
M  V30 16951 C 1591.23 1.49361 -4.25443 0
M  V30 16952 C 1589.89 1.32348 -4.62642 0
M  V30 16953 C 1592.24 1.04889 -5.10537 0
M  V30 16954 C 1589.57 0.694368 -5.82577 0
M  V30 16955 C 1591.92 0.433809 -6.31111 0
M  V30 16956 C 1590.59 0.251118 -6.67027 0
M  V30 16957 H 1589.86 0.408333 -0.618341 0
M  V30 16958 H 1592.51 0.398507 -1.87308 0
M  V30 16959 H 1590.81 2.88759 -2.64812 0
M  V30 16960 H 1592.51 2.682 -2.98111 0
M  V30 16961 H 1589.1 1.63594 -3.9615 0
M  V30 16962 H 1593.28 1.16829 -4.82353 0
M  V30 16963 H 1588.54 0.541171 -6.09 0
M  V30 16964 H 1592.71 0.0809859 -6.96353 0
M  V30 16965 H 1590.34 -0.23844 -7.59826 0
M  V30 16966 N 1591.91 1.44376 0.631925 0
M  V30 16967 C 1593.16 1.46827 1.38875 0
M  V30 16968 C 1593.48 0.101789 1.94734 0
M  V30 16969 O 1592.75 -0.86579 1.7573 0
M  V30 16970 H 1591.33 0.540642 0.515475 0
M  V30 16971 H 1593.99 1.80148 0.743822 0
M  V30 16972 H 1593.09 2.19321 2.22047 0
M  V30 16973 N 1593.39 -0.872258 1.31261 0
M  V30 16974 C 1594.34 -1.96688 1.15317 0
M  V30 16975 C 1595.33 -1.60769 0.0647922 0
M  V30 16976 O 1596.52 -1.74617 0.289469 0
M  V30 16977 C 1593.65 -3.32347 0.860242 0
M  V30 16978 C 1592.73 -3.7454 1.98948 0
M  V30 16979 N 1593.12 -3.88715 3.23627 0
M  V30 16980 C 1591.42 -4.04035 1.88871 0
M  V30 16981 C 1592.12 -4.24718 3.97478 0
M  V30 16982 N 1591.1 -4.35278 3.25629 0
M  V30 16983 H 1594.9 -2.05755 2.09862 0
M  V30 16984 H 1592.41 -1.0629 1.22785 0
M  V30 16985 H 1594.41 -4.10512 0.727004 0
M  V30 16986 H 1593.07 -3.24609 -0.0770132 0
M  V30 16987 H 1594.08 -3.73504 3.58769 0
M  V30 16988 H 1590.76 -4.04698 1.02595 0
M  V30 16989 H 1592.15 -4.43302 5.04909 0
M  V30 16990 N 1594.87 -1.14184 -1.08627 0
M  V30 16991 C 1596.1 -0.930752 -1.84447 0
M  V30 16992 C 1596.51 0.524072 -1.81797 0
M  V30 16993 O 1595.85 1.37483 -1.21836 0
M  V30 16994 C 1595.91 -1.35125 -3.33139 0
M  V30 16995 C 1595.58 -2.82117 -3.59526 0
M  V30 16996 C 1596.57 -3.80242 -3.54559 0
M  V30 16997 C 1594.26 -3.19475 -3.87609 0
M  V30 16998 C 1596.25 -5.13734 -3.77301 0
M  V30 16999 C 1593.94 -4.53144 -4.10005 0
M  V30 17000 C 1594.94 -5.50082 -4.04844 0
M  V30 17001 O 1594.63 -6.81339 -4.26653 0
M  V30 17002 H 1594.36 -0.331385 -0.589203 0
M  V30 17003 H 1596.91 -1.52033 -1.38113 0
M  V30 17004 H 1595.14 -0.704995 -3.80219 0
M  V30 17005 H 1596.83 -1.11133 -3.9039 0
M  V30 17006 H 1597.6 -3.52726 -3.32881 0
M  V30 17007 H 1593.48 -2.44617 -3.90747 0
M  V30 17008 H 1597.02 -5.89386 -3.73188 0
M  V30 17009 H 1592.92 -4.80381 -4.31166 0
M  V30 17010 H 1593.68 -6.87563 -4.44071 0
M  V30 17011 N 1596.35 1.26749 -0.936613 0
M  V30 17012 C 1597.28 2.25684 -0.399941 0
M  V30 17013 C 1598.29 1.55739 0.474271 0
M  V30 17014 O 1599.48 1.76203 0.285454 0
M  V30 17015 C 1596.58 3.35969 0.444733 0
M  V30 17016 C 1595.76 4.35453 -0.412258 0
M  V30 17017 C 1594.81 5.24889 0.37123 0
M  V30 17018 O 1593.84 5.68758 -0.224162 0
M  V30 17019 N 1595.04 5.55993 1.66889 0
M  V30 17020 H 1597.81 2.72368 -1.25043 0
M  V30 17021 H 1595.37 1.40468 -0.805 0
M  V30 17022 H 1597.36 3.92751 0.976159 0
M  V30 17023 H 1595.93 2.88816 1.196 0
M  V30 17024 H 1595.15 3.77808 -1.12493 0
M  V30 17025 H 1596.44 4.9892 -0.997822 0
M  V30 17026 H 1595.84 5.22224 2.17481 0
M  V30 17027 H 1594.39 6.15436 2.14666 0
M  V30 17028 N 1597.83 0.703118 1.41046 0
M  V30 17029 C 1598.76 0.00331992 2.292 0
M  V30 17030 C 1599.77 -0.736648 1.4518 0
M  V30 17031 O 1600.96 -0.586097 1.68604 0
M  V30 17032 C 1598.06 -1.01948 3.23203 0
M  V30 17033 C 1597.23 -0.347591 4.36017 0
M  V30 17034 C 1596.29 -1.27404 5.10543 0
M  V30 17035 O 1595.32 -0.763558 5.64055 0
M  V30 17036 N 1596.52 -2.60596 5.1872 0
M  V30 17037 H 1599.29 0.760179 2.89899 0
M  V30 17038 H 1596.85 0.549747 1.52281 0
M  V30 17039 H 1598.84 -1.64115 3.6993 0
M  V30 17040 H 1597.41 -1.6778 2.63758 0
M  V30 17041 H 1596.63 0.454088 3.91576 0
M  V30 17042 H 1597.92 0.119295 5.0866 0
M  V30 17043 H 1597.31 -3.0458 4.76705 0
M  V30 17044 H 1595.87 -3.17939 5.68998 0
M  V30 17045 N 1599.3 -1.51086 0.448402 0
M  V30 17046 C 1600.25 -2.24885 -0.375609 0
M  V30 17047 C 1601.24 -1.27553 -0.980769 0
M  V30 17048 O 1602.43 -1.52583 -0.897076 0
M  V30 17049 C 1599.56 -3.10235 -1.47 0
M  V30 17050 C 1598.65 -4.15003 -0.873686 0
M  V30 17051 N 1599.04 -5.05799 -0.00756268 0
M  V30 17052 C 1597.33 -4.31182 -1.14009 0
M  V30 17053 C 1598.04 -5.80772 0.328514 0
M  V30 17054 N 1597.01 -5.42822 -0.290661 0
M  V30 17055 H 1600.81 -2.92446 0.291962 0
M  V30 17056 H 1598.33 -1.60287 0.261145 0
M  V30 17057 H 1600.32 -3.61691 -2.07328 0
M  V30 17058 H 1598.98 -2.44219 -2.13979 0
M  V30 17059 H 1600 -5.1665 0.359676 0
M  V30 17060 H 1596.67 -3.7639 -1.80656 0
M  V30 17061 H 1598.06 -6.63896 1.03399 0
M  V30 17062 N 1600.78 -0.180154 -1.56567 0
M  V30 17063 C 1602.19 0.335054 -1.83669 0
M  V30 17064 C 1602.54 1.62443 -1.1003 0
M  V30 17065 O 1601.67 2.13448 -0.356205 0
M  V30 17066 C 1602.26 0.61468 -3.33177 0
M  V30 17067 C 1600.82 1.0743 -3.60743 0
M  V30 17068 C 1599.97 0.114877 -2.77062 0
M  V30 17069 H 1602.92 -0.404245 -1.53465 0
M  V30 17070 H 1602.94 1.46574 -3.51136 0
M  V30 17071 H 1602.45 -0.323923 -3.86746 0
M  V30 17072 H 1600.56 2.0277 -3.12594 0
M  V30 17073 H 1600.67 0.977349 -4.69025 0
M  V30 17074 H 1599.03 0.613933 -2.4719 0
M  V30 17075 H 1599.82 -0.817904 -3.33414 0
M  V30 17076 N 1602.26 1.57322 0.0935319 0
M  V30 17077 C 1603.51 1.86167 0.796739 0
M  V30 17078 C 1603.84 0.768893 1.78657 0
M  V30 17079 O 1603.09 -0.237358 1.94255 0
M  V30 17080 C 1603.39 3.21605 1.55901 0
M  V30 17081 C 1603.06 4.45256 0.711165 0
M  V30 17082 C 1601.72 4.78826 0.477442 0
M  V30 17083 C 1604.07 5.21058 0.121859 0
M  V30 17084 C 1601.4 5.85622 -0.355425 0
M  V30 17085 C 1603.75 6.28734 -0.69834 0
M  V30 17086 C 1602.41 6.60818 -0.94214 0
M  V30 17087 H 1601.68 0.681235 0.291547 0
M  V30 17088 H 1604.33 1.91412 0.0581736 0
M  V30 17089 H 1602.64 3.12052 2.36919 0
M  V30 17090 H 1604.33 3.41151 2.10753 0
M  V30 17091 H 1600.92 4.1897 0.903444 0
M  V30 17092 H 1605.11 4.95454 0.289588 0
M  V30 17093 H 1600.36 6.08891 -0.553277 0
M  V30 17094 H 1604.54 6.8664 -1.16183 0
M  V30 17095 H 1602.16 7.43401 -1.5893 0
M  V30 17096 N 1603.74 -0.364395 1.53329 0
M  V30 17097 C 1605.15 -0.941133 1.61244 0
M  V30 17098 C 1605.5 -1.90223 0.480596 0
M  V30 17099 O 1604.63 -2.12805 -0.392805 0
M  V30 17100 C 1605.22 -1.7137 2.92263 0
M  V30 17101 C 1603.78 -2.23976 3.02509 0
M  V30 17102 C 1602.93 -1.05253 2.56548 0
M  V30 17103 H 1605.88 -0.143153 1.58053 0
M  V30 17104 H 1605.9 -2.575 2.80132 0
M  V30 17105 H 1605.41 -1.01395 3.74621 0
M  V30 17106 H 1603.51 -2.9719 2.24741 0
M  V30 17107 H 1603.62 -2.51777 4.07609 0
M  V30 17108 H 1601.99 -1.41986 2.11452 0
M  V30 17109 H 1602.77 -0.367744 3.41325 0
M  V30 17110 N 1605.22 -1.44709 -0.62426 0
M  V30 17111 C 1606.63 -1.42523 -1.20599 0
M  V30 17112 C 1606.98 -0.144129 -1.9567 0
M  V30 17113 O 1606.1 0.755175 -2.02796 0
M  V30 17114 C 1606.7 -2.58194 -2.19365 0
M  V30 17115 C 1605.26 -2.59181 -2.72951 0
M  V30 17116 C 1604.4 -2.34461 -1.48065 0
M  V30 17117 H 1607.36 -1.5319 -0.414532 0
M  V30 17118 H 1607.38 -2.3134 -3.02096 0
M  V30 17119 H 1606.89 -3.5142 -1.64699 0
M  V30 17120 H 1604.99 -1.69916 -3.31601 0
M  V30 17121 H 1605.1 -3.57884 -3.18521 0
M  V30 17122 H 1603.47 -1.83688 -1.76439 0
M  V30 17123 H 1604.25 -3.2981 -0.952918 0
M  V30 17124 N 1606.69 0.865285 -1.31722 0
M  V30 17125 C 1607.62 1.98871 -1.22362 0
M  V30 17126 C 1608.61 1.69745 -0.109779 0
M  V30 17127 O 1609.79 1.91944 -0.295167 0
M  V30 17128 C 1606.92 3.34477 -0.935 0
M  V30 17129 C 1605.87 3.77924 -2.00892 0
M  V30 17130 C 1605.2 5.11042 -1.57291 0
M  V30 17131 C 1606.5 3.94528 -3.42264 0
M  V30 17132 H 1608.19 2.06959 -2.16352 0
M  V30 17133 H 1605.74 0.994355 -1.04157 0
M  V30 17134 H 1607.69 4.12612 -0.856111 0
M  V30 17135 H 1606.42 3.26575 0.0405536 0
M  V30 17136 H 1605.08 3.02032 -2.07779 0
M  V30 17137 H 1604.72 4.99586 -0.585084 0
M  V30 17138 H 1604.42 5.41082 -2.29138 0
M  V30 17139 H 1605.95 5.91681 -1.50818 0
M  V30 17140 H 1607.36 4.63045 -3.38027 0
M  V30 17141 H 1605.76 4.35972 -4.12369 0
M  V30 17142 H 1606.83 2.97765 -3.82706 0
M  V30 17143 N 1608.17 1.14759 1.0802 0
M  V30 17144 C 1609.41 0.928685 1.82085 0
M  V30 17145 C 1609.78 -0.534958 1.84397 0
M  V30 17146 O 1610.98 -0.871945 2.54265 0
M  V30 17147 C 1609.25 1.51791 3.23565 0
M  V30 17148 S 1610.81 1.44114 4.14459 0
M  V30 17149 H 1607.63 0.334389 0.627459 0
M  V30 17150 H 1610.23 1.46182 1.29812 0
M  V30 17151 H 1608.93 2.57622 3.19467 0
M  V30 17152 H 1608.46 0.983343 3.80912 0
M  V30 17153 H 1610.48 0.429366 4.94339 0
M  V30 17154 N 1609.65 -1.26251 0.943322 0
M  V30 17155 C 1610.6 -2.26304 0.453315 0
M  V30 17156 C 1611.57 -1.58764 -0.488168 0
M  V30 17157 O 1612.75 -1.86476 -0.403906 0
M  V30 17158 C 1609.89 -3.44015 -0.273393 0
M  V30 17159 C 1609.01 -4.26225 0.70401 0
M  V30 17160 C 1608.14 -5.31182 -0.0441134 0
M  V30 17161 C 1607.18 -6.05071 0.924971 0
M  V30 17162 N 1606.32 -7.0179 0.208461 0
M  V30 17163 H 1611.16 -2.67591 1.31146 0
M  V30 17164 H 1608.69 -1.31567 0.657914 0
M  V30 17165 H 1610.65 -4.11094 -0.711192 0
M  V30 17166 H 1609.28 -3.03636 -1.09566 0
M  V30 17167 H 1608.33 -3.58915 1.26032 0
M  V30 17168 H 1609.65 -4.77442 1.44398 0
M  V30 17169 H 1608.8 -6.04282 -0.541091 0
M  V30 17170 H 1607.54 -4.80809 -0.816952 0
M  V30 17171 H 1606.54 -5.30795 1.43305 0
M  V30 17172 H 1607.77 -6.57533 1.69785 0
M  V30 17173 H 1605.71 -6.53725 -0.545846 0
M  V30 17174 H 1605.63 -7.5077 0.887725 0
M  V30 17175 H 1606.9 -7.79041 -0.267352 0
M  V30 17176 N 1611.13 -0.710588 -1.40671 0
M  V30 17177 C 1612.41 -0.175319 -1.94813 0
M  V30 17178 C 1612.79 1.31792 -1.64906 0
M  V30 17179 O 1612.13 2.07167 -0.964058 0
M  V30 17180 C 1612.34 -0.482691 -3.45646 0
M  V30 17181 C 1613.69 -0.418619 -4.22531 0
M  V30 17182 O 1614.72 -0.418463 -3.53733 0
M  V30 17183 O 1613.58 -0.391787 -5.45094 0
M  V30 17184 H 1610.67 -0.0237744 -0.826658 0
M  V30 17185 H 1613.22 -0.787778 -1.50307 0
M  V30 17186 H 1611.99 -1.51569 -3.60753 0
M  V30 17187 H 1611.61 0.159984 -3.97278 0
M  V30 17188 N 1612.61 1.50847 -0.456408 0
M  V30 17189 C 1613.85 2.02534 0.103772 0
M  V30 17190 C 1614.19 1.33874 1.40682 0
M  V30 17191 O 1613.46 0.459695 1.8899 0
M  V30 17192 C 1613.74 3.58825 0.302817 0
M  V30 17193 C 1613.6 4.38077 -1.02022 0
M  V30 17194 C 1614.92 4.27044 1.06404 0
M  V30 17195 H 1612.04 0.736108 0.0362398 0
M  V30 17196 H 1614.68 1.80306 -0.599134 0
M  V30 17197 H 1612.83 3.77895 0.901542 0
M  V30 17198 H 1614.5 4.30613 -1.6544 0
M  V30 17199 H 1612.74 4.02401 -1.62036 0
M  V30 17200 H 1613.41 5.45652 -0.834766 0
M  V30 17201 H 1615.89 4.12359 0.556698 0
M  V30 17202 H 1614.77 5.3624 1.17209 0
M  V30 17203 H 1615.03 3.89204 2.09697 0
M  V30 17204 N 1614.09 0.188454 1.56469 0
M  V30 17205 C 1615.02 -0.730379 2.21783 0
M  V30 17206 C 1616 -1.22629 1.17882 0
M  V30 17207 O 1617.18 -1.27634 1.46367 0
M  V30 17208 C 1614.31 -1.95278 2.872 0
M  V30 17209 C 1613.27 -1.59205 3.97288 0
M  V30 17210 C 1612.59 -2.89052 4.49836 0
M  V30 17211 C 1613.89 -0.807027 5.16027 0
M  V30 17212 H 1615.59 -0.185914 2.98822 0
M  V30 17213 H 1613.13 -0.0879804 1.43731 0
M  V30 17214 H 1615.08 -2.60074 3.31571 0
M  V30 17215 H 1613.81 -2.52167 2.07556 0
M  V30 17216 H 1612.47 -0.967713 3.53597 0
M  V30 17217 H 1612.12 -3.44017 3.66963 0
M  V30 17218 H 1611.82 -2.65663 5.24115 0
M  V30 17219 H 1613.34 -3.54847 4.96906 0
M  V30 17220 H 1614.75 -1.35794 5.56986 0
M  V30 17221 H 1613.15 -0.671516 5.96331 0
M  V30 17222 H 1614.22 0.193251 4.84515 0
M  V30 17223 N 1615.56 -1.5737 -0.0851874 0
M  V30 17224 C 1616.79 -1.91183 -0.803983 0
M  V30 17225 C 1617.21 -0.78365 -1.70999 0
M  V30 17226 O 1616.57 0.264266 -1.79364 0
M  V30 17227 C 1616.62 -3.239 -1.58496 0
M  V30 17228 O 1615.72 -3.12189 -2.69466 0
M  V30 17229 H 1615.06 -0.626413 -0.220233 0
M  V30 17230 H 1617.59 -2.04519 -0.0574426 0
M  V30 17231 H 1617.6 -3.5745 -1.96707 0
M  V30 17232 H 1616.28 -4.05594 -0.920111 0
M  V30 17233 H 1614.86 -2.90173 -2.3421 0
M  V30 17234 N 1617.04 0.356258 -1.53521 0
M  V30 17235 C 1618.45 0.932569 -1.61741 0
M  V30 17236 C 1618.8 1.89965 -0.490677 0
M  V30 17237 O 1617.93 2.1301 0.381514 0
M  V30 17238 C 1618.52 1.69818 -2.93168 0
M  V30 17239 C 1617.08 2.22369 -3.03692 0
M  V30 17240 C 1616.23 1.03891 -2.57103 0
M  V30 17241 H 1619.18 0.134769 -1.58127 0
M  V30 17242 H 1619.2 2.56011 -2.81494 0
M  V30 17243 H 1618.71 0.994065 -3.75153 0
M  V30 17244 H 1616.81 2.95994 -2.26314 0
M  V30 17245 H 1616.93 2.49611 -4.08939 0
M  V30 17246 H 1615.29 1.40862 -2.12202 0
M  V30 17247 H 1616.07 0.349637 -3.41515 0
M  V30 17248 N 1618.52 1.45038 0.616577 0
M  V30 17249 C 1619.45 1.55858 1.73869 0
M  V30 17250 C 1620.43 0.410657 1.65069 0
M  V30 17251 O 1621.62 0.632652 1.83606 0
M  V30 17252 C 1618.75 1.51635 3.12448 0
M  V30 17253 C 1617.7 2.65053 3.36052 0
M  V30 17254 C 1617.03 2.45883 4.74811 0
M  V30 17255 C 1618.33 4.07121 3.27185 0
M  V30 17256 H 1620.02 2.49784 1.6507 0
M  V30 17257 H 1617.57 1.20216 0.792724 0
M  V30 17258 H 1619.52 1.57803 3.90738 0
M  V30 17259 H 1618.24 0.542342 3.22066 0
M  V30 17260 H 1616.9 2.58299 2.60149 0
M  V30 17261 H 1616.55 1.46641 4.8115 0
M  V30 17262 H 1616.25 3.21935 4.9156 0
M  V30 17263 H 1617.77 2.53892 5.55312 0
M  V30 17264 H 1619.19 4.15167 3.9536 0
M  V30 17265 H 1617.58 4.83491 3.55466 0
M  V30 17266 H 1618.65 4.29663 2.24762 0
M  V30 17267 N 1620 -0.858287 1.32179 0
M  V30 17268 C 1621.41 -1.14591 1.1109 0
M  V30 17269 C 1621.61 -2.01194 -0.110998 0
M  V30 17270 O 1620.67 -2.39593 -0.79695 0
M  V30 17271 C 1621.98 -1.82675 2.38852 0
M  V30 17272 C 1623.53 -1.95326 2.44574 0
M  V30 17273 C 1624.01 -2.66826 3.72247 0
M  V30 17274 N 1625.5 -2.74353 3.73208 0
M  V30 17275 C 1626.23 -3.30317 4.68698 0
M  V30 17276 N 1625.73 -3.87121 5.74552 0
M  V30 17277 N 1627.52 -3.28386 4.562 0
M  V30 17278 H 1619.67 -0.281471 2.10527 0
M  V30 17279 H 1621.93 -0.187326 0.929308 0
M  V30 17280 H 1621.64 -1.26495 3.28165 0
M  V30 17281 H 1621.51 -2.82862 2.49537 0
M  V30 17282 H 1623.9 -2.50668 1.55723 0
M  V30 17283 H 1623.98 -0.94147 2.37844 0
M  V30 17284 H 1623.63 -2.12149 4.61471 0
M  V30 17285 H 1623.56 -3.68437 3.76247 0
M  V30 17286 H 1626.05 -2.34051 2.96696 0
M  V30 17287 H 1626.36 -4.2797 6.43476 0
M  V30 17288 H 1624.71 -3.85463 5.78311 0
M  V30 17289 H 1627.9 -2.83254 3.72672 0
M  V30 17290 H 1628.07 -3.71701 5.30794 0
M  V30 17291 N 1621.48 -1.1533 -1.07409 0
M  V30 17292 C 1622.89 -0.937287 -1.61468 0
M  V30 17293 C 1623.24 0.521545 -1.89141 0
M  V30 17294 O 1622.36 1.39253 -1.65643 0
M  V30 17295 C 1622.96 -1.69501 -2.93351 0
M  V30 17296 C 1621.52 -1.52429 -3.44154 0
M  V30 17297 C 1620.66 -1.71098 -2.18222 0
M  V30 17298 H 1623.61 -1.30364 -0.905044 0
M  V30 17299 H 1623.64 -1.16416 -3.62253 0
M  V30 17300 H 1623.15 -2.75672 -2.73178 0
M  V30 17301 H 1621.25 -0.486498 -3.6941 0
M  V30 17302 H 1621.36 -2.30089 -4.20233 0
M  V30 17303 H 1619.73 -1.13745 -2.27891 0
M  V30 17304 H 1620.51 -2.78634 -2.00545 0
M  V30 17305 N 1622.95 1.25748 -0.950004 0
M  V30 17306 C 1624.18 1.97952 -0.618848 0
M  V30 17307 C 1624.6 1.70184 0.801194 0
M  V30 17308 O 1623.96 0.955032 1.54107 0
M  V30 17309 C 1624.01 3.49744 -0.878151 0
M  V30 17310 O 1623.11 4.12375 0.0453685 0
M  V30 17311 H 1622.45 0.620731 -0.235773 0
M  V30 17312 H 1624.98 1.59988 -1.27534 0
M  V30 17313 H 1624.99 4.00029 -0.802567 0
M  V30 17314 H 1623.67 3.69285 -1.91315 0
M  V30 17315 H 1622.25 3.7281 -0.0820265 0
M  V30 17316 N 1624.43 0.718038 1.40292 0
M  V30 17317 C 1625.85 0.391848 1.54715 0
M  V30 17318 C 1626.05 -1.09911 1.68884 0
M  V30 17319 O 1625.1 -1.88518 1.6798 0
M  V30 17320 C 1626.42 1.16005 2.77423 0
M  V30 17321 C 1627.96 1.14659 2.91243 0
M  V30 17322 C 1628.44 1.897 4.16867 0
M  V30 17323 N 1629.93 1.86781 4.23872 0
M  V30 17324 C 1630.67 2.41665 5.19986 0
M  V30 17325 N 1630.16 3.05116 6.21994 0
M  V30 17326 N 1631.95 2.31794 5.12082 0
M  V30 17327 H 1624.11 1.68477 1.29342 0
M  V30 17328 H 1626.37 0.712248 0.625625 0
M  V30 17329 H 1626.07 2.21435 2.73239 0
M  V30 17330 H 1625.95 0.75328 3.69602 0
M  V30 17331 H 1628.34 0.100477 2.94929 0
M  V30 17332 H 1628.42 1.5926 2.00175 0
M  V30 17333 H 1628.06 2.94303 4.13942 0
M  V30 17334 H 1627.99 1.42518 5.06948 0
M  V30 17335 H 1630.48 1.40541 3.50794 0
M  V30 17336 H 1630.79 3.44505 6.91763 0
M  V30 17337 H 1629.14 3.09201 6.22431 0
M  V30 17338 H 1632.33 1.81879 4.31321 0
M  V30 17339 H 1632.5 2.74868 5.86815 0
M  V30 17340 N 1625.91 -1.50602 0.464402 0
M  V30 17341 C 1627.33 -1.59162 0.118173 0
M  V30 17342 C 1627.53 -1.47313 -1.37481 0
M  V30 17343 O 1626.58 -1.32819 -2.14745 0
M  V30 17344 C 1627.9 -2.93313 0.662411 0
M  V30 17345 C 1629.44 -3.06692 0.625244 0
M  V30 17346 C 1629.92 -4.43407 1.14691 0
M  V30 17347 N 1631.41 -4.49801 1.10604 0
M  V30 17348 C 1632.14 -5.53964 1.48026 0
M  V30 17349 N 1631.64 -6.65413 1.92865 0
M  V30 17350 N 1633.43 -5.44471 1.39671 0
M  V30 17351 H 1625.58 -1.56548 1.4355 0
M  V30 17352 H 1627.85 -0.739451 0.593225 0
M  V30 17353 H 1627.55 -3.07439 1.70805 0
M  V30 17354 H 1627.43 -3.77061 0.102251 0
M  V30 17355 H 1629.81 -2.92217 -0.411466 0
M  V30 17356 H 1629.9 -2.24717 1.22213 0
M  V30 17357 H 1629.54 -4.5863 2.18222 0
M  V30 17358 H 1629.47 -5.23963 0.526306 0
M  V30 17359 H 1631.96 -3.69824 0.77709 0
M  V30 17360 H 1632.27 -7.40947 2.19585 0
M  V30 17361 H 1630.62 -6.66551 1.96812 0
M  V30 17362 H 1633.81 -4.56289 1.04487 0
M  V30 17363 H 1633.98 -6.25531 1.69161 0
M  V30 17364 N 1627.39 -0.19675 -1.56367 0
M  V30 17365 C 1628.34 0.736299 -2.15784 0
M  V30 17366 C 1629.32 1.17513 -1.09907 0
M  V30 17367 O 1630.51 1.13325 -1.35965 0
M  V30 17368 C 1627.64 1.95491 -2.82202 0
M  V30 17369 C 1626.73 1.5369 -3.95272 0
M  V30 17370 N 1627.12 0.829952 -4.98944 0
M  V30 17371 C 1625.42 1.82607 -4.06904 0
M  V30 17372 C 1626.12 0.620262 -5.78384 0
M  V30 17373 N 1625.1 1.16949 -5.30871 0
M  V30 17374 H 1628.9 0.187476 -2.93301 0
M  V30 17375 H 1626.41 0.0029757 -1.624 0
M  V30 17376 H 1628.41 2.63384 -3.23163 0
M  V30 17377 H 1627.07 2.50844 -2.06173 0
M  V30 17378 H 1628.08 0.485245 -5.15622 0
M  V30 17379 H 1624.76 2.39457 -3.42004 0
M  V30 17380 H 1626.15 0.0593437 -6.71874 0
M  V30 17381 N 1628.87 1.57413 0.0768405 0
M  V30 17382 C 1630.11 1.87002 0.776948 0
M  V30 17383 C 1630.44 0.787799 1.77831 0
M  V30 17384 O 1629.7 -0.216742 1.94496 0
M  V30 17385 C 1630 3.2324 1.52482 0
M  V30 17386 C 1629.66 4.45986 0.663899 0
M  V30 17387 C 1628.32 4.79305 0.426629 0
M  V30 17388 C 1630.68 5.21157 0.0665867 0
M  V30 17389 C 1628 5.85213 -0.417518 0
M  V30 17390 C 1630.36 6.27958 -0.764986 0
M  V30 17391 C 1629.02 6.59781 -1.01218 0
M  V30 17392 H 1628.29 0.684289 0.284306 0
M  V30 17393 H 1630.94 1.91463 0.0378686 0
M  V30 17394 H 1629.24 3.14547 2.33596 0
M  V30 17395 H 1630.94 3.43368 2.07123 0
M  V30 17396 H 1627.53 4.19905 0.858956 0
M  V30 17397 H 1631.71 4.95734 0.237022 0
M  V30 17398 H 1626.97 6.0827 -0.617827 0
M  V30 17399 H 1631.14 6.85369 -1.23459 0
M  V30 17400 H 1628.77 7.41674 -1.66806 0
M  V30 17401 N 1630.34 -0.348112 1.53707 0
M  V30 17402 C 1631.76 -0.923978 1.62233 0
M  V30 17403 C 1632.11 -1.89702 0.500744 0
M  V30 17404 O 1631.23 -2.1321 -0.370212 0
M  V30 17405 C 1631.83 -1.68261 2.94064 0
M  V30 17406 C 1630.39 -2.20755 3.04867 0
M  V30 17407 C 1629.53 -1.02526 2.5765 0
M  V30 17408 H 1632.48 -0.126381 1.58196 0
M  V30 17409 H 1632.5 -2.54514 2.82848 0
M  V30 17410 H 1632.02 -0.974155 3.75675 0
M  V30 17411 H 1630.12 -2.9479 2.27881 0
M  V30 17412 H 1630.23 -2.47439 4.10257 0
M  V30 17413 H 1628.59 -1.39735 2.12947 0
M  V30 17414 H 1629.38 -0.331521 3.41696 0
M  V30 17415 N 1631.82 -1.45363 -0.608876 0
M  V30 17416 C 1633.24 -1.29741 -0.929491 0
M  V30 17417 C 1633.44 -0.249486 -1.9995 0
M  V30 17418 O 1632.49 0.357014 -2.49963 0
M  V30 17419 C 1633.81 -2.67594 -1.37164 0
M  V30 17420 C 1635.36 -2.7548 -1.48592 0
M  V30 17421 C 1635.83 -4.13855 -1.96183 0
M  V30 17422 N 1637.32 -4.16143 -2.03419 0
M  V30 17423 C 1638.06 -5.20081 -2.41462 0
M  V30 17424 N 1637.55 -6.34365 -2.78482 0
M  V30 17425 N 1639.35 -5.07439 -2.4179 0
M  V30 17426 H 1631.5 -2.12172 0.0983838 0
M  V30 17427 H 1633.76 -0.947817 -0.0186397 0
M  V30 17428 H 1633.47 -3.45459 -0.6596 0
M  V30 17429 H 1633.34 -2.9597 -2.33841 0
M  V30 17430 H 1635.73 -1.97919 -2.18888 0
M  V30 17431 H 1635.81 -2.50819 -0.502337 0
M  V30 17432 H 1635.45 -4.91901 -1.26475 0
M  V30 17433 H 1635.38 -4.35907 -2.95453 0
M  V30 17434 H 1637.87 -3.33671 -1.77404 0
M  V30 17435 H 1638.19 -7.09469 -3.06388 0
M  V30 17436 H 1636.53 -6.37769 -2.76181 0
M  V30 17437 H 1639.72 -4.17202 -2.12273 0
M  V30 17438 H 1639.89 -5.8856 -2.71112 0
M  V30 17439 N 1633.3 0.851265 -1.32632 0
M  V30 17440 C 1634.55 1.60807 -1.23568 0
M  V30 17441 C 1634.88 1.93155 0.201238 0
M  V30 17442 O 1634.15 1.5764 1.13929 0
M  V30 17443 C 1634.44 2.92619 -2.09872 0
M  V30 17444 C 1634.29 2.67031 -3.61959 0
M  V30 17445 C 1635.61 3.93924 -1.96244 0
M  V30 17446 H 1632.73 0.583492 -0.450229 0
M  V30 17447 H 1635.37 0.98273 -1.62611 0
M  V30 17448 H 1633.52 3.45988 -1.76704 0
M  V30 17449 H 1635.19 2.2019 -4.05357 0
M  V30 17450 H 1633.44 2.00938 -3.84456 0
M  V30 17451 H 1634.11 3.60902 -4.17676 0
M  V30 17452 H 1636.58 3.49823 -2.25307 0
M  V30 17453 H 1635.46 4.84005 -2.58902 0
M  V30 17454 H 1635.72 4.32185 -0.931065 0
M  V30 17455 N 1634.78 1.15898 1.06796 0
M  V30 17456 C 1635.71 0.804414 2.13552 0
M  V30 17457 C 1636.69 -0.22167 1.61082 0
M  V30 17458 O 1637.87 -0.106925 1.88196 0
M  V30 17459 C 1635 0.197166 3.38126 0
M  V30 17460 C 1634.05 1.19605 4.09386 0
M  V30 17461 S 1634.88 2.74054 4.6006 0
M  V30 17462 C 1636.04 2.14764 5.87901 0
M  V30 17463 H 1636.27 1.7086 2.43298 0
M  V30 17464 H 1633.8 0.981915 1.19154 0
M  V30 17465 H 1635.76 -0.14674 4.10238 0
M  V30 17466 H 1634.42 -0.684706 3.06546 0
M  V30 17467 H 1633.61 0.719491 4.98838 0
M  V30 17468 H 1633.22 1.48478 3.43264 0
M  V30 17469 H 1635.51 1.51317 6.60386 0
M  V30 17470 H 1636.45 3.02406 6.40278 0
M  V30 17471 H 1636.86 1.58846 5.4169 0
M  V30 17472 N 1636.26 -1.25243 0.956659 0
M  V30 17473 C 1637.67 -1.74909 0.652979 0
M  V30 17474 C 1638.02 -1.77704 -0.831605 0
M  V30 17475 O 1637.14 -1.39921 -1.65079 0
M  V30 17476 C 1637.74 -3.17639 1.1786 0
M  V30 17477 C 1636.3 -3.64856 0.925034 0
M  V30 17478 C 1635.44 -2.43844 1.32044 0
M  V30 17479 H 1638.4 -1.11101 1.13324 0
M  V30 17480 H 1638.42 -3.76654 0.539633 0
M  V30 17481 H 1637.93 -3.15572 2.25911 0
M  V30 17482 H 1636.03 -3.72335 -0.14043 0
M  V30 17483 H 1636.14 -4.5289 1.56292 0
M  V30 17484 H 1634.51 -2.43749 0.738813 0
M  V30 17485 H 1635.29 -2.44466 2.41021 0
M  V30 17486 N 1637.73 -0.725468 -1.3991 0
M  V30 17487 C 1638.66 -0.094211 -2.3331 0
M  V30 17488 C 1639.65 0.734728 -1.53414 0
M  V30 17489 O 1640.83 0.681647 -1.81844 0
M  V30 17490 C 1637.96 0.820958 -3.37457 0
M  V30 17491 C 1636.91 0.0968983 -4.2789 0
M  V30 17492 C 1636.24 1.12845 -5.22657 0
M  V30 17493 C 1637.54 -1.05483 -5.11537 0
M  V30 17494 H 1639.23 -0.874365 -2.86348 0
M  V30 17495 H 1636.78 -0.421913 -1.3768 0
M  V30 17496 H 1638.73 1.27203 -4.01743 0
M  V30 17497 H 1637.46 1.63312 -2.82837 0
M  V30 17498 H 1636.12 -0.334454 -3.65071 0
M  V30 17499 H 1635.76 1.93392 -4.64337 0
M  V30 17500 H 1635.46 0.648805 -5.84007 0
M  V30 17501 H 1636.99 1.57942 -5.89819 0
M  V30 17502 H 1638.4 -0.682657 -5.69221 0
M  V30 17503 H 1636.8 -1.46349 -5.81981 0
M  V30 17504 H 1637.87 -1.88095 -4.46932 0
M  V30 17505 N 1639.21 1.50354 -0.472382 0
M  V30 17506 C 1640.44 2.07238 0.0820787 0
M  V30 17507 C 1640.86 1.3338 1.32632 0
M  V30 17508 O 1640.22 0.381857 1.77233 0
M  V30 17509 C 1640.27 3.58919 0.347746 0
M  V30 17510 O 1639.37 3.86888 1.42799 0
M  V30 17511 H 1638.71 0.663862 -0.0135544 0
M  V30 17512 H 1641.24 1.93533 -0.663795 0
M  V30 17513 H 1641.25 4.03743 0.587855 0
M  V30 17514 H 1639.93 4.12093 -0.56147 0
M  V30 17515 H 1638.51 3.53901 1.17509 0
M  V30 17516 N 1640.69 0.205039 1.56261 0
M  V30 17517 C 1641.64 -0.711828 2.19549 0
M  V30 17518 C 1642.61 -1.2025 1.14582 0
M  V30 17519 O 1643.79 -1.26459 1.42873 0
M  V30 17520 C 1640.93 -1.92152 2.86656 0
M  V30 17521 C 1640.05 -1.47129 4.06174 0
M  V30 17522 C 1639.18 -2.63726 4.6111 0
M  V30 17523 C 1638.22 -2.15357 5.72964 0
M  V30 17524 N 1637.36 -3.25167 6.22263 0
M  V30 17525 H 1642.2 -0.165392 2.97541 0
M  V30 17526 H 1639.73 -0.0698889 1.46934 0
M  V30 17527 H 1641.69 -2.63152 3.23739 0
M  V30 17528 H 1640.32 -2.4411 2.11211 0
M  V30 17529 H 1639.37 -0.656797 3.74687 0
M  V30 17530 H 1640.69 -1.0765 4.87045 0
M  V30 17531 H 1639.84 -3.42833 5.0055 0
M  V30 17532 H 1638.58 -3.06484 3.79367 0
M  V30 17533 H 1637.58 -1.34706 5.33043 0
M  V30 17534 H 1638.81 -1.73618 6.56532 0
M  V30 17535 H 1636.76 -3.67438 5.43439 0
M  V30 17536 H 1636.67 -2.89888 6.98213 0
M  V30 17537 H 1637.94 -4.0446 6.66358 0
M  V30 17538 N 1642.17 -1.57451 -0.0684915 0
M  V30 17539 C 1643.58 -1.76107 -0.619932 0
M  V30 17540 C 1643.93 -0.830939 -1.77735 0
M  V30 17541 O 1643.06 -0.0158481 -2.16394 0
M  V30 17542 C 1643.65 -3.19352 -1.13136 0
M  V30 17543 C 1642.21 -3.39341 -1.62864 0
M  V30 17544 C 1641.36 -2.71801 -0.549477 0
M  V30 17545 H 1644.31 -1.57915 0.157689 0
M  V30 17546 H 1644.33 -3.23693 -2.00008 0
M  V30 17547 H 1643.84 -3.87024 -0.288762 0
M  V30 17548 H 1641.94 -2.76787 -2.49438 0
M  V30 17549 H 1642.06 -4.47799 -1.70331 0
M  V30 17550 H 1640.42 -2.34448 -0.995302 0
M  V30 17551 H 1641.2 -3.42132 0.282995 0
M  V30 17552 N 1643.65 0.339955 -1.5389 0
M  V30 17553 C 1644.89 1.08139 -1.71563 0
M  V30 17554 C 1645.23 1.88193 -0.479292 0
M  V30 17555 O 1644.5 1.87317 0.523702 0
M  V30 17556 C 1644.78 2.01963 -2.98132 0
M  V30 17557 C 1644.64 1.25349 -4.31981 0
M  V30 17558 C 1645.96 3.01729 -3.20387 0
M  V30 17559 H 1643.08 0.391744 -0.624264 0
M  V30 17560 H 1645.72 0.359609 -1.86566 0
M  V30 17561 H 1643.87 2.63511 -2.85472 0
M  V30 17562 H 1645.54 0.66388 -4.56498 0
M  V30 17563 H 1643.78 0.555541 -4.30228 0
M  V30 17564 H 1644.45 1.94154 -5.16728 0
M  V30 17565 H 1646.93 2.50297 -3.32401 0
M  V30 17566 H 1645.81 3.64577 -4.10335 0
M  V30 17567 H 1646.07 3.73303 -2.36849 0
M  V30 17568 N 1645.13 1.45684 0.601159 0
M  V30 17569 C 1646.54 1.44423 1.18317 0
M  V30 17570 C 1646.89 0.17524 1.95416 0
M  V30 17571 O 1646.01 -0.722816 2.03971 0
M  V30 17572 C 1646.61 2.61651 2.1523 0
M  V30 17573 C 1645.17 2.6349 2.68793 0
M  V30 17574 C 1644.31 2.36787 1.44317 0
M  V30 17575 H 1647.26 1.53831 0.390108 0
M  V30 17576 H 1647.29 2.36117 2.98377 0
M  V30 17577 H 1646.8 3.53995 1.59088 0
M  V30 17578 H 1644.9 1.7517 3.28856 0
M  V30 17579 H 1645.01 3.62906 3.12787 0
M  V30 17580 H 1643.38 1.86472 1.73494 0
M  V30 17581 H 1644.16 3.31284 0.900327 0
M  V30 17582 N 1646.6 -0.84422 1.33082 0
M  V30 17583 C 1647.57 -1.93519 1.22813 0
M  V30 17584 C 1648.57 -1.60113 0.148516 0
M  V30 17585 O 1649.76 -1.69553 0.399668 0
M  V30 17586 C 1646.89 -3.29045 0.891179 0
M  V30 17587 H 1648.08 -2.04051 2.1978 0
M  V30 17588 H 1645.63 -1.03567 1.17063 0
M  V30 17589 H 1646.37 -3.2421 -0.0762276 0
M  V30 17590 H 1646.15 -3.54671 1.67186 0
M  V30 17591 H 1647.64 -4.08984 0.843932 0
M  V30 17592 N 1648.08 -1.16463 -1.0618 0
M  V30 17593 C 1649.31 -0.971075 -1.82696 0
M  V30 17594 C 1649.72 0.480716 -1.82578 0
M  V30 17595 O 1649.08 1.33366 -1.24579 0
M  V30 17596 C 1649.13 -1.49235 -3.29259 0
M  V30 17597 O 1648.85 -2.88728 -3.29496 0
M  V30 17598 C 1650.35 -1.34197 -4.225 0
M  V30 17599 H 1647.57 -0.34415 -0.576023 0
M  V30 17600 H 1650.12 -1.54517 -1.33958 0
M  V30 17601 H 1648.27 -0.960503 -3.75304 0
M  V30 17602 H 1648.69 -3.12618 -4.21153 0
M  V30 17603 H 1650.16 -1.75499 -5.23358 0
M  V30 17604 H 1650.64 -0.287685 -4.38257 0
M  V30 17605 H 1651.24 -1.86349 -3.82301 0
M  V30 17606 N 1649.56 1.24734 -0.963288 0
M  V30 17607 C 1650.51 2.25555 -0.48926 0
M  V30 17608 C 1651.48 1.59521 0.462848 0
M  V30 17609 O 1652.66 1.87095 0.374188 0
M  V30 17610 C 1649.8 3.44407 0.218629 0
M  V30 17611 C 1648.91 4.25051 -0.77173 0
M  V30 17612 C 1648.05 5.31185 -0.0403986 0
M  V30 17613 C 1647.09 6.03523 -1.02112 0
M  V30 17614 N 1646.23 7.0137 -0.320083 0
M  V30 17615 H 1651.07 2.6547 -1.35386 0
M  V30 17616 H 1648.6 1.30504 -0.678762 0
M  V30 17617 H 1650.56 4.12173 0.645701 0
M  V30 17618 H 1649.19 3.05341 1.04722 0
M  V30 17619 H 1648.24 3.56865 -1.31726 0
M  V30 17620 H 1649.55 4.75084 -1.51976 0
M  V30 17621 H 1648.71 6.05067 0.444886 0
M  V30 17622 H 1647.45 4.82048 0.740356 0
M  V30 17623 H 1646.45 5.28448 -1.51732 0
M  V30 17624 H 1647.68 6.54749 -1.80224 0
M  V30 17625 H 1645.62 6.54511 0.441775 0
M  V30 17626 H 1645.54 7.49263 -1.00705 0
M  V30 17627 H 1646.81 7.79368 0.143379 0
M  V30 17628 N 1651.04 0.732878 1.39523 0
M  V30 17629 C 1651.97 0.106583 2.33257 0
M  V30 17630 C 1652.95 -0.726582 1.53801 0
M  V30 17631 O 1654.13 -0.671994 1.82203 0
M  V30 17632 C 1651.26 -0.803051 3.37888 0
M  V30 17633 C 1650.22 -0.0742048 4.27936 0
M  V30 17634 C 1649.54 -1.10071 5.23248 0
M  V30 17635 C 1650.84 1.08195 5.10971 0
M  V30 17636 H 1652.54 0.889539 2.8588 0
M  V30 17637 H 1650.08 0.429209 1.37455 0
M  V30 17638 H 1652.04 -1.25071 4.02412 0
M  V30 17639 H 1650.76 -1.6181 2.83699 0
M  V30 17640 H 1649.42 0.35381 3.64889 0
M  V30 17641 H 1649.07 -1.90927 4.65356 0
M  V30 17642 H 1648.77 -0.617825 5.84343 0
M  V30 17643 H 1650.29 -1.54812 5.90649 0
M  V30 17644 H 1651.71 0.712835 5.68851 0
M  V30 17645 H 1650.1 1.49433 5.81197 0
M  V30 17646 H 1651.17 1.90463 4.45928 0
M  V30 17647 N 1652.52 -1.50101 0.480349 0
M  V30 17648 C 1653.74 -2.07278 -0.0710872 0
M  V30 17649 C 1654.17 -1.34082 -1.31923 0
M  V30 17650 O 1653.52 -0.391251 -1.77028 0
M  V30 17651 C 1653.57 -3.59099 -0.328706 0
M  V30 17652 O 1652.68 -3.8764 -1.40745 0
M  V30 17653 H 1652.02 -0.66378 0.0170748 0
M  V30 17654 H 1654.55 -1.93178 0.674049 0
M  V30 17655 H 1654.56 -4.04049 -0.566435 0
M  V30 17656 H 1653.23 -4.11789 0.583316 0
M  V30 17657 H 1651.81 -3.54519 -1.15631 0
M  V30 17658 N 1653.99 -0.213323 -1.5615 0
M  V30 17659 C 1655.22 0.425688 -2.02473 0
M  V30 17660 C 1655.64 1.53926 -1.09326 0
M  V30 17661 O 1654.99 1.82218 -0.101364 0
M  V30 17662 C 1655.04 0.965021 -3.48381 0
M  V30 17663 O 1654.77 -0.104145 -4.37976 0
M  V30 17664 C 1656.27 1.6781 -4.10311 0
M  V30 17665 H 1653.49 0.105064 -0.662724 0
M  V30 17666 H 1656.03 -0.327369 -2.01863 0
M  V30 17667 H 1654.19 1.66838 -3.49634 0
M  V30 17668 H 1654.6 0.299985 -5.23641 0
M  V30 17669 H 1656.07 2.00757 -5.14199 0
M  V30 17670 H 1656.55 2.58833 -3.54827 0
M  V30 17671 H 1657.16 1.02014 -4.12884 0
M  V30 17672 N 1655.47 1.57485 0.0601405 0
M  V30 17673 C 1656.4 2.07525 1.07031 0
M  V30 17674 C 1657.38 0.971136 1.39653 0
M  V30 17675 O 1658.57 1.24456 1.49078 0
M  V30 17676 C 1655.7 2.52888 2.38044 0
M  V30 17677 C 1654.65 3.67282 2.19745 0
M  V30 17678 C 1653.98 3.98741 3.56244 0
M  V30 17679 C 1655.28 4.96896 1.60908 0
M  V30 17680 H 1656.97 2.92173 0.653875 0
M  V30 17681 H 1654.52 1.40555 0.313083 0
M  V30 17682 H 1656.47 2.8651 3.09014 0
M  V30 17683 H 1655.2 1.65284 2.81689 0
M  V30 17684 H 1653.85 3.33961 1.51213 0
M  V30 17685 H 1653.5 3.08249 3.97481 0
M  V30 17686 H 1653.2 4.75775 3.44836 0
M  V30 17687 H 1654.73 4.34869 4.28627 0
M  V30 17688 H 1656.14 5.28674 2.21758 0
M  V30 17689 H 1654.54 5.78332 1.60164 0
M  V30 17690 H 1655.61 4.81518 0.571671 0
M  V30 17691 N 1656.95 -0.331789 1.54068 0
M  V30 17692 C 1658.18 -1.09044 1.75832 0
M  V30 17693 C 1658.59 -1.81976 0.503012 0
M  V30 17694 O 1657.95 -1.74758 -0.525913 0
M  V30 17695 C 1658 -2.09489 2.94613 0
M  V30 17696 O 1657.72 -1.39521 4.1529 0
M  V30 17697 C 1659.22 -2.97637 3.28522 0
M  V30 17698 H 1656.44 -0.324701 0.587205 0
M  V30 17699 H 1658.99 -0.380417 2.00931 0
M  V30 17700 H 1657.14 -2.76038 2.71812 0
M  V30 17701 H 1657.56 -2.06717 4.82046 0
M  V30 17702 H 1659.03 -3.64027 4.14956 0
M  V30 17703 H 1659.51 -3.64292 2.45332 0
M  V30 17704 H 1660.11 -2.3666 3.53372 0
M  V30 17705 N 1658.43 -1.46001 -0.593424 0
M  V30 17706 C 1659.84 -1.30719 -0.915678 0
M  V30 17707 C 1660.04 -0.270679 -1.99674 0
M  V30 17708 O 1659.1 0.330482 -2.50328 0
M  V30 17709 C 1660.41 -2.69034 -1.34318 0
M  V30 17710 C 1661.96 -2.77041 -1.45662 0
M  V30 17711 C 1662.44 -4.15913 -1.91783 0
M  V30 17712 N 1663.93 -4.18277 -1.98994 0
M  V30 17713 C 1664.66 -5.22612 -2.35932 0
M  V30 17714 N 1664.16 -6.37283 -2.71738 0
M  V30 17715 N 1665.95 -5.09975 -2.36394 0
M  V30 17716 H 1658.1 -2.12056 0.120882 0
M  V30 17717 H 1660.37 -0.947961 -0.00858574 0
M  V30 17718 H 1660.07 -3.4614 -0.622922 0
M  V30 17719 H 1659.95 -2.98434 -2.30688 0
M  V30 17720 H 1662.33 -2.0023 -2.16776 0
M  V30 17721 H 1662.41 -2.51338 -0.475706 0
M  V30 17722 H 1662.06 -4.93215 -1.2125 0
M  V30 17723 H 1661.99 -4.39016 -2.90813 0
M  V30 17724 H 1664.48 -3.35534 -1.73855 0
M  V30 17725 H 1664.79 -7.12679 -2.98846 0
M  V30 17726 H 1663.14 -6.40662 -2.69401 0
M  V30 17727 H 1666.33 -4.1943 -2.07836 0
M  V30 17728 H 1666.5 -5.91402 -2.64854 0
M  V30 17729 N 1659.91 0.83715 -1.33527 0
M  V30 17730 C 1661.32 1.40878 -1.22516 0
M  V30 17731 C 1661.67 1.95585 0.155236 0
M  V30 17732 O 1660.79 1.88946 1.05491 0
M  V30 17733 C 1661.39 2.56093 -2.21815 0
M  V30 17734 C 1659.95 3.09205 -2.14638 0
M  V30 17735 C 1659.09 1.82012 -2.09205 0
M  V30 17736 H 1662.05 0.642766 -1.45101 0
M  V30 17737 H 1662.07 3.33775 -1.82687 0
M  V30 17738 H 1661.58 2.16246 -3.22272 0
M  V30 17739 H 1659.68 3.53592 -1.17489 0
M  V30 17740 H 1659.79 3.69261 -3.05259 0
M  V30 17741 H 1658.16 2.02331 -1.54707 0
M  V30 17742 H 1658.94 1.44359 -3.11473 0
M  V30 17743 N 1661.38 1.17024 1.05561 0
M  V30 17744 C 1662.62 0.967099 1.80074 0
M  V30 17745 C 1662.99 -0.495724 1.8549 0
M  V30 17746 O 1664.19 -0.817816 2.56057 0
M  V30 17747 C 1662.46 1.5862 3.20273 0
M  V30 17748 S 1664.02 1.52873 4.11309 0
M  V30 17749 H 1660.84 0.347623 0.620225 0
M  V30 17750 H 1663.44 1.48902 1.26682 0
M  V30 17751 H 1662.14 2.64341 3.1393 0
M  V30 17752 H 1661.67 1.06392 3.7874 0
M  V30 17753 H 1663.69 0.534126 4.93317 0
M  V30 17754 N 1662.86 -1.24221 0.969889 0
M  V30 17755 C 1664.27 -1.74206 0.671494 0
M  V30 17756 C 1664.62 -1.78576 -0.81271 0
M  V30 17757 O 1663.75 -1.41664 -1.63586 0
M  V30 17758 C 1664.34 -3.16371 1.21222 0
M  V30 17759 C 1662.9 -3.63855 0.96368 0
M  V30 17760 C 1662.05 -2.42429 1.34623 0
M  V30 17761 H 1665 -1.09893 1.14496 0
M  V30 17762 H 1665.02 -3.7606 0.579552 0
M  V30 17763 H 1664.53 -3.13159 2.29245 0
M  V30 17764 H 1662.64 -3.72463 -0.100931 0
M  V30 17765 H 1662.75 -4.51207 1.61087 0
M  V30 17766 H 1661.11 -2.42952 0.764624 0
M  V30 17767 H 1661.9 -2.41896 2.436 0
M  V30 17768 N 1664.34 -0.740267 -1.39132 0
M  V30 17769 C 1665.59 -0.289949 -2.00009 0
M  V30 17770 C 1665.91 1.12831 -1.59042 0
M  V30 17771 O 1665.18 1.76926 -0.841076 0
M  V30 17772 H 1663.76 -0.104213 -0.739695 0
M  V30 17773 H 1666.42 -0.951398 -1.70101 0
M  V30 17774 H 1665.52 -0.342509 -3.10215 0
M  V30 17775 N 1665.82 1.49844 -0.488302 0
M  V30 17776 C 1667.23 1.86663 -0.037377 0
M  V30 17777 C 1667.58 1.40172 1.37281 0
M  V30 17778 O 1666.71 0.77409 2.02081 0
M  V30 17779 C 1667.3 3.38745 -0.0610523 0
M  V30 17780 C 1665.86 3.74911 0.334475 0
M  V30 17781 C 1665.01 2.73801 -0.439109 0
M  V30 17782 H 1667.96 1.42343 -0.70173 0
M  V30 17783 H 1667.98 3.7329 0.737203 0
M  V30 17784 H 1667.49 3.72551 -1.08753 0
M  V30 17785 H 1665.59 3.4671 1.36466 0
M  V30 17786 H 1665.7 4.79094 0.0238536 0
M  V30 17787 H 1664.07 2.54465 0.109433 0
M  V30 17788 H 1664.85 3.10452 -1.46542 0
M  V30 17789 N 1667.3 0.221601 1.56034 0
M  V30 17790 C 1668.54 -0.411933 2.00206 0
M  V30 17791 C 1668.9 -1.56945 1.10599 0
M  V30 17792 O 1670.1 -2.269 1.44118 0
M  V30 17793 C 1668.37 -0.835387 3.475 0
M  V30 17794 S 1669.93 -1.46302 4.13692 0
M  V30 17795 H 1666.75 -0.130732 0.698878 0
M  V30 17796 H 1669.35 0.330901 1.92679 0
M  V30 17797 H 1668.06 0.0167339 4.10397 0
M  V30 17798 H 1667.59 -1.61103 3.589 0
M  V30 17799 H 1669.6 -2.75209 4.12885 0
M  V30 17800 N 1668.77 -1.57515 -0.0517878 0
M  V30 17801 C 1669.72 -2.01507 -1.06672 0
M  V30 17802 C 1670.71 -0.900432 -1.33346 0
M  V30 17803 O 1671.9 -1.16435 -1.33311 0
M  V30 17804 C 1669.03 -2.4792 -2.37467 0
M  V30 17805 C 1668.12 -3.66159 -2.13982 0
M  V30 17806 N 1668.51 -4.79665 -1.60483 0
M  V30 17807 C 1666.8 -3.73095 -2.44369 0
M  V30 17808 C 1667.51 -5.61415 -1.52278 0
M  V30 17809 N 1666.48 -5.05851 -1.99038 0
M  V30 17810 H 1670.28 -2.86696 -0.646728 0
M  V30 17811 H 1667.8 -1.60329 -0.258518 0
M  V30 17812 H 1669.79 -2.77685 -3.1096 0
M  V30 17813 H 1668.45 -1.64127 -2.80165 0
M  V30 17814 H 1669.47 -5.0156 -1.29067 0
M  V30 17815 H 1666.14 -3.00057 -2.90296 0
M  V30 17816 H 1667.53 -6.62567 -1.11598 0
M  V30 17817 N 1670.25 0.323614 -1.54242 0
M  V30 17818 C 1671.49 1.06978 -1.74169 0
M  V30 17819 C 1671.86 1.85248 -0.504693 0
M  V30 17820 O 1673.06 2.62439 -0.581318 0
M  V30 17821 C 1671.33 1.97001 -2.98203 0
M  V30 17822 S 1672.89 2.78571 -3.39034 0
M  V30 17823 H 1669.71 0.361157 -0.612443 0
M  V30 17824 H 1672.31 0.345789 -1.92418 0
M  V30 17825 H 1671.01 1.38336 -3.86382 0
M  V30 17826 H 1670.54 2.73806 -2.82478 0
M  V30 17827 H 1672.56 3.99481 -2.94329 0
M  V30 17828 N 1671.73 1.46313 0.585673 0
M  V30 17829 C 1672.68 1.56653 1.69495 0
M  V30 17830 C 1673.65 0.411007 1.60935 0
M  V30 17831 O 1674.83 0.627369 1.80191 0
M  V30 17832 C 1671.97 1.55996 3.0783 0
M  V30 17833 C 1671.09 2.82261 3.27036 0
M  V30 17834 C 1670.22 2.73129 4.55603 0
M  V30 17835 C 1669.26 3.94346 4.68143 0
M  V30 17836 N 1668.4 3.83617 5.88032 0
M  V30 17837 H 1673.24 2.51407 1.59995 0
M  V30 17838 H 1670.77 1.24729 0.779821 0
M  V30 17839 H 1672.73 1.53602 3.87895 0
M  V30 17840 H 1671.36 0.647766 3.16234 0
M  V30 17841 H 1670.41 2.94648 2.40596 0
M  V30 17842 H 1671.73 3.72107 3.32171 0
M  V30 17843 H 1670.88 2.68823 5.43893 0
M  V30 17844 H 1669.62 1.80917 4.52902 0
M  V30 17845 H 1668.62 3.98987 3.78272 0
M  V30 17846 H 1669.85 4.8765 4.72625 0
M  V30 17847 H 1667.8 2.9419 5.86334 0
M  V30 17848 H 1667.71 4.67117 5.94422 0
M  V30 17849 H 1668.98 3.83281 6.7876 0
M  V30 17850 N 1673.21 -0.830057 1.33969 0
M  V30 17851 C 1674.44 -1.61539 1.28797 0
M  V30 17852 C 1674.85 -1.8867 -0.14158 0
M  V30 17853 O 1674.19 -1.47356 -1.0969 0
M  V30 17854 C 1674.25 -2.98503 2.0034 0
M  V30 17855 C 1673.92 -2.94302 3.49622 0
M  V30 17856 C 1674.91 -2.69391 4.44662 0
M  V30 17857 C 1672.6 -3.14159 3.9193 0
M  V30 17858 C 1674.59 -2.64379 5.79985 0
M  V30 17859 C 1672.28 -3.08772 5.27355 0
M  V30 17860 C 1673.28 -2.83914 6.21194 0
M  V30 17861 O 1672.97 -2.78446 7.54137 0
M  V30 17862 H 1672.7 -0.509067 0.444777 0
M  V30 17863 H 1675.25 -1.04137 1.77044 0
M  V30 17864 H 1673.48 -3.57795 1.46697 0
M  V30 17865 H 1675.17 -3.59449 1.88551 0
M  V30 17866 H 1675.94 -2.53792 4.13298 0
M  V30 17867 H 1671.82 -3.32526 3.19293 0
M  V30 17868 H 1675.36 -2.44896 6.53201 0
M  V30 17869 H 1671.26 -3.23922 5.58341 0
M  V30 17870 H 1672.02 -2.94224 7.63789 0
M  V30 17871 N 1674.69 -1.17582 -1.04939 0
M  V30 17872 C 1675.96 -0.875638 -1.74906 0
M  V30 17873 C 1676.34 0.62353 -2.01681 0
M  V30 17874 O 1675.69 1.57558 -1.65492 0
M  V30 17875 C 1675.9 -1.71334 -3.04049 0
M  V30 17876 C 1677.25 -1.93489 -3.77951 0
M  V30 17877 O 1678.27 -1.68314 -3.13925 0
M  V30 17878 O 1677.13 -2.35815 -4.93005 0
M  V30 17879 H 1674.23 -0.324451 -0.760697 0
M  V30 17880 H 1676.77 -1.2829 -1.11084 0
M  V30 17881 H 1675.55 -2.73003 -2.80331 0
M  V30 17882 H 1675.17 -1.30401 -3.75608 0
M  V30 17883 N 1676.17 1.23705 -0.976463 0
M  V30 17884 C 1677.1 2.2734 -0.532809 0
M  V30 17885 C 1678.08 1.64523 0.432012 0
M  V30 17886 O 1679.26 1.9144 0.326233 0
M  V30 17887 C 1676.39 3.46887 0.169374 0
M  V30 17888 C 1675.35 4.22031 -0.712336 0
M  V30 17889 C 1674.67 5.34561 0.121838 0
M  V30 17890 C 1675.97 4.8244 -2.00123 0
M  V30 17891 H 1677.67 2.64702 -1.39904 0
M  V30 17892 H 1675.21 1.27244 -0.674156 0
M  V30 17893 H 1677.16 4.18529 0.491028 0
M  V30 17894 H 1675.89 3.08574 1.07002 0
M  V30 17895 H 1674.55 3.522 -1.01739 0
M  V30 17896 H 1674.2 4.92489 1.0229 0
M  V30 17897 H 1673.9 5.85758 -0.464962 0
M  V30 17898 H 1675.42 6.09027 0.437963 0
M  V30 17899 H 1676.83 5.46111 -1.7446 0
M  V30 17900 H 1675.23 5.43906 -2.53548 0
M  V30 17901 H 1676.3 4.03405 -2.69059 0
M  V30 17902 N 1677.64 0.747635 1.38738 0
M  V30 17903 C 1678.57 0.131317 2.3313 0
M  V30 17904 C 1679.55 -0.710229 1.54563 0
M  V30 17905 O 1680.74 -0.652631 1.82905 0
M  V30 17906 C 1677.87 -0.767168 3.38721 0
M  V30 17907 C 1676.82 -0.0288124 4.2799 0
M  V30 17908 C 1676.15 -1.04515 5.24386 0
M  V30 17909 C 1677.45 1.13608 5.09795 0
M  V30 17910 H 1679.14 0.91981 2.84921 0
M  V30 17911 H 1676.69 0.443764 1.36992 0
M  V30 17912 H 1678.64 -1.20796 4.03716 0
M  V30 17913 H 1677.37 -1.58792 2.85399 0
M  V30 17914 H 1676.03 0.392491 3.64493 0
M  V30 17915 H 1675.67 -1.8598 4.67355 0
M  V30 17916 H 1675.37 -0.555813 5.84965 0
M  V30 17917 H 1676.9 -1.48538 5.92257 0
M  V30 17918 H 1678.31 0.773129 5.68063 0
M  V30 17919 H 1676.71 1.55589 5.79579 0
M  V30 17920 H 1677.78 1.95182 4.43883 0
M  V30 17921 N 1679.12 -1.49583 0.496242 0
M  V30 17922 C 1680.37 -2.02738 -0.050037 0
M  V30 17923 C 1680.7 -1.37556 -1.37083 0
M  V30 17924 O 1679.98 -0.50964 -1.87704 0
M  V30 17925 C 1680.26 -3.59501 -0.207575 0
M  V30 17926 C 1680.11 -4.35218 1.13601 0
M  V30 17927 C 1681.43 -4.29715 -0.950443 0
M  V30 17928 H 1678.55 -0.736811 -0.0167105 0
M  V30 17929 H 1681.19 -1.78654 0.646728 0
M  V30 17930 H 1679.34 -3.80152 -0.801033 0
M  V30 17931 H 1681.01 -4.26075 1.76798 0
M  V30 17932 H 1679.26 -3.97964 1.72648 0
M  V30 17933 H 1679.93 -5.43247 0.979142 0
M  V30 17934 H 1682.4 -4.1369 -0.447173 0
M  V30 17935 H 1681.28 -5.39159 -1.02951 0
M  V30 17936 H 1681.54 -3.94627 -1.99304 0
M  V30 17937 N 1680.6 -0.229873 -1.55915 0
M  V30 17938 C 1681.83 0.403603 -2.02619 0
M  V30 17939 C 1682.24 1.53304 -1.10881 0
M  V30 17940 O 1681.58 1.83356 -0.112312 0
M  V30 17941 C 1681.64 0.988727 -3.45636 0
M  V30 17942 C 1681.31 -0.00630999 -4.57 0
M  V30 17943 C 1682.3 -0.809714 -5.13556 0
M  V30 17944 C 1679.99 -0.127474 -5.02138 0
M  V30 17945 C 1681.98 -1.7209 -6.13729 0
M  V30 17946 C 1679.67 -1.04219 -6.02148 0
M  V30 17947 C 1680.67 -1.83744 -6.5782 0
M  V30 17948 O 1680.36 -2.73677 -7.55881 0
M  V30 17949 H 1680.09 0.102102 -0.668245 0
M  V30 17950 H 1682.64 -0.346247 -2.02461 0
M  V30 17951 H 1680.87 1.78782 -3.4289 0
M  V30 17952 H 1682.56 1.53048 -3.7594 0
M  V30 17953 H 1683.33 -0.726601 -4.79526 0
M  V30 17954 H 1679.21 0.481415 -4.58479 0
M  V30 17955 H 1682.75 -2.34206 -6.5711 0
M  V30 17956 H 1678.65 -1.12629 -6.35598 0
M  V30 17957 H 1679.41 -2.67846 -7.73435 0
M  V30 17958 N 1682.08 1.5754 0.0434337 0
M  V30 17959 C 1683.32 1.88608 0.737108 0
M  V30 17960 C 1683.65 0.825342 1.7612 0
M  V30 17961 O 1682.91 -0.175437 1.94912 0
M  V30 17962 C 1683.21 3.26402 1.45591 0
M  V30 17963 C 1682.87 4.47294 0.56915 0
M  V30 17964 C 1681.53 4.80102 0.324866 0
M  V30 17965 C 1683.89 5.21181 -0.0439735 0
M  V30 17966 C 1681.21 5.84195 -0.541556 0
M  V30 17967 C 1683.57 6.26194 -0.898013 0
M  V30 17968 C 1682.23 6.57486 -1.1519 0
M  V30 17969 H 1681.5 0.690166 0.269727 0
M  V30 17970 H 1684.15 1.915 -0.00275199 0
M  V30 17971 H 1682.45 3.19431 2.26872 0
M  V30 17972 H 1684.15 3.47684 1.99793 0
M  V30 17973 H 1680.74 4.21632 0.769694 0
M  V30 17974 H 1684.92 4.96125 0.131816 0
M  V30 17975 H 1680.18 6.06823 -0.746711 0
M  V30 17976 H 1684.35 6.82596 -1.37969 0
M  V30 17977 H 1681.98 7.37969 -1.82501 0
M  V30 17978 N 1683.56 -0.31543 1.54411 0
M  V30 17979 C 1684.47 -1.41136 1.87397 0
M  V30 17980 C 1685.48 -1.56199 0.76668 0
M  V30 17981 O 1686.66 -1.71139 1.06176 0
M  V30 17982 C 1683.72 -2.75731 2.10174 0
M  V30 17983 C 1682.78 -2.69776 3.33945 0
M  V30 17984 C 1682.02 -3.97952 3.55626 0
M  V30 17985 O 1682.24 -4.96614 2.80589 0
M  V30 17986 O 1681.17 -4.00719 4.49119 0
M  V30 17987 H 1685 -1.16167 2.80605 0
M  V30 17988 H 1682.58 -0.510193 1.40419 0
M  V30 17989 H 1684.47 -3.55392 2.26439 0
M  V30 17990 H 1683.14 -3.00574 1.20154 0
M  V30 17991 H 1682.05 -1.88638 3.23058 0
M  V30 17992 H 1683.38 -2.49887 4.24049 0
M  V30 17993 N 1685.03 -1.46622 -0.577906 0
M  V30 17994 C 1686.28 -1.51446 -1.33218 0
M  V30 17995 C 1686.6 -0.17258 -1.94837 0
M  V30 17996 O 1687.8 -0.0986578 -2.71321 0
M  V30 17997 C 1686.26 -2.66876 -2.41465 0
M  V30 17998 C 1685.87 -4.07506 -1.86127 0
M  V30 17999 C 1687.61 -2.80975 -3.18203 0
M  V30 18000 C 1685.52 -5.14268 -2.92031 0
M  V30 18001 H 1684.45 -0.563643 -0.500822 0
M  V30 18002 H 1687.1 -1.72845 -0.616186 0
M  V30 18003 H 1685.48 -2.38816 -3.15884 0
M  V30 18004 H 1686.65 -4.45378 -1.18218 0
M  V30 18005 H 1684.97 -3.98115 -1.2204 0
M  V30 18006 H 1687.57 -3.57906 -3.97249 0
M  V30 18007 H 1687.91 -1.88665 -3.71095 0
M  V30 18008 H 1688.44 -3.08705 -2.50891 0
M  V30 18009 H 1685.18 -6.08386 -2.44021 0
M  V30 18010 H 1684.7 -4.80936 -3.58414 0
M  V30 18011 H 1686.38 -5.40321 -3.55896 0
M  V30 18012 N 1686.51 0.822941 -1.34408 0
M  V30 18013 C 1687.75 1.59269 -1.28112 0
M  V30 18014 C 1688.12 1.91437 0.146924 0
M  V30 18015 O 1689.32 2.66716 0.334053 0
M  V30 18016 C 1687.59 2.85727 -2.14698 0
M  V30 18017 S 1689.15 3.76272 -2.25754 0
M  V30 18018 H 1685.97 0.545903 -0.455534 0
M  V30 18019 H 1688.57 0.972069 -1.6962 0
M  V30 18020 H 1687.27 2.60092 -3.17459 0
M  V30 18021 H 1686.8 3.52786 -1.74086 0
M  V30 18022 H 1688.82 4.75138 -1.43031 0
M  V30 18023 N 1687.99 1.18137 1.04314 0
M  V30 18024 C 1688.9 0.921044 2.15764 0
M  V30 18025 C 1689.92 -0.11396 1.73626 0
M  V30 18026 O 1691.09 0.0673733 2.01287 0
M  V30 18027 C 1688.16 0.447581 3.43799 0
M  V30 18028 C 1687.22 1.55025 4.00332 0
M  V30 18029 C 1686.45 1.09928 5.22256 0
M  V30 18030 O 1686.67 -0.0430152 5.70384 0
M  V30 18031 O 1685.61 1.896 5.71258 0
M  V30 18032 H 1689.43 1.85353 2.40579 0
M  V30 18033 H 1687.02 0.962985 1.14223 0
M  V30 18034 H 1688.9 0.191497 4.20965 0
M  V30 18035 H 1687.58 -0.456641 3.20463 0
M  V30 18036 H 1686.48 1.86032 3.24566 0
M  V30 18037 H 1687.82 2.4305 4.28004 0
M  V30 18038 N 1689.47 -1.23186 0.98301 0
M  V30 18039 C 1690.4 -2.27054 0.544858 0
M  V30 18040 C 1691.38 -1.64749 -0.423281 0
M  V30 18041 O 1692.56 -1.91611 -0.316075 0
M  V30 18042 C 1689.69 -3.46972 -0.150976 0
M  V30 18043 C 1688.65 -4.21647 0.734707 0
M  V30 18044 C 1687.97 -5.34618 -0.0934874 0
M  V30 18045 C 1689.27 -4.81372 2.02679 0
M  V30 18046 H 1690.97 -2.63957 1.41305 0
M  V30 18047 H 1688.51 -1.26885 0.680895 0
M  V30 18048 H 1690.47 -4.18784 -0.468825 0
M  V30 18049 H 1689.19 -3.09137 -1.05364 0
M  V30 18050 H 1687.85 -3.51655 1.03605 0
M  V30 18051 H 1687.5 -4.93025 -0.996768 0
M  V30 18052 H 1687.2 -5.85503 0.496019 0
M  V30 18053 H 1688.72 -6.09251 -0.405658 0
M  V30 18054 H 1690.14 -5.45178 1.77353 0
M  V30 18055 H 1688.53 -5.42554 2.56429 0
M  V30 18056 H 1689.6 -4.01972 2.71194 0
M  V30 18057 N 1690.95 -0.754982 -1.38339 0
M  V30 18058 C 1691.86 -0.130303 -2.34238 0
M  V30 18059 C 1692.87 0.699048 -1.5934 0
M  V30 18060 O 1694.05 0.622876 -1.91526 0
M  V30 18061 C 1691.11 0.751285 -3.38462 0
M  V30 18062 C 1690.17 -0.0925987 -4.292 0
M  V30 18063 C 1689.41 0.747007 -5.28446 0
M  V30 18064 O 1689.63 1.98495 -5.34749 0
M  V30 18065 O 1688.56 0.165072 -6.01674 0
M  V30 18066 H 1692.39 -0.92233 -2.89356 0
M  V30 18067 H 1689.98 -0.515896 -1.4021 0
M  V30 18068 H 1691.86 1.2551 -4.02275 0
M  V30 18069 H 1690.53 1.52178 -2.85698 0
M  V30 18070 H 1689.44 -0.64239 -3.68543 0
M  V30 18071 H 1690.77 -0.825784 -4.85223 0
M  V30 18072 N 1692.42 1.49318 -0.504168 0
M  V30 18073 C 1693.39 2.27703 0.26157 0
M  V30 18074 C 1694.39 1.3385 0.891114 0
M  V30 18075 O 1695.58 1.56981 0.755156 0
M  V30 18076 C 1692.71 3.11912 1.37564 0
M  V30 18077 H 1693.9 2.96855 -0.426292 0
M  V30 18078 H 1691.46 1.54135 -0.259236 0
M  V30 18079 H 1692.19 2.47332 2.09755 0
M  V30 18080 H 1691.98 3.8092 0.929641 0
M  V30 18081 H 1693.47 3.71106 1.91494 0
M  V30 18082 N 1693.9 0.238138 1.5579 0
M  V30 18083 C 1694.85 -0.681413 2.22395 0
M  V30 18084 C 1695.84 -1.18691 1.20867 0
M  V30 18085 O 1697.05 -1.14482 1.38903 0
M  V30 18086 H 1693.43 -0.238207 0.713275 0
M  V30 18087 H 1695.4 -0.0964141 2.98244 0
M  V30 18088 C 1694.15 -1.87137 2.93045 0
M  V30 18089 H 1693.47 -1.49153 3.70936 0
M  V30 18090 H 1694.91 -2.4922 3.43024 0
M  V30 18091 C 1693.37 -2.73709 1.9643 0
M  V30 18092 O 1693.9 -3.72973 1.49178 0
M  V30 18093 N 1692.1 -2.40092 1.6372 0
M  V30 18094 H 1691.65 -1.59423 2.02341 0
M  V30 18095 H 1691.61 -2.98293 0.993414 0
M  V30 18096 N 1695.38 -1.57561 -0.0350783 0
M  V30 18097 C 1696.63 -1.88623 -0.725659 0
M  V30 18098 C 1696.95 -0.835055 -1.76215 0
M  V30 18099 O 1696.22 0.13206 -1.95454 0
M  V30 18100 H 1694.8 -0.696108 -0.271004 0
M  V30 18101 H 1697.46 -1.949 -0.00245508 0
M  V30 18102 H 1696.56 -2.8731 -1.21899 0
M  V30 18103 N 1696.86 0.307236 -1.54576 0
M  V30 18104 C 1698.14 1.06243 -1.64231 0
M  V30 18105 C 1698.52 2.05415 -0.486589 0
M  V30 18106 O 1697.86 2.22565 0.517384 0
M  V30 18107 C 1698.07 1.74985 -3.01962 0
M  V30 18108 C 1699.42 2.2741 -3.58566 0
M  V30 18109 O 1700.45 1.85027 -3.04374 0
M  V30 18110 O 1699.3 3.05051 -4.53438 0
M  V30 18111 H 1696.4 0.490693 -0.665695 0
M  V30 18112 H 1698.94 0.305822 -1.66922 0
M  V30 18113 H 1697.72 1.02939 -3.77517 0
M  V30 18114 H 1697.34 2.57417 -3.03022 0
M  V30 18115 N 1698.34 1.46926 0.570122 0
M  V30 18116 C 1699.57 1.56253 1.35161 0
M  V30 18117 C 1699.97 0.207041 1.88064 0
M  V30 18118 O 1699.32 -0.807871 1.64982 0
M  V30 18119 C 1699.38 2.51715 2.56671 0
M  V30 18120 C 1699.04 3.97691 2.25147 0
M  V30 18121 C 1700.04 4.86546 1.83219 0
M  V30 18122 C 1697.73 4.42924 2.36904 0
M  V30 18123 C 1699.72 6.18651 1.53459 0
M  V30 18124 C 1697.41 5.75061 2.06757 0
M  V30 18125 C 1698.4 6.62745 1.65101 0
M  V30 18126 O 1698.09 7.92427 1.3533 0
M  V30 18127 H 1697.82 0.53064 0.418804 0
M  V30 18128 H 1700.38 1.93147 0.698804 0
M  V30 18129 H 1698.61 2.09862 3.24799 0
M  V30 18130 H 1700.3 2.5131 3.18745 0
M  V30 18131 H 1701.06 4.52851 1.7364 0
M  V30 18132 H 1696.94 3.7489 2.68287 0
M  V30 18133 H 1700.49 6.87049 1.20872 0
M  V30 18134 H 1696.38 6.08301 2.15964 0
M  V30 18135 H 1697.15 8.04811 1.49069 0
M  V30 18136 N 1699.82 -0.815801 1.34842 0
M  V30 18137 C 1701.06 -1.56747 1.26938 0
M  V30 18138 C 1701.38 -1.9497 -0.156887 0
M  V30 18139 O 1702.58 -2.69128 -0.358132 0
M  V30 18140 C 1701.04 -2.82832 2.22562 0
M  V30 18141 C 1700.65 -2.51883 3.70485 0
M  V30 18142 C 1702.39 -3.60849 2.23581 0
M  V30 18143 C 1700.3 -3.74204 4.57957 0
M  V30 18144 H 1699.23 -0.58832 0.471588 0
M  V30 18145 H 1701.88 -0.897551 1.60051 0
M  V30 18146 H 1700.26 -3.51486 1.8241 0
M  V30 18147 H 1701.44 -1.91294 4.19217 0
M  V30 18148 H 1699.75 -1.87129 3.71983 0
M  V30 18149 H 1702.35 -4.51686 2.86154 0
M  V30 18150 H 1702.69 -3.97496 1.23703 0
M  V30 18151 H 1703.22 -2.99146 2.62215 0
M  V30 18152 H 1699.96 -3.42672 5.58799 0
M  V30 18153 H 1699.48 -4.34051 4.13956 0
M  V30 18154 H 1701.16 -4.41536 4.72921 0
M  V30 18155 N 1701.29 -1.18689 -1.03686 0
M  V30 18156 C 1702.7 -0.988182 -1.58404 0
M  V30 18157 C 1703.06 0.461107 -1.90705 0
M  V30 18158 O 1702.18 1.33912 -1.6999 0
M  V30 18159 C 1702.78 -1.78748 -2.8781 0
M  V30 18160 C 1701.33 -1.63301 -3.39131 0
M  V30 18161 C 1700.48 -1.77954 -2.12668 0
M  V30 18162 H 1703.43 -1.33177 -0.863112 0
M  V30 18163 H 1703.45 -1.27882 -3.58366 0
M  V30 18164 H 1702.97 -2.84224 -2.6427 0
M  V30 18165 H 1701.07 -0.603777 -3.67676 0
M  V30 18166 H 1701.18 -2.43342 -4.127 0
M  V30 18167 H 1699.54 -1.20937 -2.24157 0
M  V30 18168 H 1700.33 -2.84873 -1.91579 0
M  V30 18169 N 1702.77 1.22662 -0.989529 0
M  V30 18170 C 1703.73 2.22695 -0.542183 0
M  V30 18171 C 1704.73 1.56411 0.373132 0
M  V30 18172 O 1705.92 1.73412 0.165556 0
M  V30 18173 C 1703.06 3.40241 0.211841 0
M  V30 18174 H 1704.25 2.63786 -1.42678 0
M  V30 18175 H 1701.8 1.35654 -0.776377 0
M  V30 18176 H 1702.54 3.04618 1.11257 0
M  V30 18177 H 1702.32 3.89563 -0.445319 0
M  V30 18178 H 1703.81 4.14436 0.513107 0
M  V30 18179 N 1704.25 0.762308 1.37937 0
M  V30 18180 C 1705.5 0.322846 2.00214 0
M  V30 18181 C 1705.83 -1.09513 1.60376 0
M  V30 18182 O 1705.1 -1.75165 0.845432 0
M  V30 18183 C 1705.39 0.455651 3.57206 0
M  V30 18184 C 1705.24 1.91537 4.06981 0
M  V30 18185 C 1706.56 -0.145758 4.39859 0
M  V30 18186 H 1703.68 0.118781 0.727365 0
M  V30 18187 H 1706.32 0.963585 1.63753 0
M  V30 18188 H 1704.47 -0.0898341 3.88396 0
M  V30 18189 H 1706.14 2.51983 3.86397 0
M  V30 18190 H 1704.38 2.42744 3.59524 0
M  V30 18191 H 1705.06 1.9594 5.16054 0
M  V30 18192 H 1707.53 0.31956 4.14871 0
M  V30 18193 H 1706.41 -0.0226441 5.48895 0
M  V30 18194 H 1706.67 -1.23504 4.24499 0
M  V30 18195 N 1705.73 -1.49049 0.51208 0
M  V30 18196 C 1706.97 -2.0278 -0.0285311 0
M  V30 18197 C 1707.31 -1.39003 -1.35617 0
M  V30 18198 O 1706.58 -0.52952 -1.87153 0
M  V30 18199 C 1706.86 -3.59701 -0.169433 0
M  V30 18200 C 1706.72 -4.33989 1.18211 0
M  V30 18201 C 1708.04 -4.30698 -0.904812 0
M  V30 18202 H 1705.16 -0.736946 -0.00889467 0
M  V30 18203 H 1707.8 -1.77959 0.66564 0
M  V30 18204 H 1705.95 -3.8098 -0.760667 0
M  V30 18205 H 1707.62 -4.24176 1.81307 0
M  V30 18206 H 1705.86 -3.9611 1.76859 0
M  V30 18207 H 1706.53 -5.42177 1.03671 0
M  V30 18208 H 1709.01 -4.14141 -0.40327 0
M  V30 18209 H 1707.89 -5.40221 -0.972264 0
M  V30 18210 H 1708.15 -3.96718 -1.95108 0
M  V30 18211 N 1707.21 -0.246397 -1.55662 0
M  V30 18212 C 1708.48 0.42879 -1.90842 0
M  V30 18213 C 1708.86 1.75905 -1.16707 0
M  V30 18214 O 1708.21 2.26723 -0.284391 0
M  V30 18215 C 1708.42 0.597368 -3.4385 0
M  V30 18216 C 1709.77 0.893477 -4.15093 0
M  V30 18217 O 1710.79 0.683251 -3.49586 0
M  V30 18218 O 1709.65 1.2938 -5.30964 0
M  V30 18219 H 1706.75 0.230145 -0.794331 0
M  V30 18220 H 1709.29 -0.290426 -1.67196 0
M  V30 18221 H 1708.06 -0.339952 -3.8982 0
M  V30 18222 H 1707.69 1.36714 -3.73356 0
M  V30 18223 N 1708.68 1.57577 0.026722 0
M  V30 18224 C 1709.63 2.03179 1.03452 0
M  V30 18225 C 1710.62 0.921533 1.31896 0
M  V30 18226 O 1711.81 1.18542 1.31442 0
M  V30 18227 C 1708.94 2.51666 2.33493 0
M  V30 18228 C 1708.02 3.69517 2.08129 0
M  V30 18229 N 1708.42 4.82158 1.52832 0
M  V30 18230 C 1706.71 3.76936 2.38402 0
M  V30 18231 C 1707.41 5.63766 1.43327 0
M  V30 18232 N 1706.39 5.08953 1.90965 0
M  V30 18233 H 1710.19 2.87689 0.601036 0
M  V30 18234 H 1707.71 1.6072 0.232979 0
M  V30 18235 H 1709.7 2.82597 3.06503 0
M  V30 18236 H 1708.36 1.68564 2.77518 0
M  V30 18237 H 1709.37 5.0355 1.21071 0
M  V30 18238 H 1706.05 3.04637 2.85486 0
M  V30 18239 H 1707.44 6.64259 1.01043 0
M  V30 18240 N 1710.16 -0.299034 1.54737 0
M  V30 18241 C 1711.58 -0.644805 1.45995 0
M  V30 18242 C 1711.78 -1.90634 0.652749 0
M  V30 18243 O 1710.83 -2.51985 0.161228 0
M  V30 18244 C 1712.15 -0.795974 2.89974 0
M  V30 18245 C 1713.69 -0.891731 3.00029 0
M  V30 18246 C 1714.17 -1.07488 4.45208 0
M  V30 18247 N 1715.66 -1.14104 4.48926 0
M  V30 18248 C 1716.4 -1.30108 5.58444 0
M  V30 18249 N 1715.89 -1.42998 6.77882 0
M  V30 18250 N 1717.68 -1.33012 5.46136 0
M  V30 18251 H 1709.84 0.529806 2.05686 0
M  V30 18252 H 1712.1 0.175406 0.931631 0
M  V30 18253 H 1711.8 0.0601375 3.51649 0
M  V30 18254 H 1711.68 -1.68437 3.37504 0
M  V30 18255 H 1714.07 -1.73833 2.38466 0
M  V30 18256 H 1714.15 0.0207194 2.55792 0
M  V30 18257 H 1713.79 -0.233045 5.07365 0
M  V30 18258 H 1713.72 -2.00159 4.87077 0
M  V30 18259 H 1716.21 -1.05488 3.62878 0
M  V30 18260 H 1716.52 -1.5497 7.57102 0
M  V30 18261 H 1714.87 -1.4005 6.80743 0
M  V30 18262 H 1718.06 -1.22555 4.51772 0
M  V30 18263 H 1718.23 -1.45141 6.31536 0
M  V30 18264 N 1711.64 -1.47227 -0.562322 0
M  V30 18265 C 1712.89 -1.53286 -1.31712 0
M  V30 18266 C 1713.21 -0.194583 -1.94027 0
M  V30 18267 O 1712.48 0.780961 -1.7966 0
M  V30 18268 H 1711.06 -0.564621 -0.489094 0
M  V30 18269 H 1713.72 -1.83492 -0.657024 0
M  V30 18270 H 1712.82 -2.29665 -2.1133 0
M  V30 18271 N 1713.12 0.808639 -1.35273 0
M  V30 18272 C 1714.37 1.56253 -1.28177 0
M  V30 18273 C 1714.69 1.94466 0.144151 0
M  V30 18274 O 1713.96 1.63433 1.08011 0
M  V30 18275 H 1712.54 0.579431 -0.471454 0
M  V30 18276 H 1715.2 0.964675 -1.69352 0
M  V30 18277 H 1714.29 2.47888 -1.89625 0
M  V30 18278 N 1714.6 1.19237 1.03055 0
M  V30 18279 C 1715.53 0.871947 2.10885 0
M  V30 18280 C 1716.51 -0.170311 1.61706 0
M  V30 18281 O 1717.69 -0.0469972 1.88441 0
M  V30 18282 C 1714.82 0.304639 3.37327 0
M  V30 18283 C 1713.86 1.32569 4.05374 0
M  V30 18284 S 1714.7 2.88551 4.51108 0
M  V30 18285 C 1715.85 2.33359 5.8077 0
M  V30 18286 H 1716.09 1.78514 2.37739 0
M  V30 18287 H 1713.62 1.01933 1.1597 0
M  V30 18288 H 1715.58 -0.0161522 4.10497 0
M  V30 18289 H 1714.24 -0.586834 3.08569 0
M  V30 18290 H 1713.43 0.877829 4.96296 0
M  V30 18291 H 1713.03 1.59323 3.38367 0
M  V30 18292 H 1715.33 1.7225 6.55238 0
M  V30 18293 H 1716.27 3.22622 6.30334 0
M  V30 18294 H 1716.68 1.75999 5.36362 0
M  V30 18295 N 1716.07 -1.22136 0.99602 0
M  V30 18296 C 1717.49 -1.72743 0.708295 0
M  V30 18297 C 1717.84 -1.8026 -0.774649 0
M  V30 18298 O 1716.96 -1.45102 -1.60544 0
M  V30 18299 C 1717.56 -3.13729 1.27905 0
M  V30 18300 C 1716.12 -3.61729 1.04064 0
M  V30 18301 C 1715.26 -2.39519 1.39735 0
M  V30 18302 H 1718.21 -1.07439 1.16801 0
M  V30 18303 H 1718.23 -3.74746 0.65919 0
M  V30 18304 H 1717.75 -3.08225 2.35836 0
M  V30 18305 H 1715.85 -3.72594 -0.0219029 0
M  V30 18306 H 1715.96 -4.47689 1.70621 0
M  V30 18307 H 1714.32 -2.41275 0.815986 0
M  V30 18308 H 1715.11 -2.36675 2.48677 0
M  V30 18309 N 1717.55 -0.769612 -1.37531 0
M  V30 18310 C 1718.79 -0.338106 -2.01584 0
M  V30 18311 C 1719.16 1.06474 -1.59773 0
M  V30 18312 O 1720.36 1.59624 -2.16272 0
M  V30 18313 C 1718.63 -0.474572 -3.54235 0
M  V30 18314 S 1720.19 -0.128014 -4.38613 0
M  V30 18315 H 1717.01 -0.130211 -0.698975 0
M  V30 18316 H 1719.61 -1.00376 -1.67765 0
M  V30 18317 H 1718.31 -1.49622 -3.82154 0
M  V30 18318 H 1717.84 0.207706 -3.92851 0
M  V30 18319 H 1719.86 1.07715 -4.84368 0
M  V30 18320 N 1719.03 1.48775 -0.519977 0
M  V30 18321 C 1719.96 2.26281 0.295295 0
M  V30 18322 C 1720.94 1.31694 0.953695 0
M  V30 18323 O 1722.13 1.61019 0.980063 0
M  V30 18324 C 1719.25 3.07617 1.41738 0
M  V30 18325 C 1718.3 4.17503 0.871411 0
M  V30 18326 S 1719.13 5.34903 -0.252845 0
M  V30 18327 C 1720.29 6.19797 0.871949 0
M  V30 18328 H 1720.52 2.95082 -0.362498 0
M  V30 18329 H 1718.05 1.51346 -0.305587 0
M  V30 18330 H 1720.01 3.55058 2.0602 0
M  V30 18331 H 1718.67 2.38249 2.04685 0
M  V30 18332 H 1717.87 4.74 1.71288 0
M  V30 18333 H 1717.47 3.7275 0.305463 0
M  V30 18334 H 1719.76 6.53892 1.7729 0
M  V30 18335 H 1720.7 7.07258 0.345174 0
M  V30 18336 H 1721.11 5.52707 1.14784 0
M  V30 18337 N 1720.51 0.254649 1.55529 0
M  V30 18338 C 1721.76 -0.367205 1.98736 0
M  V30 18339 C 1722.08 -1.57899 1.14424 0
M  V30 18340 O 1721.35 -1.94559 0.228849 0
M  V30 18341 H 1719.93 -0.138663 0.734017 0
M  V30 18342 H 1722.59 0.355236 1.91635 0
M  V30 18343 H 1721.69 -0.671069 3.048 0
M  V30 18344 N 1721.99 -1.57589 -0.0183649 0
M  V30 18345 C 1723.21 -1.94024 -0.718491 0
M  V30 18346 C 1723.63 -0.85529 -1.68316 0
M  V30 18347 O 1722.99 0.167403 -1.81731 0
M  V30 18348 C 1723.04 -3.30427 -1.4663 0
M  V30 18349 O 1722.76 -4.34755 -0.540345 0
M  V30 18350 C 1724.26 -3.81209 -2.26262 0
M  V30 18351 H 1721.48 -0.640101 -0.201275 0
M  V30 18352 H 1724.02 -2.04482 0.0272935 0
M  V30 18353 H 1722.18 -3.21333 -2.16388 0
M  V30 18354 H 1722.59 -5.13554 -1.06593 0
M  V30 18355 H 1724.07 -4.79131 -2.74112 0
M  V30 18356 H 1724.54 -3.12957 -3.08147 0
M  V30 18357 H 1725.15 -3.9342 -1.61558 0
M  V30 18358 N 1723.46 0.290824 -1.54893 0
M  V30 18359 C 1724.71 1.02475 -1.74657 0
M  V30 18360 C 1725.04 1.86915 -0.537885 0
M  V30 18361 O 1724.29 1.89722 0.479998 0
M  V30 18362 C 1724.59 1.95145 -2.99422 0
M  V30 18363 C 1724.26 1.26599 -4.32763 0
M  V30 18364 C 1722.92 1.07639 -4.69007 0
M  V30 18365 C 1725.27 0.776794 -5.15379 0
M  V30 18366 C 1722.6 0.38458 -5.85438 0
M  V30 18367 C 1724.95 0.0986614 -6.32523 0
M  V30 18368 C 1723.62 -0.102812 -6.67421 0
M  V30 18369 H 1722.89 0.374982 -0.639116 0
M  V30 18370 H 1725.53 0.298659 -1.89157 0
M  V30 18371 H 1723.84 2.74316 -2.79746 0
M  V30 18372 H 1725.54 2.5202 -3.11908 0
M  V30 18373 H 1722.13 1.42365 -4.04265 0
M  V30 18374 H 1726.31 0.91096 -4.87868 0
M  V30 18375 H 1721.57 0.217593 -6.11013 0
M  V30 18376 H 1725.74 -0.28825 -6.95803 0
M  V30 18377 H 1723.37 -0.640872 -7.57494 0
M  V30 18378 N 1724.94 1.47523 0.554506 0
M  V30 18379 C 1725.87 1.63093 1.67102 0
M  V30 18380 C 1726.85 0.480298 1.63178 0
M  V30 18381 O 1728.04 0.709956 1.80757 0
M  V30 18382 C 1725.17 1.64751 3.05736 0
M  V30 18383 C 1724.12 2.79068 3.24507 0
M  V30 18384 C 1723.45 2.65801 4.63955 0
M  V30 18385 C 1724.75 4.20631 3.09623 0
M  V30 18386 H 1726.44 2.56561 1.54328 0
M  V30 18387 H 1723.99 1.2347 0.741023 0
M  V30 18388 H 1725.94 1.74234 3.83693 0
M  V30 18389 H 1724.67 0.678453 3.19475 0
M  V30 18390 H 1723.32 2.691 2.48959 0
M  V30 18391 H 1722.97 1.66917 4.74497 0
M  V30 18392 H 1722.67 3.42494 4.77464 0
M  V30 18393 H 1724.2 2.77216 5.44044 0
M  V30 18394 H 1725.61 4.31562 3.77396 0
M  V30 18395 H 1724.01 4.98133 3.3464 0
M  V30 18396 H 1725.08 4.38809 2.06336 0
M  V30 18397 N 1726.42 -0.801453 1.357 0
M  V30 18398 C 1727.35 -1.92807 1.31711 0
M  V30 18399 C 1728.33 -1.69028 0.190642 0
M  V30 18400 O 1729.52 -1.90317 0.38641 0
M  V30 18401 C 1726.65 -3.29635 1.09352 0
M  V30 18402 C 1725.6 -3.67908 2.18695 0
M  V30 18403 C 1724.93 -5.02955 1.81494 0
M  V30 18404 C 1726.23 -3.77749 3.60698 0
M  V30 18405 H 1727.92 -1.96401 2.2598 0
M  V30 18406 H 1725.47 -0.943528 1.08782 0
M  V30 18407 H 1727.42 -4.08058 1.052 0
M  V30 18408 H 1726.14 -3.26396 0.115306 0
M  V30 18409 H 1724.8 -2.91775 2.21952 0
M  V30 18410 H 1724.45 -4.96225 0.822776 0
M  V30 18411 H 1724.15 -5.29533 2.54692 0
M  V30 18412 H 1725.67 -5.83811 1.78876 0
M  V30 18413 H 1727.09 -4.4639 3.59734 0
M  V30 18414 H 1725.49 -4.15801 4.327 0
M  V30 18415 H 1726.56 -2.79167 3.96477 0
M  V30 18416 N 1727.9 -1.19782 -1.02421 0
M  V30 18417 C 1728.85 -0.907509 -2.09161 0
M  V30 18418 C 1729.83 0.129596 -1.60377 0
M  V30 18419 O 1731.02 -0.0767382 -1.76834 0
M  V30 18420 C 1728.15 -0.453095 -3.40297 0
M  V30 18421 C 1727.24 -1.5232 -3.95802 0
M  V30 18422 N 1727.63 -2.74379 -4.24912 0
M  V30 18423 C 1725.93 -1.38758 -4.23866 0
M  V30 18424 C 1726.63 -3.43348 -4.6956 0
M  V30 18425 N 1725.61 -2.70749 -4.71376 0
M  V30 18426 H 1729.41 -1.83512 -2.29566 0
M  V30 18427 H 1726.92 -1.09068 -1.20324 0
M  V30 18428 H 1728.92 -0.226551 -4.16284 0
M  V30 18429 H 1727.58 0.467983 -3.2131 0
M  V30 18430 H 1728.59 -3.11099 -4.1405 0
M  V30 18431 H 1725.27 -0.530327 -4.14118 0
M  V30 18432 H 1726.66 -4.47753 -5.00966 0
M  V30 18433 N 1729.38 1.21606 -1.00248 0
M  V30 18434 C 1730.31 2.23246 -0.519009 0
M  V30 18435 C 1731.32 1.58034 0.391051 0
M  V30 18436 O 1732.51 1.77468 0.191652 0
M  V30 18437 C 1729.61 3.37854 0.266017 0
M  V30 18438 C 1728.78 4.32655 -0.642503 0
M  V30 18439 C 1727.84 5.26119 0.0924758 0
M  V30 18440 O 1726.87 5.66771 -0.525333 0
M  V30 18441 N 1728.07 5.64058 1.37183 0
M  V30 18442 H 1730.84 2.65357 -1.39305 0
M  V30 18443 H 1728.4 1.36004 -0.878327 0
M  V30 18444 H 1730.39 3.97373 0.766598 0
M  V30 18445 H 1728.96 2.94749 1.04123 0
M  V30 18446 H 1728.18 3.71314 -1.32361 0
M  V30 18447 H 1729.47 4.92929 -1.26089 0
M  V30 18448 H 1728.87 5.33018 1.89493 0
M  V30 18449 H 1727.42 6.2595 1.81741 0
M  V30 18450 N 1730.86 0.776895 1.37121 0
M  V30 18451 C 1732.1 0.342876 1.9917 0
M  V30 18452 C 1732.42 -1.08574 1.61977 0
M  V30 18453 O 1731.69 -1.74634 0.887689 0
M  V30 18454 H 1730.27 0.123788 0.736672 0
M  V30 18455 H 1732.94 0.996163 1.67519 0
M  V30 18456 H 1732.03 0.424637 3.09198 0
M  V30 18457 N 1732.33 -1.48497 0.527859 0
M  V30 18458 C 1733.58 -2.01698 -0.00900086 0
M  V30 18459 C 1733.9 -1.4104 -1.35525 0
M  V30 18460 O 1735.1 -1.85726 -1.98035 0
M  V30 18461 C 1733.56 -3.59839 -0.0664428 0
M  V30 18462 C 1733.17 -4.2948 1.27479 0
M  V30 18463 C 1734.91 -4.20893 -0.552244 0
M  V30 18464 C 1732.82 -5.79548 1.17805 0
M  V30 18465 H 1731.75 -0.753966 -0.00713463 0
M  V30 18466 H 1734.4 -1.70779 0.67132 0
M  V30 18467 H 1732.78 -3.8759 -0.811795 0
M  V30 18468 H 1733.95 -4.13403 2.03554 0
M  V30 18469 H 1732.27 -3.80289 1.69616 0
M  V30 18470 H 1734.87 -5.30825 -0.642556 0
M  V30 18471 H 1735.21 -3.86066 -1.55752 0
M  V30 18472 H 1735.74 -3.97563 0.137363 0
M  V30 18473 H 1732.48 -6.18945 2.15841 0
M  V30 18474 H 1732 -5.98044 0.458624 0
M  V30 18475 H 1733.68 -6.41153 0.867834 0
M  V30 18476 N 1733.81 -0.262893 -1.55392 0
M  V30 18477 C 1734.74 0.66288 -2.19405 0
M  V30 18478 C 1735.76 1.12675 -1.17508 0
M  V30 18479 O 1736.95 1.05077 -1.44295 0
M  V30 18480 C 1734.05 1.91471 -2.79628 0
M  V30 18481 C 1733.22 1.59966 -4.07099 0
M  V30 18482 C 1732.28 2.7027 -4.51487 0
M  V30 18483 O 1731.3 2.36976 -5.17524 0
M  V30 18484 N 1732.51 4.0009 -4.20605 0
M  V30 18485 H 1735.27 0.115075 -2.99479 0
M  V30 18486 H 1732.83 -0.0834933 -1.61685 0
M  V30 18487 H 1734.82 2.64535 -3.06273 0
M  V30 18488 H 1733.39 2.37188 -2.03619 0
M  V30 18489 H 1732.61 0.703431 -3.87873 0
M  V30 18490 H 1733.9 1.36402 -4.90175 0
M  V30 18491 H 1733.3 4.29966 -3.67621 0
M  V30 18492 H 1731.86 4.69569 -4.52049 0
M  V30 18493 N 1735.29 1.57597 0.0100073 0
M  V30 18494 C 1736.71 1.55348 0.365949 0
M  V30 18495 C 1736.91 0.991487 1.75419 0
M  V30 18496 O 1735.96 0.620894 2.44747 0
M  V30 18497 C 1737.27 2.99656 0.250343 0
M  V30 18498 C 1738.82 3.11297 0.326023 0
M  V30 18499 C 1739.3 4.57373 0.239653 0
M  V30 18500 N 1740.79 4.62241 0.297863 0
M  V30 18501 C 1741.52 5.72836 0.254219 0
M  V30 18502 N 1741.02 6.92611 0.161753 0
M  V30 18503 N 1742.81 5.6127 0.30535 0
M  V30 18504 H 1734.96 1.92471 -0.898253 0
M  V30 18505 H 1737.23 0.883623 -0.343386 0
M  V30 18506 H 1736.93 3.44574 -0.704407 0
M  V30 18507 H 1736.81 3.62682 1.03643 0
M  V30 18508 H 1739.19 2.66316 1.27121 0
M  V30 18509 H 1739.27 2.51068 -0.489756 0
M  V30 18510 H 1738.92 5.03026 -0.70195 0
M  V30 18511 H 1738.85 5.15536 1.07379 0
M  V30 18512 H 1741.34 3.76074 0.371065 0
M  V30 18513 H 1741.65 7.72684 0.134073 0
M  V30 18514 H 1740 6.94883 0.127524 0
M  V30 18515 H 1743.19 4.6659 0.375713 0
M  V30 18516 H 1743.36 6.47446 0.267871 0
M  V30 18517 N 1736.77 -0.282606 1.55045 0
M  V30 18518 C 1738.18 -0.629284 1.4667 0
M  V30 18519 C 1738.38 -1.89931 0.672932 0
M  V30 18520 O 1737.44 -2.518 0.187946 0
M  V30 18521 C 1738.75 -0.765174 2.90802 0
M  V30 18522 C 1740.3 -0.859859 3.00958 0
M  V30 18523 C 1740.78 -1.0276 4.46323 0
M  V30 18524 N 1742.27 -1.09336 4.50111 0
M  V30 18525 C 1743 -1.24178 5.59792 0
M  V30 18526 N 1742.5 -1.358 6.7936 0
M  V30 18527 N 1744.29 -1.27212 5.47516 0
M  V30 18528 H 1736.44 0.551592 2.05113 0
M  V30 18529 H 1738.7 0.185277 0.929718 0
M  V30 18530 H 1738.41 0.0974312 3.51565 0
M  V30 18531 H 1738.28 -1.64848 3.39271 0
M  V30 18532 H 1740.67 -1.71294 2.40297 0
M  V30 18533 H 1740.75 0.0478484 2.55755 0
M  V30 18534 H 1740.4 -0.179219 5.07584 0
M  V30 18535 H 1740.33 -1.94981 4.89173 0
M  V30 18536 H 1742.82 -1.01633 3.63977 0
M  V30 18537 H 1743.13 -1.46932 7.58703 0
M  V30 18538 H 1741.48 -1.32822 6.8219 0
M  V30 18539 H 1744.67 -1.17756 4.53046 0
M  V30 18540 H 1744.84 -1.38435 6.3304 0
M  V30 18541 N 1738.25 -1.47815 -0.546675 0
M  V30 18542 C 1739.49 -1.54238 -1.29975 0
M  V30 18543 C 1739.81 -0.213869 -1.94427 0
M  V30 18544 O 1741.01 -0.156187 -2.7105 0
M  V30 18545 C 1739.47 -2.71938 -2.35749 0
M  V30 18546 C 1739.08 -4.11362 -1.77441 0
M  V30 18547 C 1740.82 -2.87661 -3.12172 0
M  V30 18548 C 1738.73 -5.20347 -2.81057 0
M  V30 18549 H 1737.66 -0.574139 -0.488754 0
M  V30 18550 H 1740.31 -1.74113 -0.579384 0
M  V30 18551 H 1738.69 -2.45463 -3.10747 0
M  V30 18552 H 1739.87 -4.47785 -1.08744 0
M  V30 18553 H 1738.18 -4.00614 -1.13568 0
M  V30 18554 H 1740.78 -3.66252 -3.89568 0
M  V30 18555 H 1741.12 -1.96494 -3.67009 0
M  V30 18556 H 1741.65 -3.13957 -2.44286 0
M  V30 18557 H 1738.39 -6.13426 -2.31061 0
M  V30 18558 H 1737.91 -4.8843 -3.48132 0
M  V30 18559 H 1739.59 -5.47748 -3.44355 0
M  V30 18560 N 1739.72 0.794246 -1.36123 0
M  V30 18561 C 1740.95 1.58297 -1.33228 0
M  V30 18562 C 1741.37 1.88597 0.0875426 0
M  V30 18563 O 1740.72 1.49754 1.04307 0
M  V30 18564 C 1740.77 2.90687 -2.14904 0
M  V30 18565 O 1740.5 2.61695 -3.51351 0
M  V30 18566 C 1742 3.85009 -2.19734 0
M  V30 18567 H 1739.22 0.491139 -0.457191 0
M  V30 18568 H 1741.76 0.986129 -1.79153 0
M  V30 18569 H 1739.92 3.46852 -1.72546 0
M  V30 18570 H 1740.33 3.46313 -3.93913 0
M  V30 18571 H 1741.8 4.74976 -2.8125 0
M  V30 18572 H 1742.28 4.22504 -1.19946 0
M  V30 18573 H 1742.89 3.34777 -2.62307 0
M  V30 18574 N 1741.2 1.20323 1.01785 0
M  V30 18575 C 1742.45 1.01413 1.75623 0
M  V30 18576 C 1742.78 -0.452801 1.88847 0
M  V30 18577 O 1742.06 -1.33618 1.41338 0
M  V30 18578 C 1742.34 1.69686 3.17614 0
M  V30 18579 C 1742.19 3.23815 3.12192 0
M  V30 18580 C 1743.51 1.42891 4.16257 0
M  V30 18581 H 1740.63 0.369822 0.637495 0
M  V30 18582 H 1743.27 1.4832 1.18749 0
M  V30 18583 H 1741.42 1.29806 3.66173 0
M  V30 18584 H 1743.09 3.72981 2.71446 0
M  V30 18585 H 1741.34 3.54785 2.4962 0
M  V30 18586 H 1742.01 3.66741 4.12559 0
M  V30 18587 H 1744.48 1.77486 3.76348 0
M  V30 18588 H 1743.36 1.93195 5.13777 0
M  V30 18589 H 1743.62 0.356263 4.40662 0
M  V30 18590 N 1742.68 -1.21073 1.00892 0
M  V30 18591 C 1743.91 -1.94233 0.712813 0
M  V30 18592 C 1744.32 -1.74315 -0.725249 0
M  V30 18593 O 1743.68 -1.05224 -1.49111 0
M  V30 18594 C 1743.73 -3.46536 1.02931 0
M  V30 18595 O 1743.45 -3.65798 2.41088 0
M  V30 18596 C 1744.95 -4.36855 0.753166 0
M  V30 18597 H 1742.17 -0.617579 0.262367 0
M  V30 18598 H 1744.72 -1.53781 1.34802 0
M  V30 18599 H 1742.87 -3.84897 0.439634 0
M  V30 18600 H 1743.29 -4.59857 2.52254 0
M  V30 18601 H 1744.76 -5.42405 1.02476 0
M  V30 18602 H 1745.24 -4.38085 -0.312761 0
M  V30 18603 H 1745.84 -4.04145 1.32464 0
M  V30 18604 N 1744.16 -0.784156 -1.36707 0
M  V30 18605 C 1745.09 -0.193081 -2.327 0
M  V30 18606 C 1746.07 0.668999 -1.56392 0
M  V30 18607 O 1747.25 0.603908 -1.84571 0
M  V30 18608 C 1744.38 0.677092 -3.40636 0
M  V30 18609 C 1743.34 -0.0846718 -4.27916 0
M  V30 18610 C 1742.66 0.905754 -5.26973 0
M  V30 18611 C 1743.96 -1.27085 -5.06603 0
M  V30 18612 H 1745.66 -0.995029 -2.82382 0
M  V30 18613 H 1743.2 -0.479929 -1.35767 0
M  V30 18614 H 1745.16 1.1005 -4.06776 0
M  V30 18615 H 1743.88 1.51169 -2.89509 0
M  V30 18616 H 1742.54 -0.488992 -3.63324 0
M  V30 18617 H 1742.19 1.73524 -4.72121 0
M  V30 18618 H 1741.89 0.400524 -5.86233 0
M  V30 18619 H 1743.41 1.32784 -5.95987 0
M  V30 18620 H 1744.83 -0.923469 -5.65814 0
M  V30 18621 H 1743.22 -1.70901 -5.7525 0
M  V30 18622 H 1744.29 -2.06882 -4.38552 0
M  V30 18623 N 1745.64 1.48215 -0.535727 0
M  V30 18624 C 1746.57 2.3253 0.212562 0
M  V30 18625 C 1747.55 1.42454 0.929568 0
M  V30 18626 O 1748.73 1.71334 0.914228 0
M  V30 18627 C 1745.86 3.23777 1.25641 0
M  V30 18628 C 1744.82 4.22924 0.657191 0
M  V30 18629 C 1744.14 5.03345 1.80411 0
M  V30 18630 C 1745.44 5.20953 -0.374902 0
M  V30 18631 H 1747.14 2.95341 -0.491301 0
M  V30 18632 H 1744.68 1.42024 -0.237718 0
M  V30 18633 H 1746.64 3.81592 1.78789 0
M  V30 18634 H 1745.36 2.58978 1.98993 0
M  V30 18635 H 1744.02 3.66304 0.147184 0
M  V30 18636 H 1743.67 4.34965 2.52615 0
M  V30 18637 H 1743.37 5.70455 1.40906 0
M  V30 18638 H 1744.89 5.64013 2.33926 0
M  V30 18639 H 1746.3 5.73258 0.0697072 0
M  V30 18640 H 1744.7 5.96147 -0.687646 0
M  V30 18641 H 1745.77 4.67739 -1.27861 0
M  V30 18642 N 1747.11 0.27113 1.5525 0
M  V30 18643 C 1748.06 -0.632507 2.19051 0
M  V30 18644 C 1749.05 -1.12135 1.15388 0
M  V30 18645 O 1750.24 -1.06709 1.41217 0
M  V30 18646 C 1747.37 -1.81804 2.91208 0
M  V30 18647 C 1746.46 -1.34656 4.02155 0
M  V30 18648 N 1746.85 -0.590954 5.02336 0
M  V30 18649 C 1745.14 -1.62985 4.15153 0
M  V30 18650 C 1745.85 -0.343602 5.80684 0
M  V30 18651 N 1744.82 -0.914869 5.35846 0
M  V30 18652 H 1748.62 -0.0473244 2.93862 0
M  V30 18653 H 1746.14 0.0745107 1.62229 0
M  V30 18654 H 1748.13 -2.47666 3.35361 0
M  V30 18655 H 1746.79 -2.40721 2.17907 0
M  V30 18656 H 1747.81 -0.238682 5.1735 0
M  V30 18657 H 1744.48 -2.22867 3.53039 0
M  V30 18658 H 1745.87 0.261284 6.71392 0
M  V30 18659 N 1748.59 -1.576 -0.00164943 0
M  V30 18660 C 1749.5 -2.11748 -1.00995 0
M  V30 18661 C 1750.52 -1.06235 -1.37805 0
M  V30 18662 O 1751.69 -1.38127 -1.4657 0
M  V30 18663 C 1748.76 -2.60869 -2.2836 0
M  V30 18664 C 1747.82 -3.80976 -1.97879 0
M  V30 18665 C 1747.05 -4.27745 -3.19171 0
M  V30 18666 O 1747.28 -3.73856 -4.30799 0
M  V30 18667 O 1746.21 -5.19917 -3.03265 0
M  V30 18668 H 1750.04 -2.98117 -0.579667 0
M  V30 18669 H 1747.62 -1.47766 -0.220375 0
M  V30 18670 H 1749.5 -2.9267 -3.03187 0
M  V30 18671 H 1748.18 -1.77598 -2.7063 0
M  V30 18672 H 1747.09 -3.54151 -1.20533 0
M  V30 18673 H 1748.42 -4.65315 -1.60447 0
M  V30 18674 N 1750.07 0.274379 -1.55193 0
M  V30 18675 C 1751.3 1.02443 -1.79758 0
M  V30 18676 C 1751.71 1.79984 -0.570205 0
M  V30 18677 O 1751.07 1.7659 0.46069 0
M  V30 18678 C 1751.12 1.9841 -3.02185 0
M  V30 18679 O 1750.84 1.24012 -4.20182 0
M  V30 18680 C 1752.34 2.85239 -3.39343 0
M  V30 18681 H 1749.56 0.302684 -0.598852 0
M  V30 18682 H 1752.11 0.305581 -2.02204 0
M  V30 18683 H 1750.26 2.6576 -2.81869 0
M  V30 18684 H 1750.68 1.88684 -4.89386 0
M  V30 18685 H 1752.15 3.48376 -4.2818 0
M  V30 18686 H 1752.63 3.54936 -2.58684 0
M  V30 18687 H 1753.23 2.23382 -3.61912 0
M  V30 18688 N 1751.55 1.48103 0.538828 0
M  V30 18689 C 1752.8 1.55362 1.29256 0
M  V30 18690 C 1753.12 0.225427 1.93693 0
M  V30 18691 O 1752.39 -0.75228 1.8088 0
M  V30 18692 H 1750.97 0.57233 0.480049 0
M  V30 18693 H 1753.63 1.84514 0.627749 0
M  V30 18694 H 1752.73 2.32998 2.07649 0
M  V30 18695 N 1753.03 -0.787016 1.36542 0
M  V30 18696 C 1754.25 -1.58103 1.34231 0
M  V30 18697 C 1754.68 -1.87956 -0.0734932 0
M  V30 18698 O 1754.03 -1.48073 -1.04615 0
M  V30 18699 C 1754.08 -2.87739 2.17345 0
M  V30 18700 O 1753.19 -3.81445 1.56759 0
M  V30 18701 H 1752.53 -0.479495 0.459326 0
M  V30 18702 H 1755.06 -0.975294 1.79859 0
M  V30 18703 H 1755.07 -3.36986 2.3001 0
M  V30 18704 H 1753.74 -2.65338 3.20264 0
M  V30 18705 H 1752.32 -3.40046 1.53047 0
M  V30 18706 N 1754.5 -1.20861 -1.01145 0
M  V30 18707 C 1755.45 -0.929642 -2.08187 0
M  V30 18708 C 1756.44 0.112578 -1.60506 0
M  V30 18709 O 1757.63 -0.0954894 -1.76742 0
M  V30 18710 C 1754.76 -0.489163 -3.39797 0
M  V30 18711 C 1753.85 -1.5651 -3.94164 0
M  V30 18712 N 1754.24 -2.7887 -4.21978 0
M  V30 18713 C 1752.53 -1.43246 -4.2237 0
M  V30 18714 C 1753.24 -3.48309 -4.65892 0
M  V30 18715 N 1752.21 -2.75734 -4.68478 0
M  V30 18716 H 1756.01 -1.85937 -2.27606 0
M  V30 18717 H 1753.53 -1.10338 -1.19161 0
M  V30 18718 H 1755.52 -0.27069 -4.1602 0
M  V30 18719 H 1754.18 0.433877 -3.21788 0
M  V30 18720 H 1755.2 -3.15473 -4.10727 0
M  V30 18721 H 1751.87 -0.57422 -4.13532 0
M  V30 18722 H 1753.26 -4.53042 -4.96188 0
M  V30 18723 N 1755.98 1.20536 -1.01532 0
M  V30 18724 C 1757.23 1.89191 -0.699258 0
M  V30 18725 C 1757.54 1.79624 0.774238 0
M  V30 18726 O 1758.75 2.43402 1.20281 0
M  V30 18727 C 1757.21 3.39294 -1.20033 0
M  V30 18728 C 1756.81 3.57449 -2.70064 0
M  V30 18729 C 1758.56 4.13511 -0.959626 0
M  V30 18730 C 1756.47 5.01371 -3.13658 0
M  V30 18731 H 1755.4 0.708537 -0.257859 0
M  V30 18732 H 1758.05 1.36368 -1.22785 0
M  V30 18733 H 1756.43 3.91432 -0.599728 0
M  V30 18734 H 1757.6 3.15702 -3.35662 0
M  V30 18735 H 1755.92 2.966 -2.92262 0
M  V30 18736 H 1758.51 5.19624 -1.26077 0
M  V30 18737 H 1758.86 4.1617 0.103934 0
M  V30 18738 H 1759.39 3.67469 -1.52354 0
M  V30 18739 H 1756.13 5.03866 -4.19285 0
M  V30 18740 H 1755.65 5.43933 -2.52779 0
M  V30 18741 H 1757.33 5.69944 -3.06224 0
M  V30 18742 N 1757.46 0.791395 1.36289 0
M  V30 18743 C 1758.88 0.473308 1.5242 0
M  V30 18744 C 1759.08 -1.00805 1.74473 0
M  V30 18745 O 1758.13 -1.79349 1.77737 0
M  V30 18746 C 1759.45 1.30547 2.70884 0
M  V30 18747 C 1760.99 1.29936 2.84755 0
M  V30 18748 C 1761.47 2.1153 4.06225 0
M  V30 18749 N 1762.96 2.08987 4.13375 0
M  V30 18750 C 1763.69 2.68889 5.06445 0
M  V30 18751 N 1763.19 3.37657 6.04946 0
M  V30 18752 N 1764.98 2.58612 4.99075 0
M  V30 18753 H 1757.13 1.75096 1.20229 0
M  V30 18754 H 1759.4 0.74441 0.586991 0
M  V30 18755 H 1759.1 2.35607 2.61117 0
M  V30 18756 H 1758.98 0.948139 3.65089 0
M  V30 18757 H 1761.36 0.256671 2.93982 0
M  V30 18758 H 1761.45 1.69647 1.91451 0
M  V30 18759 H 1761.09 3.15832 3.9776 0
M  V30 18760 H 1761.02 1.69189 4.98681 0
M  V30 18761 H 1763.51 1.58938 3.42851 0
M  V30 18762 H 1763.82 3.8069 6.72529 0
M  V30 18763 H 1762.17 3.4176 6.05165 0
M  V30 18764 H 1765.36 2.04487 4.21073 0
M  V30 18765 H 1765.53 3.05587 5.7142 0
M  V30 18766 N 1758.94 -1.47929 0.54358 0
M  V30 18767 C 1760.19 -2.03387 0.0226665 0
M  V30 18768 C 1760.54 -1.41189 -1.30704 0
M  V30 18769 O 1759.83 -0.553281 -1.83438 0
M  V30 18770 C 1760.03 -3.57116 -0.142408 0
M  V30 18771 C 1759.86 -4.3422 1.16975 0
M  V30 18772 C 1758.63 -4.7464 1.73335 0
M  V30 18773 C 1760.82 -4.70199 2.08369 0
M  V30 18774 N 1758.81 -5.36333 2.98697 0
M  V30 18775 C 1760.18 -5.32052 3.18309 0
M  V30 18776 C 1762.23 -4.52128 2.0853 0
M  V30 18777 C 1760.94 -5.77744 4.28491 0
M  V30 18778 C 1762.96 -4.9881 3.17715 0
M  V30 18779 C 1762.32 -5.607 4.26374 0
M  V30 18780 H 1758.42 -0.780392 0.0501262 0
M  V30 18781 H 1761.01 -1.80583 0.727863 0
M  V30 18782 H 1759.18 -3.79716 -0.816707 0
M  V30 18783 H 1760.91 -3.99213 -0.664154 0
M  V30 18784 H 1757.66 -4.5617 1.27302 0
M  V30 18785 H 1758.09 -5.71734 3.62559 0
M  V30 18786 H 1762.73 -4.03647 1.25812 0
M  V30 18787 H 1760.45 -6.25223 5.11979 0
M  V30 18788 H 1764.03 -4.86608 3.1891 0
M  V30 18789 H 1762.91 -5.96165 5.09467 0
M  V30 18790 N 1760.42 -0.27936 -1.55104 0
M  V30 18791 C 1761.36 0.606268 -2.22695 0
M  V30 18792 C 1762.33 1.14646 -1.20189 0
M  V30 18793 O 1763.52 1.19498 -1.48744 0
M  V30 18794 C 1760.66 1.78256 -2.95497 0
M  V30 18795 C 1759.77 1.27582 -4.12731 0
M  V30 18796 C 1758.91 2.41425 -4.73167 0
M  V30 18797 C 1757.95 1.87775 -5.82586 0
M  V30 18798 N 1757.08 2.95108 -6.37068 0
M  V30 18799 H 1761.92 0.0232427 -2.97991 0
M  V30 18800 H 1759.46 -0.000294714 -1.471 0
M  V30 18801 H 1761.42 2.47406 -3.35925 0
M  V30 18802 H 1760.05 2.33755 -2.22617 0
M  V30 18803 H 1759.1 0.477281 -3.77394 0
M  V30 18804 H 1760.41 0.842897 -4.91627 0
M  V30 18805 H 1759.57 3.18561 -5.16337 0
M  V30 18806 H 1758.31 2.88035 -3.93557 0
M  V30 18807 H 1757.31 1.0912 -5.38862 0
M  V30 18808 H 1758.54 1.42096 -6.64067 0
M  V30 18809 H 1756.48 3.41091 -5.60351 0
M  V30 18810 H 1756.4 2.56246 -7.11248 0
M  V30 18811 H 1757.67 3.72206 -6.84896 0
M  V30 18812 N 1761.9 1.57599 -0.0067085 0
M  V30 18813 C 1762.81 2.1228 0.998709 0
M  V30 18814 C 1763.82 1.06964 1.37239 0
M  V30 18815 O 1765 1.38902 1.45836 0
M  V30 18816 C 1762.06 2.62076 2.26973 0
M  V30 18817 C 1761.12 3.8202 1.95855 0
M  V30 18818 C 1760.36 4.29431 3.16898 0
M  V30 18819 O 1760.58 3.76136 4.2881 0
M  V30 18820 O 1759.51 5.21518 3.00504 0
M  V30 18821 H 1763.34 2.9842 0.563849 0
M  V30 18822 H 1760.92 1.47881 0.212535 0
M  V30 18823 H 1762.81 2.94274 3.01631 0
M  V30 18824 H 1761.48 1.79031 2.69684 0
M  V30 18825 H 1760.39 3.54785 1.18653 0
M  V30 18826 H 1761.72 4.66159 1.57977 0
M  V30 18827 N 1763.37 -0.266145 1.55336 0
M  V30 18828 C 1764.62 -0.998308 1.76527 0
M  V30 18829 C 1764.95 -1.85691 0.568535 0
M  V30 18830 O 1764.23 -1.89602 -0.433735 0
M  V30 18831 C 1764.51 -1.87509 3.07429 0
M  V30 18832 C 1764.36 -1.04596 4.3747 0
M  V30 18833 C 1765.68 -2.86099 3.34418 0
M  V30 18834 H 1762.8 -0.361514 0.642244 0
M  V30 18835 H 1765.44 -0.270186 1.88069 0
M  V30 18836 H 1763.59 -2.49591 2.97719 0
M  V30 18837 H 1765.27 -0.445323 4.59145 0
M  V30 18838 H 1763.51 -0.349641 4.32389 0
M  V30 18839 H 1764.18 -1.69279 5.25403 0
M  V30 18840 H 1766.66 -2.34153 3.43965 0
M  V30 18841 H 1765.53 -3.44584 4.27262 0
M  V30 18842 H 1765.79 -3.61577 2.5439 0
M  V30 18843 N 1764.85 -1.48386 -0.530967 0
M  V30 18844 C 1766.27 -1.34485 -0.859412 0
M  V30 18845 C 1766.47 -0.355124 -1.98346 0
M  V30 18846 O 1765.52 0.224012 -2.51504 0
M  V30 18847 C 1766.84 -2.74488 -1.22787 0
M  V30 18848 C 1768.38 -2.82969 -1.33781 0
M  V30 18849 C 1768.86 -4.23673 -1.7397 0
M  V30 18850 N 1770.35 -4.26341 -1.81074 0
M  V30 18851 C 1771.09 -5.32149 -2.13554 0
M  V30 18852 N 1770.58 -6.48235 -2.44464 0
M  V30 18853 N 1772.37 -5.19542 -2.14551 0
M  V30 18854 H 1764.53 -2.11352 0.210713 0
M  V30 18855 H 1766.79 -0.947472 0.0316283 0
M  V30 18856 H 1766.49 -3.4847 -0.475552 0
M  V30 18857 H 1766.37 -3.0795 -2.17823 0
M  V30 18858 H 1768.76 -2.09244 -2.08089 0
M  V30 18859 H 1768.84 -2.53129 -0.368677 0
M  V30 18860 H 1768.48 -4.97914 -1.00222 0
M  V30 18861 H 1768.41 -4.50956 -2.71931 0
M  V30 18862 H 1770.9 -3.42606 -1.59467 0
M  V30 18863 H 1771.21 -7.24712 -2.6835 0
M  V30 18864 H 1769.56 -6.51512 -2.41986 0
M  V30 18865 H 1772.75 -4.27868 -1.89859 0
M  V30 18866 H 1772.92 -6.02103 -2.39532 0
M  V30 18867 N 1766.33 0.779763 -1.36958 0
M  V30 18868 C 1767.24 1.92394 -1.34245 0
M  V30 18869 C 1768.26 1.72292 -0.243187 0
M  V30 18870 O 1769.43 1.95665 -0.477211 0
M  V30 18871 C 1766.5 3.27402 -1.14057 0
M  V30 18872 C 1765.56 3.60213 -2.33548 0
M  V30 18873 C 1764.79 4.88779 -2.14314 0
M  V30 18874 O 1765.01 5.59231 -1.12327 0
M  V30 18875 O 1763.95 5.20469 -3.02316 0
M  V30 18876 H 1767.77 1.97633 -2.30596 0
M  V30 18877 H 1765.36 0.921386 -1.17605 0
M  V30 18878 H 1767.24 4.08172 -1.04755 0
M  V30 18879 H 1765.92 3.23033 -0.207744 0
M  V30 18880 H 1764.82 2.7971 -2.48421 0
M  V30 18881 H 1766.16 3.69317 -3.25371 0
M  V30 18882 N 1767.81 1.21396 1.00503 0
M  V30 18883 C 1768.74 0.997268 2.11132 0
M  V30 18884 C 1769.72 -0.0777455 1.69922 0
M  V30 18885 O 1770.9 0.08208 1.94026 0
M  V30 18886 C 1768.03 0.561122 3.42737 0
M  V30 18887 C 1766.99 1.58069 3.97741 0
M  V30 18888 C 1766.31 1.00079 5.25251 0
M  V30 18889 C 1767.61 2.96754 4.29807 0
M  V30 18890 H 1769.31 1.92255 2.29518 0
M  V30 18891 H 1766.85 0.925776 1.10297 0
M  V30 18892 H 1768.81 0.396701 4.19529 0
M  V30 18893 H 1767.53 -0.399804 3.24144 0
M  V30 18894 H 1766.19 1.73268 3.23069 0
M  V30 18895 H 1765.84 0.0315797 5.0299 0
M  V30 18896 H 1765.54 1.68182 5.63017 0
M  V30 18897 H 1767.06 0.847687 6.04687 0
M  V30 18898 H 1768.48 2.85 4.97441 0
M  V30 18899 H 1766.87 3.61871 4.78717 0
M  V30 18900 H 1767.94 3.47602 3.38084 0
M  V30 18901 N 1769.29 -1.19996 1.0217 0
M  V30 18902 C 1770.53 -1.89776 0.715047 0
M  V30 18903 C 1770.86 -1.78971 -0.753862 0
M  V30 18904 O 1770.14 -1.17729 -1.54823 0
M  V30 18905 C 1770.42 -3.4098 1.15779 0
M  V30 18906 C 1770.28 -3.60693 2.68739 0
M  V30 18907 C 1771.59 -4.33953 0.733008 0
M  V30 18908 H 1768.71 -0.689148 0.261236 0
M  V30 18909 H 1771.36 -1.41287 1.27035 0
M  V30 18910 H 1769.51 -3.82407 0.68534 0
M  V30 18911 H 1771.18 -3.28484 3.23876 0
M  V30 18912 H 1769.42 -3.0399 3.09472 0
M  V30 18913 H 1770.09 -4.66704 2.94773 0
M  V30 18914 H 1772.57 -4.002 1.13925 0
M  V30 18915 H 1771.44 -5.38355 1.07077 0
M  V30 18916 H 1771.7 -4.4059 -0.365047 0
M  V30 18917 N 1770.76 -0.798611 -1.35867 0
M  V30 18918 C 1772.01 -0.375816 -1.99287 0
M  V30 18919 C 1772.34 1.05223 -1.63223 0
M  V30 18920 O 1771.62 1.72862 -0.891576 0
M  V30 18921 C 1771.9 -0.550197 -3.55872 0
M  V30 18922 C 1771.75 -2.0226 -4.0176 0
M  V30 18923 C 1773.07 0.0290862 -4.4009 0
M  V30 18924 H 1770.19 -0.138024 -0.72396 0
M  V30 18925 H 1772.83 -1.00666 -1.61141 0
M  V30 18926 H 1770.98 -0.0131739 -3.88498 0
M  V30 18927 H 1772.66 -2.62139 -3.7958 0
M  V30 18928 H 1770.9 -2.52191 -3.52962 0
M  V30 18929 H 1771.57 -2.09553 -5.10678 0
M  V30 18930 H 1774.05 -0.429444 -4.13878 0
M  V30 18931 H 1772.92 -0.122894 -5.48762 0
M  V30 18932 H 1773.18 1.12206 -4.27624 0
M  V30 18933 N 1772.24 1.47639 -0.551417 0
M  V30 18934 C 1773.49 2.02084 -0.0251553 0
M  V30 18935 C 1773.81 1.42872 1.32713 0
M  V30 18936 O 1773.08 0.601794 1.86428 0
M  V30 18937 H 1771.66 0.746973 -0.00631005 0
M  V30 18938 H 1774.32 1.81109 -0.720113 0
M  V30 18939 H 1773.42 3.12028 0.0672608 0
M  V30 18940 N 1773.72 0.287581 1.54954 0
M  V30 18941 C 1775.14 -0.0662092 1.59463 0
M  V30 18942 C 1775.34 -1.53556 1.30471 0
M  V30 18943 O 1774.39 -2.28632 1.07161 0
M  V30 18944 C 1775.71 0.319651 2.98996 0
M  V30 18945 C 1777.25 0.2673 3.11857 0
M  V30 18946 C 1777.73 0.627784 4.53677 0
M  V30 18947 N 1779.22 0.579808 4.59557 0
M  V30 18948 C 1779.95 0.831377 5.67341 0
M  V30 18949 N 1779.45 1.14821 6.83219 0
M  V30 18950 N 1781.24 0.759337 5.56947 0
M  V30 18951 H 1773.39 1.24534 1.72062 0
M  V30 18952 H 1775.66 0.503969 0.802944 0
M  V30 18953 H 1775.36 1.34201 3.25089 0
M  V30 18954 H 1775.24 -0.333373 3.75724 0
M  V30 18955 H 1777.62 -0.745794 2.8552 0
M  V30 18956 H 1777.71 0.954759 2.37314 0
M  V30 18957 H 1777.35 1.63862 4.80741 0
M  V30 18958 H 1777.28 -0.0816007 5.26537 0
M  V30 18959 H 1779.77 0.34531 3.76319 0
M  V30 18960 H 1780.08 1.32651 7.6133 0
M  V30 18961 H 1778.43 1.18612 6.84804 0
M  V30 18962 H 1781.62 0.511563 4.65296 0
M  V30 18963 H 1781.79 0.95877 6.40868 0
M  V30 18964 N 1775.2 -1.57593 0.0150662 0
M  V30 18965 C 1776.45 -1.90392 -0.66587 0
M  V30 18966 C 1776.76 -0.891694 -1.74092 0
M  V30 18967 O 1777.97 -1.11043 -2.47753 0
M  V30 18968 C 1776.42 -3.38026 -1.23558 0
M  V30 18969 C 1776.03 -4.47577 -0.19455 0
M  V30 18970 C 1777.77 -3.79913 -1.89384 0
M  V30 18971 C 1775.68 -5.86299 -0.7751 0
M  V30 18972 H 1774.61 -0.710474 -0.252473 0
M  V30 18973 H 1777.26 -1.83334 0.0780739 0
M  V30 18974 H 1775.64 -3.3997 -2.03068 0
M  V30 18975 H 1776.82 -4.57172 0.577061 0
M  V30 18976 H 1775.13 -4.14805 0.364134 0
M  V30 18977 H 1777.73 -4.809 -2.3375 0
M  V30 18978 H 1778.07 -3.14225 -2.73072 0
M  V30 18979 H 1778.61 -3.80333 -1.16585 0
M  V30 18980 H 1775.35 -6.55496 0.0233354 0
M  V30 18981 H 1774.87 -5.80338 -1.51552 0
M  V30 18982 H 1776.54 -6.3443 -1.26915 0
M  V30 18983 N 1776.68 0.257904 -1.55475 0
M  V30 18984 C 1778.09 0.605871 -1.47653 0
M  V30 18985 C 1778.29 1.88837 -0.703063 0
M  V30 18986 O 1777.35 2.51469 -0.227981 0
M  V30 18987 C 1778.66 0.718813 -2.91982 0
M  V30 18988 C 1780.21 0.81187 -3.02287 0
M  V30 18989 C 1780.68 0.956465 -4.47901 0
M  V30 18990 N 1782.18 1.02161 -4.51793 0
M  V30 18991 C 1782.91 1.15256 -5.61697 0
M  V30 18992 N 1782.41 1.24975 -6.81435 0
M  V30 18993 N 1784.2 1.18485 -5.4947 0
M  V30 18994 H 1776.35 -0.584154 -2.04209 0
M  V30 18995 H 1778.61 -0.200045 -0.926653 0
M  V30 18996 H 1778.32 -0.15335 -3.51366 0
M  V30 18997 H 1778.19 1.59429 -3.41851 0
M  V30 18998 H 1780.58 1.67449 -2.42991 0
M  V30 18999 H 1780.66 -0.0885307 -2.55647 0
M  V30 19000 H 1780.31 0.0984438 -5.07805 0
M  V30 19001 H 1780.24 1.87174 -4.92213 0
M  V30 19002 H 1782.73 0.958295 -3.65548 0
M  V30 19003 H 1783.04 1.34843 -7.60945 0
M  V30 19004 H 1781.38 1.21952 -6.84217 0
M  V30 19005 H 1784.58 1.10534 -4.54863 0
M  V30 19006 H 1784.75 1.28346 -6.35162 0
M  V30 19007 N 1778.15 1.48666 0.52309 0
M  V30 19008 C 1779.1 1.64155 1.6479 0
M  V30 19009 C 1780.1 0.507838 1.61609 0
M  V30 19010 O 1781.3 0.686784 1.66383 0
M  V30 19011 H 1777.68 0.517234 0.545869 0
M  V30 19012 H 1779.65 2.58611 1.48871 0
M  V30 19013 C 1778.4 1.70488 3.03033 0
M  V30 19014 H 1777.72 2.5709 3.06178 0
M  V30 19015 H 1779.16 1.85367 3.81333 0
M  V30 19016 C 1777.62 0.444984 3.33948 0
M  V30 19017 O 1778.15 -0.439107 3.99293 0
M  V30 19018 N 1776.36 0.314593 2.88892 0
M  V30 19019 H 1775.9 1.03501 2.35893 0
M  V30 19020 H 1775.86 -0.527357 3.09946 0
M  V30 19021 N 1779.63 -0.772489 1.37369 0
M  V30 19022 C 1780.86 -1.56158 1.35729 0
M  V30 19023 C 1781.28 -1.88712 -0.0575274 0
M  V30 19024 O 1780.63 -1.51395 -1.01911 0
M  V30 19025 C 1780.68 -2.87231 2.19501 0
M  V30 19026 O 1780.4 -2.56072 3.5547 0
M  V30 19027 C 1781.91 -3.81464 2.25831 0
M  V30 19028 H 1779.13 -0.483803 0.464947 0
M  V30 19029 H 1781.67 -0.957502 1.80699 0
M  V30 19030 H 1779.82 -3.44063 1.78042 0
M  V30 19031 H 1780.24 -3.40002 3.99373 0
M  V30 19032 H 1781.71 -4.70442 2.8877 0
M  V30 19033 H 1782.19 -4.20542 1.26653 0
M  V30 19034 H 1782.8 -3.30561 2.67599 0
M  V30 19035 N 1781.11 -1.21927 -0.998575 0
M  V30 19036 C 1782.52 -1.03808 -1.5518 0
M  V30 19037 C 1782.87 0.400202 -1.92075 0
M  V30 19038 O 1782 1.28436 -1.74164 0
M  V30 19039 C 1782.59 -1.87814 -2.81978 0
M  V30 19040 C 1781.15 -1.74008 -3.33764 0
M  V30 19041 C 1780.3 -1.8463 -2.06899 0
M  V30 19042 H 1783.25 -1.35855 -0.820305 0
M  V30 19043 H 1783.27 -1.39219 -3.54116 0
M  V30 19044 H 1782.78 -2.92487 -2.55094 0
M  V30 19045 H 1780.88 -0.720445 -3.65569 0
M  V30 19046 H 1781 -2.56348 -4.0475 0
M  V30 19047 H 1779.36 -1.28007 -2.20196 0
M  V30 19048 H 1780.14 -2.90824 -1.82419 0
M  V30 19049 N 1782.59 1.19452 -1.02805 0
M  V30 19050 C 1783.5 2.2631 -0.618147 0
M  V30 19051 C 1784.51 1.70449 0.349712 0
M  V30 19052 O 1785.69 2.00325 0.207801 0
M  V30 19053 C 1782.76 3.46691 0.0255242 0
M  V30 19054 C 1781.82 4.17735 -0.98973 0
M  V30 19055 C 1781.05 5.32369 -0.376681 0
M  V30 19056 O 1781.27 5.64467 0.820584 0
M  V30 19057 O 1780.21 5.9178 -1.09911 0
M  V30 19058 H 1784.03 2.63611 -1.50807 0
M  V30 19059 H 1781.62 1.2629 -0.798192 0
M  V30 19060 H 1783.5 4.19643 0.384464 0
M  V30 19061 H 1782.17 3.1124 0.889467 0
M  V30 19062 H 1781.08 3.46906 -1.40024 0
M  V30 19063 H 1782.41 4.57155 -1.82402 0
M  V30 19064 N 1784.07 0.805805 1.35442 0
M  V30 19065 C 1785.29 0.398252 2.03031 0
M  V30 19066 C 1785.71 -0.990542 1.60729 0
M  V30 19067 O 1785.07 -1.63813 0.804461 0
M  V30 19068 C 1785.12 0.471116 3.58417 0
M  V30 19069 O 1784.84 1.80516 3.99181 0
M  V30 19070 C 1786.34 0.056272 4.43264 0
M  V30 19071 H 1783.56 0.161905 0.651174 0
M  V30 19072 H 1786.1 1.08921 1.73079 0
M  V30 19073 H 1784.26 -0.171584 3.8702 0
M  V30 19074 H 1784.67 1.76739 4.93825 0
M  V30 19075 H 1786.15 0.15837 5.51773 0
M  V30 19076 H 1786.62 -0.998308 4.27704 0
M  V30 19077 H 1787.23 0.672097 4.19956 0
M  V30 19078 N 1785.54 -1.47344 0.559239 0
M  V30 19079 C 1786.82 -1.95577 -0.0298268 0
M  V30 19080 C 1787.2 -1.50185 -1.4835 0
M  V30 19081 O 1786.55 -0.74162 -2.1613 0
M  V30 19082 C 1786.76 -3.48801 0.117767 0
M  V30 19083 C 1788.11 -4.24592 -0.026535 0
M  V30 19084 O 1789.13 -3.56171 0.0454163 0
M  V30 19085 O 1787.99 -5.46198 -0.181675 0
M  V30 19086 H 1785.08 -0.824597 -0.0629972 0
M  V30 19087 H 1787.63 -1.57736 0.625905 0
M  V30 19088 H 1786.4 -3.74652 1.12924 0
M  V30 19089 H 1786.03 -3.93413 -0.575483 0
M  V30 19090 N 1787.02 -0.295795 -1.54799 0
M  V30 19091 C 1787.93 0.592206 -2.27002 0
M  V30 19092 C 1788.95 1.1528 -1.30332 0
M  V30 19093 O 1790.12 1.1787 -1.63305 0
M  V30 19094 C 1787.19 1.75027 -2.99277 0
M  V30 19095 C 1786.25 1.22427 -4.11473 0
M  V30 19096 C 1785.48 2.32714 -4.80291 0
M  V30 19097 O 1785.71 3.52506 -4.48437 0
M  V30 19098 O 1784.64 1.997 -5.67806 0
M  V30 19099 H 1788.47 0.00666048 -3.03699 0
M  V30 19100 H 1786.05 -0.0624413 -1.49269 0
M  V30 19101 H 1787.93 2.42508 -3.44627 0
M  V30 19102 H 1786.61 2.32252 -2.25479 0
M  V30 19103 H 1785.52 0.515337 -3.70534 0
M  V30 19104 H 1786.85 0.697518 -4.87233 0
M  V30 19105 N 1788.5 1.57583 -0.0234236 0
M  V30 19106 C 1789.73 1.96267 0.670371 0
M  V30 19107 C 1790.15 0.899586 1.65194 0
M  V30 19108 O 1789.51 -0.140079 1.80758 0
M  V30 19109 C 1789.56 3.34049 1.35806 0
M  V30 19110 O 1788.66 3.3001 2.4732 0
M  V30 19111 H 1788 0.640097 0.176557 0
M  V30 19112 H 1790.53 2.04429 -0.0835829 0
M  V30 19113 H 1790.54 3.70151 1.71616 0
M  V30 19114 H 1789.22 4.10969 0.63852 0
M  V30 19115 H 1787.79 3.05618 2.13664 0
M  V30 19116 N 1789.98 -0.249655 1.5561 0
M  V30 19117 C 1790.91 -1.31281 1.931 0
M  V30 19118 C 1791.89 -1.50347 0.795601 0
M  V30 19119 O 1793.08 -1.63001 1.05566 0
M  V30 19120 C 1790.21 -2.66808 2.2233 0
M  V30 19121 C 1789.16 -2.62441 3.38096 0
M  V30 19122 C 1788.49 -4.01738 3.52861 0
M  V30 19123 C 1789.79 -2.19667 4.7386 0
M  V30 19124 H 1791.48 -1.00151 2.82153 0
M  V30 19125 H 1789.03 -0.480331 1.35753 0
M  V30 19126 H 1790.98 -3.41316 2.47146 0
M  V30 19127 H 1789.7 -2.99569 1.30101 0
M  V30 19128 H 1788.36 -1.90391 3.13284 0
M  V30 19129 H 1788.01 -4.31759 2.58056 0
M  V30 19130 H 1787.71 -3.99705 4.30708 0
M  V30 19131 H 1789.23 -4.7795 3.79995 0
M  V30 19132 H 1790.65 -2.83906 4.98067 0
M  V30 19133 H 1789.04 -2.28751 5.54791 0
M  V30 19134 H 1790.11 -1.14829 4.71108 0
M  V30 19135 N 1791.46 -1.48941 -0.515198 0
M  V30 19136 C 1792.71 -1.5696 -1.26674 0
M  V30 19137 C 1793.02 -0.255062 -1.9393 0
M  V30 19138 O 1794.23 -0.213645 -2.70658 0
M  V30 19139 C 1792.68 -2.76877 -2.29928 0
M  V30 19140 C 1792.29 -4.15033 -1.68676 0
M  V30 19141 C 1794.03 -2.94218 -3.06 0
M  V30 19142 C 1791.94 -5.26191 -2.69957 0
M  V30 19143 H 1790.87 -0.584377 -0.476465 0
M  V30 19144 H 1793.52 -1.75303 -0.542322 0
M  V30 19145 H 1791.9 -2.51999 -3.05471 0
M  V30 19146 H 1793.08 -4.49991 -0.992215 0
M  V30 19147 H 1791.39 -4.02932 -1.05045 0
M  V30 19148 H 1793.99 -3.74433 -3.81712 0
M  V30 19149 H 1794.33 -2.04235 -3.62759 0
M  V30 19150 H 1794.87 -3.19068 -2.37572 0
M  V30 19151 H 1791.6 -6.18189 -2.17998 0
M  V30 19152 H 1791.12 -4.95705 -3.37694 0
M  V30 19153 H 1792.8 -5.54929 -3.32659 0
M  V30 19154 N 1792.94 0.765193 -1.37777 0
M  V30 19155 C 1794.21 1.51374 -1.23876 0
M  V30 19156 C 1794.59 2.10455 0.164852 0
M  V30 19157 O 1793.94 1.96084 1.17318 0
M  V30 19158 C 1794.15 2.58939 -2.33991 0
M  V30 19159 C 1795.5 3.26162 -2.71852 0
M  V30 19160 O 1796.52 2.69238 -2.33216 0
M  V30 19161 O 1795.38 4.29094 -3.38438 0
M  V30 19162 H 1792.48 0.670749 -0.48376 0
M  V30 19163 H 1795.02 0.801597 -1.49574 0
M  V30 19164 H 1793.79 2.13448 -3.27957 0
M  V30 19165 H 1793.42 3.37747 -2.09793 0
M  V30 19166 N 1794.41 1.22455 0.992094 0
M  V30 19167 C 1795.82 1.04629 1.54627 0
M  V30 19168 C 1796.18 -0.390011 1.92285 0
M  V30 19169 O 1795.3 -1.27511 1.74842 0
M  V30 19170 C 1795.9 1.89306 2.80978 0
M  V30 19171 C 1794.45 1.75775 3.32836 0
M  V30 19172 C 1793.6 1.85724 2.05917 0
M  V30 19173 H 1796.55 1.36288 0.813089 0
M  V30 19174 H 1796.57 1.41095 3.53373 0
M  V30 19175 H 1796.09 2.93836 2.53539 0
M  V30 19176 H 1794.19 0.739821 3.65181 0
M  V30 19177 H 1794.3 2.58491 4.03385 0
M  V30 19178 H 1792.66 1.29173 2.19514 0
M  V30 19179 H 1793.45 2.91787 1.80874 0
M  V30 19180 N 1795.89 -1.18905 1.03437 0
M  V30 19181 C 1796.84 -2.24362 0.613557 0
M  V30 19182 C 1797.83 -1.65605 -0.356541 0
M  V30 19183 O 1799.04 -1.78594 -0.22452 0
M  V30 19184 H 1795.41 -0.730098 0.18017 0
M  V30 19185 H 1797.39 -2.57168 1.51351 0
M  V30 19186 C 1796.13 -3.47697 -0.0141125 0
M  V30 19187 H 1795.46 -3.93201 0.723394 0
M  V30 19188 H 1796.9 -4.2313 -0.271424 0
M  V30 19189 C 1795.36 -3.12357 -1.26232 0
M  V30 19190 O 1795.89 -3.25515 -2.35378 0
M  V30 19191 N 1794.09 -2.6674 -1.15318 0
M  V30 19192 H 1793.64 -2.56233 -0.26501 0
M  V30 19193 H 1793.6 -2.43466 -1.98927 0
M  V30 19194 N 1797.37 -0.812977 -1.35013 0
M  V30 19195 C 1798.62 -0.392801 -1.97838 0
M  V30 19196 C 1798.93 1.04728 -1.65201 0
M  V30 19197 O 1800.14 1.57088 -2.2144 0
M  V30 19198 C 1798.59 -0.651399 -3.53956 0
M  V30 19199 C 1798.2 -2.10444 -3.95496 0
M  V30 19200 C 1799.95 -0.296897 -4.2346 0
M  V30 19201 C 1797.85 -2.30845 -5.44485 0
M  V30 19202 H 1796.78 -0.143138 -0.740289 0
M  V30 19203 H 1799.43 -0.997933 -1.53992 0
M  V30 19204 H 1797.82 0.0237698 -3.95993 0
M  V30 19205 H 1798.99 -2.81795 -3.64593 0
M  V30 19206 H 1797.3 -2.41942 -3.389 0
M  V30 19207 H 1799.9 -0.427291 -5.3299 0
M  V30 19208 H 1800.24 0.757594 -4.09349 0
M  V30 19209 H 1800.78 -0.92624 -3.86866 0
M  V30 19210 H 1797.52 -3.34763 -5.63572 0
M  V30 19211 H 1797.04 -1.64027 -5.76936 0
M  V30 19212 H 1798.72 -2.12712 -6.11034 0
M  V30 19213 N 1798.85 1.47045 -0.567045 0
M  V30 19214 C 1799.78 2.32929 0.163191 0
M  V30 19215 C 1800.76 1.44393 0.899142 0
M  V30 19216 O 1801.94 1.73235 0.87768 0
M  V30 19217 C 1799.07 3.26369 1.18745 0
M  V30 19218 C 1798.03 4.24223 0.567335 0
M  V30 19219 C 1797.35 5.07058 1.69693 0
M  V30 19220 C 1798.65 5.2004 -0.485319 0
M  V30 19221 H 1800.35 2.94233 -0.553837 0
M  V30 19222 H 1797.89 1.41488 -0.267789 0
M  V30 19223 H 1799.85 3.85299 1.70654 0
M  V30 19224 H 1798.57 2.6314 1.93455 0
M  V30 19225 H 1797.23 3.66534 0.0694525 0
M  V30 19226 H 1796.88 4.40226 2.43331 0
M  V30 19227 H 1796.58 5.73316 1.28774 0
M  V30 19228 H 1798.1 5.68848 2.2191 0
M  V30 19229 H 1799.52 5.73277 -0.0519049 0
M  V30 19230 H 1797.91 5.94554 -0.813942 0
M  V30 19231 H 1798.98 4.64921 -1.37754 0
M  V30 19232 N 1800.33 0.304 1.5464 0
M  V30 19233 C 1801.55 -0.309709 2.05075 0
M  V30 19234 C 1801.98 -1.46509 1.1797 0
M  V30 19235 O 1801.33 -1.80359 0.184437 0
M  V30 19236 C 1801.38 -0.740734 3.5291 0
M  V30 19237 O 1800.49 -1.8452 3.68817 0
M  V30 19238 H 1799.83 -0.0596065 0.661319 0
M  V30 19239 H 1802.36 0.446718 1.99664 0
M  V30 19240 H 1802.37 -1.02873 3.94818 0
M  V30 19241 H 1801.04 0.104422 4.15769 0
M  V30 19242 H 1799.62 -1.55753 3.38815 0
M  V30 19243 N 1801.8 -1.57568 0.0317802 0
M  V30 19244 C 1802.73 -2.13412 -0.947499 0
M  V30 19245 C 1803.71 -1.05091 -1.33753 0
M  V30 19246 O 1804.9 -1.32936 -1.41568 0
M  V30 19247 C 1802.03 -2.66337 -2.22895 0
M  V30 19248 C 1800.98 -3.79469 -1.97958 0
M  V30 19249 C 1800.31 -4.18833 -3.3239 0
M  V30 19250 C 1801.61 -5.05432 -1.31664 0
M  V30 19251 H 1803.3 -2.95488 -0.482417 0
M  V30 19252 H 1800.85 -1.42142 -0.230603 0
M  V30 19253 H 1802.8 -3.04039 -2.91784 0
M  V30 19254 H 1801.53 -1.81426 -2.71574 0
M  V30 19255 H 1800.19 -3.42209 -1.31485 0
M  V30 19256 H 1799.83 -3.30899 -3.78833 0
M  V30 19257 H 1799.53 -4.95071 -3.16511 0
M  V30 19258 H 1801.06 -4.5912 -4.02544 0
M  V30 19259 H 1802.47 -5.40704 -1.90558 0
M  V30 19260 H 1800.87 -5.86686 -1.26173 0
M  V30 19261 H 1801.94 -4.84032 -0.28996 0
M  V30 19262 N 1803.28 0.241399 -1.5574 0
M  V30 19263 C 1804.23 1.31868 -1.91608 0
M  V30 19264 C 1805.22 1.49545 -0.795774 0
M  V30 19265 O 1806.43 1.50955 -0.980442 0
M  V30 19266 H 1802.81 0.441685 -0.60862 0
M  V30 19267 H 1804.78 0.98887 -2.81538 0
M  V30 19268 C 1803.53 2.66602 -2.23201 0
M  V30 19269 H 1802.85 2.53802 -3.08909 0
M  V30 19270 H 1804.29 3.40842 -2.52196 0
M  V30 19271 C 1802.75 3.20112 -1.05024 0
M  V30 19272 O 1803.28 4.0057 -0.301069 0
M  V30 19273 N 1801.48 2.78214 -0.839381 0
M  V30 19274 H 1801.03 2.12894 -1.4503 0
M  V30 19275 H 1800.99 3.1436 -0.050362 0
M  V30 19276 N 1804.76 1.49212 0.507292 0
M  V30 19277 C 1806.01 1.5763 1.2584 0
M  V30 19278 C 1806.32 0.265343 1.93792 0
M  V30 19279 O 1807.53 0.227996 2.70541 0
M  V30 19280 C 1805.98 2.78093 2.28457 0
M  V30 19281 C 1805.59 4.15922 1.66472 0
M  V30 19282 C 1807.34 2.95837 3.04435 0
M  V30 19283 C 1805.24 5.27616 2.67162 0
M  V30 19284 H 1804.17 0.586896 0.47336 0
M  V30 19285 H 1806.82 1.75588 0.533018 0
M  V30 19286 H 1805.21 2.53616 3.0413 0
M  V30 19287 H 1806.38 4.50511 0.968337 0
M  V30 19288 H 1804.7 4.03484 1.02906 0
M  V30 19289 H 1807.29 3.76452 3.79721 0
M  V30 19290 H 1807.64 2.06156 3.61671 0
M  V30 19291 H 1808.17 3.20323 2.35877 0
M  V30 19292 H 1804.91 6.19336 2.14716 0
M  V30 19293 H 1804.43 4.97488 3.3506 0
M  V30 19294 H 1806.11 5.56686 3.29712 0
M  V30 19295 N 1806.24 -0.757876 1.38181 0
M  V30 19296 C 1807.17 -1.88519 1.37779 0
M  V30 19297 C 1808.15 -1.68336 0.24432 0
M  V30 19298 O 1809.33 -1.88991 0.446762 0
M  V30 19299 C 1806.46 -3.2599 1.19784 0
M  V30 19300 C 1805.42 -3.60764 2.30289 0
M  V30 19301 C 1804.74 -4.96927 1.97403 0
M  V30 19302 C 1806.04 -3.66082 3.72533 0
M  V30 19303 H 1807.74 -1.89112 2.32114 0
M  V30 19304 H 1805.28 -0.908442 1.11729 0
M  V30 19305 H 1807.24 -4.04504 1.18129 0
M  V30 19306 H 1805.96 -3.25864 0.219088 0
M  V30 19307 H 1804.62 -2.84566 2.31123 0
M  V30 19308 H 1804.27 -4.93356 0.98023 0
M  V30 19309 H 1803.97 -5.21162 2.7141 0
M  V30 19310 H 1805.49 -5.77825 1.97359 0
M  V30 19311 H 1806.91 -4.3472 3.73754 0
M  V30 19312 H 1805.3 -4.01824 4.4571 0
M  V30 19313 H 1806.37 -2.66412 4.05158 0
M  V30 19314 N 1807.72 -1.22979 -0.985586 0
M  V30 19315 C 1808.94 -1.08615 -1.76685 0
M  V30 19316 C 1809.37 0.35859 -1.8465 0
M  V30 19317 O 1808.72 1.25924 -1.30433 0
M  V30 19318 C 1808.77 -1.71039 -3.17456 0
M  V30 19319 O 1807.88 -0.969018 -4.00854 0
M  V30 19320 H 1807.22 -0.38103 -0.543794 0
M  V30 19321 H 1809.75 -1.62927 -1.23757 0
M  V30 19322 H 1809.76 -1.76064 -3.68056 0
M  V30 19323 H 1808.43 -2.76168 -3.10973 0
M  V30 19324 H 1807.01 -0.995318 -3.59371 0
M  V30 19325 N 1809.19 1.18355 -1.04066 0
M  V30 19326 C 1810.42 1.92816 -0.763979 0
M  V30 19327 C 1810.84 1.75658 0.672749 0
M  V30 19328 O 1810.2 1.06671 1.46598 0
M  V30 19329 C 1810.25 3.42267 -1.13516 0
M  V30 19330 O 1809.35 4.11576 -0.260646 0
M  V30 19331 H 1808.7 0.601532 -0.281167 0
M  V30 19332 H 1811.23 1.50087 -1.3905 0
M  V30 19333 H 1811.24 3.92973 -1.09709 0
M  V30 19334 H 1809.91 3.54076 -2.18181 0
M  V30 19335 H 1808.49 3.71174 -0.358342 0
M  V30 19336 N 1810.67 0.820125 1.3458 0
M  V30 19337 C 1811.92 0.406067 1.97979 0
M  V30 19338 C 1812.24 -1.03366 1.65349 0
M  V30 19339 O 1811.51 -1.71721 0.942798 0
M  V30 19340 H 1810.09 0.147162 0.732361 0
M  V30 19341 H 1812.75 1.04895 1.64265 0
M  V30 19342 H 1811.85 0.52279 3.0769 0
M  V30 19343 N 1812.15 -1.46743 0.574835 0
M  V30 19344 C 1813.38 -2.06505 0.0627081 0
M  V30 19345 C 1813.79 -1.42535 -1.2442 0
M  V30 19346 O 1813.13 -0.522043 -1.76126 0
M  V30 19347 C 1813.19 -3.59021 -0.185574 0
M  V30 19348 C 1812.86 -4.45136 1.03455 0
M  V30 19349 C 1813.85 -4.82163 1.94461 0
M  V30 19350 C 1811.54 -4.8639 1.25418 0
M  V30 19351 C 1813.53 -5.59262 3.05786 0
M  V30 19352 C 1811.22 -5.63251 2.37049 0
M  V30 19353 C 1812.22 -5.99599 3.27062 0
M  V30 19354 O 1811.91 -6.74908 4.36755 0
M  V30 19355 H 1811.64 -0.674082 0.0508932 0
M  V30 19356 H 1814.19 -1.89476 0.792968 0
M  V30 19357 H 1812.42 -3.74327 -0.970354 0
M  V30 19358 H 1814.11 -4.00739 -0.645242 0
M  V30 19359 H 1814.88 -4.50876 1.78705 0
M  V30 19360 H 1810.76 -4.57553 0.56266 0
M  V30 19361 H 1814.3 -5.87552 3.7607 0
M  V30 19362 H 1810.2 -5.93951 2.5277 0
M  V30 19363 H 1810.97 -6.93323 4.35024 0
M  V30 19364 N 1813.63 -0.312197 -1.54477 0
M  V30 19365 C 1814.88 0.294607 -1.99537 0
M  V30 19366 C 1815.19 1.54137 -1.20421 0
M  V30 19367 O 1816.4 2.22346 -1.55803 0
M  V30 19368 C 1814.85 0.57547 -3.55269 0
M  V30 19369 C 1814.46 -0.653591 -4.43207 0
M  V30 19370 C 1816.2 1.14285 -4.08827 0
M  V30 19371 C 1814.11 -0.345261 -5.90391 0
M  V30 19372 H 1813.04 0.113859 -0.745354 0
M  V30 19373 H 1815.69 -0.42265 -1.78566 0
M  V30 19374 H 1814.07 1.35262 -3.72183 0
M  V30 19375 H 1815.25 -1.42945 -4.38068 0
M  V30 19376 H 1813.56 -1.14039 -4.0048 0
M  V30 19377 H 1816.16 1.38797 -5.16371 0
M  V30 19378 H 1816.5 2.08866 -3.60112 0
M  V30 19379 H 1817.04 0.427154 -3.955 0
M  V30 19380 H 1813.78 -1.25994 -6.43277 0
M  V30 19381 H 1813.3 0.393106 -5.9851 0
M  V30 19382 H 1814.97 0.0490847 -6.46981 0
M  V30 19383 N 1815.11 1.57549 -0.040136 0
M  V30 19384 C 1816.06 2.07384 0.947418 0
M  V30 19385 C 1817.04 0.976645 1.27869 0
M  V30 19386 O 1818.23 1.2401 1.26296 0
M  V30 19387 C 1815.36 2.61343 2.22609 0
M  V30 19388 C 1814.45 3.78012 1.9227 0
M  V30 19389 N 1814.84 4.88206 1.32244 0
M  V30 19390 C 1813.14 3.86708 2.22201 0
M  V30 19391 C 1813.84 5.69338 1.19286 0
M  V30 19392 N 1812.81 5.16595 1.69207 0
M  V30 19393 H 1816.62 2.89979 0.478476 0
M  V30 19394 H 1814.13 1.61564 0.164602 0
M  V30 19395 H 1816.13 2.95343 2.94242 0
M  V30 19396 H 1814.79 1.80182 2.70119 0
M  V30 19397 H 1815.8 5.08232 0.996048 0
M  V30 19398 H 1812.47 3.16472 2.72308 0
M  V30 19399 H 1813.86 6.67947 0.727784 0
M  V30 19400 N 1816.58 -0.233136 1.55866 0
M  V30 19401 C 1818 -0.801092 1.6864 0
M  V30 19402 C 1818.35 -1.85465 0.640081 0
M  V30 19403 O 1817.47 -2.15368 -0.211038 0
M  V30 19404 C 1818.07 -1.45984 3.05735 0
M  V30 19405 C 1816.63 -1.97533 3.20403 0
M  V30 19406 C 1815.77 -0.831321 2.64546 0
M  V30 19407 H 1818.72 -0.00868708 1.58698 0
M  V30 19408 H 1818.74 -2.32832 3.00948 0
M  V30 19409 H 1818.26 -0.692805 3.81866 0
M  V30 19410 H 1816.36 -2.77074 2.4912 0
M  V30 19411 H 1816.47 -2.16326 4.27481 0
M  V30 19412 H 1814.83 -1.23554 2.22725 0
M  V30 19413 H 1815.62 -0.0771465 3.43213 0
M  V30 19414 N 1818.06 -1.49479 -0.499372 0
M  V30 19415 C 1819.03 -1.6575 -1.58302 0
M  V30 19416 C 1820.03 -0.529236 -1.51841 0
M  V30 19417 O 1821.22 -0.795721 -1.54964 0
M  V30 19418 C 1818.35 -1.65639 -2.97954 0
M  V30 19419 H 1819.54 -2.62404 -1.45203 0
M  V30 19420 H 1817.09 -1.38535 -0.723725 0
M  V30 19421 H 1817.83 -0.705752 -3.16527 0
M  V30 19422 H 1817.61 -2.47578 -3.04051 0
M  V30 19423 H 1819.1 -1.80279 -3.76682 0
M  V30 19424 N 1819.54 0.750537 -1.38581 0
M  V30 19425 C 1820.47 1.87411 -1.31946 0
M  V30 19426 C 1821.49 1.61151 -0.231101 0
M  V30 19427 O 1822.68 1.71674 -0.488893 0
M  V30 19428 C 1819.78 3.23112 -1.02233 0
M  V30 19429 C 1818.95 3.76852 -2.22039 0
M  V30 19430 C 1818.01 4.91077 -1.89023 0
M  V30 19431 O 1817.03 5.0555 -2.61549 0
M  V30 19432 N 1818.24 5.74287 -0.847021 0
M  V30 19433 H 1821 1.93613 -2.28767 0
M  V30 19434 H 1818.56 0.930603 -1.32482 0
M  V30 19435 H 1820.55 3.97074 -0.78193 0
M  V30 19436 H 1819.12 3.12277 -0.141981 0
M  V30 19437 H 1818.34 2.94421 -2.62126 0
M  V30 19438 H 1819.63 4.09489 -3.01987 0
M  V30 19439 H 1819.03 5.65166 -0.245635 0
M  V30 19440 H 1817.59 6.48383 -0.666505 0
M  V30 19441 N 1821.02 1.235 0.979051 0
M  V30 19442 C 1822.3 0.976124 1.69503 0
M  V30 19443 C 1822.68 -0.504883 2.04974 0
M  V30 19444 O 1822.02 -1.47642 1.74397 0
M  V30 19445 C 1822.23 1.8877 2.93542 0
M  V30 19446 C 1823.58 2.15196 3.66027 0
M  V30 19447 O 1824.61 1.8633 3.03578 0
M  V30 19448 O 1823.47 2.64157 4.78417 0
M  V30 19449 H 1820.56 0.36825 0.740487 0
M  V30 19450 H 1823.11 1.34549 1.03415 0
M  V30 19451 H 1821.88 2.88882 2.63937 0
M  V30 19452 H 1821.5 1.52079 3.67366 0
M  V30 19453 N 1822.5 -1.17802 1.04693 0
M  V30 19454 C 1823.77 -1.83839 0.668039 0
M  V30 19455 C 1824.15 -1.93143 -0.852008 0
M  V30 19456 O 1823.5 -1.46213 -1.75596 0
M  V30 19457 C 1823.71 -3.21783 1.35118 0
M  V30 19458 C 1825.06 -3.97747 1.48601 0
M  V30 19459 O 1826.08 -3.31244 1.30979 0
M  V30 19460 O 1824.94 -5.16915 1.77373 0
M  V30 19461 H 1822.04 -0.793045 0.234538 0
M  V30 19462 H 1824.58 -1.25141 1.1462 0
M  V30 19463 H 1823.36 -3.0995 2.38844 0
M  V30 19464 H 1822.98 -3.88142 0.862045 0
M  V30 19465 N 1823.98 -0.827251 -1.34143 0
M  V30 19466 C 1825.39 -0.513554 -1.51112 0
M  V30 19467 C 1825.59 0.961434 -1.77084 0
M  V30 19468 O 1824.65 1.74573 -1.82429 0
M  V30 19469 C 1825.96 -1.37683 -2.67327 0
M  V30 19470 C 1827.51 -1.3744 -2.8121 0
M  V30 19471 C 1827.98 -2.22226 -4.00474 0
M  V30 19472 N 1829.47 -2.19873 -4.07689 0
M  V30 19473 C 1830.21 -2.82222 -4.99138 0
M  V30 19474 N 1829.71 -3.53578 -5.95781 0
M  V30 19475 N 1831.5 -2.71753 -4.92043 0
M  V30 19476 H 1823.65 -1.78222 -1.15545 0
M  V30 19477 H 1825.91 -0.759711 -0.567047 0
M  V30 19478 H 1825.62 -2.42448 -2.54778 0
M  V30 19479 H 1825.49 -1.0446 -3.62447 0
M  V30 19480 H 1827.88 -0.334525 -2.93198 0
M  V30 19481 H 1827.96 -1.74663 -1.86886 0
M  V30 19482 H 1827.6 -3.26266 -3.89246 0
M  V30 19483 H 1827.53 -1.82352 -4.9402 0
M  V30 19484 H 1830.03 -1.67972 -3.38517 0
M  V30 19485 H 1830.34 -3.98387 -6.62199 0
M  V30 19486 H 1828.68 -3.57685 -5.95892 0
M  V30 19487 H 1831.87 -2.15579 -4.15504 0
M  V30 19488 H 1832.05 -3.2063 -5.63117 0
M  V30 19489 N 1825.45 1.46436 -0.582609 0
M  V30 19490 C 1826.68 2.06768 -0.0737657 0
M  V30 19491 C 1827.1 1.43137 1.23115 0
M  V30 19492 O 1826.45 0.536633 1.74432 0
M  V30 19493 C 1826.5 3.61365 0.0988205 0
M  V30 19494 O 1826.23 4.22616 -1.15444 0
M  V30 19495 C 1827.73 4.38626 0.642025 0
M  V30 19496 H 1824.95 0.66854 -0.0574078 0
M  V30 19497 H 1827.49 1.88064 -0.80325 0
M  V30 19498 H 1825.65 3.79497 0.778526 0
M  V30 19499 H 1826.06 5.15486 -0.968204 0
M  V30 19500 H 1827.53 5.47389 0.711966 0
M  V30 19501 H 1828.01 4.06663 1.65897 0
M  V30 19502 H 1828.62 4.253 -0.00280852 0
M  V30 19503 N 1826.93 0.320385 1.54309 0
M  V30 19504 C 1828.18 -0.283143 2.00511 0
M  V30 19505 C 1828.51 -1.52391 1.2086 0
M  V30 19506 O 1827.76 -1.93716 0.277955 0
M  V30 19507 C 1828.06 -0.665444 3.5115 0
M  V30 19508 C 1827.73 0.475789 4.48383 0
M  V30 19509 C 1826.39 0.789037 4.74687 0
M  V30 19510 C 1828.74 1.24253 5.06172 0
M  V30 19511 C 1826.07 1.87181 5.5604 0
M  V30 19512 C 1828.42 2.31537 5.88705 0
M  V30 19513 C 1827.08 2.63447 6.13312 0
M  V30 19514 H 1826.35 -0.103609 0.733721 0
M  V30 19515 H 1829 0.443504 1.86294 0
M  V30 19516 H 1827.31 -1.47247 3.63078 0
M  V30 19517 H 1829 -1.14391 3.84338 0
M  V30 19518 H 1825.59 0.221559 4.28027 0
M  V30 19519 H 1829.78 1.01379 4.85835 0
M  V30 19520 H 1825.03 2.12354 5.73337 0
M  V30 19521 H 1829.21 2.91395 6.32504 0
M  V30 19522 H 1826.83 3.47477 6.76139 0
M  V30 19523 N 1828.41 -1.57525 0.0484906 0
M  V30 19524 C 1829.64 -1.96611 -0.634631 0
M  V30 19525 C 1830.05 -0.924571 -1.65071 0
M  V30 19526 O 1829.39 0.0999398 -1.83428 0
M  V30 19527 C 1829.45 -3.31924 -1.38082 0
M  V30 19528 C 1829.12 -4.54022 -0.520883 0
M  V30 19529 C 1830.11 -5.19468 0.21192 0
M  V30 19530 C 1827.8 -5.00257 -0.452595 0
M  V30 19531 C 1829.79 -6.29483 1.00148 0
M  V30 19532 C 1827.48 -6.1015 0.340652 0
M  V30 19533 C 1828.48 -6.74624 1.06638 0
M  V30 19534 O 1828.17 -7.82404 1.84659 0
M  V30 19535 H 1827.9 -0.652007 -0.178503 0
M  V30 19536 H 1830.45 -2.05103 0.110397 0
M  V30 19537 H 1828.68 -3.19979 -2.17142 0
M  V30 19538 H 1830.37 -3.55777 -1.95392 0
M  V30 19539 H 1831.14 -4.84707 0.168615 0
M  V30 19540 H 1827.02 -4.49866 -1.00706 0
M  V30 19541 H 1830.56 -6.79739 1.56844 0
M  V30 19542 H 1826.46 -6.44347 0.385605 0
M  V30 19543 H 1827.22 -7.99168 1.76842 0
M  V30 19544 N 1829.89 0.224867 -1.55988 0
M  V30 19545 C 1830.82 1.30204 -1.88626 0
M  V30 19546 C 1831.83 1.4321 -0.774248 0
M  V30 19547 O 1833.02 1.44167 -1.05253 0
M  V30 19548 C 1830.12 2.67806 -2.07685 0
M  V30 19549 C 1829.29 2.76789 -3.38684 0
M  V30 19550 C 1828.35 3.95383 -3.47216 0
M  V30 19551 O 1827.38 3.83876 -4.20271 0
M  V30 19552 N 1828.58 5.09541 -2.78116 0
M  V30 19553 H 1831.35 1.02533 -2.81615 0
M  V30 19554 H 1828.91 0.414916 -1.56493 0
M  V30 19555 H 1830.9 3.45518 -2.10712 0
M  V30 19556 H 1829.47 2.88091 -1.21336 0
M  V30 19557 H 1828.69 1.8558 -3.47784 0
M  V30 19558 H 1829.98 2.79758 -4.24986 0
M  V30 19559 H 1829.38 5.21785 -2.18535 0
M  V30 19560 H 1827.93 5.85307 -2.86808 0
M  V30 19561 N 1831.37 1.49742 0.491438 0
M  V30 19562 C 1832.61 1.59711 1.24494 0
M  V30 19563 C 1832.94 0.288122 1.92354 0
M  V30 19564 O 1832.2 -0.724652 1.81789 0
M  V30 19565 C 1832.49 2.71245 2.32725 0
M  V30 19566 C 1832.16 4.12423 1.82258 0
M  V30 19567 C 1830.82 4.50841 1.68214 0
M  V30 19568 C 1833.17 5.00741 1.44595 0
M  V30 19569 C 1830.5 5.75339 1.149 0
M  V30 19570 C 1832.85 6.25767 0.927292 0
M  V30 19571 C 1831.52 6.63005 0.773323 0
M  V30 19572 H 1830.79 0.584422 0.455556 0
M  V30 19573 H 1833.44 1.83607 0.544137 0
M  V30 19574 H 1831.74 2.41357 3.08632 0
M  V30 19575 H 1833.44 2.76165 2.90747 0
M  V30 19576 H 1830.03 3.82104 1.94151 0
M  V30 19577 H 1834.21 4.71709 1.54288 0
M  V30 19578 H 1829.47 6.02883 1.01699 0
M  V30 19579 H 1833.64 6.93574 0.626707 0
M  V30 19580 H 1831.27 7.59356 0.358031 0
M  V30 19581 N 1832.84 -0.743177 1.38977 0
M  V30 19582 C 1833.75 -1.88767 1.39299 0
M  V30 19583 C 1834.77 -1.71587 0.288782 0
M  V30 19584 O 1835.95 -1.94331 0.52892 0
M  V30 19585 C 1833.01 -3.24263 1.22697 0
M  V30 19586 C 1832.07 -3.53895 2.43017 0
M  V30 19587 C 1831.31 -4.82925 2.27198 0
M  V30 19588 O 1831.53 -5.56056 1.27114 0
M  V30 19589 O 1830.46 -5.12271 3.16009 0
M  V30 19590 H 1834.29 -1.9145 2.35755 0
M  V30 19591 H 1831.87 -0.889881 1.20006 0
M  V30 19592 H 1833.76 -4.05251 1.1554 0
M  V30 19593 H 1832.43 -3.22368 0.293317 0
M  V30 19594 H 1831.34 -2.73026 2.5575 0
M  V30 19595 H 1832.67 -3.6056 3.35048 0
M  V30 19596 N 1834.32 -1.24018 -0.972487 0
M  V30 19597 C 1835.29 -1.02941 -2.04782 0
M  V30 19598 C 1836.29 0.0115861 -1.60796 0
M  V30 19599 O 1837.48 -0.228922 -1.72689 0
M  V30 19600 C 1834.61 -0.559246 -3.36282 0
M  V30 19601 H 1835.8 -1.98379 -2.24913 0
M  V30 19602 H 1833.35 -1.06173 -1.14704 0
M  V30 19603 H 1834.09 0.398545 -3.21842 0
M  V30 19604 H 1833.87 -1.31054 -3.6955 0
M  V30 19605 H 1835.36 -0.432669 -4.15353 0
M  V30 19606 N 1835.8 1.17245 -1.05316 0
M  V30 19607 C 1836.76 2.19508 -0.659467 0
M  V30 19608 C 1837.76 1.58169 0.289697 0
M  V30 19609 O 1838.95 1.74045 0.0734019 0
M  V30 19610 C 1836.09 3.40886 0.0311886 0
M  V30 19611 H 1837.28 2.55852 -1.5646 0
M  V30 19612 H 1834.83 1.31348 -0.847193 0
M  V30 19613 H 1835.57 3.10088 0.949535 0
M  V30 19614 H 1835.35 3.86655 -0.651191 0
M  V30 19615 H 1836.84 4.16573 0.292702 0
M  V30 19616 N 1837.28 0.834353 1.33702 0
M  V30 19617 C 1838.52 0.437738 1.98634 0
M  V30 19618 C 1838.88 -0.991 1.64915 0
M  V30 19619 O 1838.17 -1.68264 0.916399 0
M  V30 19620 C 1838.37 0.590236 3.52493 0
M  V30 19621 C 1838.2 2.03225 4.01161 0
M  V30 19622 C 1836.97 2.66654 4.29213 0
M  V30 19623 C 1839.16 3.00042 4.17707 0
M  V30 19624 N 1837.15 4.01977 4.63991 0
M  V30 19625 C 1838.52 4.203 4.55793 0
M  V30 19626 C 1840.57 2.96507 3.99985 0
M  V30 19627 C 1839.27 5.37494 4.7801 0
M  V30 19628 C 1841.3 4.12927 4.23374 0
M  V30 19629 C 1840.66 5.31939 4.61758 0
M  V30 19630 H 1836.76 0.208514 0.753688 0
M  V30 19631 H 1839.35 1.08147 1.61902 0
M  V30 19632 H 1837.52 -0.0236639 3.88393 0
M  V30 19633 H 1839.25 0.165506 4.04361 0
M  V30 19634 H 1836 2.17819 4.20538 0
M  V30 19635 H 1836.43 4.71724 4.85598 0
M  V30 19636 H 1841.07 2.05629 3.69428 0
M  V30 19637 H 1838.79 6.28921 5.07429 0
M  V30 19638 H 1842.37 4.11604 4.11185 0
M  V30 19639 H 1841.25 6.20525 4.79497 0
M  V30 19640 N 1838.76 -1.46125 0.590367 0
M  V30 19641 C 1840.03 -1.95597 0.0116648 0
M  V30 19642 C 1840.41 -1.53298 -1.45131 0
M  V30 19643 O 1839.76 -0.787298 -2.14508 0
M  V30 19644 C 1839.97 -3.48473 0.191727 0
M  V30 19645 C 1841.32 -4.24552 0.0635332 0
M  V30 19646 O 1842.34 -3.55995 0.120955 0
M  V30 19647 O 1841.2 -5.4646 -0.0657772 0
M  V30 19648 H 1838.3 -0.825748 -0.0454921 0
M  V30 19649 H 1840.84 -1.56372 0.659223 0
M  V30 19650 H 1839.61 -3.72172 1.20846 0
M  V30 19651 H 1839.24 -3.94545 -0.491905 0
M  V30 19652 N 1840.23 -0.328564 -1.54137 0
M  V30 19653 C 1841.46 0.277044 -2.05541 0
M  V30 19654 C 1841.88 1.44613 -1.20285 0
M  V30 19655 O 1841.24 1.80043 -0.213107 0
M  V30 19656 C 1841.29 0.684495 -3.54044 0
M  V30 19657 O 1840.39 1.78629 -3.71706 0
M  V30 19658 H 1839.74 0.049078 -0.662184 0
M  V30 19659 H 1842.27 -0.478426 -1.98928 0
M  V30 19660 H 1842.28 0.965784 -3.96405 0
M  V30 19661 H 1840.95 -0.170554 -4.1555 0
M  V30 19662 H 1839.53 1.50343 -3.4125 0
M  V30 19663 N 1841.71 1.57497 -0.0568439 0
M  V30 19664 C 1842.94 1.97645 0.628589 0
M  V30 19665 C 1843.36 0.934424 1.63249 0
M  V30 19666 O 1842.72 -0.101706 1.81015 0
M  V30 19667 C 1842.77 3.36855 1.2869 0
M  V30 19668 O 1841.87 3.35182 2.40264 0
M  V30 19669 H 1841.21 0.643698 0.16294 0
M  V30 19670 H 1843.74 2.04206 -0.126927 0
M  V30 19671 H 1843.75 3.73708 1.63726 0
M  V30 19672 H 1842.43 4.12231 0.551203 0
M  V30 19673 H 1841.01 3.10081 2.07133 0
M  V30 19674 N 1843.19 -0.216591 1.56105 0
M  V30 19675 C 1844.12 -1.29579 1.87842 0
M  V30 19676 C 1845.1 -1.44974 0.73629 0
M  V30 19677 O 1846.29 -1.60708 0.985151 0
M  V30 19678 C 1843.41 -2.66544 2.08979 0
M  V30 19679 C 1842.46 -2.68136 3.3167 0
M  V30 19680 S 1843.29 -2.21708 4.87448 0
M  V30 19681 C 1844.45 -3.60539 5.11627 0
M  V30 19682 H 1844.68 -1.02465 2.79085 0
M  V30 19683 H 1842.21 -0.419071 1.48604 0
M  V30 19684 H 1844.17 -3.45394 2.2184 0
M  V30 19685 H 1842.83 -2.90879 1.18524 0
M  V30 19686 H 1842.03 -3.68796 3.4352 0
M  V30 19687 H 1841.63 -1.97352 3.17692 0
M  V30 19688 H 1843.92 -4.56263 5.0083 0
M  V30 19689 H 1844.86 -3.53601 6.13491 0
M  V30 19690 H 1845.27 -3.54456 4.39342 0
M  V30 19691 N 1844.67 -1.5 -0.48349 0
M  V30 19692 C 1845.62 -1.64347 -1.58032 0
M  V30 19693 C 1846.6 -0.498472 -1.52984 0
M  V30 19694 O 1847.79 -0.752287 -1.60217 0
M  V30 19695 C 1844.92 -1.72952 -2.96551 0
M  V30 19696 C 1844.01 -2.93088 -3.06529 0
M  V30 19697 N 1844.4 -4.16937 -2.86352 0
M  V30 19698 C 1842.7 -2.91389 -3.37652 0
M  V30 19699 C 1843.4 -4.97786 -3.00972 0
M  V30 19700 N 1842.38 -4.31494 -3.30626 0
M  V30 19701 H 1846.18 -2.57807 -1.41112 0
M  V30 19702 H 1843.69 -1.47014 -0.689978 0
M  V30 19703 H 1845.69 -1.81332 -3.75399 0
M  V30 19704 H 1844.35 -0.80642 -3.14527 0
M  V30 19705 H 1845.36 -4.46635 -2.62178 0
M  V30 19706 H 1842.04 -2.08528 -3.61694 0
M  V30 19707 H 1843.43 -6.06229 -2.89716 0
M  V30 19708 N 1846.15 0.735796 -1.39369 0
M  V30 19709 C 1847.09 1.87116 -1.38168 0
M  V30 19710 C 1848.09 1.67315 -0.264936 0
M  V30 19711 O 1849.29 1.74666 -0.434928 0
M  V30 19712 H 1845.67 0.615926 -0.431438 0
M  V30 19713 H 1847.64 1.85245 -2.33938 0
M  V30 19714 C 1846.39 3.2479 -1.24125 0
M  V30 19715 H 1845.71 3.40621 -2.09325 0
M  V30 19716 H 1847.15 4.04426 -1.27341 0
M  V30 19717 C 1845.61 3.36862 0.050393 0
M  V30 19718 O 1846.14 3.88511 1.02088 0
M  V30 19719 N 1844.35 2.90379 0.113184 0
M  V30 19720 H 1843.89 2.48537 -0.677267 0
M  V30 19721 H 1843.85 2.98837 0.976928 0
M  V30 19722 N 1847.63 1.24532 0.965897 0
M  V30 19723 C 1848.85 1.11412 1.74934 0
M  V30 19724 C 1849.28 -0.329168 1.85197 0
M  V30 19725 O 1848.63 -1.23833 1.3242 0
M  V30 19726 C 1848.68 1.76068 3.14694 0
M  V30 19727 O 1847.79 1.03267 3.99261 0
M  V30 19728 H 1847.13 0.389633 0.537663 0
M  V30 19729 H 1849.66 1.64875 1.2115 0
M  V30 19730 H 1849.67 1.81897 3.65209 0
M  V30 19731 H 1848.34 2.8108 3.0654 0
M  V30 19732 H 1846.92 1.05236 3.57743 0
M  V30 19733 N 1849.1 -1.16685 1.05936 0
M  V30 19734 C 1850.03 -2.23129 0.688153 0
M  V30 19735 C 1851.01 -1.67108 -0.31765 0
M  V30 19736 O 1852.2 -1.93233 -0.193578 0
M  V30 19737 C 1849.33 -3.47229 0.069991 0
M  V30 19738 C 1848.28 -4.16121 1.00137 0
M  V30 19739 C 1847.61 -5.34131 0.246699 0
M  V30 19740 C 1848.91 -4.67508 2.32882 0
M  V30 19741 H 1850.6 -2.54436 1.57806 0
M  V30 19742 H 1848.15 -1.22298 0.76021 0
M  V30 19743 H 1850.1 -4.20918 -0.201545 0
M  V30 19744 H 1848.83 -3.15212 -0.854909 0
M  V30 19745 H 1847.49 -3.44355 1.25759 0
M  V30 19746 H 1847.13 -4.98366 -0.681204 0
M  V30 19747 H 1846.83 -5.81163 0.867373 0
M  V30 19748 H 1848.36 -6.10598 -0.0173762 0
M  V30 19749 H 1849.77 -5.32795 2.11666 0
M  V30 19750 H 1848.17 -5.25147 2.90414 0
M  V30 19751 H 1849.24 -3.83912 2.96209 0
M  V30 19752 N 1850.58 -0.841432 -1.33258 0
M  V30 19753 C 1851.51 -0.291603 -2.31672 0
M  V30 19754 C 1852.49 0.602066 -1.59089 0
M  V30 19755 O 1853.68 0.525081 -1.86967 0
M  V30 19756 C 1850.81 0.532008 -3.43201 0
M  V30 19757 C 1849.76 -0.26609 -4.27172 0
M  V30 19758 C 1849.09 0.681432 -5.3034 0
M  V30 19759 C 1850.39 -1.48457 -5.00757 0
M  V30 19760 H 1852.08 -1.1139 -2.77908 0
M  V30 19761 H 1849.63 -0.53708 -1.33609 0
M  V30 19762 H 1851.58 0.926977 -4.11078 0
M  V30 19763 H 1850.3 1.38754 -2.9566 0
M  V30 19764 H 1848.96 -0.64265 -3.60923 0
M  V30 19765 H 1848.61 1.53344 -4.79056 0
M  V30 19766 H 1848.31 0.151522 -5.87405 0
M  V30 19767 H 1849.84 1.07386 -6.01083 0
M  V30 19768 H 1851.25 -1.16262 -5.61388 0
M  V30 19769 H 1849.65 -1.95145 -5.67484 0
M  V30 19770 H 1850.72 -2.25296 -4.29383 0
M  V30 19771 N 1852.06 1.4581 -0.598108 0
M  V30 19772 C 1852.99 2.33223 0.113747 0
M  V30 19773 C 1853.97 1.46268 0.868312 0
M  V30 19774 O 1855.16 1.75058 0.840737 0
M  V30 19775 C 1852.29 3.28815 1.11795 0
M  V30 19776 C 1851.24 4.25331 0.477223 0
M  V30 19777 C 1850.57 5.10544 1.589 0
M  V30 19778 C 1851.87 5.18894 -0.595518 0
M  V30 19779 H 1853.56 2.92992 -0.616123 0
M  V30 19780 H 1851.11 1.40888 -0.297741 0
M  V30 19781 H 1853.06 3.88832 1.62443 0
M  V30 19782 H 1851.78 2.67185 1.87829 0
M  V30 19783 H 1850.44 3.66599 -0.00831044 0
M  V30 19784 H 1850.09 4.45288 2.33939 0
M  V30 19785 H 1849.79 5.75918 1.16584 0
M  V30 19786 H 1851.31 5.73427 2.09794 0
M  V30 19787 H 1852.73 5.73037 -0.173494 0
M  V30 19788 H 1851.12 5.92694 -0.939873 0
M  V30 19789 H 1852.19 4.61895 -1.47584 0
M  V30 19790 N 1853.54 0.336733 1.53961 0
M  V30 19791 C 1854.49 -0.538599 2.26278 0
M  V30 19792 C 1855.48 -1.10764 1.2817 0
M  V30 19793 O 1856.69 -1.05416 1.45902 0
M  V30 19794 H 1853.06 -0.192363 0.72698 0
M  V30 19795 H 1855.03 0.0934532 2.98254 0
M  V30 19796 C 1853.78 -1.68121 3.04353 0
M  V30 19797 H 1853.1 -1.25261 3.7967 0
M  V30 19798 H 1854.54 -2.26901 3.58179 0
M  V30 19799 C 1853 -2.60663 2.13439 0
M  V30 19800 O 1853.53 -3.62731 1.72596 0
M  V30 19801 N 1851.74 -2.29194 1.78658 0
M  V30 19802 H 1851.29 -1.46233 2.1207 0
M  V30 19803 H 1851.24 -2.91371 1.18111 0
M  V30 19804 N 1855.02 -1.57465 0.0651956 0
M  V30 19805 C 1856.43 -1.56917 -0.291414 0
M  V30 19806 C 1856.63 -1.07405 -1.70489 0
M  V30 19807 O 1855.69 -0.736958 -2.41506 0
M  V30 19808 C 1857 -3.00509 -0.107088 0
M  V30 19809 C 1858.55 -3.12498 -0.177127 0
M  V30 19810 C 1859.02 -4.57995 -0.0211616 0
M  V30 19811 N 1860.51 -4.63136 -0.0769824 0
M  V30 19812 C 1861.25 -5.73397 0.0193783 0
M  V30 19813 N 1860.75 -6.92594 0.168885 0
M  V30 19814 N 1862.54 -5.62088 -0.0372133 0
M  V30 19815 H 1854.69 -1.87966 0.989061 0
M  V30 19816 H 1856.95 -0.866234 0.385154 0
M  V30 19817 H 1856.66 -3.4082 0.868005 0
M  V30 19818 H 1856.53 -3.67214 -0.86221 0
M  V30 19819 H 1858.92 -2.72078 -1.1427 0
M  V30 19820 H 1859 -2.48445 0.608986 0
M  V30 19821 H 1858.64 -4.99104 0.941151 0
M  V30 19822 H 1858.57 -5.20072 -0.826597 0
M  V30 19823 H 1861.07 -3.77416 -0.191213 0
M  V30 19824 H 1861.38 -7.72443 0.234737 0
M  V30 19825 H 1859.72 -6.947 0.204159 0
M  V30 19826 H 1862.91 -4.67851 -0.152669 0
M  V30 19827 H 1863.09 -6.47987 0.0413392 0
M  V30 19828 N 1856.49 0.20831 -1.56217 0
M  V30 19829 C 1857.74 0.932104 -1.8011 0
M  V30 19830 C 1858.07 1.83453 -0.637061 0
M  V30 19831 O 1857.35 1.91081 0.363066 0
M  V30 19832 C 1857.63 1.7597 -3.14176 0
M  V30 19833 C 1857.48 0.882874 -4.4105 0
M  V30 19834 C 1858.8 2.7349 -3.44806 0
M  V30 19835 H 1855.92 0.337428 -0.655218 0
M  V30 19836 H 1858.56 0.2002 -1.88942 0
M  V30 19837 H 1856.71 2.38369 -3.06778 0
M  V30 19838 H 1858.39 0.274607 -4.60482 0
M  V30 19839 H 1856.63 0.188921 -4.33388 0
M  V30 19840 H 1857.3 1.49662 -5.31324 0
M  V30 19841 H 1859.78 2.21225 -3.52418 0
M  V30 19842 H 1858.65 3.28489 -4.39757 0
M  V30 19843 H 1858.91 3.51887 -2.67635 0
M  V30 19844 N 1857.97 1.50255 0.475528 0
M  V30 19845 C 1859.2 1.64771 1.25132 0
M  V30 19846 C 1859.61 0.329253 1.85907 0
M  V30 19847 O 1858.97 -0.688289 1.69023 0
M  V30 19848 C 1859.02 2.73556 2.36325 0
M  V30 19849 O 1858.74 4.0029 1.78043 0
M  V30 19850 C 1860.24 2.99006 3.27277 0
M  V30 19851 H 1857.46 0.553987 0.378602 0
M  V30 19852 H 1860.01 1.9645 0.56811 0
M  V30 19853 H 1858.16 2.44584 3.00429 0
M  V30 19854 H 1858.58 4.60416 2.51232 0
M  V30 19855 H 1860.05 3.78797 4.01518 0
M  V30 19856 H 1860.53 2.09904 3.85794 0
M  V30 19857 H 1861.13 3.29493 2.68914 0
M  V30 19858 N 1859.45 -0.728395 1.39758 0
M  V30 19859 C 1860.86 -1.30697 1.33323 0
M  V30 19860 C 1861.21 -1.962 0.000676614 0
M  V30 19861 O 1860.34 -1.96731 -0.90143 0
M  V30 19862 C 1860.93 -2.37656 2.41464 0
M  V30 19863 C 1859.49 -2.91171 2.3853 0
M  V30 19864 C 1858.64 -1.64812 2.23007 0
M  V30 19865 H 1861.59 -0.525429 1.4975 0
M  V30 19866 H 1861.61 -3.18202 2.08633 0
M  V30 19867 H 1861.12 -1.89953 3.38437 0
M  V30 19868 H 1859.22 -3.43137 1.45216 0
M  V30 19869 H 1859.34 -3.43836 3.33637 0
M  V30 19870 H 1857.7 -1.89397 1.70296 0
M  V30 19871 H 1858.48 -1.19151 3.21959 0
M  V30 19872 N 1860.93 -1.25042 -0.959279 0
M  V30 19873 C 1862.16 -1.12079 -1.73557 0
M  V30 19874 C 1862.57 0.328665 -1.86323 0
M  V30 19875 O 1861.91 1.23812 -1.35706 0
M  V30 19876 C 1861.97 -1.69634 -3.16961 0
M  V30 19877 C 1861.63 -3.18593 -3.27639 0
M  V30 19878 C 1862.63 -4.15641 -3.12312 0
M  V30 19879 C 1860.32 -3.58715 -3.51609 0
M  V30 19880 C 1862.31 -5.50791 -3.20793 0
M  V30 19881 C 1860 -4.94003 -3.59728 0
M  V30 19882 C 1861 -5.89851 -3.44333 0
M  V30 19883 O 1860.68 -7.22678 -3.52124 0
M  V30 19884 H 1860.42 -0.3919 -0.550809 0
M  V30 19885 H 1862.97 -1.658 -1.21242 0
M  V30 19886 H 1861.2 -1.10356 -3.70619 0
M  V30 19887 H 1862.89 -1.51838 -3.76431 0
M  V30 19888 H 1863.65 -3.85985 -2.93668 0
M  V30 19889 H 1859.53 -2.8461 -3.62654 0
M  V30 19890 H 1863.08 -6.25582 -3.08695 0
M  V30 19891 H 1858.97 -5.23327 -3.77887 0
M  V30 19892 H 1859.74 -7.30712 -3.68785 0
M  V30 19893 N 1862.41 1.16121 -1.06553 0
M  V30 19894 C 1863.82 1.38705 -0.789497 0
M  V30 19895 C 1864.02 1.92046 0.609975 0
M  V30 19896 O 1863.08 2.12096 1.37009 0
M  V30 19897 C 1864.39 2.36541 -1.85658 0
M  V30 19898 C 1865.94 2.5022 -1.88039 0
M  V30 19899 C 1866.41 3.51341 -2.93809 0
M  V30 19900 N 1867.91 3.5887 -2.92859 0
M  V30 19901 C 1868.64 4.3691 -3.71346 0
M  V30 19902 N 1868.14 5.1835 -4.59657 0
M  V30 19903 N 1869.93 4.31918 -3.59726 0
M  V30 19904 H 1862.08 0.798355 -1.96825 0
M  V30 19905 H 1864.34 0.41349 -0.853071 0
M  V30 19906 H 1864.05 2.04447 -2.86172 0
M  V30 19907 H 1863.92 3.36221 -1.70983 0
M  V30 19908 H 1866.31 2.81617 -0.881822 0
M  V30 19909 H 1866.39 1.50567 -2.06793 0
M  V30 19910 H 1866.04 3.20681 -3.93861 0
M  V30 19911 H 1865.97 4.50731 -2.72304 0
M  V30 19912 H 1868.46 3.00735 -2.28838 0
M  V30 19913 H 1868.77 5.75119 -5.16196 0
M  V30 19914 H 1867.11 5.17684 -4.63711 0
M  V30 19915 H 1870.31 3.67355 -2.90117 0
M  V30 19916 H 1870.48 4.92491 -4.21137 0
M  V30 19917 N 1863.88 0.848487 1.3281 0
M  V30 19918 C 1864.79 0.291355 2.32784 0
M  V30 19919 C 1865.81 -0.587621 1.63777 0
M  V30 19920 O 1866.99 -0.489458 1.95362 0
M  V30 19921 C 1864.05 -0.51634 3.42834 0
M  V30 19922 C 1863.11 0.388046 4.27543 0
M  V30 19923 C 1862.35 -0.381197 5.32337 0
M  V30 19924 O 1862.57 -1.61186 5.47152 0
M  V30 19925 O 1861.5 0.2498 6.01381 0
M  V30 19926 H 1865.33 1.11947 2.82315 0
M  V30 19927 H 1862.91 0.611259 1.36323 0
M  V30 19928 H 1864.8 -0.974995 4.09966 0
M  V30 19929 H 1863.47 -1.32136 2.95503 0
M  V30 19930 H 1862.38 0.894745 3.63243 0
M  V30 19931 H 1863.71 1.15808 4.78382 0
M  V30 19932 N 1865.36 -1.4549 0.605832 0
M  V30 19933 C 1866.31 -2.30518 -0.114038 0
M  V30 19934 C 1867.28 -1.42 -0.861703 0
M  V30 19935 O 1868.46 -1.7093 -0.847788 0
M  V30 19936 C 1865.6 -3.26876 -1.10661 0
M  V30 19937 C 1864.72 -4.30497 -0.359999 0
M  V30 19938 C 1863.85 -5.13965 -1.34214 0
M  V30 19939 C 1862.89 -6.09315 -0.58324 0
M  V30 19940 N 1862.03 -6.85569 -1.51457 0
M  V30 19941 H 1866.87 -2.91542 0.617043 0
M  V30 19942 H 1864.41 -1.43664 0.31609 0
M  V30 19943 H 1866.36 -3.81207 -1.69519 0
M  V30 19944 H 1864.99 -2.6761 -1.80512 0
M  V30 19945 H 1864.05 -3.78841 0.344058 0
M  V30 19946 H 1865.36 -4.98259 0.232208 0
M  V30 19947 H 1864.51 -5.72688 -2.00283 0
M  V30 19948 H 1863.25 -4.46218 -1.96828 0
M  V30 19949 H 1862.26 -5.49725 0.0910986 0
M  V30 19950 H 1863.48 -6.79089 0.0378268 0
M  V30 19951 H 1861.43 -6.20512 -2.12839 0
M  V30 19952 H 1861.34 -7.49677 -0.97576 0
M  V30 19953 H 1862.61 -7.48834 -2.1649 0
M  V30 19954 N 1866.84 -0.344893 -1.5378 0
M  V30 19955 C 1868.09 0.252216 -2.00117 0
M  V30 19956 C 1868.4 1.51548 -1.23663 0
M  V30 19957 O 1869.61 2.18991 -1.60484 0
M  V30 19958 C 1868.06 0.499983 -3.5641 0
M  V30 19959 C 1867.67 -0.747455 -4.41721 0
M  V30 19960 C 1869.42 1.05588 -4.11159 0
M  V30 19961 C 1867.32 -0.470414 -5.89526 0
M  V30 19962 H 1866.25 0.0980234 -0.747601 0
M  V30 19963 H 1868.9 -0.460431 -1.7763 0
M  V30 19964 H 1867.29 1.27337 -3.74969 0
M  V30 19965 H 1868.46 -1.52204 -4.34937 0
M  V30 19966 H 1866.78 -1.22508 -3.97971 0
M  V30 19967 H 1869.37 1.27813 -5.19199 0
M  V30 19968 H 1869.72 2.01181 -3.64461 0
M  V30 19969 H 1870.25 0.343167 -3.96317 0
M  V30 19970 H 1866.99 -1.3961 -6.4046 0
M  V30 19971 H 1866.51 0.266065 -5.9921 0
M  V30 19972 H 1868.19 -0.0881607 -6.4694 0
M  V30 19973 N 1868.32 1.57428 -0.0735454 0
M  V30 19974 C 1869.55 1.97596 0.603272 0
M  V30 19975 C 1869.96 0.950716 1.63579 0
M  V30 19976 O 1869.3 -0.0707453 1.83564 0
M  V30 19977 C 1869.36 3.34079 1.32784 0
M  V30 19978 C 1869.03 4.54793 0.448586 0
M  V30 19979 C 1870.02 5.19065 -0.294536 0
M  V30 19980 C 1867.71 5.00914 0.372952 0
M  V30 19981 C 1869.7 6.2781 -1.1015 0
M  V30 19982 C 1867.39 6.09531 -0.437679 0
M  V30 19983 C 1868.39 6.72842 -1.17357 0
M  V30 19984 O 1868.07 7.79367 -1.97083 0
M  V30 19985 H 1867.81 0.654764 0.168108 0
M  V30 19986 H 1870.36 2.04902 -0.143013 0
M  V30 19987 H 1868.59 3.23393 2.12023 0
M  V30 19988 H 1870.28 3.5884 1.89707 0
M  V30 19989 H 1871.05 4.84377 -0.245706 0
M  V30 19990 H 1866.92 4.51411 0.935363 0
M  V30 19991 H 1870.47 6.77158 -1.67639 0
M  V30 19992 H 1866.37 6.43652 -0.488066 0
M  V30 19993 H 1867.13 7.96253 -1.89533 0
M  V30 19994 N 1869.8 -0.200022 1.56326 0
M  V30 19995 C 1870.73 -1.27579 1.89206 0
M  V30 19996 C 1871.71 -1.44185 0.751625 0
M  V30 19997 O 1872.89 -1.59654 1.00214 0
M  V30 19998 C 1870.02 -2.64312 2.11794 0
M  V30 19999 C 1869.06 -2.64603 3.34496 0
M  V30 20000 S 1869.9 -2.16526 4.89772 0
M  V30 20001 C 1871.05 -3.55092 5.15422 0
M  V30 20002 H 1871.29 -0.99499 2.80156 0
M  V30 20003 H 1868.82 -0.403286 1.4904 0
M  V30 20004 H 1870.78 -3.43022 2.25491 0
M  V30 20005 H 1869.44 -2.89606 1.21603 0
M  V30 20006 H 1868.63 -3.65131 3.47412 0
M  V30 20007 H 1868.23 -1.93972 3.19767 0
M  V30 20008 H 1870.53 -4.50925 5.05641 0
M  V30 20009 H 1871.47 -3.47075 6.17207 0
M  V30 20010 H 1871.88 -3.49777 4.43076 0
M  V30 20011 N 1871.27 -1.50505 -0.467553 0
M  V30 20012 C 1872.5 -1.65433 -1.24256 0
M  V30 20013 C 1872.92 -0.339107 -1.8573 0
M  V30 20014 O 1872.27 0.679316 -1.69386 0
M  V30 20015 C 1872.33 -2.74805 -2.34871 0
M  V30 20016 O 1872.05 -4.01229 -1.75917 0
M  V30 20017 C 1873.55 -3.00738 -3.25687 0
M  V30 20018 H 1870.77 -0.555987 -0.375659 0
M  V30 20019 H 1873.31 -1.96749 -0.557684 0
M  V30 20020 H 1871.47 -2.46174 -2.99128 0
M  V30 20021 H 1871.88 -4.61742 -2.48787 0
M  V30 20022 H 1873.35 -3.80921 -3.99504 0
M  V30 20023 H 1873.83 -2.11947 -3.84675 0
M  V30 20024 H 1874.44 -3.30914 -2.67163 0
M  V30 20025 N 1872.75 0.720973 -1.40142 0
M  V30 20026 C 1873.68 1.84799 -1.42729 0
M  V30 20027 C 1874.66 1.67629 -0.288866 0
M  V30 20028 O 1875.85 1.8774 -0.496713 0
M  V30 20029 C 1872.98 3.22699 -1.28385 0
M  V30 20030 C 1871.93 3.54532 -2.39773 0
M  V30 20031 C 1871.26 4.91518 -2.10509 0
M  V30 20032 C 1872.56 3.56077 -3.82108 0
M  V30 20033 H 1874.25 1.82892 -2.37046 0
M  V30 20034 H 1871.8 0.8785 -1.14098 0
M  V30 20035 H 1873.75 4.0123 -1.28812 0
M  V30 20036 H 1872.48 3.25169 -0.305408 0
M  V30 20037 H 1871.13 2.78338 -2.38586 0
M  V30 20038 H 1870.78 4.90584 -1.11069 0
M  V30 20039 H 1870.48 5.13783 -2.85132 0
M  V30 20040 H 1872.01 5.72389 -2.1261 0
M  V30 20041 H 1873.42 4.24657 -3.85148 0
M  V30 20042 H 1871.82 3.89866 -4.56207 0
M  V30 20043 H 1872.89 2.55576 -4.12079 0
M  V30 20044 N 1874.23 1.25549 0.952634 0
M  V30 20045 C 1875.46 1.13262 1.73743 0
M  V30 20046 C 1875.88 -0.309507 1.85536 0
M  V30 20047 O 1875.24 -1.22422 1.33726 0
M  V30 20048 C 1875.29 1.79395 3.12809 0
M  V30 20049 O 1874.39 1.07496 3.98144 0
M  V30 20050 H 1873.73 0.395314 0.5335 0
M  V30 20051 H 1876.26 1.66151 1.19394 0
M  V30 20052 H 1876.27 1.85761 3.63259 0
M  V30 20053 H 1874.95 2.84316 3.03542 0
M  V30 20054 H 1873.52 1.09025 3.56606 0
M  V30 20055 N 1875.71 -1.15554 1.07168 0
M  V30 20056 C 1876.67 -2.18431 0.694305 0
M  V30 20057 C 1877.67 -1.5861 -0.264497 0
M  V30 20058 O 1878.86 -1.7414 -0.0457035 0
M  V30 20059 C 1875.99 -3.40892 0.0230473 0
M  V30 20060 H 1877.19 -2.53331 1.60511 0
M  V30 20061 H 1874.74 -1.29984 0.867982 0
M  V30 20062 H 1875.47 -3.11559 -0.900083 0
M  V30 20063 H 1875.26 -3.8557 0.712622 0
M  V30 20064 H 1876.75 -4.16986 -0.226392 0
M  V30 20065 N 1877.19 -0.855519 -1.32358 0
M  V30 20066 C 1878.42 -0.472645 -2.01121 0
M  V30 20067 C 1878.83 0.935468 -1.64456 0
M  V30 20068 O 1878.17 1.62204 -0.862292 0
M  V30 20069 C 1878.23 -0.533025 -3.55527 0
M  V30 20070 C 1877.89 -1.90018 -4.15622 0
M  V30 20071 C 1878.89 -2.86576 -4.33786 0
M  V30 20072 C 1876.58 -2.19756 -4.51677 0
M  V30 20073 C 1878.57 -4.11023 -4.87175 0
M  V30 20074 C 1876.26 -3.44456 -5.0477 0
M  V30 20075 C 1877.26 -4.39905 -5.22468 0
M  V30 20076 O 1876.94 -5.62397 -5.74426 0
M  V30 20077 H 1876.68 -0.184097 -0.650449 0
M  V30 20078 H 1879.23 -1.15437 -1.69892 0
M  V30 20079 H 1877.46 0.205561 -3.86153 0
M  V30 20080 H 1879.15 -0.165631 -4.05562 0
M  V30 20081 H 1879.91 -2.64905 -4.06264 0
M  V30 20082 H 1875.79 -1.46247 -4.37187 0
M  V30 20083 H 1879.34 -4.85532 -5.00903 0
M  V30 20084 H 1875.23 -3.65976 -5.31725 0
M  V30 20085 H 1876 -5.64367 -5.92817 0
M  V30 20086 N 1878.67 1.45167 -0.61354 0
M  V30 20087 C 1879.91 2.01407 -0.10861 0
M  V30 20088 C 1880.23 1.48701 1.27072 0
M  V30 20089 O 1881.43 1.96956 1.8687 0
M  V30 20090 C 1879.89 3.59614 -0.143466 0
M  V30 20091 C 1879.5 4.21317 -1.52302 0
M  V30 20092 C 1881.24 4.23396 0.305912 0
M  V30 20093 C 1879.15 5.71694 -1.51393 0
M  V30 20094 H 1878.08 0.7531 -0.0368359 0
M  V30 20095 H 1880.73 1.66575 -0.769748 0
M  V30 20096 H 1879.11 3.91664 0.584438 0
M  V30 20097 H 1880.29 4.00832 -2.2731 0
M  V30 20098 H 1878.6 3.69753 -1.91499 0
M  V30 20099 H 1881.2 5.33668 0.331977 0
M  V30 20100 H 1881.54 3.9449 1.32978 0
M  V30 20101 H 1882.07 3.96086 -0.36892 0
M  V30 20102 H 1878.81 6.05308 -2.5156 0
M  V30 20103 H 1878.33 5.94353 -0.80652 0
M  V30 20104 H 1880.01 6.35003 -1.24017 0
M  V30 20105 N 1880.14 0.353044 1.53595 0
M  V30 20106 C 1881.05 -0.507548 2.29044 0
M  V30 20107 C 1882.07 -1.10364 1.34521 0
M  V30 20108 O 1883.25 -1.11728 1.67567 0
M  V30 20109 C 1880.31 -1.63799 3.05566 0
M  V30 20110 C 1879.37 -1.07071 4.15733 0
M  V30 20111 C 1878.6 -2.14728 4.88597 0
M  V30 20112 O 1878.83 -3.35619 4.61211 0
M  V30 20113 O 1877.76 -1.78489 5.74826 0
M  V30 20114 H 1881.59 0.10606 3.03515 0
M  V30 20115 H 1879.17 0.117799 1.48935 0
M  V30 20116 H 1881.05 -2.2955 3.5339 0
M  V30 20117 H 1879.73 -2.23723 2.33944 0
M  V30 20118 H 1878.64 -0.37746 3.72191 0
M  V30 20119 H 1879.97 -0.516205 4.89486 0
M  V30 20120 N 1881.62 -1.57387 0.0818932 0
M  V30 20121 C 1882.55 -2.0892 -0.91802 0
M  V30 20122 C 1883.53 -0.996648 -1.28474 0
M  V30 20123 O 1884.72 -1.27073 -1.39229 0
M  V30 20124 C 1881.84 -2.55525 -2.22317 0
M  V30 20125 C 1880.89 -3.76312 -2.00727 0
M  V30 20126 S 1881.72 -5.20529 -1.25736 0
M  V30 20127 C 1882.88 -5.70473 -2.57509 0
M  V30 20128 H 1883.11 -2.93407 -0.479563 0
M  V30 20129 H 1880.64 -1.53842 -0.131103 0
M  V30 20130 H 1882.6 -2.83035 -2.97324 0
M  V30 20131 H 1881.26 -1.71288 -2.63285 0
M  V30 20132 H 1880.46 -4.06945 -2.97342 0
M  V30 20133 H 1880.06 -3.49227 -1.33853 0
M  V30 20134 H 1882.35 -5.77934 -3.53551 0
M  V30 20135 H 1883.29 -6.69198 -2.31473 0
M  V30 20136 H 1883.7 -4.98339 -2.65177 0
M  V30 20137 N 1883.1 0.191729 -1.56429 0
M  V30 20138 C 1884.01 1.25798 -1.9802 0
M  V30 20139 C 1885.03 1.49612 -0.888379 0
M  V30 20140 O 1886.2 1.62161 -1.1944 0
M  V30 20141 C 1883.27 2.58158 -2.3142 0
M  V30 20142 C 1882.33 2.42386 -3.54327 0
M  V30 20143 C 1881.56 3.68434 -3.86124 0
M  V30 20144 O 1881.78 4.72747 -3.19165 0
M  V30 20145 O 1880.72 3.63762 -4.79542 0
M  V30 20146 H 1884.54 0.935013 -2.88948 0
M  V30 20147 H 1882.13 0.396996 -1.44029 0
M  V30 20148 H 1884.01 3.36274 -2.53964 0
M  V30 20149 H 1882.69 2.90075 -1.43659 0
M  V30 20150 H 1881.59 1.62369 -3.37027 0
M  V30 20151 H 1882.93 2.154 -4.42565 0
M  V30 20152 N 1884.58 1.50751 0.459565 0
M  V30 20153 C 1885.53 1.70997 1.57679 0
M  V30 20154 C 1886.52 0.575925 1.59309 0
M  V30 20155 O 1887.73 0.756735 1.6332 0
M  V30 20156 H 1884.1 0.539921 0.52344 0
M  V30 20157 H 1886.07 2.64693 1.37769 0
M  V30 20158 C 1884.82 1.83187 2.9553 0
M  V30 20159 H 1884.14 2.69844 2.94998 0
M  V30 20160 H 1885.58 2.01374 3.73128 0
M  V30 20161 C 1884.04 0.586222 3.31761 0
M  V30 20162 O 1884.57 -0.269358 4.00796 0
M  V30 20163 N 1882.78 0.436839 2.87298 0
M  V30 20164 H 1882.33 1.13413 2.31291 0
M  V30 20165 H 1882.28 -0.395424 3.11903 0
M  V30 20166 N 1886.06 -0.713531 1.40522 0
M  V30 20167 C 1887.3 -1.48585 1.40363 0
M  V30 20168 C 1887.66 -1.91999 0.00566667 0
M  V30 20169 O 1888.86 -2.68527 -0.12105 0
M  V30 20170 C 1887.13 -2.67762 2.36724 0
M  V30 20171 S 1888.69 -3.57142 2.54941 0
M  V30 20172 H 1885.51 -0.507978 0.497473 0
M  V30 20173 H 1888.11 -0.834206 1.76809 0
M  V30 20174 H 1886.81 -2.34042 3.37124 0
M  V30 20175 H 1886.35 -3.37836 2.01569 0
M  V30 20176 H 1888.36 -4.6227 1.80336 0
M  V30 20177 N 1887.53 -1.26053 -0.945962 0
M  V30 20178 C 1888.76 -1.14079 -1.72608 0
M  V30 20179 C 1889.18 0.304506 -1.86328 0
M  V30 20180 O 1888.53 1.20885 -1.36723 0
M  V30 20181 C 1888.58 -1.79938 -3.13535 0
M  V30 20182 O 1888.31 -3.18819 -3.00476 0
M  V30 20183 C 1889.81 -1.73856 -4.07785 0
M  V30 20184 H 1887.03 -0.397486 -0.540598 0
M  V30 20185 H 1889.57 -1.66582 -1.1862 0
M  V30 20186 H 1887.73 -1.31385 -3.6444 0
M  V30 20187 H 1888.14 -3.51337 -3.89439 0
M  V30 20188 H 1889.61 -2.24584 -5.04248 0
M  V30 20189 H 1890.09 -0.704095 -4.33519 0
M  V30 20190 H 1890.7 -2.21939 -3.62799 0
M  V30 20191 N 1889.01 1.14984 -1.07779 0
M  V30 20192 C 1889.94 2.19494 -0.659934 0
M  V30 20193 C 1890.96 1.60201 0.289756 0
M  V30 20194 O 1892.15 1.78328 0.0784004 0
M  V30 20195 C 1889.25 3.38862 0.0506161 0
M  V30 20196 C 1888.42 4.27693 -0.916355 0
M  V30 20197 C 1887.48 5.25642 -0.242303 0
M  V30 20198 O 1886.5 5.62282 -0.884715 0
M  V30 20199 N 1887.71 5.7164 1.01033 0
M  V30 20200 H 1890.47 2.5596 -1.55899 0
M  V30 20201 H 1888.03 1.30143 -0.963043 0
M  V30 20202 H 1890.02 4.01444 0.512331 0
M  V30 20203 H 1888.59 3.00775 0.851671 0
M  V30 20204 H 1887.81 3.62145 -1.55708 0
M  V30 20205 H 1889.1 4.83913 -1.57182 0
M  V30 20206 H 1888.5 5.43991 1.55212 0
M  V30 20207 H 1887.06 6.36241 1.41565 0
M  V30 20208 N 1890.49 0.862526 1.31902 0
M  V30 20209 C 1891.9 0.523345 1.79215 0
M  V30 20210 C 1892.25 -0.95931 1.71148 0
M  V30 20211 O 1891.38 -1.74868 1.27476 0
M  V30 20212 C 1891.97 0.943195 3.25406 0
M  V30 20213 C 1890.53 0.655789 3.70643 0
M  V30 20214 C 1889.68 1.13861 2.52846 0
M  V30 20215 H 1892.63 1.04897 1.19089 0
M  V30 20216 H 1892.65 0.262794 3.79591 0
M  V30 20217 H 1892.16 2.02233 3.31245 0
M  V30 20218 H 1890.26 -0.412291 3.70312 0
M  V30 20219 H 1890.38 1.2276 4.63106 0
M  V30 20220 H 1888.74 0.558615 2.48499 0
M  V30 20221 H 1889.52 2.22501 2.61434 0
M  V30 20222 N 1891.97 -1.4484 0.62123 0
M  V30 20223 C 1892.93 -2.29061 -0.0797989 0
M  V30 20224 C 1893.93 -1.40508 -0.781932 0
M  V30 20225 O 1895.12 -1.62485 -0.628023 0
M  V30 20226 C 1892.25 -3.21857 -1.12342 0
M  V30 20227 H 1893.45 -2.92528 0.66084 0
M  V30 20228 H 1891 -1.51588 0.3809 0
M  V30 20229 H 1891.73 -2.63218 -1.89437 0
M  V30 20230 H 1891.52 -3.87103 -0.624003 0
M  V30 20231 H 1893.01 -3.8515 -1.61398 0
M  V30 20232 N 1893.45 -0.361184 -1.53405 0
M  V30 20233 C 1894.69 0.230222 -2.01489 0
M  V30 20234 C 1895.03 1.48779 -1.24814 0
M  V30 20235 O 1894.3 1.91494 -0.340612 0
M  V30 20236 C 1894.58 0.526613 -3.56229 0
M  V30 20237 C 1894.44 -0.744277 -4.436 0
M  V30 20238 C 1895.76 1.32901 -4.19554 0
M  V30 20239 H 1892.87 0.0822009 -0.732402 0
M  V30 20240 H 1895.52 -0.485208 -1.837 0
M  V30 20241 H 1893.67 1.13609 -3.71517 0
M  V30 20242 H 1895.34 -1.38188 -4.40116 0
M  V30 20243 H 1893.58 -1.36555 -4.11747 0
M  V30 20244 H 1894.25 -0.491913 -5.49804 0
M  V30 20245 H 1896.73 0.813474 -4.08071 0
M  V30 20246 H 1895.6 1.50513 -5.27861 0
M  V30 20247 H 1895.87 2.33625 -3.75329 0
M  V30 20248 N 1894.92 1.57341 -0.0902386 0
M  V30 20249 C 1896.17 1.94464 0.575461 0
M  V30 20250 C 1896.5 0.971819 1.68135 0
M  V30 20251 O 1895.78 0.00405665 1.945 0
M  V30 20252 C 1896.06 3.41739 1.13518 0
M  V30 20253 C 1895.91 4.49787 0.0346821 0
M  V30 20254 C 1897.23 3.90222 2.03506 0
M  V30 20255 H 1894.35 0.707123 0.207716 0
M  V30 20256 H 1896.99 1.89325 -0.15996 0
M  V30 20257 H 1895.14 3.46249 1.76192 0
M  V30 20258 H 1896.82 4.5739 -0.599326 0
M  V30 20259 H 1895.06 4.29166 -0.632342 0
M  V30 20260 H 1895.73 5.50021 0.467044 0
M  V30 20261 H 1898.21 3.87834 1.50744 0
M  V30 20262 H 1897.08 4.93846 2.39598 0
M  V30 20263 H 1897.34 3.29232 2.95057 0
M  V30 20264 N 1896.4 -0.183431 1.56529 0
M  V30 20265 C 1897.63 -0.917888 1.85425 0
M  V30 20266 C 1898.05 -1.76353 0.674171 0
M  V30 20267 O 1897.4 -1.78975 -0.35695 0
M  V30 20268 C 1897.45 -1.80454 3.13239 0
M  V30 20269 O 1897.17 -0.993028 4.26697 0
M  V30 20270 C 1898.68 -2.64969 3.55396 0
M  V30 20271 H 1895.9 -0.267254 0.61548 0
M  V30 20272 H 1898.44 -0.187171 2.03642 0
M  V30 20273 H 1896.59 -2.48874 2.96884 0
M  V30 20274 H 1897.01 -1.59831 4.99554 0
M  V30 20275 H 1898.48 -3.22819 4.47763 0
M  V30 20276 H 1898.96 -3.3925 2.78937 0
M  V30 20277 H 1899.57 -2.01902 3.74321 0
M  V30 20278 N 1897.88 -1.50992 -0.451564 0
M  V30 20279 C 1898.83 -1.71277 -1.54703 0
M  V30 20280 C 1899.8 -0.554233 -1.56581 0
M  V30 20281 O 1900.98 -0.787053 -1.73811 0
M  V30 20282 C 1898.12 -1.83078 -2.92535 0
M  V30 20283 C 1897.24 -3.10559 -3.00295 0
M  V30 20284 C 1896.37 -3.13039 -4.29162 0
M  V30 20285 C 1895.41 -4.34893 -4.30737 0
M  V30 20286 N 1894.55 -4.35002 -5.51106 0
M  V30 20287 H 1899.39 -2.64791 -1.3671 0
M  V30 20288 H 1896.92 -1.31243 -0.664356 0
M  V30 20289 H 1898.88 -1.87901 -3.7249 0
M  V30 20290 H 1897.51 -0.929851 -3.09117 0
M  V30 20291 H 1896.56 -3.15113 -2.13091 0
M  V30 20292 H 1897.88 -4.00503 -2.9732 0
M  V30 20293 H 1897.03 -3.167 -5.17481 0
M  V30 20294 H 1895.77 -2.20959 -4.34774 0
M  V30 20295 H 1894.77 -4.31423 -3.40814 0
M  V30 20296 H 1896 -5.28221 -4.26801 0
M  V30 20297 H 1893.94 -3.45785 -5.57466 0
M  V30 20298 H 1893.86 -5.18738 -5.49952 0
M  V30 20299 H 1895.13 -4.42836 -6.41496 0
M  V30 20300 N 1899.36 0.706069 -1.40899 0
M  V30 20301 C 1900.64 1.45984 -1.30185 0
M  V30 20302 C 1901.02 2.10965 0.0754423 0
M  V30 20303 O 1900.36 2.00883 1.08896 0
M  V30 20304 C 1900.57 2.48782 -2.44762 0
M  V30 20305 C 1901.92 3.14339 -2.85441 0
M  V30 20306 O 1902.95 2.59104 -2.44425 0
M  V30 20307 O 1901.8 4.14354 -3.56333 0
M  V30 20308 H 1898.9 0.649628 -0.511774 0
M  V30 20309 H 1901.44 0.737436 -1.5284 0
M  V30 20310 H 1900.22 1.99346 -3.36715 0
M  V30 20311 H 1899.84 3.28545 -2.23929 0
M  V30 20312 N 1900.84 1.26553 0.939264 0
M  V30 20313 C 1902.08 1.1221 1.68568 0
M  V30 20314 C 1902.41 -0.334213 1.91607 0
M  V30 20315 O 1901.67 -1.26177 1.49593 0
M  V30 20316 C 1901.97 1.83848 3.06488 0
M  V30 20317 C 1901.63 3.33739 3.03198 0
M  V30 20318 C 1900.29 3.74626 3.02008 0
M  V30 20319 C 1902.65 4.29432 2.9536 0
M  V30 20320 C 1899.97 5.0959 2.90748 0
M  V30 20321 C 1902.33 5.64439 2.85641 0
M  V30 20322 C 1900.99 6.04635 2.82795 0
M  V30 20323 H 1900.26 0.410606 0.616833 0
M  V30 20324 H 1902.91 1.57019 1.09623 0
M  V30 20325 H 1901.21 1.31514 3.69068 0
M  V30 20326 H 1902.91 1.70189 3.63093 0
M  V30 20327 H 1899.5 3.01216 3.04905 0
M  V30 20328 H 1903.68 3.98824 2.95386 0
M  V30 20329 H 1898.94 5.39894 2.86923 0
M  V30 20330 H 1903.11 6.3827 2.7854 0
M  V30 20331 H 1900.74 7.09171 2.73826 0
M  V30 20332 N 1902.31 -1.14411 1.08387 0
M  V30 20333 C 1903.55 -1.87102 0.822937 0
M  V30 20334 C 1903.92 -1.81032 -0.63963 0
M  V30 20335 O 1905.12 -2.48857 -1.01606 0
M  V30 20336 C 1903.39 -3.31723 1.33021 0
M  V30 20337 S 1904.95 -4.22029 1.20154 0
M  V30 20338 H 1901.77 -0.645571 0.297924 0
M  V30 20339 H 1904.37 -1.37967 1.38511 0
M  V30 20340 H 1903.07 -3.33689 2.38913 0
M  V30 20341 H 1902.6 -3.85916 0.763695 0
M  V30 20342 H 1904.62 -4.95986 0.1457 0
M  V30 20343 N 1903.79 -0.869509 -1.31443 0
M  V30 20344 C 1904.73 -0.269612 -2.26602 0
M  V30 20345 C 1905.7 0.600966 -1.51087 0
M  V30 20346 O 1906.89 0.554491 -1.8016 0
M  V30 20347 C 1904.01 0.618287 -3.33009 0
M  V30 20348 C 1903.06 -0.180883 -4.26116 0
M  V30 20349 S 1903.89 -1.55908 -5.12302 0
M  V30 20350 C 1905.05 -0.677295 -6.22225 0
M  V30 20351 H 1905.28 -1.07626 -2.77135 0
M  V30 20352 H 1902.82 -0.668003 -1.39202 0
M  V30 20353 H 1904.77 1.12488 -3.94787 0
M  V30 20354 H 1903.43 1.39888 -2.8123 0
M  V30 20355 H 1902.63 0.496021 -5.01553 0
M  V30 20356 H 1902.23 -0.619555 -3.68833 0
M  V30 20357 H 1904.52 0.1123 -6.77407 0
M  V30 20358 H 1905.46 -1.40278 -6.94066 0
M  V30 20359 H 1905.87 -0.245049 -5.63968 0
M  V30 20360 N 1905.27 1.44508 -0.628902 0
M  V30 20361 C 1906.52 2.02365 -0.132699 0
M  V30 20362 C 1906.85 1.4934 1.24142 0
M  V30 20363 O 1906.12 0.676567 1.82354 0
M  V30 20364 C 1906.41 3.5991 -0.11694 0
M  V30 20365 C 1906.26 4.23223 -1.52324 0
M  V30 20366 C 1907.58 4.36527 0.559696 0
M  V30 20367 H 1904.7 0.735323 -0.049695 0
M  V30 20368 H 1907.34 1.72106 -0.80495 0
M  V30 20369 H 1905.49 3.8582 0.455515 0
M  V30 20370 H 1907.16 4.08427 -2.14441 0
M  V30 20371 H 1905.41 3.80803 -2.07777 0
M  V30 20372 H 1906.08 5.32225 -1.46427 0
M  V30 20373 H 1908.55 4.16036 0.0728971 0
M  V30 20374 H 1907.43 5.46238 0.539902 0
M  V30 20375 H 1907.69 4.10968 1.62965 0
M  V30 20376 N 1906.75 0.369315 1.53212 0
M  V30 20377 C 1908 -0.219209 2.0131 0
M  V30 20378 C 1908.32 -1.48469 1.25647 0
M  V30 20379 O 1907.58 -1.92734 0.339443 0
M  V30 20380 C 1907.88 -0.553392 3.5309 0
M  V30 20381 C 1907.54 0.618198 4.46642 0
M  V30 20382 C 1906.21 0.939656 4.71936 0
M  V30 20383 C 1908.56 1.40294 5.01963 0
M  V30 20384 C 1905.89 2.04776 5.49803 0
M  V30 20385 C 1908.24 2.50149 5.81041 0
M  V30 20386 C 1906.9 2.82826 6.0462 0
M  V30 20387 H 1906.17 -0.0802141 0.736646 0
M  V30 20388 H 1908.82 0.502547 1.84788 0
M  V30 20389 H 1907.12 -1.35621 3.67579 0
M  V30 20390 H 1908.82 -1.02106 3.87783 0
M  V30 20391 H 1905.41 0.35762 4.27105 0
M  V30 20392 H 1909.6 1.16784 4.82364 0
M  V30 20393 H 1904.85 2.30487 5.66291 0
M  V30 20394 H 1909.03 3.1137 6.22914 0
M  V30 20395 H 1906.65 3.68812 6.64742 0
M  V30 20396 N 1908.23 -1.57291 0.0985816 0
M  V30 20397 C 1909.46 -1.98531 -0.57176 0
M  V30 20398 C 1909.87 -0.976619 -1.62046 0
M  V30 20399 O 1909.21 0.041533 -1.83653 0
M  V30 20400 C 1909.27 -3.36149 -1.27452 0
M  V30 20401 C 1908.93 -4.55449 -0.376176 0
M  V30 20402 C 1909.93 -5.18531 0.377078 0
M  V30 20403 C 1907.62 -5.01443 -0.293213 0
M  V30 20404 C 1909.61 -6.25978 1.20124 0
M  V30 20405 C 1907.3 -6.08757 0.534594 0
M  V30 20406 C 1908.3 -6.7089 1.28047 0
M  V30 20407 O 1907.98 -7.76133 2.09457 0
M  V30 20408 H 1907.72 -0.657356 -0.15767 0
M  V30 20409 H 1910.27 -2.04648 0.175593 0
M  V30 20410 H 1908.5 -3.26725 -2.06852 0
M  V30 20411 H 1910.19 -3.61813 -1.83974 0
M  V30 20412 H 1910.95 -4.83925 0.322736 0
M  V30 20413 H 1906.83 -4.52842 -0.863429 0
M  V30 20414 H 1910.38 -6.74405 1.7839 0
M  V30 20415 H 1906.27 -6.42794 0.590404 0
M  V30 20416 H 1907.04 -7.93137 2.02177 0
M  V30 20417 N 1909.71 0.175127 -1.56624 0
M  V30 20418 C 1910.93 0.912099 -1.86267 0
M  V30 20419 C 1911.36 1.75204 -0.684485 0
M  V30 20420 O 1910.71 1.77557 0.366501 0
M  V30 20421 C 1910.76 1.76776 -3.14297 0
M  V30 20422 O 1909.87 2.86894 -2.96253 0
M  V30 20423 H 1909.21 0.255728 -0.61278 0
M  V30 20424 H 1911.74 0.174416 -2.03855 0
M  V30 20425 H 1911.75 2.16845 -3.45604 0
M  V30 20426 H 1910.42 1.15077 -3.99663 0
M  V30 20427 H 1909 2.50435 -2.76291 0
M  V30 20428 N 1911.18 1.5123 0.44355 0
M  V30 20429 C 1912.6 1.39267 0.779541 0
M  V30 20430 C 1912.8 0.470162 1.95938 0
M  V30 20431 O 1911.86 -0.0769965 2.52383 0
M  V30 20432 C 1913.17 2.8118 1.06574 0
M  V30 20433 C 1914.72 2.90288 1.17055 0
M  V30 20434 C 1915.19 4.33095 1.48973 0
M  V30 20435 N 1916.68 4.36173 1.55909 0
M  V30 20436 C 1917.42 5.43694 1.82165 0
M  V30 20437 N 1916.91 6.61386 2.06255 0
M  V30 20438 N 1918.71 5.31167 1.83896 0
M  V30 20439 H 1910.86 2.09764 -0.333579 0
M  V30 20440 H 1913.12 0.944017 -0.0868148 0
M  V30 20441 H 1912.83 3.5065 0.271575 0
M  V30 20442 H 1912.7 3.20125 1.99498 0
M  V30 20443 H 1915.09 2.2102 1.95535 0
M  V30 20444 H 1915.17 2.54848 0.220468 0
M  V30 20445 H 1914.81 5.0291 0.710222 0
M  V30 20446 H 1914.74 4.66043 2.45177 0
M  V30 20447 H 1917.23 3.5132 1.39221 0
M  V30 20448 H 1917.55 7.39125 2.25641 0
M  V30 20449 H 1915.89 6.64512 2.0359 0
M  V30 20450 H 1919.08 4.38209 1.64591 0
M  V30 20451 H 1919.26 6.15044 2.0402 0
M  V30 20452 N 1912.66 -0.698586 1.41271 0
M  V30 20453 C 1913.94 -1.45291 1.30957 0
M  V30 20454 C 1914.32 -2.11002 -0.0642533 0
M  V30 20455 O 1913.67 -2.01458 -1.07829 0
M  V30 20456 C 1913.88 -2.4748 2.46078 0
M  V30 20457 C 1915.22 -3.1282 2.87104 0
M  V30 20458 O 1916.25 -2.57804 2.45796 0
M  V30 20459 O 1915.11 -4.12458 3.58525 0
M  V30 20460 H 1912.2 -0.646905 0.515212 0
M  V30 20461 H 1914.75 -0.72932 1.53229 0
M  V30 20462 H 1913.52 -1.97558 3.37767 0
M  V30 20463 H 1913.14 -3.27353 2.25668 0
M  V30 20464 N 1914.14 -1.27049 -0.93254 0
M  V30 20465 C 1915.1 -1.09404 -2.01404 0
M  V30 20466 C 1916.1 -0.0395757 -1.60751 0
M  V30 20467 O 1917.29 -0.283746 -1.71874 0
M  V30 20468 C 1914.42 -0.665948 -3.34332 0
M  V30 20469 H 1915.62 -2.05434 -2.18488 0
M  V30 20470 H 1913.17 -1.09768 -1.11268 0
M  V30 20471 H 1913.91 0.295952 -3.22947 0
M  V30 20472 H 1913.69 -1.42745 -3.65194 0
M  V30 20473 H 1915.18 -0.564591 -4.13766 0
M  V30 20474 N 1915.62 1.13835 -1.08993 0
M  V30 20475 C 1916.56 2.19107 -0.725298 0
M  V30 20476 C 1917.53 1.63524 0.291368 0
M  V30 20477 O 1918.72 1.90005 0.174014 0
M  V30 20478 C 1915.86 3.44786 -0.147212 0
M  V30 20479 C 1914.97 4.14492 -1.21738 0
M  V30 20480 C 1914.11 5.27772 -0.602519 0
M  V30 20481 C 1913.15 5.89321 -1.65431 0
M  V30 20482 N 1912.28 6.9404 -1.0608 0
M  V30 20483 H 1917.12 2.49646 -1.6273 0
M  V30 20484 H 1914.66 1.22585 -0.813108 0
M  V30 20485 H 1916.62 4.16692 0.205719 0
M  V30 20486 H 1915.25 3.14712 0.718077 0
M  V30 20487 H 1914.3 3.40914 -1.68766 0
M  V30 20488 H 1915.61 4.56325 -2.01417 0
M  V30 20489 H 1914.77 6.06376 -0.198177 0
M  V30 20490 H 1913.51 4.87177 0.225868 0
M  V30 20491 H 1912.51 5.09415 -2.06824 0
M  V30 20492 H 1913.74 6.3199 -2.48528 0
M  V30 20493 H 1911.68 6.5551 -0.253616 0
M  V30 20494 H 1911.6 7.34391 -1.79461 0
M  V30 20495 H 1912.87 7.76506 -0.682517 0
M  V30 20496 N 1917.1 0.876467 1.3098 0
M  V30 20497 C 1918.03 0.352925 2.30817 0
M  V30 20498 C 1919.01 -0.559675 1.60629 0
M  V30 20499 O 1920.19 -0.475326 1.88293 0
M  V30 20500 C 1917.32 -0.440827 3.44491 0
M  V30 20501 C 1916.28 0.379253 4.26316 0
M  V30 20502 C 1915.6 -0.540582 5.3196 0
M  V30 20503 C 1916.9 1.61682 4.96645 0
M  V30 20504 H 1918.6 1.18719 2.74857 0
M  V30 20505 H 1916.14 0.572316 1.32138 0
M  V30 20506 H 1918.09 -0.817661 4.13391 0
M  V30 20507 H 1916.82 -1.30866 2.99235 0
M  V30 20508 H 1915.48 0.738117 3.59092 0
M  V30 20509 H 1915.13 -1.40588 4.82953 0
M  V30 20510 H 1914.83 0.00427133 5.876 0
M  V30 20511 H 1916.35 -0.914118 6.03719 0
M  V30 20512 H 1917.76 1.31105 5.58108 0
M  V30 20513 H 1916.16 2.10123 5.62111 0
M  V30 20514 H 1917.23 2.36602 4.23258 0
M  V30 20515 N 1918.57 -1.44173 0.636557 0
M  V30 20516 C 1919.98 -1.8534 0.224954 0
M  V30 20517 C 1920.34 -1.53271 -1.22485 0
M  V30 20518 O 1919.46 -0.973441 -1.93269 0
M  V30 20519 C 1920.06 -3.36413 0.401492 0
M  V30 20520 C 1918.61 -3.76374 0.0443511 0
M  V30 20521 C 1917.76 -2.67995 0.712303 0
M  V30 20522 H 1920.71 -1.34562 0.841356 0
M  V30 20523 H 1920.73 -3.78812 -0.357965 0
M  V30 20524 H 1920.25 -3.59722 1.45677 0
M  V30 20525 H 1918.35 -3.58679 -1.00897 0
M  V30 20526 H 1918.46 -4.76904 0.458196 0
M  V30 20527 H 1916.82 -2.54275 0.147092 0
M  V30 20528 H 1917.61 -2.94136 1.77028 0
M  V30 20529 N 1920.05 -0.377435 -1.53014 0
M  V30 20530 C 1921.01 0.451217 -2.24715 0
M  V30 20531 C 1922.01 1.00001 -1.25923 0
M  V30 20532 O 1923.2 0.883884 -1.5011 0
M  V30 20533 C 1920.34 1.63185 -2.99305 0
M  V30 20534 H 1921.53 -0.176358 -2.99381 0
M  V30 20535 H 1919.08 -0.12933 -1.55764 0
M  V30 20536 H 1919.82 2.29718 -2.2891 0
M  V30 20537 H 1919.6 1.24517 -3.71804 0
M  V30 20538 H 1921.09 2.2188 -3.53778 0
M  V30 20539 N 1921.53 1.57237 -0.106922 0
M  V30 20540 C 1922.76 1.99545 0.565392 0
M  V30 20541 C 1923.18 0.985887 1.60193 0
M  V30 20542 O 1922.54 -0.0440657 1.81246 0
M  V30 20543 C 1922.59 3.40779 1.17908 0
M  V30 20544 O 1921.69 3.42656 2.29479 0
M  V30 20545 H 1921.03 0.648556 0.142379 0
M  V30 20546 H 1923.56 2.03699 -0.191829 0
M  V30 20547 H 1923.57 3.78728 1.51754 0
M  V30 20548 H 1922.25 4.13776 0.419776 0
M  V30 20549 H 1920.82 3.16514 1.97164 0
M  V30 20550 N 1923.01 -0.166818 1.56715 0
M  V30 20551 C 1924.42 -0.518754 1.50934 0
M  V30 20552 C 1924.62 -1.84416 0.811964 0
M  V30 20553 O 1923.68 -2.49712 0.374207 0
M  V30 20554 C 1924.99 -0.547356 2.95676 0
M  V30 20555 C 1926.54 -0.634247 3.06507 0
M  V30 20556 C 1927.02 -0.693699 4.52716 0
M  V30 20557 N 1928.51 -0.756466 4.56981 0
M  V30 20558 C 1929.24 -0.823116 5.67461 0
M  V30 20559 N 1928.74 -0.850325 6.87562 0
M  V30 20560 N 1930.53 -0.862482 5.55444 0
M  V30 20561 H 1922.68 0.70222 2.00456 0
M  V30 20562 H 1924.95 0.253731 0.913414 0
M  V30 20563 H 1924.65 0.357945 3.49874 0
M  V30 20564 H 1924.53 -1.39227 3.50565 0
M  V30 20565 H 1926.91 -1.52997 2.52341 0
M  V30 20566 H 1926.99 0.23743 2.54696 0
M  V30 20567 H 1926.64 0.197788 5.07515 0
M  V30 20568 H 1926.57 -1.58158 5.02288 0
M  V30 20569 H 1929.06 -0.74354 3.70513 0
M  V30 20570 H 1929.37 -0.902481 7.67512 0
M  V30 20571 H 1927.72 -0.818528 6.90163 0
M  V30 20572 H 1930.91 -0.838257 4.60533 0
M  V30 20573 H 1931.08 -0.910962 6.41565 0
M  V30 20574 N 1924.49 -1.51463 -0.435524 0
M  V30 20575 C 1925.71 -1.68316 -1.21179 0
M  V30 20576 C 1926.14 -0.380709 -1.84207 0
M  V30 20577 O 1925.49 0.659318 -1.68887 0
M  V30 20578 C 1925.54 -2.80168 -2.27021 0
M  V30 20579 O 1924.65 -2.43897 -3.32548 0
M  V30 20580 H 1923.99 -0.561165 -0.35495 0
M  V30 20581 H 1926.52 -1.98036 -0.514097 0
M  V30 20582 H 1926.53 -3.04305 -2.71776 0
M  V30 20583 H 1925.2 -3.74678 -1.80524 0
M  V30 20584 H 1923.78 -2.30337 -2.93256 0
M  V30 20585 N 1925.96 0.691085 -1.4164 0
M  V30 20586 C 1927.21 1.44682 -1.40535 0
M  V30 20587 C 1927.53 1.9559 -0.0192882 0
M  V30 20588 O 1928.73 2.71259 0.114373 0
M  V30 20589 C 1927.19 2.61645 -2.47123 0
M  V30 20590 C 1926.8 2.17504 -3.91658 0
M  V30 20591 C 1928.54 3.39253 -2.55162 0
M  V30 20592 C 1926.45 3.31453 -4.89789 0
M  V30 20593 H 1925.38 0.543472 -0.522641 0
M  V30 20594 H 1928.03 0.749807 -1.67482 0
M  V30 20595 H 1926.41 3.33636 -2.13314 0
M  V30 20596 H 1927.58 1.52774 -4.34738 0
M  V30 20597 H 1925.9 1.52878 -3.87321 0
M  V30 20598 H 1928.5 4.24088 -3.25659 0
M  V30 20599 H 1928.84 3.84744 -1.58989 0
M  V30 20600 H 1929.37 2.74322 -2.88083 0
M  V30 20601 H 1926.11 2.9097 -5.87381 0
M  V30 20602 H 1925.63 3.95019 -4.51354 0
M  V30 20603 H 1927.31 3.97164 -5.10754 0
M  V30 20604 N 1927.44 1.27542 0.925789 0
M  V30 20605 C 1928.86 1.04988 1.20207 0
M  V30 20606 C 1929.06 -0.215359 2.00346 0
M  V30 20607 O 1928.11 -0.920331 2.3513 0
M  V30 20608 C 1929.43 2.2904 1.94836 0
M  V30 20609 C 1930.98 2.34098 2.07767 0
M  V30 20610 C 1931.45 3.57884 2.85802 0
M  V30 20611 N 1932.94 3.58453 2.93369 0
M  V30 20612 C 1933.68 4.50907 3.54218 0
M  V30 20613 N 1933.17 5.53667 4.16443 0
M  V30 20614 N 1934.97 4.38527 3.5164 0
M  V30 20615 H 1927.12 2.0878 0.390449 0
M  V30 20616 H 1929.38 0.918323 0.235346 0
M  V30 20617 H 1929.09 3.21151 1.4337 0
M  V30 20618 H 1928.96 2.34507 2.95442 0
M  V30 20619 H 1931.35 1.42492 2.58418 0
M  V30 20620 H 1931.43 2.32633 1.06375 0
M  V30 20621 H 1931.07 4.49828 2.35834 0
M  V30 20622 H 1931 3.56601 3.87484 0
M  V30 20623 H 1933.49 2.84138 2.49147 0
M  V30 20624 H 1933.81 6.20377 4.60817 0
M  V30 20625 H 1932.15 5.57507 4.14983 0
M  V30 20626 H 1935.34 3.57455 3.0223 0
M  V30 20627 H 1935.51 5.10769 3.98772 0
M  V30 20628 N 1928.92 -1.13255 1.09595 0
M  V30 20629 C 1929.87 -2.20794 0.731624 0
M  V30 20630 C 1930.86 -1.67263 -0.268256 0
M  V30 20631 O 1932.07 -1.79533 -0.129535 0
M  V30 20632 H 1928.44 -0.719521 0.218618 0
M  V30 20633 H 1930.41 -2.48784 1.6477 0
M  V30 20634 C 1929.16 -3.47283 0.170214 0
M  V30 20635 H 1928.49 -3.88814 0.930805 0
M  V30 20636 H 1929.93 -4.23974 -0.0467499 0
M  V30 20637 C 1928.39 -3.18609 -1.09497 0
M  V30 20638 O 1928.92 -3.37534 -2.17793 0
M  V30 20639 N 1927.12 -2.72477 -1.01017 0
M  V30 20640 H 1926.67 -2.57278 -0.128814 0
M  V30 20641 H 1926.63 -2.53668 -1.85741 0
M  V30 20642 N 1930.4 -0.883401 -1.30514 0
M  V30 20643 C 1931.33 -0.36516 -2.30627 0
M  V30 20644 C 1932.31 0.551149 -1.60923 0
M  V30 20645 O 1933.49 0.465333 -1.88543 0
M  V30 20646 C 1930.62 0.422552 -3.4472 0
M  V30 20647 C 1929.58 -0.401856 -4.26109 0
M  V30 20648 C 1928.9 0.512363 -5.3224 0
M  V30 20649 C 1930.2 -1.64313 -4.95781 0
M  V30 20650 H 1931.9 -1.20175 -2.74223 0
M  V30 20651 H 1929.44 -0.579315 -1.31833 0
M  V30 20652 H 1931.4 0.795726 -4.13819 0
M  V30 20653 H 1930.12 1.29278 -2.99925 0
M  V30 20654 H 1928.78 -0.75715 -3.58696 0
M  V30 20655 H 1928.43 1.38025 -4.83692 0
M  V30 20656 H 1928.13 -0.0354331 -5.87589 0
M  V30 20657 H 1929.65 0.882088 -6.04195 0
M  V30 20658 H 1931.07 -1.34063 -5.57405 0
M  V30 20659 H 1929.46 -2.13101 -5.60989 0
M  V30 20660 H 1930.53 -2.38843 -4.21998 0
M  V30 20661 N 1931.88 1.43833 -0.644194 0
M  V30 20662 C 1933.12 2.01914 -0.153927 0
M  V30 20663 C 1933.45 1.50758 1.22891 0
M  V30 20664 O 1932.71 0.687354 1.83232 0
M  V30 20665 C 1933.01 3.57249 -0.103941 0
M  V30 20666 C 1932.67 4.27713 -1.42731 0
M  V30 20667 C 1931.33 4.46679 -1.78972 0
M  V30 20668 C 1933.69 4.67695 -2.30024 0
M  V30 20669 C 1931.01 5.0289 -3.0219 0
M  V30 20670 C 1933.37 5.2527 -3.52525 0
M  V30 20671 C 1932.03 5.42453 -3.88974 0
M  V30 20672 H 1931.3 0.738856 -0.0563257 0
M  V30 20673 H 1933.95 1.72428 -0.833108 0
M  V30 20674 H 1932.25 3.86224 0.65866 0
M  V30 20675 H 1933.95 3.99935 0.292124 0
M  V30 20676 H 1930.54 4.1329 -1.1353 0
M  V30 20677 H 1934.72 4.52743 -2.03317 0
M  V30 20678 H 1929.98 5.14379 -3.3049 0
M  V30 20679 H 1934.15 5.55198 -4.2039 0
M  V30 20680 H 1931.78 5.85775 -4.84532 0
M  V30 20681 N 1933.35 0.385544 1.52811 0
M  V30 20682 C 1934.6 -0.197454 2.01133 0
M  V30 20683 C 1934.92 -1.47634 1.27394 0
M  V30 20684 O 1934.19 -1.91919 0.392916 0
M  V30 20685 H 1932.77 -0.0759558 0.743128 0
M  V30 20686 H 1935.44 0.51637 1.87935 0
M  V30 20687 H 1934.53 -0.410335 3.09391 0
M  V30 20688 N 1934.83 -1.57178 0.115259 0
M  V30 20689 C 1936.06 -1.99842 -0.554802 0
M  V30 20690 C 1936.48 -0.994368 -1.59668 0
M  V30 20691 O 1935.84 0.0344531 -1.81267 0
M  V30 20692 C 1935.89 -3.41399 -1.16099 0
M  V30 20693 O 1934.99 -3.43868 -2.27659 0
M  V30 20694 H 1934.33 -0.649301 -0.138937 0
M  V30 20695 H 1936.86 -2.03594 0.202629 0
M  V30 20696 H 1936.87 -3.79527 -1.49743 0
M  V30 20697 H 1935.55 -4.13993 -0.397827 0
M  V30 20698 H 1934.13 -3.17555 -1.95482 0
M  V30 20699 N 1936.31 0.158505 -1.56801 0
M  V30 20700 C 1937.56 0.871313 -1.82353 0
M  V30 20701 C 1937.88 1.8222 -0.694324 0
M  V30 20702 O 1937.15 1.93817 0.284899 0
M  V30 20703 H 1935.73 0.324747 -0.672717 0
M  V30 20704 H 1938.39 0.155257 -1.94281 0
M  V30 20705 H 1937.49 1.44051 -2.76868 0
M  V30 20706 N 1937.79 1.51692 0.427485 0
M  V30 20707 C 1939.01 1.68956 1.20285 0
M  V30 20708 C 1939.44 0.390472 1.84003 0
M  V30 20709 O 1938.8 -0.650352 1.69234 0
M  V30 20710 C 1938.85 2.81368 2.25532 0
M  V30 20711 O 1937.95 2.45657 3.3125 0
M  V30 20712 H 1937.29 0.56304 0.351969 0
M  V30 20713 H 1939.82 1.98306 0.503588 0
M  V30 20714 H 1939.83 3.05742 2.70158 0
M  V30 20715 H 1938.51 3.7563 1.78535 0
M  V30 20716 H 1937.08 2.31889 2.9203 0
M  V30 20717 N 1939.27 -0.683564 1.42004 0
M  V30 20718 C 1940.2 -1.8095 1.47578 0
M  V30 20719 C 1941.18 -1.66804 0.333208 0
M  V30 20720 O 1942.36 -1.86357 0.546314 0
M  V30 20721 C 1939.49 -3.19182 1.36895 0
M  V30 20722 C 1938.45 -3.4805 2.49089 0
M  V30 20723 C 1937.77 -4.85764 2.23467 0
M  V30 20724 C 1939.07 -3.4582 3.91415 0
M  V30 20725 H 1940.77 -1.76543 2.41812 0
M  V30 20726 H 1938.31 -0.84794 1.16387 0
M  V30 20727 H 1940.27 -3.97674 1.39404 0
M  V30 20728 H 1938.99 -3.24245 0.391513 0
M  V30 20729 H 1937.65 -2.71915 2.45882 0
M  V30 20730 H 1937.3 -4.87467 1.24037 0
M  V30 20731 H 1937 -5.06043 2.98654 0
M  V30 20732 H 1938.52 -5.66551 2.27711 0
M  V30 20733 H 1939.94 -4.14297 3.96272 0
M  V30 20734 H 1938.33 -3.77633 4.66383 0
M  V30 20735 H 1939.4 -2.4456 4.1871 0
M  V30 20736 N 1940.75 -1.28031 -0.919012 0
M  V30 20737 C 1942.16 -1.05624 -1.19649 0
M  V30 20738 C 1942.36 0.204731 -2.00457 0
M  V30 20739 O 1941.42 0.907849 -2.35615 0
M  V30 20740 C 1942.73 -2.3007 -1.93619 0
M  V30 20741 C 1944.28 -2.35196 -2.06523 0
M  V30 20742 C 1944.75 -3.59395 -2.839 0
M  V30 20743 N 1946.24 -3.60004 -2.91464 0
M  V30 20744 C 1946.98 -4.52779 -3.51822 0
M  V30 20745 N 1946.48 -5.55868 -4.13501 0
M  V30 20746 N 1948.27 -4.40385 -3.4931 0
M  V30 20747 H 1940.42 -2.08985 -0.379372 0
M  V30 20748 H 1942.68 -0.919558 -0.230473 0
M  V30 20749 H 1942.39 -3.21907 -1.41665 0
M  V30 20750 H 1942.26 -2.36071 -2.94195 0
M  V30 20751 H 1944.65 -1.4386 -2.57659 0
M  V30 20752 H 1944.73 -2.33194 -1.0514 0
M  V30 20753 H 1944.37 -4.51072 -2.33445 0
M  V30 20754 H 1944.3 -3.58651 -3.85587 0
M  V30 20755 H 1946.8 -2.85455 -2.47637 0
M  V30 20756 H 1947.11 -6.22812 -4.57521 0
M  V30 20757 H 1945.45 -5.597 -4.12021 0
M  V30 20758 H 1948.64 -3.59053 -3.0033 0
M  V30 20759 H 1948.82 -5.12877 -3.96057 0
M  V30 20760 N 1942.22 1.12672 -1.10194 0
M  V30 20761 C 1943.19 2.16513 -0.751974 0
M  V30 20762 C 1944.19 1.59255 0.222352 0
M  V30 20763 O 1945.38 1.742 -0.000482744 0
M  V30 20764 C 1942.51 3.40711 -0.113421 0
M  V30 20765 H 1943.7 2.48986 -1.67171 0
M  V30 20766 H 1941.25 1.27637 -0.90214 0
M  V30 20767 H 1941.99 3.13836 0.817162 0
M  V30 20768 H 1941.77 3.83545 -0.814599 0
M  V30 20769 H 1943.26 4.1744 0.115756 0
M  V30 20770 N 1943.7 0.89031 1.30043 0
M  V30 20771 C 1944.93 0.525833 2.00623 0
M  V30 20772 C 1945.35 -0.87971 1.66261 0
M  V30 20773 O 1944.71 -1.58394 0.882105 0
M  V30 20774 C 1944.76 0.714046 3.5346 0
M  V30 20775 O 1943.86 -0.237685 4.11714 0
M  V30 20776 H 1943.2 0.20656 0.631054 0
M  V30 20777 H 1945.73 1.19932 1.65763 0
M  V30 20778 H 1945.74 0.615086 4.03337 0
M  V30 20779 H 1944.42 1.73881 3.77807 0
M  V30 20780 H 1942.99 -0.0919722 3.72787 0
M  V30 20781 N 1945.18 -1.43489 0.651812 0
M  V30 20782 C 1946.09 -2.34564 -0.0413115 0
M  V30 20783 C 1947.11 -1.53803 -0.81368 0
M  V30 20784 O 1948.28 -1.86459 -0.761246 0
M  V30 20785 C 1945.35 -3.32063 -0.996745 0
M  V30 20786 C 1944.41 -4.28728 -0.221464 0
M  V30 20787 C 1943.64 -5.2157 -1.13139 0
M  V30 20788 O 1943.86 -5.18804 -2.37062 0
M  V30 20789 O 1942.8 -5.98856 -0.604552 0
M  V30 20790 H 1946.62 -2.95325 0.708295 0
M  V30 20791 H 1944.21 -1.43607 0.411999 0
M  V30 20792 H 1946.09 -3.92022 -1.54586 0
M  V30 20793 H 1944.77 -2.73807 -1.7266 0
M  V30 20794 H 1943.67 -3.72254 0.371205 0
M  V30 20795 H 1945.01 -4.89962 0.468797 0
M  V30 20796 N 1946.66 -0.393643 -1.52605 0
M  V30 20797 C 1947.88 0.189618 -2.06531 0
M  V30 20798 C 1948.31 1.39382 -1.26311 0
M  V30 20799 O 1947.67 1.78977 -0.289278 0
M  V30 20800 C 1947.71 0.533717 -3.56628 0
M  V30 20801 O 1946.82 1.62703 -3.78948 0
M  V30 20802 H 1946.16 0.0209483 -0.663669 0
M  V30 20803 H 1948.69 -0.562368 -1.9672 0
M  V30 20804 H 1948.7 0.796786 -4.00144 0
M  V30 20805 H 1947.37 -0.34665 -4.14453 0
M  V30 20806 H 1945.95 1.35734 -3.47319 0
M  V30 20807 N 1948.14 1.57115 -0.123593 0
M  V30 20808 C 1949.08 2.16817 0.842196 0
M  V30 20809 C 1950.08 1.11865 1.27211 0
M  V30 20810 O 1951.28 1.3016 1.24331 0
M  V30 20811 H 1947.66 0.693949 0.289721 0
M  V30 20812 H 1949.63 2.96741 0.314221 0
M  V30 20813 C 1948.38 2.78577 2.08062 0
M  V30 20814 H 1947.7 3.59037 1.75876 0
M  V30 20815 H 1949.14 3.23884 2.73634 0
M  V30 20816 C 1947.6 1.75892 2.87339 0
M  V30 20817 O 1948.13 1.21508 3.82882 0
M  V30 20818 N 1946.34 1.45728 2.5142 0
M  V30 20819 H 1945.88 1.90143 1.73791 0
M  V30 20820 H 1945.84 0.772654 3.04758 0
M  V30 20821 N 1949.61 -0.150187 1.56883 0
M  V30 20822 C 1951.03 -0.502717 1.51476 0
M  V30 20823 C 1951.23 -1.83545 0.831478 0
M  V30 20824 O 1950.29 -2.49301 0.400671 0
M  V30 20825 C 1951.6 -0.515965 2.9624 0
M  V30 20826 C 1953.15 -0.601702 3.07162 0
M  V30 20827 C 1953.62 -0.645643 4.53426 0
M  V30 20828 N 1955.11 -0.707954 4.57758 0
M  V30 20829 C 1955.85 -0.762883 5.68302 0
M  V30 20830 N 1955.34 -0.777353 6.88425 0
M  V30 20831 N 1957.14 -0.803521 5.56327 0
M  V30 20832 H 1949.29 0.723442 1.997 0
M  V30 20833 H 1951.55 0.263405 0.910671 0
M  V30 20834 H 1951.26 0.395034 3.49474 0
M  V30 20835 H 1951.13 -1.35501 3.52022 0
M  V30 20836 H 1953.52 -1.50312 2.53949 0
M  V30 20837 H 1953.6 0.26443 2.5443 0
M  V30 20838 H 1953.24 0.251606 5.07276 0
M  V30 20839 H 1953.17 -1.52822 5.03937 0
M  V30 20840 H 1955.66 -0.7042 3.71281 0
M  V30 20841 H 1955.98 -0.821026 7.68426 0
M  V30 20842 H 1954.32 -0.745281 6.90992 0
M  V30 20843 H 1957.51 -0.789365 4.61396 0
M  V30 20844 H 1957.69 -0.842864 6.42495 0
M  V30 20845 N 1951.09 -1.51916 -0.419434 0
M  V30 20846 C 1952.34 -1.65714 -1.16905 0
M  V30 20847 C 1952.67 -0.380888 -1.90428 0
M  V30 20848 O 1951.95 0.620297 -1.84344 0
M  V30 20849 C 1952.23 -2.87239 -2.17177 0
M  V30 20850 C 1952.08 -4.24887 -1.47619 0
M  V30 20851 C 1953.4 -3.04281 -3.17964 0
M  V30 20852 H 1950.52 -0.603072 -0.423643 0
M  V30 20853 H 1953.16 -1.84446 -0.456035 0
M  V30 20854 H 1951.31 -2.71398 -2.77984 0
M  V30 20855 H 1952.98 -4.52433 -0.900112 0
M  V30 20856 H 1951.23 -4.26761 -0.778273 0
M  V30 20857 H 1951.9 -5.05945 -2.20733 0
M  V30 20858 H 1954.37 -3.18951 -2.67226 0
M  V30 20859 H 1953.25 -3.90843 -3.85399 0
M  V30 20860 H 1953.51 -2.17138 -3.85102 0
M  V30 20861 N 1952.57 0.676023 -1.42365 0
M  V30 20862 C 1953.8 1.46436 -1.46164 0
M  V30 20863 C 1954.21 1.8866 -0.0726092 0
M  V30 20864 O 1953.57 1.58056 0.912395 0
M  V30 20865 C 1953.62 2.71428 -2.38766 0
M  V30 20866 O 1953.34 2.30976 -3.72266 0
M  V30 20867 C 1954.84 3.65001 -2.51573 0
M  V30 20868 H 1952.06 0.450625 -0.49717 0
M  V30 20869 H 1954.61 0.830748 -1.86866 0
M  V30 20870 H 1952.76 3.30981 -2.01321 0
M  V30 20871 H 1953.18 3.11682 -4.21846 0
M  V30 20872 H 1954.65 4.49432 -3.20492 0
M  V30 20873 H 1955.13 4.10818 -1.55322 0
M  V30 20874 H 1955.73 3.11342 -2.89735 0
M  V30 20875 N 1954.05 1.28517 0.912209 0
M  V30 20876 C 1955.3 1.15532 1.65822 0
M  V30 20877 C 1955.62 -0.296177 1.92738 0
M  V30 20878 O 1954.89 -1.20492 1.54462 0
M  V30 20879 H 1953.47 0.424573 0.614611 0
M  V30 20880 H 1956.13 1.61267 1.09448 0
M  V30 20881 H 1955.23 1.69606 2.61993 0
M  V30 20882 N 1955.53 -1.12086 1.1079 0
M  V30 20883 C 1956.77 -1.83949 0.853848 0
M  V30 20884 C 1957.11 -1.8407 -0.619029 0
M  V30 20885 O 1956.38 -1.28889 -1.45664 0
M  V30 20886 C 1956.66 -3.31452 1.40754 0
M  V30 20887 C 1956.52 -3.39765 2.94754 0
M  V30 20888 C 1957.84 -4.2732 1.05288 0
M  V30 20889 H 1954.95 -0.667872 0.311635 0
M  V30 20890 H 1957.6 -1.31475 1.37166 0
M  V30 20891 H 1955.75 -3.7627 0.967112 0
M  V30 20892 H 1957.42 -3.03555 3.4735 0
M  V30 20893 H 1955.66 -2.80196 3.31168 0
M  V30 20894 H 1956.33 -4.43553 3.2858 0
M  V30 20895 H 1958.81 -3.90647 1.43297 0
M  V30 20896 H 1957.68 -5.28929 1.46716 0
M  V30 20897 H 1957.95 -4.42084 -0.0372227 0
M  V30 20898 N 1957 -0.897194 -1.29569 0
M  V30 20899 C 1958.23 -0.536391 -1.99515 0
M  V30 20900 C 1958.64 0.882674 -1.67348 0
M  V30 20901 O 1957.99 1.59379 -0.913459 0
M  V30 20902 C 1958.05 -0.645863 -3.53651 0
M  V30 20903 C 1957.71 -2.03145 -4.09367 0
M  V30 20904 C 1958.71 -3.00231 -4.24449 0
M  V30 20905 C 1956.39 -2.34015 -4.44457 0
M  V30 20906 C 1958.39 -4.26314 -4.73852 0
M  V30 20907 C 1956.07 -3.60341 -4.93556 0
M  V30 20908 C 1957.07 -4.56304 -5.08208 0
M  V30 20909 O 1956.76 -5.80387 -5.56243 0
M  V30 20910 H 1956.49 -0.204698 -0.644263 0
M  V30 20911 H 1959.05 -1.20784 -1.66134 0
M  V30 20912 H 1957.28 0.0826055 -3.86612 0
M  V30 20913 H 1958.97 -0.294573 -4.0483 0
M  V30 20914 H 1959.73 -2.77696 -3.9763 0
M  V30 20915 H 1955.61 -1.60082 -4.32313 0
M  V30 20916 H 1959.15 -5.01222 -4.85203 0
M  V30 20917 H 1955.05 -3.82707 -5.19813 0
M  V30 20918 H 1955.82 -5.82941 -5.74562 0
M  V30 20919 N 1958.48 1.43142 -0.659413 0
M  V30 20920 C 1959.39 2.34582 0.0288714 0
M  V30 20921 C 1960.41 1.54232 0.805512 0
M  V30 20922 O 1961.58 1.8686 0.751347 0
M  V30 20923 C 1958.65 3.32587 0.97912 0
M  V30 20924 C 1957.71 4.2884 0.198725 0
M  V30 20925 C 1956.94 5.22163 1.10371 0
M  V30 20926 O 1957.17 5.20054 2.34308 0
M  V30 20927 O 1956.1 5.99168 0.572785 0
M  V30 20928 H 1959.93 2.94945 -0.723947 0
M  V30 20929 H 1957.51 1.43386 -0.419609 0
M  V30 20930 H 1959.39 3.92836 1.52505 0
M  V30 20931 H 1958.07 2.74719 1.71206 0
M  V30 20932 H 1956.98 3.72052 -0.390942 0
M  V30 20933 H 1958.31 4.89707 -0.494774 0
M  V30 20934 N 1959.96 0.40173 1.52394 0
M  V30 20935 C 1960.89 -0.41861 2.29717 0
M  V30 20936 C 1961.87 -1.05263 1.33618 0
M  V30 20937 O 1963.06 -1.06304 1.62521 0
M  V30 20938 C 1960.19 -1.5395 3.11314 0
M  V30 20939 C 1959.14 -1.03088 4.154 0
M  V30 20940 C 1958.47 -2.2448 4.85297 0
M  V30 20941 C 1959.77 -0.0900956 5.22222 0
M  V30 20942 H 1961.46 0.226577 2.98541 0
M  V30 20943 H 1959.01 0.110411 1.43576 0
M  V30 20944 H 1960.96 -2.12031 3.64171 0
M  V30 20945 H 1959.68 -2.21246 2.40246 0
M  V30 20946 H 1958.34 -0.472515 3.63542 0
M  V30 20947 H 1957.99 -2.90313 4.10764 0
M  V30 20948 H 1957.69 -1.91103 5.55656 0
M  V30 20949 H 1959.21 -2.83181 5.40963 0
M  V30 20950 H 1960.63 -0.579479 5.70364 0
M  V30 20951 H 1959.03 0.154505 5.99901 0
M  V30 20952 H 1960.1 0.857375 4.7726 0
M  V30 20953 N 1961.44 -1.57047 0.131923 0
M  V30 20954 C 1962.66 -2.00419 -0.533574 0
M  V30 20955 C 1963.09 -1.01125 -1.58605 0
M  V30 20956 O 1962.45 0.0152254 -1.81294 0
M  V30 20957 C 1962.49 -3.42611 -1.12472 0
M  V30 20958 O 1961.6 -3.46263 -2.23999 0
M  V30 20959 H 1960.94 -0.650739 -0.132043 0
M  V30 20960 H 1963.47 -2.03368 0.224211 0
M  V30 20961 H 1963.48 -3.81094 -1.45709 0
M  V30 20962 H 1962.15 -4.14392 -0.353895 0
M  V30 20963 H 1960.73 -3.1961 -1.92103 0
M  V30 20964 N 1962.92 0.141865 -1.5696 0
M  V30 20965 C 1963.85 1.17667 -2.01685 0
M  V30 20966 C 1964.83 1.44509 -0.897282 0
M  V30 20967 O 1966.01 1.55342 -1.16544 0
M  V30 20968 C 1963.14 2.50859 -2.40182 0
M  V30 20969 C 1962.1 2.38527 -3.55371 0
M  V30 20970 C 1961.42 3.76476 -3.79697 0
M  V30 20971 C 1962.72 1.86502 -4.87867 0
M  V30 20972 H 1964.42 0.804761 -2.88382 0
M  V30 20973 H 1961.96 0.385672 -1.38739 0
M  V30 20974 H 1963.92 3.2348 -2.70071 0
M  V30 20975 H 1962.64 2.89895 -1.50428 0
M  V30 20976 H 1961.3 1.68357 -3.25656 0
M  V30 20977 H 1960.95 4.12957 -2.87186 0
M  V30 20978 H 1960.65 3.69085 -4.5722 0
M  V30 20979 H 1962.17 4.50638 -4.12017 0
M  V30 20980 H 1963.58 2.48921 -5.16441 0
M  V30 20981 H 1961.98 1.89989 -5.69231 0
M  V30 20982 H 1963.05 0.821025 -4.77899 0
M  V30 20983 N 1964.39 1.52136 0.411372 0
M  V30 20984 C 1965.63 1.6776 1.16773 0
M  V30 20985 C 1966 0.397829 1.87833 0
M  V30 20986 O 1967.2 0.430144 2.65336 0
M  V30 20987 C 1965.47 2.86438 2.13748 0
M  V30 20988 S 1967.03 3.22532 2.9752 0
M  V30 20989 H 1963.85 0.590767 0.395621 0
M  V30 20990 H 1966.45 1.90123 0.455363 0
M  V30 20991 H 1965.15 3.7783 1.60226 0
M  V30 20992 H 1964.68 2.66342 2.89526 0
M  V30 20993 H 1966.7 2.7098 4.15673 0
M  V30 20994 N 1965.87 -0.668464 1.42721 0
M  V30 20995 C 1966.82 -1.77463 1.43147 0
M  V30 20996 C 1967.81 -1.58042 0.301932 0
M  V30 20997 O 1969 -1.68413 0.544623 0
M  V30 20998 C 1966.13 -3.15963 1.34247 0
M  V30 20999 C 1965.21 -3.40985 2.52171 0
M  V30 21000 N 1965.61 -3.36558 3.77575 0
M  V30 21001 C 1963.9 -3.71646 2.46568 0
M  V30 21002 C 1964.6 -3.61239 4.5594 0
M  V30 21003 N 1963.58 -3.82312 3.86443 0
M  V30 21004 H 1967.38 -1.72442 2.37993 0
M  V30 21005 H 1964.9 -0.86955 1.37159 0
M  V30 21006 H 1966.89 -3.95239 1.32634 0
M  V30 21007 H 1965.55 -3.22176 0.404081 0
M  V30 21008 H 1966.56 -3.16315 4.1008 0
M  V30 21009 H 1963.24 -3.85066 1.6134 0
M  V30 21010 H 1964.63 -3.63724 5.64938 0
M  V30 21011 N 1967.35 -1.28999 -0.905381 0
M  V30 21012 C 1968.6 -1.16813 -1.65779 0
M  V30 21013 C 1968.93 0.280936 -1.92157 0
M  V30 21014 O 1968.21 1.2035 -1.52794 0
M  V30 21015 C 1968.49 -1.97593 -3.01047 0
M  V30 21016 C 1968.34 -3.50608 -2.8177 0
M  V30 21017 C 1969.66 -1.79788 -4.01702 0
M  V30 21018 H 1966.78 -0.425716 -0.60161 0
M  V30 21019 H 1969.42 -1.58409 -1.04913 0
M  V30 21020 H 1967.57 -1.62246 -3.52999 0
M  V30 21021 H 1969.24 -3.95905 -2.36763 0
M  V30 21022 H 1967.49 -3.75818 -2.16663 0
M  V30 21023 H 1968.16 -4.02396 -3.77865 0
M  V30 21024 H 1970.63 -2.10649 -3.5884 0
M  V30 21025 H 1969.51 -2.38667 -4.94297 0
M  V30 21026 H 1969.77 -0.75156 -4.35665 0
M  V30 21027 N 1968.83 1.11497 -1.11383 0
M  V30 21028 C 1969.79 2.15704 -0.774896 0
M  V30 21029 C 1970.79 1.59482 0.205448 0
M  V30 21030 O 1971.98 1.7419 -0.018959 0
M  V30 21031 C 1969.11 3.40572 -0.149551 0
M  V30 21032 H 1970.31 2.47199 -1.69802 0
M  V30 21033 H 1967.86 1.26673 -0.915627 0
M  V30 21034 H 1968.6 3.14685 0.78383 0
M  V30 21035 H 1968.38 3.82659 -0.855233 0
M  V30 21036 H 1969.87 4.17539 0.0714744 0
M  V30 21037 N 1970.31 0.904053 1.29092 0
M  V30 21038 C 1971.58 0.451521 1.90317 0
M  V30 21039 C 1971.96 -1.06911 1.82025 0
M  V30 21040 O 1971.31 -1.9129 1.24982 0
M  V30 21041 C 1971.52 0.970986 3.35221 0
M  V30 21042 C 1972.87 1.01728 4.12234 0
M  V30 21043 O 1973.89 0.918956 3.44142 0
M  V30 21044 O 1972.75 1.16562 5.33925 0
M  V30 21045 H 1969.85 0.141495 0.814806 0
M  V30 21046 H 1972.39 0.994203 1.37527 0
M  V30 21047 H 1971.17 2.01497 3.35432 0
M  V30 21048 H 1970.79 0.408567 3.95495 0
M  V30 21049 N 1971.79 -1.4279 0.666995 0
M  V30 21050 C 1972.75 -2.29199 -0.00688445 0
M  V30 21051 C 1973.75 -1.42924 -0.736835 0
M  V30 21052 O 1974.94 -1.64401 -0.576011 0
M  V30 21053 C 1972.07 -3.25268 -1.02046 0
M  V30 21054 H 1973.26 -2.90278 0.753571 0
M  V30 21055 H 1970.82 -1.50299 0.428933 0
M  V30 21056 H 1971.55 -2.69112 -1.80967 0
M  V30 21057 H 1971.34 -3.88892 -0.500533 0
M  V30 21058 H 1972.83 -3.9009 -1.49063 0
M  V30 21059 N 1973.26 -0.409806 -1.52179 0
M  V30 21060 C 1974.51 0.16543 -2.01422 0
M  V30 21061 C 1974.83 1.45588 -1.29727 0
M  V30 21062 O 1974.1 1.9127 -0.423399 0
M  V30 21063 H 1972.68 0.0641237 -0.744243 0
M  V30 21064 H 1975.34 -0.546204 -1.8709 0
M  V30 21065 H 1974.44 0.361061 -3.10004 0
M  V30 21066 N 1974.74 1.56975 -0.14025 0
M  V30 21067 C 1975.97 2.00699 0.522938 0
M  V30 21068 C 1976.39 1.01964 1.58066 0
M  V30 21069 O 1975.75 -0.0056107 1.81299 0
M  V30 21070 C 1975.8 3.43203 1.10653 0
M  V30 21071 O 1974.9 3.47447 2.22159 0
M  V30 21072 H 1974.24 0.65143 0.12859 0
M  V30 21073 H 1976.77 2.03246 -0.234993 0
M  V30 21074 H 1976.78 3.81862 1.43686 0
M  V30 21075 H 1975.46 4.14573 0.331913 0
M  V30 21076 H 1974.03 3.20625 1.90405 0
M  V30 21077 N 1976.22 -0.133539 1.57033 0
M  V30 21078 C 1977.63 -0.692222 1.73393 0
M  V30 21079 C 1977.98 -1.81019 0.756735 0
M  V30 21080 O 1977.11 -2.16275 -0.0736448 0
M  V30 21081 C 1977.7 -1.26245 3.144 0
M  V30 21082 C 1976.26 -1.76756 3.32316 0
M  V30 21083 C 1975.41 -0.661397 2.69297 0
M  V30 21084 H 1978.36 0.0922563 1.58432 0
M  V30 21085 H 1978.38 -2.13221 3.15146 0
M  V30 21086 H 1977.89 -0.44855 3.85499 0
M  V30 21087 H 1975.99 -2.6067 2.66236 0
M  V30 21088 H 1976.11 -1.88702 4.40373 0
M  V30 21089 H 1974.47 -1.0914 2.30132 0
M  V30 21090 H 1975.25 0.141281 3.43009 0
M  V30 21091 N 1977.7 -1.52352 -0.403298 0
M  V30 21092 C 1978.95 -1.66368 -1.14744 0
M  V30 21093 C 1979.27 -0.398899 -1.90876 0
M  V30 21094 O 1978.54 0.586372 -1.86918 0
M  V30 21095 H 1977.12 -0.613226 -0.426571 0
M  V30 21096 H 1979.78 -1.89416 -0.459075 0
M  V30 21097 H 1978.87 -2.50748 -1.85828 0
M  V30 21098 N 1979.18 0.660885 -1.43074 0
M  V30 21099 C 1980.11 1.78574 -1.4208 0
M  V30 21100 C 1981.09 1.60114 -0.283219 0
M  V30 21101 O 1982.27 1.82401 -0.475618 0
M  V30 21102 C 1979.4 3.1577 -1.22503 0
M  V30 21103 C 1978.44 3.52948 -2.39436 0
M  V30 21104 S 1979.28 3.53793 -4.01983 0
M  V30 21105 C 1980.43 4.93659 -3.84775 0
M  V30 21106 H 1980.67 1.79145 -2.37264 0
M  V30 21107 H 1978.2 0.832831 -1.30013 0
M  V30 21108 H 1980.16 3.94956 -1.11894 0
M  V30 21109 H 1978.82 3.1277 -0.288797 0
M  V30 21110 H 1978.01 4.52707 -2.21523 0
M  V30 21111 H 1977.61 2.81157 -2.46631 0
M  V30 21112 H 1979.9 5.82114 -3.46626 0
M  V30 21113 H 1980.85 5.16623 -4.84259 0
M  V30 21114 H 1981.26 4.66833 -3.17376 0
M  V30 21115 N 1980.65 1.29477 0.898527 0
M  V30 21116 C 1981.59 1.10513 2.00797 0
M  V30 21117 C 1982.6 0.0522996 1.62716 0
M  V30 21118 O 1983.79 0.296941 1.76013 0
M  V30 21119 C 1980.89 0.660433 3.32403 0
M  V30 21120 C 1980.06 1.79205 3.99004 0
M  V30 21121 C 1979.12 1.33816 5.089 0
M  V30 21122 O 1978.15 2.04308 5.31269 0
M  V30 21123 N 1979.35 0.209692 5.80121 0
M  V30 21124 H 1982.11 2.06063 2.17619 0
M  V30 21125 H 1979.67 1.21432 1.07078 0
M  V30 21126 H 1981.67 0.340075 4.03269 0
M  V30 21127 H 1980.24 -0.20264 3.11943 0
M  V30 21128 H 1979.46 2.28123 3.21487 0
M  V30 21129 H 1980.74 2.55075 4.40244 0
M  V30 21130 H 1980.14 -0.377998 5.64436 0
M  V30 21131 H 1978.7 -0.0512922 6.5178 0
M  V30 21132 N 1982.13 -1.10905 1.11972 0
M  V30 21133 C 1983.55 -1.3478 0.854776 0
M  V30 21134 C 1983.75 -1.94737 -0.517653 0
M  V30 21135 O 1982.8 -2.18391 -1.26734 0
M  V30 21136 C 1984.12 -2.27414 1.96732 0
M  V30 21137 C 1985.67 -2.40964 1.99764 0
M  V30 21138 C 1986.14 -3.36923 3.10237 0
M  V30 21139 N 1987.63 -3.44488 3.09648 0
M  V30 21140 C 1988.37 -4.18695 3.91768 0
M  V30 21141 N 1987.86 -4.95829 4.83865 0
M  V30 21142 N 1989.66 -4.14263 3.79924 0
M  V30 21143 H 1981.81 -0.703538 2.0041 0
M  V30 21144 H 1984.07 -0.372318 0.871828 0
M  V30 21145 H 1983.78 -1.90561 2.956 0
M  V30 21146 H 1983.65 -3.27681 1.86829 0
M  V30 21147 H 1986.04 -2.77089 1.01518 0
M  V30 21148 H 1986.12 -1.40529 2.13741 0
M  V30 21149 H 1985.76 -3.01524 4.08712 0
M  V30 21150 H 1985.69 -4.37225 2.93499 0
M  V30 21151 H 1988.18 -2.89475 2.42925 0
M  V30 21152 H 1988.5 -5.49836 5.43047 0
M  V30 21153 H 1986.84 -4.9497 4.87883 0
M  V30 21154 H 1990.03 -3.53095 3.07314 0
M  V30 21155 H 1990.2 -4.71837 4.44155 0
M  V30 21156 N 1983.61 -0.910886 -1.2861 0
M  V30 21157 C 1985.03 -0.608615 -1.4754 0
M  V30 21158 C 1985.23 0.846869 -1.8284 0
M  V30 21159 O 1984.28 1.62618 -1.93162 0
M  V30 21160 C 1985.6 -1.54405 -2.5803 0
M  V30 21161 C 1987.14 -1.55046 -2.719 0
M  V30 21162 C 1987.62 -2.47245 -3.85531 0
M  V30 21163 N 1989.11 -2.45356 -3.9288 0
M  V30 21164 C 1989.84 -3.13394 -4.80179 0
M  V30 21165 N 1989.34 -3.90751 -5.72088 0
M  V30 21166 N 1991.13 -3.02495 -4.73765 0
M  V30 21167 H 1983.28 -1.8521 -1.03977 0
M  V30 21168 H 1985.55 -0.794235 -0.517585 0
M  V30 21169 H 1985.25 -2.5816 -2.38844 0
M  V30 21170 H 1985.13 -1.27299 -3.5507 0
M  V30 21171 H 1987.51 -0.520311 -2.90477 0
M  V30 21172 H 1987.6 -1.86195 -1.754 0
M  V30 21173 H 1987.24 -3.50361 -3.67709 0
M  V30 21174 H 1987.17 -2.134 -4.81423 0
M  V30 21175 H 1989.66 -1.89161 -3.27149 0
M  V30 21176 H 1989.97 -4.39694 -6.35523 0
M  V30 21177 H 1988.32 -3.94857 -5.71938 0
M  V30 21178 H 1991.51 -2.41567 -4.00953 0
M  V30 21179 H 1991.68 -3.55793 -5.41586 0
M  V30 21180 N 1985.09 1.42434 -0.674558 0
M  V30 21181 C 1986.5 1.55847 -0.344087 0
M  V30 21182 C 1986.7 1.65424 1.15053 0
M  V30 21183 O 1985.76 1.62103 1.93594 0
M  V30 21184 C 1987.07 2.80859 -1.07419 0
M  V30 21185 C 1988.62 2.94631 -1.05649 0
M  V30 21186 C 1989.1 4.22503 -1.76791 0
M  V30 21187 N 1990.59 4.29415 -1.73658 0
M  V30 21188 C 1991.32 5.27171 -2.25561 0
M  V30 21189 N 1990.82 6.31082 -2.85845 0
M  V30 21190 N 1992.61 5.18968 -2.15937 0
M  V30 21191 H 1984.76 1.34461 -1.6442 0
M  V30 21192 H 1987.03 0.647231 -0.692673 0
M  V30 21193 H 1986.73 2.79919 -2.12928 0
M  V30 21194 H 1986.61 3.71743 -0.63927 0
M  V30 21195 H 1988.99 2.95098 -0.00973704 0
M  V30 21196 H 1989.07 2.04977 -1.53029 0
M  V30 21197 H 1988.72 4.22796 -2.81435 0
M  V30 21198 H 1988.65 5.11091 -1.26861 0
M  V30 21199 H 1991.14 3.5495 -1.29687 0
M  V30 21200 H 1991.45 7.02029 -3.2307 0
M  V30 21201 H 1989.8 6.31644 -2.89914 0
M  V30 21202 H 1992.99 4.3671 -1.6853 0
M  V30 21203 H 1993.16 5.9499 -2.56693 0
M  V30 21204 N 1986.57 0.417871 1.51959 0
M  V30 21205 C 1987.98 0.0691743 1.5945 0
M  V30 21206 C 1988.18 -1.41946 1.43016 0
M  V30 21207 O 1987.24 -2.18728 1.26152 0
M  V30 21208 C 1988.55 0.571902 2.95211 0
M  V30 21209 C 1990.1 0.530639 3.08469 0
M  V30 21210 C 1990.57 1.01002 4.46724 0
M  V30 21211 N 1992.07 0.967199 4.5299 0
M  V30 21212 C 1992.8 1.30921 5.58254 0
M  V30 21213 N 1992.3 1.72311 6.7103 0
M  V30 21214 N 1994.09 1.22862 5.48508 0
M  V30 21215 H 1986.24 1.38668 1.60888 0
M  V30 21216 H 1988.5 0.570206 0.757344 0
M  V30 21217 H 1988.21 1.6127 3.12546 0
M  V30 21218 H 1988.08 -0.0137455 3.77197 0
M  V30 21219 H 1990.47 -0.50113 2.90814 0
M  V30 21220 H 1990.55 1.15245 2.28369 0
M  V30 21221 H 1990.2 2.04016 4.65124 0
M  V30 21222 H 1990.13 0.364935 5.25334 0
M  V30 21223 H 1992.62 0.663 3.72039 0
M  V30 21224 H 1992.93 1.96696 7.47349 0
M  V30 21225 H 1991.27 1.76222 6.72288 0
M  V30 21226 H 1994.47 0.904063 4.59287 0
M  V30 21227 H 1994.64 1.49846 6.30437 0
M  V30 21228 N 1988.04 -1.56898 0.148573 0
M  V30 21229 C 1989.46 -1.58241 -0.207826 0
M  V30 21230 C 1989.66 -1.16291 -1.64556 0
M  V30 21231 O 1988.72 -0.863939 -2.3726 0
M  V30 21232 C 1990.03 -3.00654 0.0523559 0
M  V30 21233 C 1991.58 -3.12998 -0.0112297 0
M  V30 21234 C 1992.05 -4.57463 0.221641 0
M  V30 21235 N 1993.54 -4.62893 0.168624 0
M  V30 21236 C 1994.28 -5.72488 0.323296 0
M  V30 21237 N 1993.77 -6.90725 0.535776 0
M  V30 21238 N 1995.57 -5.61495 0.26079 0
M  V30 21239 H 1987.72 -1.82459 1.08731 0
M  V30 21240 H 1989.98 -0.8446 0.430529 0
M  V30 21241 H 1989.69 -3.3574 1.04745 0
M  V30 21242 H 1989.56 -3.71268 -0.666346 0
M  V30 21243 H 1991.95 -2.77752 -0.996873 0
M  V30 21244 H 1992.03 -2.44868 0.739826 0
M  V30 21245 H 1991.67 -4.93413 1.20439 0
M  V30 21246 H 1991.6 -5.23722 -0.549756 0
M  V30 21247 H 1994.09 -3.77899 0.00911581 0
M  V30 21248 H 1994.41 -7.70113 0.643862 0
M  V30 21249 H 1992.75 -6.92641 0.572117 0
M  V30 21250 H 1995.94 -4.68002 0.095543 0
M  V30 21251 H 1996.12 -6.46857 0.384765 0
M  V30 21252 N 1989.52 0.125209 -1.57102 0
M  V30 21253 C 1990.77 0.835321 -1.84798 0
M  V30 21254 C 1991.1 1.79819 -0.73341 0
M  V30 21255 O 1990.38 1.92737 0.261268 0
M  V30 21256 C 1990.66 1.59069 -3.23062 0
M  V30 21257 C 1990.51 0.647841 -4.4511 0
M  V30 21258 C 1991.83 2.54829 -3.58818 0
M  V30 21259 H 1988.95 0.302222 -0.672184 0
M  V30 21260 H 1991.59 0.0997638 -1.89738 0
M  V30 21261 H 1989.74 2.21772 -3.18982 0
M  V30 21262 H 1991.41 0.0301293 -4.6129 0
M  V30 21263 H 1989.66 -0.041074 -4.33781 0
M  V30 21264 H 1990.33 1.21288 -5.3851 0
M  V30 21265 H 1992.8 2.02233 -3.63649 0
M  V30 21266 H 1991.68 3.04716 -4.56551 0
M  V30 21267 H 1991.94 3.37205 -2.85911 0
M  V30 21268 N 1991 1.52564 0.395213 0
M  V30 21269 C 1991.93 1.79867 1.48897 0
M  V30 21270 C 1992.91 0.650351 1.57176 0
M  V30 21271 O 1994.1 0.897328 1.72226 0
M  V30 21272 C 1991.23 1.96192 2.86576 0
M  V30 21273 C 1990.18 3.11854 2.9314 0
M  V30 21274 C 1989.51 3.13424 4.33208 0
M  V30 21275 C 1990.81 4.51046 2.63353 0
M  V30 21276 H 1992.5 2.71457 1.26299 0
M  V30 21277 H 1990.05 1.30621 0.606145 0
M  V30 21278 H 1992 2.13875 3.63091 0
M  V30 21279 H 1990.72 1.01286 3.10498 0
M  V30 21280 H 1989.38 2.93944 2.19072 0
M  V30 21281 H 1989.03 2.16212 4.5416 0
M  V30 21282 H 1988.73 3.91117 4.38522 0
M  V30 21283 H 1990.25 3.33254 5.11639 0
M  V30 21284 H 1991.67 4.6909 3.29587 0
M  V30 21285 H 1990.07 5.3076 2.80024 0
M  V30 21286 H 1991.14 4.58187 1.58722 0
M  V30 21287 N 1992.48 -0.653289 1.43422 0
M  V30 21288 C 1993.76 -1.41051 1.35513 0
M  V30 21289 C 1994.14 -2.111 0.00290798 0
M  V30 21290 O 1993.48 -2.04786 -1.01365 0
M  V30 21291 C 1993.69 -2.39526 2.53827 0
M  V30 21292 C 1995.04 -3.03528 2.96911 0
M  V30 21293 O 1996.07 -2.49854 2.53873 0
M  V30 21294 O 1994.92 -4.00843 3.71466 0
M  V30 21295 H 1992.02 -0.630186 0.535532 0
M  V30 21296 H 1994.56 -0.680203 1.55471 0
M  V30 21297 H 1993.34 -1.86712 3.43881 0
M  V30 21298 H 1992.96 -3.20007 2.35968 0
M  V30 21299 N 1993.96 -1.29952 -0.891648 0
M  V30 21300 C 1995.18 -1.21297 -1.67615 0
M  V30 21301 C 1995.6 0.225203 -1.87452 0
M  V30 21302 O 1994.96 1.14977 -1.41727 0
M  V30 21303 C 1995.01 -1.93074 -3.05622 0
M  V30 21304 O 1994.73 -3.31276 -2.86684 0
M  V30 21305 C 1996.23 -1.90996 -4.00044 0
M  V30 21306 H 1993.45 -0.420057 -0.523253 0
M  V30 21307 H 1995.99 -1.71463 -1.11448 0
M  V30 21308 H 1994.15 -1.46724 -3.5854 0
M  V30 21309 H 1994.56 -3.67538 -3.74187 0
M  V30 21310 H 1996.04 -2.45768 -4.94269 0
M  V30 21311 H 1996.51 -0.887331 -4.30143 0
M  V30 21312 H 1997.12 -2.37127 -3.53059 0
M  V30 21313 N 1995.44 1.1031 -1.12559 0
M  V30 21314 C 1996.66 1.86618 -0.9049 0
M  V30 21315 C 1997.09 1.80164 0.540597 0
M  V30 21316 O 1996.44 1.17252 1.38281 0
M  V30 21317 C 1996.49 3.32903 -1.38592 0
M  V30 21318 O 1995.6 4.08508 -0.565225 0
M  V30 21319 H 1994.94 0.579019 -0.325013 0
M  V30 21320 H 1997.47 1.39359 -1.498 0
M  V30 21321 H 1997.48 3.83753 -1.38556 0
M  V30 21322 H 1996.15 3.36917 -2.43844 0
M  V30 21323 H 1994.73 3.67494 -0.632682 0
M  V30 21324 N 1996.91 0.917694 1.28125 0
M  V30 21325 C 1998.16 0.553715 1.95094 0
M  V30 21326 C 1998.49 -0.900999 1.72034 0
M  V30 21327 O 1997.77 -1.64132 1.04359 0
M  V30 21328 C 1998.05 0.868367 3.49473 0
M  V30 21329 C 1997.9 2.3761 3.81918 0
M  V30 21330 C 1999.22 0.367261 4.38565 0
M  V30 21331 H 1996.34 0.202644 0.708593 0
M  V30 21332 H 1998.98 1.14765 1.51423 0
M  V30 21333 H 1997.13 0.362898 3.86801 0
M  V30 21334 H 1998.81 2.95249 3.54437 0
M  V30 21335 H 1997.05 2.82945 3.28823 0
M  V30 21336 H 1997.72 2.5468 4.89737 0
M  V30 21337 H 2000.2 0.800328 4.08331 0
M  V30 21338 H 1999.07 0.616464 5.45427 0
M  V30 21339 H 1999.33 -0.732497 4.3599 0
M  V30 21340 N 1998.39 -1.42074 0.682102 0
M  V30 21341 C 1999.35 -2.29193 0.0174256 0
M  V30 21342 C 2000.35 -1.43698 -0.721635 0
M  V30 21343 O 2001.54 -1.65003 -0.558542 0
M  V30 21344 C 1998.68 -3.26332 -0.985903 0
M  V30 21345 H 1999.87 -2.89462 0.784316 0
M  V30 21346 H 1997.42 -1.49836 0.44485 0
M  V30 21347 H 1998.16 -2.71016 -1.78103 0
M  V30 21348 H 1997.94 -3.89401 -0.459258 0
M  V30 21349 H 1999.43 -3.91649 -1.44918 0
M  V30 21350 N 1999.87 -0.425924 -1.51735 0
M  V30 21351 C 2001.1 0.143143 -2.06104 0
M  V30 21352 C 2001.51 1.37989 -1.29444 0
M  V30 21353 O 2000.85 1.80448 -0.344147 0
M  V30 21354 C 2000.91 0.541996 -3.55391 0
M  V30 21355 C 2000.58 -0.586352 -4.53223 0
M  V30 21356 C 2001.57 -1.45505 -4.99124 0
M  V30 21357 C 1999.26 -0.763832 -4.96458 0
M  V30 21358 C 2001.25 -2.48602 -5.86921 0
M  V30 21359 C 1998.94 -1.79809 -5.84048 0
M  V30 21360 C 1999.94 -2.65758 -6.29175 0
M  V30 21361 O 1999.63 -3.67411 -7.15028 0
M  V30 21362 H 1999.36 0.0164528 -0.6758 0
M  V30 21363 H 2001.91 -0.60044 -1.96428 0
M  V30 21364 H 2000.14 1.33811 -3.6281 0
M  V30 21365 H 2001.83 1.0409 -3.92326 0
M  V30 21366 H 2002.6 -1.32941 -4.66424 0
M  V30 21367 H 1998.48 -0.10445 -4.60882 0
M  V30 21368 H 2002.02 -3.15721 -6.22066 0
M  V30 21369 H 1997.92 -1.92397 -6.1616 0
M  V30 21370 H 1998.68 -3.63855 -7.33179 0
M  V30 21371 N 2001.35 1.56817 -0.156891 0
M  V30 21372 C 2002.59 1.9673 0.492464 0
M  V30 21373 C 2002.93 1.04226 1.63862 0
M  V30 21374 O 2002.2 0.0865469 1.94307 0
M  V30 21375 C 2002.48 3.46246 0.989218 0
M  V30 21376 C 2002.34 4.49529 -0.156119 0
M  V30 21377 C 2003.66 3.98502 1.86773 0
M  V30 21378 H 2000.78 0.715297 0.177537 0
M  V30 21379 H 2003.42 1.88477 -0.240116 0
M  V30 21380 H 2001.57 3.53411 1.61348 0
M  V30 21381 H 2003.24 4.54437 -0.792781 0
M  V30 21382 H 2001.48 4.26098 -0.813797 0
M  V30 21383 H 2002.15 5.51507 0.233341 0
M  V30 21384 H 2004.63 3.93879 1.34159 0
M  V30 21385 H 2003.51 5.03564 2.18436 0
M  V30 21386 H 2003.77 3.4145 2.80828 0
M  V30 21387 N 2002.83 -0.116876 1.57166 0
M  V30 21388 C 2004.24 -0.470473 1.52508 0
M  V30 21389 C 2004.44 -1.8174 0.870224 0
M  V30 21390 O 2003.5 -2.48395 0.453461 0
M  V30 21391 C 2004.81 -0.453012 2.97268 0
M  V30 21392 C 2006.36 -0.536413 3.08369 0
M  V30 21393 C 2006.83 -0.549319 4.54694 0
M  V30 21394 N 2008.32 -0.610698 4.59157 0
M  V30 21395 C 2009.06 -0.642166 5.69793 0
M  V30 21396 N 2008.56 -0.631152 6.89919 0
M  V30 21397 N 2010.35 -0.685335 5.57906 0
M  V30 21398 H 2002.5 0.765638 1.98121 0
M  V30 21399 H 2004.76 0.282662 0.904879 0
M  V30 21400 H 2004.47 0.469074 3.48558 0
M  V30 21401 H 2004.34 -1.28004 3.54817 0
M  V30 21402 H 2006.73 -1.44892 2.57081 0
M  V30 21403 H 2006.81 0.318339 2.53811 0
M  V30 21404 H 2006.45 0.35915 5.06629 0
M  V30 21405 H 2006.38 -1.42098 5.07066 0
M  V30 21406 H 2008.88 -0.625287 3.72691 0
M  V30 21407 H 2009.19 -0.657846 7.69995 0
M  V30 21408 H 2007.53 -0.598543 6.92418 0
M  V30 21409 H 2010.72 -0.691318 4.62967 0
M  V30 21410 H 2010.9 -0.706392 6.44138 0
M  V30 21411 N 2004.3 -1.52772 -0.387116 0
M  V30 21412 C 2005.55 -1.67576 -1.12973 0
M  V30 21413 C 2005.87 -0.419122 -1.90443 0
M  V30 21414 O 2005.14 0.566514 -1.8753 0
M  V30 21415 H 2003.72 -0.617716 -0.420043 0
M  V30 21416 H 2006.38 -1.89892 -0.43896 0
M  V30 21417 H 2005.48 -2.52704 -1.83158 0
M  V30 21418 N 2005.78 0.645673 -1.43767 0
M  V30 21419 C 2006.69 1.78723 -1.51972 0
M  V30 21420 C 2007.71 1.6919 -0.406299 0
M  V30 21421 O 2008.88 1.90225 -0.661534 0
M  V30 21422 C 2005.95 3.1504 -1.44744 0
M  V30 21423 C 2005.01 3.36313 -2.66818 0
M  V30 21424 C 2004.24 4.66127 -2.59926 0
M  V30 21425 O 2004.47 5.45978 -1.65118 0
M  V30 21426 O 2003.4 4.89285 -3.50548 0
M  V30 21427 H 2007.23 1.74755 -2.48384 0
M  V30 21428 H 2004.81 0.805097 -1.25851 0
M  V30 21429 H 2006.69 3.96329 -1.43182 0
M  V30 21430 H 2005.37 3.19582 -0.514693 0
M  V30 21431 H 2004.27 2.54759 -2.7395 0
M  V30 21432 H 2005.61 3.36623 -3.5909 0
M  V30 21433 N 2007.26 1.30423 0.884744 0
M  V30 21434 C 2008.17 1.18747 2.02327 0
M  V30 21435 C 2009.19 0.107354 1.73669 0
M  V30 21436 O 2010.36 0.322332 1.98804 0
M  V30 21437 C 2007.43 0.880361 3.35336 0
M  V30 21438 C 2006.49 2.04587 3.77416 0
M  V30 21439 C 2005.72 1.75332 5.04078 0
M  V30 21440 O 2005.94 0.68135 5.66316 0
M  V30 21441 O 2004.88 2.60579 5.4257 0
M  V30 21442 H 2008.7 2.14391 2.15105 0
M  V30 21443 H 2006.29 1.10019 1.01076 0
M  V30 21444 H 2008.17 0.7243 4.15129 0
M  V30 21445 H 2006.85 -0.0461673 3.23667 0
M  V30 21446 H 2005.75 2.25726 2.98326 0
M  V30 21447 H 2007.09 2.95413 3.9369 0
M  V30 21448 N 2008.74 -1.09711 1.13142 0
M  V30 21449 C 2009.69 -2.18355 0.801498 0
M  V30 21450 C 2010.68 -1.68031 -0.214907 0
M  V30 21451 O 2011.89 -1.79855 -0.0723523 0
M  V30 21452 H 2008.26 -0.712202 0.241398 0
M  V30 21453 H 2010.23 -2.43416 1.72601 0
M  V30 21454 C 2008.98 -3.46566 0.280613 0
M  V30 21455 H 2008.3 -3.85656 1.05403 0
M  V30 21456 H 2009.74 -4.23908 0.0881579 0
M  V30 21457 C 2008.2 -3.21932 -0.993053 0
M  V30 21458 O 2008.73 -3.44292 -2.06944 0
M  V30 21459 N 2006.94 -2.75553 -0.922971 0
M  V30 21460 H 2006.49 -2.57557 -0.0468975 0
M  V30 21461 H 2006.44 -2.59449 -1.77577 0
M  V30 21462 N 2010.22 -0.924476 -1.27637 0
M  V30 21463 C 2011.15 -0.438348 -2.29349 0
M  V30 21464 C 2012.13 0.499673 -1.62595 0
M  V30 21465 O 2013.31 0.405114 -1.89928 0
M  V30 21466 C 2010.44 0.312668 -3.4589 0
M  V30 21467 C 2009.4 -0.537216 -4.24615 0
M  V30 21468 C 2008.72 0.342776 -5.336 0
M  V30 21469 C 2010.02 -1.80003 -4.90302 0
M  V30 21470 H 2011.72 -1.28838 -2.70261 0
M  V30 21471 H 2009.26 -0.620964 -1.29923 0
M  V30 21472 H 2011.22 0.66367 -4.16141 0
M  V30 21473 H 2009.94 1.1967 -3.03886 0
M  V30 21474 H 2008.6 -0.870883 -3.56106 0
M  V30 21475 H 2008.25 1.22567 -4.87838 0
M  V30 21476 H 2007.95 -0.222352 -5.87179 0
M  V30 21477 H 2009.47 0.689422 -6.06695 0
M  V30 21478 H 2010.88 -1.51729 -5.52857 0
M  V30 21479 H 2009.28 -2.3084 -5.53925 0
M  V30 21480 H 2010.35 -2.52148 -4.14186 0
M  V30 21481 N 2011.69 1.41711 -0.689627 0
M  V30 21482 C 2012.66 2.29181 -0.02958 0
M  V30 21483 C 2013.66 1.44079 0.714004 0
M  V30 21484 O 2014.85 1.65297 0.549783 0
M  V30 21485 C 2011.98 3.26851 0.968583 0
M  V30 21486 H 2013.17 2.89042 -0.799656 0
M  V30 21487 H 2010.73 1.49598 -0.45279 0
M  V30 21488 H 2011.46 2.71957 1.76663 0
M  V30 21489 H 2011.25 3.89639 0.4386 0
M  V30 21490 H 2012.74 3.92412 1.42839 0
M  V30 21491 N 2013.17 0.433965 1.51507 0
M  V30 21492 C 2014.42 -0.133365 2.01659 0
M  V30 21493 C 2014.74 -1.43506 1.32026 0
M  V30 21494 O 2014.01 -1.90572 0.453774 0
M  V30 21495 H 2012.59 -0.0522753 0.745169 0
M  V30 21496 H 2015.25 0.575899 1.86197 0
M  V30 21497 H 2014.35 -0.311697 3.1054 0
M  V30 21498 N 2014.65 -1.56732 0.165206 0
M  V30 21499 C 2015.9 -1.97763 -0.475543 0
M  V30 21500 C 2016.25 -1.04927 -1.6127 0
M  V30 21501 O 2015.54 -0.087751 -1.91399 0
M  V30 21502 C 2015.74 -3.42783 -1.01165 0
M  V30 21503 C 2015.57 -4.49642 0.0720333 0
M  V30 21504 C 2014.34 -5.02621 0.519634 0
M  V30 21505 C 2016.54 -5.06885 0.8702 0
M  V30 21506 N 2014.52 -5.93106 1.58426 0
M  V30 21507 C 2015.89 -5.93752 1.78489 0
M  V30 21508 C 2017.94 -4.89402 0.915962 0
M  V30 21509 C 2016.65 -6.65008 2.74147 0
M  V30 21510 C 2018.67 -5.61374 1.86045 0
M  V30 21511 C 2018.03 -6.47964 2.76264 0
M  V30 21512 H 2014.13 -0.768945 -0.142294 0
M  V30 21513 H 2016.72 -1.92902 0.264013 0
M  V30 21514 H 2014.89 -3.48202 -1.72075 0
M  V30 21515 H 2016.62 -3.70838 -1.62052 0
M  V30 21516 H 2013.38 -4.73452 0.118477 0
M  V30 21517 H 2013.8 -6.43053 2.11688 0
M  V30 21518 H 2018.44 -4.2216 0.232502 0
M  V30 21519 H 2016.16 -7.31467 3.43484 0
M  V30 21520 H 2019.75 -5.49836 1.90189 0
M  V30 21521 H 2018.63 -7.02678 3.48157 0
M  V30 21522 N 2016.13 0.10854 -1.57226 0
M  V30 21523 C 2017.54 0.462379 -1.52755 0
M  V30 21524 C 2017.74 1.81276 -0.87985 0
M  V30 21525 O 2016.8 2.48151 -0.466628 0
M  V30 21526 C 2018.11 0.437241 -2.97504 0
M  V30 21527 C 2019.66 0.520052 -3.08649 0
M  V30 21528 C 2020.14 0.525198 -4.54979 0
M  V30 21529 N 2021.63 0.586339 -4.59474 0
M  V30 21530 C 2022.36 0.61194 -5.70125 0
M  V30 21531 N 2021.86 0.594556 -6.90244 0
M  V30 21532 N 2023.65 0.655738 -5.58262 0
M  V30 21533 H 2015.8 -0.776135 -1.97712 0
M  V30 21534 H 2018.07 -0.287457 -0.903367 0
M  V30 21535 H 2017.77 -0.487552 -3.48304 0
M  V30 21536 H 2017.65 1.2612 -3.55491 0
M  V30 21537 H 2020.03 1.43526 -2.57845 0
M  V30 21538 H 2020.11 -0.331795 -2.53639 0
M  V30 21539 H 2019.76 -0.386013 -5.06431 0
M  V30 21540 H 2019.69 1.39407 -5.07812 0
M  V30 21541 H 2022.18 0.605514 -3.73017 0
M  V30 21542 H 2022.49 0.617002 -7.70333 0
M  V30 21543 H 2020.84 0.561814 -6.92726 0
M  V30 21544 H 2024.03 0.666756 -4.63327 0
M  V30 21545 H 2024.2 0.672222 -6.44504 0
M  V30 21546 N 2017.61 1.52975 0.379009 0
M  V30 21547 C 2019.02 1.60338 0.956477 0
M  V30 21548 C 2019.37 0.462422 1.90673 0
M  V30 21549 O 2018.49 -0.413093 2.12421 0
M  V30 21550 C 2019.09 2.90615 1.74151 0
M  V30 21551 C 2017.65 3.00358 2.26853 0
M  V30 21552 C 2016.79 2.55532 1.07697 0
M  V30 21553 H 2019.75 1.57909 0.158228 0
M  V30 21554 H 2019.77 2.77662 2.60161 0
M  V30 21555 H 2019.28 3.73636 1.04965 0
M  V30 21556 H 2017.38 2.21895 2.99321 0
M  V30 21557 H 2017.49 4.05188 2.55655 0
M  V30 21558 H 2015.86 2.10088 1.43997 0
M  V30 21559 H 2016.64 3.40958 0.400297 0
M  V30 21560 N 2019.08 -0.63804 1.44107 0
M  V30 21561 C 2020.5 -0.955442 1.27842 0
M  V30 21562 C 2020.7 -2.00412 0.209151 0
M  V30 21563 O 2019.76 -2.49193 -0.407303 0
M  V30 21564 C 2021.07 -1.42528 2.64776 0
M  V30 21565 C 2022.62 -1.54112 2.72431 0
M  V30 21566 C 2023.09 -2.04482 4.09819 0
M  V30 21567 N 2024.58 -2.11762 4.1196 0
M  V30 21568 C 2025.32 -2.51891 5.1511 0
M  V30 21569 N 2024.81 -2.91207 6.28626 0
M  V30 21570 N 2026.61 -2.51964 5.02464 0
M  V30 21571 H 2018.76 0.0556164 2.12327 0
M  V30 21572 H 2021.02 -0.037732 0.947249 0
M  V30 21573 H 2020.73 -0.729067 3.4406 0
M  V30 21574 H 2020.6 -2.39756 2.91199 0
M  V30 21575 H 2022.99 -2.22831 1.93469 0
M  V30 21576 H 2023.07 -0.552769 2.49756 0
M  V30 21577 H 2022.71 -1.3636 4.89253 0
M  V30 21578 H 2022.64 -3.04176 4.29866 0
M  V30 21579 H 2025.13 -1.8409 3.30029 0
M  V30 21580 H 2025.45 -3.2062 7.03152 0
M  V30 21581 H 2023.79 -2.88975 6.32075 0
M  V30 21582 H 2026.98 -2.20635 4.12841 0
M  V30 21583 H 2027.16 -2.82915 5.82978 0
M  V30 21584 N 2020.56 -1.3089 -0.877815 0
M  V30 21585 C 2021.79 -1.23199 -1.66844 0
M  V30 21586 C 2022.21 0.200808 -1.87025 0
M  V30 21587 O 2021.57 1.14417 -1.40636 0
M  V30 21588 C 2021.62 -1.97328 -3.01818 0
M  V30 21589 O 2020.72 -1.30526 -3.91199 0
M  V30 21590 H 2020.06 -0.425746 -0.509545 0
M  V30 21591 H 2022.59 -1.7283 -1.09504 0
M  V30 21592 H 2022.6 -2.06624 -3.51811 0
M  V30 21593 H 2021.28 -3.01529 -2.86449 0
M  V30 21594 H 2019.86 -1.29631 -3.49643 0
M  V30 21595 N 2022.04 1.0911 -1.13723 0
M  V30 21596 C 2023.32 1.77949 -0.812014 0
M  V30 21597 C 2023.7 1.99302 0.695832 0
M  V30 21598 O 2023.05 1.59704 1.63422 0
M  V30 21599 C 2023.26 3.10028 -1.60262 0
M  V30 21600 C 2024.6 3.84681 -1.79738 0
M  V30 21601 O 2025.63 3.19789 -1.56887 0
M  V30 21602 O 2024.49 5.01185 -2.17888 0
M  V30 21603 H 2021.58 0.7719 -0.296816 0
M  V30 21604 H 2024.13 1.15637 -1.24202 0
M  V30 21605 H 2022.9 2.8999 -2.62719 0
M  V30 21606 H 2022.52 3.80065 -1.16776 0
M  V30 21607 N 2023.52 0.931232 1.27145 0
M  V30 21608 C 2024.74 0.589393 1.98849 0
M  V30 21609 C 2025.17 -0.82637 1.68976 0
M  V30 21610 O 2024.53 -1.55507 0.93205 0
M  V30 21611 C 2024.57 0.826135 3.51009 0
M  V30 21612 O 2023.68 -0.106581 4.12262 0
M  V30 21613 H 2023.02 0.226532 0.624163 0
M  V30 21614 H 2025.55 1.25145 1.61864 0
M  V30 21615 H 2025.56 0.743094 4.01176 0
M  V30 21616 H 2024.23 1.85812 3.72084 0
M  V30 21617 H 2022.81 0.0266735 3.7289 0
M  V30 21618 N 2025 -1.41343 0.697132 0
M  V30 21619 C 2025.93 -2.33452 0.0471857 0
M  V30 21620 C 2026.91 -1.51902 -0.765488 0
M  V30 21621 O 2028.09 -1.80434 -0.718146 0
M  V30 21622 C 2025.22 -3.35735 -0.888781 0
M  V30 21623 C 2024.18 -4.27608 -0.183088 0
M  V30 21624 C 2023.5 -5.20277 -1.23352 0
M  V30 21625 C 2024.8 -5.13559 0.951558 0
M  V30 21626 H 2026.5 -2.88052 0.816496 0
M  V30 21627 H 2024.04 -1.38502 0.394089 0
M  V30 21628 H 2026 -3.99098 -1.35272 0
M  V30 21629 H 2024.72 -2.79489 -1.68977 0
M  V30 21630 H 2023.38 -3.65671 0.260833 0
M  V30 21631 H 2023.03 -4.60346 -2.02708 0
M  V30 21632 H 2022.73 -5.82581 -0.766336 0
M  V30 21633 H 2024.25 -5.86517 -1.69793 0
M  V30 21634 H 2025.67 -5.70481 0.567835 0
M  V30 21635 H 2024.06 -5.84812 1.34593 0
M  V30 21636 H 2025.13 -4.50631 1.79053 0
M  V30 21637 N 2026.48 -0.441993 -1.51275 0
M  V30 21638 C 2027.72 0.124439 -2.01316 0
M  V30 21639 C 2028.04 1.43376 -1.33051 0
M  V30 21640 O 2029.24 2.08342 -1.74086 0
M  V30 21641 C 2027.7 0.272307 -3.58868 0
M  V30 21642 C 2027.31 -1.02686 -4.36073 0
M  V30 21643 C 2029.05 0.792259 -4.17041 0
M  V30 21644 C 2026.96 -0.844378 -5.85341 0
M  V30 21645 H 2025.89 0.0502803 -0.752322 0
M  V30 21646 H 2028.54 -0.572465 -1.74342 0
M  V30 21647 H 2026.92 1.03232 -3.82308 0
M  V30 21648 H 2028.1 -1.79557 -4.24377 0
M  V30 21649 H 2026.41 -1.4757 -3.89374 0
M  V30 21650 H 2029.01 0.94535 -5.26277 0
M  V30 21651 H 2029.35 1.77595 -3.76518 0
M  V30 21652 H 2029.88 0.0904292 -3.97697 0
M  V30 21653 H 2026.62 -1.80058 -6.30285 0
M  V30 21654 H 2026.14 -0.115549 -5.99689 0
M  V30 21655 H 2027.82 -0.499412 -6.4507 0
M  V30 21656 N 2027.95 1.56642 -0.173515 0
M  V30 21657 C 2028.88 2.21076 0.751509 0
M  V30 21658 C 2029.86 1.16706 1.23749 0
M  V30 21659 O 2031.05 1.45142 1.29025 0
M  V30 21660 C 2028.18 2.85323 1.9801 0
M  V30 21661 C 2027.13 3.95751 1.62989 0
M  V30 21662 C 2026.46 4.47058 2.93332 0
M  V30 21663 C 2027.76 5.15234 0.856231 0
M  V30 21664 H 2029.45 2.98631 0.21442 0
M  V30 21665 H 2027 1.4364 0.101692 0
M  V30 21666 H 2028.95 3.29075 2.63226 0
M  V30 21667 H 2027.68 2.0514 2.54136 0
M  V30 21668 H 2026.34 3.52658 1.00141 0
M  V30 21669 H 2025.98 3.63663 3.47503 0
M  V30 21670 H 2025.68 5.21556 2.70652 0
M  V30 21671 H 2027.21 4.93497 3.59573 0
M  V30 21672 H 2028.62 5.55665 1.41102 0
M  V30 21673 H 2027.02 5.95663 0.728389 0
M  V30 21674 H 2028.09 4.84677 -0.147009 0
M  V30 21675 N 2029.43 -0.1002 1.57281 0
M  V30 21676 C 2030.71 -0.836006 1.76834 0
M  V30 21677 C 2031.09 -1.9718 0.753864 0
M  V30 21678 O 2030.44 -2.27452 -0.218626 0
M  V30 21679 C 2030.65 -1.33532 3.22444 0
M  V30 21680 C 2031.99 -1.78015 3.85481 0
M  V30 21681 O 2033.02 -1.43167 3.26162 0
M  V30 21682 O 2031.88 -2.42432 4.89784 0
M  V30 21683 H 2028.97 -0.398386 0.724719 0
M  V30 21684 H 2031.52 -0.0824784 1.69499 0
M  V30 21685 H 2030.29 -0.521307 3.87812 0
M  V30 21686 H 2029.91 -2.151 3.34391 0
M  V30 21687 N 2030.91 -1.53174 -0.370891 0
M  V30 21688 C 2031.86 -1.75617 -1.45406 0
M  V30 21689 C 2032.84 -0.610579 -1.48865 0
M  V30 21690 O 2034.04 -0.86906 -1.54196 0
M  V30 21691 C 2031.16 -1.94473 -2.82905 0
M  V30 21692 C 2030.25 -3.15018 -2.83944 0
M  V30 21693 N 2030.64 -4.37029 -2.54635 0
M  V30 21694 C 2028.94 -3.15632 -3.15107 0
M  V30 21695 C 2029.64 -5.1874 -2.63218 0
M  V30 21696 N 2028.62 -4.54831 -2.97708 0
M  V30 21697 H 2032.42 -2.67564 -1.216 0
M  V30 21698 H 2029.93 -1.51727 -0.579026 0
M  V30 21699 H 2031.93 -2.08678 -3.60914 0
M  V30 21700 H 2030.59 -1.03751 -3.07678 0
M  V30 21701 H 2031.6 -4.64853 -2.28325 0
M  V30 21702 H 2028.28 -2.34783 -3.45229 0
M  V30 21703 H 2029.67 -6.2605 -2.4395 0
M  V30 21704 N 2032.39 0.630389 -1.44443 0
M  V30 21705 C 2033.32 1.75554 -1.47354 0
M  V30 21706 C 2034.33 1.58613 -0.366846 0
M  V30 21707 O 2035.52 1.66913 -0.632629 0
M  V30 21708 C 2032.62 3.13286 -1.29249 0
M  V30 21709 C 2031.79 3.56679 -2.53178 0
M  V30 21710 C 2030.85 4.73291 -2.29962 0
M  V30 21711 O 2029.88 4.81565 -3.03453 0
M  V30 21712 N 2031.08 5.65043 -1.33068 0
M  V30 21713 H 2033.85 1.73528 -2.44352 0
M  V30 21714 H 2031.41 0.814976 -1.39892 0
M  V30 21715 H 2033.4 3.89019 -1.11564 0
M  V30 21716 H 2031.97 3.09951 -0.406127 0
M  V30 21717 H 2031.19 2.71147 -2.86135 0
M  V30 21718 H 2032.48 3.82422 -3.35605 0
M  V30 21719 H 2031.88 5.61051 -0.723733 0
M  V30 21720 H 2030.43 6.40402 -1.21361 0
M  V30 21721 N 2033.87 1.31354 0.870861 0
M  V30 21722 C 2035.11 1.22177 1.62617 0
M  V30 21723 C 2035.47 -0.218204 1.91159 0
M  V30 21724 O 2034.76 -1.15137 1.53147 0
M  V30 21725 C 2034.95 1.99835 2.96312 0
M  V30 21726 C 2034.78 3.51238 2.80824 0
M  V30 21727 C 2033.55 4.20589 2.80059 0
M  V30 21728 C 2035.75 4.46204 2.55747 0
M  V30 21729 N 2033.73 5.58154 2.55612 0
M  V30 21730 C 2035.1 5.71431 2.40555 0
M  V30 21731 C 2037.16 4.3564 2.41085 0
M  V30 21732 C 2035.86 6.8729 2.12192 0
M  V30 21733 C 2037.89 5.51282 2.14109 0
M  V30 21734 C 2037.25 6.75498 1.99705 0
M  V30 21735 H 2033.35 0.502188 0.599443 0
M  V30 21736 H 2035.93 1.65532 1.02505 0
M  V30 21737 H 2034.1 1.58851 3.54431 0
M  V30 21738 H 2035.84 1.82685 3.61121 0
M  V30 21739 H 2032.59 3.72551 2.92408 0
M  V30 21740 H 2033.01 6.30583 2.46361 0
M  V30 21741 H 2037.66 3.40271 2.5095 0
M  V30 21742 H 2035.37 7.82687 2.01064 0
M  V30 21743 H 2038.96 5.45025 2.03565 0
M  V30 21744 H 2037.84 7.63468 1.79126 0
M  V30 21745 N 2035.34 -1.08505 1.143 0
M  V30 21746 C 2036.25 -2.18944 0.84266 0
M  V30 21747 C 2037.27 -1.73103 -0.17648 0
M  V30 21748 O 2038.45 -2.01399 -0.0052364 0
M  V30 21749 C 2035.51 -3.45189 0.323347 0
M  V30 21750 C 2034.57 -4.05661 1.40492 0
M  V30 21751 C 2033.8 -5.2588 0.910289 0
M  V30 21752 O 2034.03 -5.69858 -0.248616 0
M  V30 21753 O 2032.96 -5.77722 1.68882 0
M  V30 21754 H 2036.79 -2.47104 1.76559 0
M  V30 21755 H 2034.37 -1.17621 0.921181 0
M  V30 21756 H 2036.25 -4.21381 0.039611 0
M  V30 21757 H 2034.93 -3.18608 -0.571874 0
M  V30 21758 H 2033.84 -3.31061 1.7421 0
M  V30 21759 H 2035.17 -4.36488 2.27462 0
M  V30 21760 N 2036.82 -0.937962 -1.26649 0
M  V30 21761 C 2037.75 -0.462649 -2.28871 0
M  V30 21762 C 2038.73 0.4824 -1.63116 0
M  V30 21763 O 2039.92 0.384947 -1.90347 0
M  V30 21764 C 2037.05 0.275964 -3.46202 0
M  V30 21765 C 2036 -0.582222 -4.24021 0
M  V30 21766 C 2035.33 0.286161 -5.33934 0
M  V30 21767 C 2036.63 -1.85193 -4.88365 0
M  V30 21768 H 2038.32 -1.31698 -2.68879 0
M  V30 21769 H 2035.87 -0.634709 -1.29257 0
M  V30 21770 H 2037.82 0.619496 -4.16822 0
M  V30 21771 H 2036.54 1.1644 -3.05138 0
M  V30 21772 H 2035.2 -0.908604 -3.55162 0
M  V30 21773 H 2034.85 1.17386 -4.89111 0
M  V30 21774 H 2034.55 -0.284618 -5.8691 0
M  V30 21775 H 2036.08 0.625035 -6.07393 0
M  V30 21776 H 2037.49 -1.57584 -5.51217 0
M  V30 21777 H 2035.89 -2.36702 -5.51445 0
M  V30 21778 H 2036.96 -2.56526 -4.11488 0
M  V30 21779 N 2038.3 1.40971 -0.704618 0
M  V30 21780 C 2039.21 2.34555 -0.0457738 0
M  V30 21781 C 2040.23 1.56717 0.756037 0
M  V30 21782 O 2041.4 1.89156 0.691518 0
M  V30 21783 C 2038.47 3.35534 0.872815 0
M  V30 21784 C 2037.53 4.29255 0.062192 0
M  V30 21785 C 2036.76 5.2541 0.937031 0
M  V30 21786 O 2036.98 5.27245 2.17644 0
M  V30 21787 O 2035.92 6.00687 0.381874 0
M  V30 21788 H 2039.74 2.92493 -0.817415 0
M  V30 21789 H 2037.33 1.41979 -0.465014 0
M  V30 21790 H 2039.21 3.97489 1.3993 0
M  V30 21791 H 2037.89 2.80026 1.62379 0
M  V30 21792 H 2036.79 3.7062 -0.509109 0
M  V30 21793 H 2038.13 4.87885 -0.65032 0
M  V30 21794 N 2039.78 0.45001 1.51039 0
M  V30 21795 C 2040.73 -0.355012 2.28053 0
M  V30 21796 C 2041.7 -1.00578 1.32186 0
M  V30 21797 O 2042.88 -1.02227 1.61103 0
M  V30 21798 C 2040.02 -1.44311 3.13478 0
M  V30 21799 C 2039.13 -0.809213 4.24353 0
M  V30 21800 C 2038.27 -1.87342 4.97068 0
M  V30 21801 C 2037.31 -1.21864 5.99846 0
M  V30 21802 N 2036.44 -2.22477 6.65919 0
M  V30 21803 H 2041.28 0.308084 2.96403 0
M  V30 21804 H 2038.82 0.163778 1.46185 0
M  V30 21805 H 2040.78 -2.08539 3.61341 0
M  V30 21806 H 2039.41 -2.07566 2.47217 0
M  V30 21807 H 2038.46 -0.0548937 3.8036 0
M  V30 21808 H 2039.77 -0.291288 4.97949 0
M  V30 21809 H 2038.93 -2.59203 5.48542 0
M  V30 21810 H 2037.67 -2.42511 4.23131 0
M  V30 21811 H 2036.67 -0.48556 5.47652 0
M  V30 21812 H 2037.9 -0.674124 6.75746 0
M  V30 21813 H 2035.84 -2.76702 5.94788 0
M  V30 21814 H 2035.76 -1.75611 7.35321 0
M  V30 21815 H 2037.03 -2.93782 7.2202 0
M  V30 21816 N 2041.26 -1.56548 0.18182 0
M  V30 21817 C 2042.19 -2.21471 -0.739774 0
M  V30 21818 C 2043.17 -1.17361 -1.23128 0
M  V30 21819 O 2044.35 -1.45825 -1.28253 0
M  V30 21820 C 2041.48 -2.86369 -1.96494 0
M  V30 21821 C 2040.44 -3.96609 -1.60888 0
M  V30 21822 C 2039.76 -4.48607 -2.90957 0
M  V30 21823 C 2041.06 -5.15681 -0.828895 0
M  V30 21824 H 2042.76 -2.98741 -0.19858 0
M  V30 21825 H 2040.3 -1.43692 -0.0940725 0
M  V30 21826 H 2042.26 -3.30466 -2.61477 0
M  V30 21827 H 2040.98 -2.06485 -2.53045 0
M  V30 21828 H 2039.64 -3.53184 -0.982694 0
M  V30 21829 H 2039.29 -3.65501 -3.45569 0
M  V30 21830 H 2038.99 -5.22984 -2.67882 0
M  V30 21831 H 2040.51 -4.95397 -3.56951 0
M  V30 21832 H 2041.92 -5.56405 -1.38153 0
M  V30 21833 H 2040.32 -5.96041 -0.696789 0
M  V30 21834 H 2041.39 -4.84592 0.172711 0
M  V30 21835 N 2042.73 0.0918577 -1.57332 0
M  V30 21836 C 2043.96 0.81208 -1.9084 0
M  V30 21837 C 2044.38 1.71329 -0.776394 0
M  V30 21838 O 2043.74 1.7925 0.271867 0
M  V30 21839 C 2043.79 1.59867 -3.23226 0
M  V30 21840 O 2042.89 2.70787 -3.11044 0
M  V30 21841 H 2042.24 0.222886 -0.625474 0
M  V30 21842 H 2044.77 0.0661119 -2.04493 0
M  V30 21843 H 2044.78 1.98221 -3.56613 0
M  V30 21844 H 2043.45 0.937296 -4.05201 0
M  V30 21845 H 2042.03 2.35438 -2.89177 0
M  V30 21846 N 2044.21 1.53368 0.362763 0
M  V30 21847 C 2045.14 1.82984 1.45048 0
M  V30 21848 C 2046.12 0.683544 1.55762 0
M  V30 21849 O 2047.31 0.933658 1.70283 0
M  V30 21850 C 2044.44 2.02227 2.8235 0
M  V30 21851 C 2043.39 3.18002 2.86459 0
M  V30 21852 C 2042.72 3.22543 4.26463 0
M  V30 21853 C 2044.02 4.56531 2.53726 0
M  V30 21854 H 2045.71 2.74075 1.20513 0
M  V30 21855 H 2043.26 1.31877 0.578302 0
M  V30 21856 H 2045.21 2.21529 3.58473 0
M  V30 21857 H 2043.94 1.07849 3.08279 0
M  V30 21858 H 2042.59 2.98525 2.12787 0
M  V30 21859 H 2042.24 2.25797 4.49472 0
M  V30 21860 H 2041.94 4.00331 4.30127 0
M  V30 21861 H 2043.47 3.44032 5.04455 0
M  V30 21862 H 2044.88 4.75975 3.19563 0
M  V30 21863 H 2043.28 5.36581 2.68703 0
M  V30 21864 H 2044.35 4.61451 1.48967 0
M  V30 21865 N 2045.69 -0.62272 1.44776 0
M  V30 21866 C 2046.62 -1.74528 1.5512 0
M  V30 21867 C 2047.6 -1.65241 0.403656 0
M  V30 21868 O 2048.79 -1.83873 0.624863 0
M  V30 21869 C 2045.92 -3.13088 1.5031 0
M  V30 21870 C 2044.87 -3.37172 2.63626 0
M  V30 21871 C 2044.2 -4.75849 2.43868 0
M  V30 21872 C 2045.5 -3.28908 4.0573 0
M  V30 21873 H 2047.19 -1.66128 2.49082 0
M  V30 21874 H 2044.74 -0.797813 1.19879 0
M  V30 21875 H 2046.69 -3.91403 1.56146 0
M  V30 21876 H 2045.41 -3.22293 0.528684 0
M  V30 21877 H 2044.07 -2.61241 2.57194 0
M  V30 21878 H 2043.72 -4.81767 1.446 0
M  V30 21879 H 2043.42 -4.92921 3.19849 0
M  V30 21880 H 2044.94 -5.56383 2.51535 0
M  V30 21881 H 2046.36 -3.97117 4.13487 0
M  V30 21882 H 2044.76 -3.57513 4.8198 0
M  V30 21883 H 2045.83 -2.26581 4.28706 0
M  V30 21884 N 2047.17 -1.31814 -0.863883 0
M  V30 21885 C 2048.1 -1.15798 -1.97796 0
M  V30 21886 C 2049.11 -0.0954225 -1.6252 0
M  V30 21887 O 2050.3 -0.343504 -1.75164 0
M  V30 21888 C 2047.4 -0.748332 -3.30535 0
M  V30 21889 C 2046.58 -1.89721 -3.94113 0
M  V30 21890 C 2045.63 -1.47262 -5.05174 0
M  V30 21891 O 2044.66 -2.18322 -5.25666 0
M  V30 21892 N 2045.86 -0.363428 -5.79361 0
M  V30 21893 H 2048.63 -2.11761 -2.12079 0
M  V30 21894 H 2046.19 -1.24229 -1.03821 0
M  V30 21895 H 2048.18 -0.446875 -4.02225 0
M  V30 21896 H 2046.75 0.119862 -3.1237 0
M  V30 21897 H 2045.97 -2.36566 -3.15326 0
M  V30 21898 H 2047.26 -2.66657 -4.33326 0
M  V30 21899 H 2046.66 0.228215 -5.65239 0
M  V30 21900 H 2045.21 -0.121534 -6.51687 0
M  V30 21901 N 2048.65 1.07897 -1.14873 0
M  V30 21902 C 2049.56 2.18494 -0.854259 0
M  V30 21903 C 2050.57 1.73194 0.167297 0
M  V30 21904 O 2051.75 2.01399 -0.00544437 0
M  V30 21905 C 2048.81 3.45013 -0.341649 0
M  V30 21906 C 2047.87 4.0491 -1.42641 0
M  V30 21907 C 2047.11 5.2539 -0.938165 0
M  V30 21908 O 2047.33 5.69982 0.218391 0
M  V30 21909 O 2046.26 5.76818 -1.71943 0
M  V30 21910 H 2050.09 2.46164 -1.77867 0
M  V30 21911 H 2047.68 1.1713 -0.927406 0
M  V30 21912 H 2049.56 4.21354 -0.0619573 0
M  V30 21913 H 2048.23 3.18907 0.554969 0
M  V30 21914 H 2047.14 3.30133 -1.75963 0
M  V30 21915 H 2048.47 4.35276 -2.29774 0
M  V30 21916 N 2050.12 0.944665 1.2615 0
M  V30 21917 C 2051.37 0.594973 1.93876 0
M  V30 21918 C 2051.7 -0.864305 1.73906 0
M  V30 21919 O 2050.98 -1.61882 1.07817 0
M  V30 21920 C 2051.26 0.9423 3.47552 0
M  V30 21921 C 2051.11 2.45658 3.76792 0
M  V30 21922 C 2052.43 0.460204 4.37687 0
M  V30 21923 H 2049.55 0.217629 0.704135 0
M  V30 21924 H 2052.19 1.17952 1.48954 0
M  V30 21925 H 2050.34 0.444863 3.85945 0
M  V30 21926 H 2052.02 3.02701 3.48095 0
M  V30 21927 H 2050.26 2.89856 3.22747 0
M  V30 21928 H 2050.93 2.65011 4.84224 0
M  V30 21929 H 2053.41 0.886761 4.06541 0
M  V30 21930 H 2052.28 0.732019 5.43997 0
M  V30 21931 H 2052.54 -0.639853 4.37445 0
M  V30 21932 N 2051.6 -1.40596 0.712085 0
M  V30 21933 C 2052.51 -2.34528 0.0582122 0
M  V30 21934 C 2053.53 -1.57115 -0.747715 0
M  V30 21935 O 2054.7 -1.8952 -0.681477 0
M  V30 21936 C 2051.77 -3.35992 -0.855008 0
M  V30 21937 C 2050.83 -4.29282 -0.0394267 0
M  V30 21938 C 2050.06 -5.25899 -0.909154 0
M  V30 21939 O 2050.29 -5.28392 -2.14845 0
M  V30 21940 O 2049.22 -6.00881 -0.350012 0
M  V30 21941 H 2053.05 -2.92055 0.832915 0
M  V30 21942 H 2050.63 -1.4173 0.472537 0
M  V30 21943 H 2052.51 -3.98225 -1.3782 0
M  V30 21944 H 2051.19 -2.80883 -1.60892 0
M  V30 21945 H 2050.1 -3.70344 0.528757 0
M  V30 21946 H 2051.43 -4.87533 0.676185 0
M  V30 21947 N 2053.08 -0.458013 -1.50798 0
M  V30 21948 C 2054.03 0.342913 -2.28238 0
M  V30 21949 C 2055 0.99876 -1.32718 0
M  V30 21950 O 2056.18 1.01371 -1.61643 0
M  V30 21951 C 2053.32 1.42646 -3.14239 0
M  V30 21952 C 2052.44 0.786698 -4.24776 0
M  V30 21953 C 2051.57 1.84704 -4.98054 0
M  V30 21954 C 2050.61 1.18681 -6.00484 0
M  V30 21955 N 2049.75 2.18942 -6.6709 0
M  V30 21956 H 2054.59 -0.323799 -2.96236 0
M  V30 21957 H 2052.12 -0.171528 -1.46097 0
M  V30 21958 H 2054.08 2.0662 -3.62442 0
M  V30 21959 H 2052.71 2.06252 -2.48314 0
M  V30 21960 H 2051.76 0.0347215 -3.80384 0
M  V30 21961 H 2053.08 0.264877 -4.98096 0
M  V30 21962 H 2052.23 2.5629 -5.49909 0
M  V30 21963 H 2050.97 2.40263 -4.24411 0
M  V30 21964 H 2049.97 0.45651 -5.47901 0
M  V30 21965 H 2051.2 0.638278 -6.76094 0
M  V30 21966 H 2049.14 2.73543 -5.96247 0
M  V30 21967 H 2049.06 1.71709 -7.36242 0
M  V30 21968 H 2050.33 2.89949 -7.23568 0
M  V30 21969 N 2054.56 1.56449 -0.190119 0
M  V30 21970 C 2055.79 2.01819 0.455699 0
M  V30 21971 C 2056.2 1.07029 1.55532 0
M  V30 21972 O 2055.56 0.0743024 1.82349 0
M  V30 21973 C 2055.61 3.4691 1.01663 0
M  V30 21974 O 2055.33 4.38083 -0.0391156 0
M  V30 21975 C 2056.83 4.07774 1.73882 0
M  V30 21976 H 2054.05 0.661091 0.114891 0
M  V30 21977 H 2056.6 2.02326 -0.297366 0
M  V30 21978 H 2054.75 3.47118 1.7201 0
M  V30 21979 H 2055.17 5.23138 0.377687 0
M  V30 21980 H 2056.64 5.11162 2.08368 0
M  V30 21981 H 2057.12 3.50946 2.64071 0
M  V30 21982 H 2057.72 4.11324 1.08132 0
M  V30 21983 N 2056.04 -0.0835127 1.57379 0
M  V30 21984 C 2057.45 -0.438018 1.53472 0
M  V30 21985 C 2057.65 -1.79853 0.908578 0
M  V30 21986 O 2056.71 -2.47377 0.506047 0
M  V30 21987 C 2058.02 -0.389855 2.98162 0
M  V30 21988 C 2059.57 -0.470883 3.09438 0
M  V30 21989 C 2060.05 -0.452749 4.55757 0
M  V30 21990 N 2061.54 -0.513166 4.60349 0
M  V30 21991 C 2062.27 -0.52116 5.71027 0
M  V30 21992 N 2061.77 -0.484668 6.91103 0
M  V30 21993 N 2063.56 -0.566841 5.59235 0
M  V30 21994 H 2055.71 0.807491 1.96452 0
M  V30 21995 H 2057.97 0.301793 0.89868 0
M  V30 21996 H 2057.68 0.542902 3.47484 0
M  V30 21997 H 2057.55 -1.20449 3.57452 0
M  V30 21998 H 2059.94 -1.39406 2.60096 0
M  V30 21999 H 2060.02 0.372104 2.53079 0
M  V30 22000 H 2059.67 0.466533 5.05753 0
M  V30 22001 H 2059.6 -1.31311 5.09966 0
M  V30 22002 H 2062.09 -0.546093 3.73933 0
M  V30 22003 H 2062.4 -0.494371 7.71217 0
M  V30 22004 H 2060.75 -0.451537 6.93532 0
M  V30 22005 H 2063.94 -0.59296 4.64329 0
M  V30 22006 H 2064.11 -0.569602 6.45492 0
M  V30 22007 N 2057.52 -1.53558 -0.354624 0
M  V30 22008 C 2058.47 -1.77149 -1.43535 0
M  V30 22009 C 2059.45 -0.626333 -1.48209 0
M  V30 22010 O 2060.64 -0.885366 -1.53265 0
M  V30 22011 C 2057.77 -1.97463 -2.80826 0
M  V30 22012 C 2056.86 -3.18012 -2.80587 0
M  V30 22013 N 2057.25 -4.39705 -2.49986 0
M  V30 22014 C 2055.55 -3.18957 -3.11741 0
M  V30 22015 C 2056.25 -5.21502 -2.57702 0
M  V30 22016 N 2055.22 -4.57963 -2.92867 0
M  V30 22017 H 2059.02 -2.68839 -1.18755 0
M  V30 22018 H 2056.54 -1.52332 -0.562901 0
M  V30 22019 H 2058.54 -2.12494 -3.58681 0
M  V30 22020 H 2057.2 -1.07008 -3.06561 0
M  V30 22021 H 2058.21 -4.67248 -2.23382 0
M  V30 22022 H 2054.88 -2.38432 -3.42719 0
M  V30 22023 H 2056.27 -6.28602 -2.37296 0
M  V30 22024 N 2058.99 0.615033 -1.45104 0
M  V30 22025 C 2060.22 1.39902 -1.52023 0
M  V30 22026 C 2060.63 1.88611 -0.149112 0
M  V30 22027 O 2059.97 1.6242 0.858222 0
M  V30 22028 C 2060.04 2.6429 -2.43703 0
M  V30 22029 C 2059.7 2.3727 -3.90579 0
M  V30 22030 C 2060.7 1.98094 -4.80682 0
M  V30 22031 C 2058.38 2.50412 -4.3543 0
M  V30 22032 C 2060.38 1.72411 -6.13639 0
M  V30 22033 C 2058.06 2.24342 -5.68431 0
M  V30 22034 C 2059.06 1.85402 -6.57354 0
M  V30 22035 O 2058.75 1.59633 -7.87891 0
M  V30 22036 H 2058.48 0.434923 -0.517511 0
M  V30 22037 H 2061.04 0.757868 -1.90907 0
M  V30 22038 H 2059.27 3.31099 -1.99775 0
M  V30 22039 H 2060.95 3.26322 -2.41389 0
M  V30 22040 H 2061.72 1.87483 -4.47297 0
M  V30 22041 H 2057.6 2.79689 -3.66463 0
M  V30 22042 H 2061.14 1.41942 -6.83007 0
M  V30 22043 H 2057.04 2.34567 -6.01372 0
M  V30 22044 H 2057.81 1.73747 -7.99846 0
M  V30 22045 N 2060.47 1.3227 0.85688 0
M  V30 22046 C 2061.4 1.23626 1.98088 0
M  V30 22047 C 2062.38 0.120585 1.69672 0
M  V30 22048 O 2063.57 0.307383 1.91752 0
M  V30 22049 C 2060.7 0.956279 3.33875 0
M  V30 22050 C 2059.65 2.03295 3.76637 0
M  V30 22051 C 2058.98 1.60541 5.1003 0
M  V30 22052 C 2060.28 3.4477 3.92341 0
M  V30 22053 H 2061.97 2.17665 2.05578 0
M  V30 22054 H 2059.52 1.04788 0.987703 0
M  V30 22055 H 2061.47 0.882366 4.12059 0
M  V30 22056 H 2060.19 -0.0197585 3.26594 0
M  V30 22057 H 2058.85 2.09698 3.00703 0
M  V30 22058 H 2058.5 0.616883 4.99203 0
M  V30 22059 H 2058.2 2.32578 5.39612 0
M  V30 22060 H 2059.73 1.54582 5.90709 0
M  V30 22061 H 2061.14 3.40968 4.60884 0
M  V30 22062 H 2059.54 4.15137 4.33338 0
M  V30 22063 H 2060.61 3.84594 2.95322 0
M  V30 22064 N 2061.95 -1.07287 1.15444 0
M  V30 22065 C 2062.88 -2.16494 0.87478 0
M  V30 22066 C 2063.86 -1.69199 -0.174882 0
M  V30 22067 O 2065.05 -1.94178 -0.0291162 0
M  V30 22068 C 2062.18 -3.45387 0.364018 0
M  V30 22069 C 2061.13 -4.06137 1.35043 0
M  V30 22070 C 2060.46 -5.30118 0.69849 0
M  V30 22071 C 2061.76 -4.46089 2.71665 0
M  V30 22072 H 2063.45 -2.40146 1.78802 0
M  V30 22073 H 2061 -1.15415 0.861124 0
M  V30 22074 H 2062.95 -4.21111 0.15591 0
M  V30 22075 H 2061.67 -3.21324 -0.58469 0
M  V30 22076 H 2060.33 -3.32458 1.54491 0
M  V30 22077 H 2059.98 -5.02346 -0.256386 0
M  V30 22078 H 2059.68 -5.71721 1.35679 0
M  V30 22079 H 2061.2 -6.08548 0.500171 0
M  V30 22080 H 2062.62 -5.12939 2.56059 0
M  V30 22081 H 2061.01 -4.98645 3.33876 0
M  V30 22082 H 2062.08 -3.57427 3.2768 0
M  V30 22083 N 2063.43 -0.951342 -1.25647 0
M  V30 22084 C 2064.36 -0.486897 -2.28367 0
M  V30 22085 C 2065.34 0.465072 -1.63619 0
M  V30 22086 O 2066.52 0.364737 -1.90744 0
M  V30 22087 C 2063.65 0.239229 -3.46475 0
M  V30 22088 C 2062.61 -0.627163 -4.2338 0
M  V30 22089 C 2061.93 0.229514 -5.34207 0
M  V30 22090 C 2063.23 -1.90362 -4.86374 0
M  V30 22091 H 2064.93 -1.34542 -2.67467 0
M  V30 22092 H 2062.47 -0.648383 -1.28577 0
M  V30 22093 H 2064.43 0.575251 -4.17455 0
M  V30 22094 H 2063.15 1.13197 -3.06356 0
M  V30 22095 H 2061.81 -0.946222 -3.54178 0
M  V30 22096 H 2061.46 1.12192 -4.90328 0
M  V30 22097 H 2061.16 -0.346852 -5.86575 0
M  V30 22098 H 2062.68 0.560578 -6.08021 0
M  V30 22099 H 2064.1 -1.63422 -5.49515 0
M  V30 22100 H 2062.49 -2.42538 -5.48904 0
M  V30 22101 H 2063.56 -2.60876 -4.08744 0
M  V30 22102 N 2064.91 1.40216 -0.719531 0
M  V30 22103 C 2066.32 1.54673 -0.393494 0
M  V30 22104 C 2066.52 1.69001 1.09732 0
M  V30 22105 O 2065.58 1.6818 1.88339 0
M  V30 22106 C 2066.89 2.77299 -1.163 0
M  V30 22107 C 2068.44 2.9112 -1.14969 0
M  V30 22108 C 2068.91 4.16665 -1.90143 0
M  V30 22109 N 2070.4 4.23673 -1.87232 0
M  V30 22110 C 2071.14 5.19729 -2.42219 0
M  V30 22111 N 2070.64 6.21669 -3.05778 0
M  V30 22112 N 2072.43 5.11835 -2.32338 0
M  V30 22113 H 2064.58 1.29162 -1.68614 0
M  V30 22114 H 2066.84 0.624867 -0.712914 0
M  V30 22115 H 2066.55 2.73003 -2.21726 0
M  V30 22116 H 2066.42 3.69521 -0.757213 0
M  V30 22117 H 2068.81 2.94918 -0.103615 0
M  V30 22118 H 2068.89 2.00005 -1.59473 0
M  V30 22119 H 2068.53 4.13629 -2.94744 0
M  V30 22120 H 2068.46 5.06796 -1.43057 0
M  V30 22121 H 2070.96 3.50645 -1.40914 0
M  V30 22122 H 2071.27 6.91396 -3.45241 0
M  V30 22123 H 2069.61 6.22101 -3.09863 0
M  V30 22124 H 2072.8 4.31127 -1.82338 0
M  V30 22125 H 2072.98 5.86522 -2.75492 0
M  V30 22126 N 2066.38 0.466004 1.50553 0
M  V30 22127 C 2067.29 -0.33625 2.32178 0
M  V30 22128 C 2068.31 -1.00081 1.42337 0
M  V30 22129 O 2069.49 -0.989904 1.75393 0
M  V30 22130 C 2066.55 -1.40682 3.16875 0
M  V30 22131 C 2065.61 -0.759384 4.2253 0
M  V30 22132 C 2064.84 -1.77894 5.03179 0
M  V30 22133 O 2065.07 -3.00483 4.84836 0
M  V30 22134 O 2064 -1.35358 5.86483 0
M  V30 22135 H 2067.83 0.330908 3.01892 0
M  V30 22136 H 2065.41 0.22795 1.47651 0
M  V30 22137 H 2067.29 -2.02704 3.69444 0
M  V30 22138 H 2065.97 -2.05753 2.49894 0
M  V30 22139 H 2064.88 -0.100338 3.73965 0
M  V30 22140 H 2066.21 -0.151694 4.91966 0
M  V30 22141 N 2067.86 -1.56346 0.198413 0
M  V30 22142 C 2068.81 -2.19245 -0.721128 0
M  V30 22143 C 2069.78 -1.14072 -1.20735 0
M  V30 22144 O 2070.96 -1.42336 -1.27063 0
M  V30 22145 C 2068.1 -2.85839 -1.93365 0
M  V30 22146 C 2067.22 -4.05546 -1.48849 0
M  V30 22147 C 2066.35 -4.59988 -2.65678 0
M  V30 22148 C 2065.39 -5.72046 -2.17784 0
M  V30 22149 N 2064.53 -6.20879 -3.27802 0
M  V30 22150 H 2069.37 -2.97468 -0.178003 0
M  V30 22151 H 2066.9 -1.46903 -0.076117 0
M  V30 22152 H 2068.86 -3.2262 -2.64522 0
M  V30 22153 H 2067.49 -2.10174 -2.45004 0
M  V30 22154 H 2066.54 -3.74405 -0.672674 0
M  V30 22155 H 2067.86 -4.86584 -1.09713 0
M  V30 22156 H 2067.01 -4.99092 -3.44952 0
M  V30 22157 H 2065.75 -3.78064 -3.08089 0
M  V30 22158 H 2064.75 -5.32467 -1.36964 0
M  V30 22159 H 2065.98 -6.5579 -1.76399 0
M  V30 22160 H 2063.93 -5.41876 -3.69738 0
M  V30 22161 H 2063.84 -6.96977 -2.92845 0
M  V30 22162 H 2065.11 -6.64637 -4.07281 0
M  V30 22163 N 2069.34 0.0751653 -1.57421 0
M  V30 22164 C 2070.27 1.09007 -2.06494 0
M  V30 22165 C 2071.25 1.40573 -0.957766 0
M  V30 22166 O 2072.44 1.50259 -1.23028 0
M  V30 22167 C 2069.57 2.40446 -2.50605 0
M  V30 22168 C 2068.52 2.2324 -3.65168 0
M  V30 22169 C 2067.85 3.60033 -3.95323 0
M  V30 22170 C 2069.15 1.65642 -4.95338 0
M  V30 22171 H 2070.84 0.681725 -2.91535 0
M  V30 22172 H 2068.39 0.326481 -1.4025 0
M  V30 22173 H 2070.34 3.11734 -2.83548 0
M  V30 22174 H 2069.06 2.83254 -1.62588 0
M  V30 22175 H 2067.72 1.54393 -3.32503 0
M  V30 22176 H 2067.37 4.00404 -3.04443 0
M  V30 22177 H 2067.07 3.4936 -4.72463 0
M  V30 22178 H 2068.59 4.32757 -4.30759 0
M  V30 22179 H 2070.01 2.26793 -5.26534 0
M  V30 22180 H 2068.41 1.65675 -5.76777 0
M  V30 22181 H 2069.48 0.617593 -4.80951 0
M  V30 22182 N 2070.82 1.53744 0.346476 0
M  V30 22183 C 2071.73 1.84516 1.44883 0
M  V30 22184 C 2072.74 0.735054 1.57712 0
M  V30 22185 O 2073.92 1.02706 1.73244 0
M  V30 22186 C 2070.99 2.04576 2.7991 0
M  V30 22187 C 2070.05 3.28442 2.7645 0
M  V30 22188 C 2069.28 3.47536 4.05036 0
M  V30 22189 O 2069.5 2.70527 5.02167 0
M  V30 22190 O 2068.44 4.40955 4.09686 0
M  V30 22191 H 2072.26 2.78207 1.21797 0
M  V30 22192 H 2069.85 1.39362 0.53838 0
M  V30 22193 H 2071.73 2.19232 3.59882 0
M  V30 22194 H 2070.4 1.14074 3.02934 0
M  V30 22195 H 2069.31 3.19192 1.95108 0
M  V30 22196 H 2070.64 4.18928 2.5838 0
M  V30 22197 N 2072.3 -0.607329 1.45428 0
M  V30 22198 C 2073.52 -1.39296 1.52984 0
M  V30 22199 C 2073.94 -1.88099 0.162539 0
M  V30 22200 O 2073.3 -1.62229 -0.835945 0
M  V30 22201 C 2073.35 -2.59727 2.51444 0
M  V30 22202 O 2073.07 -2.12952 3.82862 0
M  V30 22203 C 2074.57 -3.52583 2.68701 0
M  V30 22204 H 2071.79 -0.426391 0.518104 0
M  V30 22205 H 2074.33 -0.740646 1.90617 0
M  V30 22206 H 2072.49 -3.20999 2.16883 0
M  V30 22207 H 2072.9 -2.91201 4.36237 0
M  V30 22208 H 2074.38 -4.33629 3.4157 0
M  V30 22209 H 2074.85 -4.0294 1.74746 0
M  V30 22210 H 2075.46 -2.97163 3.0426 0
M  V30 22211 N 2073.77 -1.32722 -0.849853 0
M  V30 22212 C 2074.74 -1.21991 -1.94038 0
M  V30 22213 C 2075.74 -0.141727 -1.60174 0
M  V30 22214 O 2076.93 -0.392477 -1.69721 0
M  V30 22215 C 2074.06 -0.877223 -3.2942 0
M  V30 22216 H 2075.25 -2.18913 -2.04981 0
M  V30 22217 H 2072.81 -1.16623 -1.04062 0
M  V30 22218 H 2073.54 0.0899704 -3.24175 0
M  V30 22219 H 2073.33 -1.65681 -3.55376 0
M  V30 22220 H 2074.82 -0.826588 -4.09338 0
M  V30 22221 N 2075.25 1.06673 -1.16011 0
M  V30 22222 C 2076.18 2.13994 -0.820931 0
M  V30 22223 C 2077.2 1.61909 0.170124 0
M  V30 22224 O 2078.39 1.78418 -0.0540947 0
M  V30 22225 C 2075.49 3.38304 -0.200883 0
M  V30 22226 C 2074.66 4.19718 -1.23108 0
M  V30 22227 C 2073.72 5.22396 -0.631544 0
M  V30 22228 O 2072.74 5.54171 -1.29936 0
M  V30 22229 N 2073.95 5.7756 0.583519 0
M  V30 22230 H 2076.71 2.43691 -1.74456 0
M  V30 22231 H 2074.27 1.2264 -1.05693 0
M  V30 22232 H 2076.26 4.04138 0.213139 0
M  V30 22233 H 2074.83 3.06263 0.626218 0
M  V30 22234 H 2074.05 3.49597 -1.82142 0
M  V30 22235 H 2075.34 4.7092 -1.92644 0
M  V30 22236 H 2074.74 5.54005 1.14432 0
M  V30 22237 H 2073.3 6.44989 0.939804 0
M  V30 22238 N 2076.73 0.957992 1.25141 0
M  V30 22239 C 2078.15 0.662955 1.45179 0
M  V30 22240 C 2078.35 -0.778426 1.85857 0
M  V30 22241 O 2077.4 -1.55337 1.99065 0
M  V30 22242 C 2078.72 1.63876 2.52121 0
M  V30 22243 C 2080.26 1.65031 2.65958 0
M  V30 22244 C 2080.74 2.61384 3.76089 0
M  V30 22245 N 2082.23 2.59768 3.83503 0
M  V30 22246 C 2082.96 3.30999 4.68217 0
M  V30 22247 N 2082.46 4.11715 5.57192 0
M  V30 22248 N 2084.25 3.1987 4.62211 0
M  V30 22249 H 2076.4 1.88941 0.97031 0
M  V30 22250 H 2078.67 0.812898 0.487751 0
M  V30 22251 H 2078.37 2.66846 2.29098 0
M  V30 22252 H 2078.25 1.4039 3.50101 0
M  V30 22253 H 2080.63 0.627761 2.88346 0
M  V30 22254 H 2080.72 1.92576 1.68369 0
M  V30 22255 H 2080.36 3.63767 3.54452 0
M  V30 22256 H 2080.29 2.31121 4.73171 0
M  V30 22257 H 2082.78 2.01172 3.19903 0
M  V30 22258 H 2083.09 4.62978 6.18766 0
M  V30 22259 H 2081.44 4.15812 5.56889 0
M  V30 22260 H 2084.63 2.56282 3.91711 0
M  V30 22261 H 2084.8 3.75649 5.28008 0
M  V30 22262 N 2078.21 -1.39832 0.726957 0
M  V30 22263 C 2079.62 -1.83534 0.342368 0
M  V30 22264 C 2079.97 -1.6075 -1.12489 0
M  V30 22265 O 2079.1 -1.09438 -1.86688 0
M  V30 22266 C 2079.69 -3.33178 0.614625 0
M  V30 22267 C 2078.25 -3.7533 0.283621 0
M  V30 22268 C 2077.4 -2.62923 0.881297 0
M  V30 22269 H 2080.35 -1.28939 0.925229 0
M  V30 22270 H 2080.37 -3.80322 -0.116329 0
M  V30 22271 H 2079.88 -3.49729 1.68259 0
M  V30 22272 H 2077.98 -3.64369 -0.778826 0
M  V30 22273 H 2078.09 -4.73025 0.760562 0
M  V30 22274 H 2076.46 -2.52825 0.308504 0
M  V30 22275 H 2077.24 -2.82282 1.95375 0
M  V30 22276 N 2079.69 -0.473982 -1.50304 0
M  V30 22277 C 2080.93 0.0801282 -2.02642 0
M  V30 22278 C 2081.27 1.3911 -1.35506 0
M  V30 22279 O 2080.54 1.8844 -0.481719 0
M  V30 22280 C 2080.82 0.26092 -3.59153 0
M  V30 22281 C 2080.68 -1.07128 -4.36857 0
M  V30 22282 C 2082 1.01413 -4.28256 0
M  V30 22283 H 2079.11 0.0276467 -0.736481 0
M  V30 22284 H 2081.76 -0.620135 -1.79595 0
M  V30 22285 H 2079.91 0.857378 -3.78921 0
M  V30 22286 H 2081.58 -1.70454 -4.28653 0
M  V30 22287 H 2079.82 -1.66721 -4.00483 0
M  V30 22288 H 2080.49 -0.898389 -5.4464 0
M  V30 22289 H 2082.97 0.508536 -4.12981 0
M  V30 22290 H 2081.84 1.10943 -5.37571 0
M  V30 22291 H 2082.11 2.05141 -3.91624 0
M  V30 22292 N 2081.16 1.56239 -0.206702 0
M  V30 22293 C 2082.58 1.84211 0.303832 0
M  V30 22294 C 2082.93 1.12771 1.60552 0
M  V30 22295 O 2082.05 0.392383 2.12813 0
M  V30 22296 C 2082.65 3.34173 0.558041 0
M  V30 22297 C 2081.21 3.62515 1.01292 0
M  V30 22298 C 2080.35 2.77217 0.0678344 0
M  V30 22299 H 2083.3 1.52757 -0.430235 0
M  V30 22300 H 2083.32 3.53573 1.40593 0
M  V30 22301 H 2082.84 3.8614 -0.38952 0
M  V30 22302 H 2080.94 3.15991 1.97435 0
M  V30 22303 H 2081.05 4.70617 0.8976 0
M  V30 22304 H 2079.41 2.48197 0.571888 0
M  V30 22305 H 2080.2 3.31978 -0.874377 0
M  V30 22306 N 2082.64 -0.0668159 1.57458 0
M  V30 22307 C 2083.55 -1.09665 2.0739 0
M  V30 22308 C 2084.57 -1.4208 1.00446 0
M  V30 22309 O 2085.74 -1.52157 1.31948 0
M  V30 22310 C 2082.81 -2.38952 2.51203 0
M  V30 22311 C 2081.87 -2.13463 3.72468 0
M  V30 22312 C 2081.1 -3.36585 4.14181 0
M  V30 22313 O 2081.33 -4.45889 3.55723 0
M  V30 22314 O 2080.26 -3.24505 5.06932 0
M  V30 22315 H 2084.09 -0.702443 2.95465 0
M  V30 22316 H 2081.67 -0.281287 1.46728 0
M  V30 22317 H 2083.55 -3.1503 2.79883 0
M  V30 22318 H 2082.23 -2.77742 1.66256 0
M  V30 22319 H 2081.14 -1.35074 3.48864 0
M  V30 22320 H 2082.47 -1.7955 4.58282 0
M  V30 22321 N 2084.12 -1.53926 -0.338317 0
M  V30 22322 C 2085.08 -1.81578 -1.39865 0
M  V30 22323 C 2086.08 -0.687011 -1.45385 0
M  V30 22324 O 2087.27 -0.955305 -1.45669 0
M  V30 22325 C 2084.41 -1.96252 -2.78744 0
M  V30 22326 H 2085.6 -2.76302 -1.16608 0
M  V30 22327 H 2083.15 -1.45418 -0.572996 0
M  V30 22328 H 2083.89 -1.03688 -3.07277 0
M  V30 22329 H 2083.67 -2.78376 -2.76133 0
M  V30 22330 H 2085.16 -2.19144 -3.5548 0
M  V30 22331 N 2085.6 0.599608 -1.45748 0
M  V30 22332 C 2086.53 1.72038 -1.57877 0
M  V30 22333 C 2087.51 1.64578 -0.429893 0
M  V30 22334 O 2088.7 1.82855 -0.654037 0
M  V30 22335 C 2085.83 3.10657 -1.55272 0
M  V30 22336 C 2084.78 3.32936 -2.68957 0
M  V30 22337 C 2084.11 4.71909 -2.51408 0
M  V30 22338 C 2085.41 3.22412 -4.10911 0
M  V30 22339 H 2087.1 1.62144 -2.51694 0
M  V30 22340 H 2084.65 0.778641 -1.21133 0
M  V30 22341 H 2086.6 3.8887 -1.62353 0
M  V30 22342 H 2085.32 3.21411 -0.579891 0
M  V30 22343 H 2083.98 2.57117 -2.61317 0
M  V30 22344 H 2083.63 4.79406 -1.52247 0
M  V30 22345 H 2083.33 4.8777 -3.2765 0
M  V30 22346 H 2084.85 5.52311 -2.60355 0
M  V30 22347 H 2086.27 3.90488 -4.19752 0
M  V30 22348 H 2084.66 3.498 -4.87607 0
M  V30 22349 H 2085.73 2.19732 -4.32256 0
M  V30 22350 N 2087.08 1.33171 0.842803 0
M  V30 22351 C 2088.3 1.27579 1.63519 0
M  V30 22352 C 2088.73 -0.151151 1.87492 0
M  V30 22353 O 2088.09 -1.10648 1.4362 0
M  V30 22354 C 2088.13 2.05261 2.9648 0
M  V30 22355 O 2087.24 1.40852 3.87601 0
M  V30 22356 H 2086.58 0.439106 0.498078 0
M  V30 22357 H 2089.11 1.75672 1.04883 0
M  V30 22358 H 2089.12 2.15879 3.46209 0
M  V30 22359 H 2087.79 3.09018 2.78354 0
M  V30 22360 H 2086.37 1.38855 3.46083 0
M  V30 22361 N 2088.56 -1.06056 1.16576 0
M  V30 22362 C 2089.97 -1.60363 0.956067 0
M  V30 22363 C 2090.32 -1.89737 -0.499436 0
M  V30 22364 O 2089.44 -1.67257 -1.3731 0
M  V30 22365 C 2090.04 -2.91353 1.72913 0
M  V30 22366 C 2088.6 -3.42352 1.56436 0
M  V30 22367 C 2087.74 -2.1621 1.73633 0
M  V30 22368 H 2090.69 -0.889768 1.31411 0
M  V30 22369 H 2090.72 -3.6087 1.20636 0
M  V30 22370 H 2090.23 -2.69942 2.78842 0
M  V30 22371 H 2088.33 -3.68817 0.529577 0
M  V30 22372 H 2088.44 -4.17519 2.34978 0
M  V30 22373 H 2086.81 -2.26548 1.16396 0
M  V30 22374 H 2087.59 -1.97279 2.80955 0
M  V30 22375 N 2090.03 -0.964615 -1.24631 0
M  V30 22376 C 2091 -0.497206 -2.23742 0
M  V30 22377 C 2092 0.404569 -1.55627 0
M  V30 22378 O 2093.19 0.200461 -1.73043 0
M  V30 22379 C 2090.32 0.280348 -3.39745 0
M  V30 22380 H 2091.51 -1.37334 -2.66607 0
M  V30 22381 H 2089.06 -0.748889 -1.37191 0
M  V30 22382 H 2089.8 1.17372 -3.02315 0
M  V30 22383 H 2089.58 -0.366741 -3.90381 0
M  V30 22384 H 2091.07 0.596501 -4.13318 0
M  V30 22385 N 2091.51 1.39445 -0.734362 0
M  V30 22386 C 2092.76 2.00526 -0.282025 0
M  V30 22387 C 2093.09 1.58268 1.13055 0
M  V30 22388 O 2092.34 0.802491 1.7849 0
M  V30 22389 C 2092.64 3.55865 -0.330927 0
M  V30 22390 C 2092.31 4.1777 -1.69643 0
M  V30 22391 C 2090.97 4.34393 -2.07017 0
M  V30 22392 C 2093.32 4.52119 -2.59302 0
M  V30 22393 C 2090.65 4.82653 -3.3356 0
M  V30 22394 C 2093 5.01788 -3.85217 0
M  V30 22395 C 2091.66 5.16618 -4.22684 0
M  V30 22396 H 2090.93 0.733778 -0.1032 0
M  V30 22397 H 2093.58 1.66781 -0.94108 0
M  V30 22398 H 2091.89 3.89631 0.411703 0
M  V30 22399 H 2093.58 4.00983 0.0371893 0
M  V30 22400 H 2090.17 4.05233 -1.39584 0
M  V30 22401 H 2094.36 4.38896 -2.31698 0
M  V30 22402 H 2089.61 4.9232 -3.62534 0
M  V30 22403 H 2093.79 5.27339 -4.54848 0
M  V30 22404 H 2091.41 5.53775 -5.20805 0
M  V30 22405 N 2092.99 0.481946 1.5005 0
M  V30 22406 C 2094.21 -0.0688814 2.07286 0
M  V30 22407 C 2094.64 -1.3178 1.34222 0
M  V30 22408 O 2094 -1.76986 0.393135 0
M  V30 22409 C 2094.05 -0.324885 3.59133 0
M  V30 22410 O 2093.15 -1.40333 3.87789 0
M  V30 22411 H 2092.49 0.0177812 0.663762 0
M  V30 22412 H 2095.02 0.676104 1.93106 0
M  V30 22413 H 2095.03 -0.562135 4.04109 0
M  V30 22414 H 2093.71 0.587698 4.11727 0
M  V30 22415 H 2092.28 -1.15253 3.54642 0
M  V30 22416 N 2094.47 -1.56127 0.214985 0
M  V30 22417 C 2095.38 -2.2362 -0.709323 0
M  V30 22418 C 2096.39 -1.24168 -1.21895 0
M  V30 22419 O 2097.57 -1.56962 -1.26194 0
M  V30 22420 C 2094.63 -2.89781 -1.90337 0
M  V30 22421 C 2093.7 -4.04558 -1.43636 0
M  V30 22422 C 2092.93 -4.67555 -2.57349 0
M  V30 22423 O 2093.15 -4.29521 -3.75324 0
M  V30 22424 O 2092.09 -5.56666 -2.28925 0
M  V30 22425 H 2095.91 -3.03255 -0.164408 0
M  V30 22426 H 2093.5 -1.49392 -0.0151812 0
M  V30 22427 H 2095.38 -3.31565 -2.60082 0
M  V30 22428 H 2094.05 -2.1311 -2.43651 0
M  V30 22429 H 2092.96 -3.67356 -0.707115 0
M  V30 22430 H 2094.29 -4.82951 -0.94967 0
M  V30 22431 N 2095.95 0.0584645 -1.57492 0
M  V30 22432 C 2097.22 0.788828 -1.78988 0
M  V30 22433 C 2097.6 1.95112 -0.805878 0
M  V30 22434 O 2096.95 2.27951 0.158244 0
M  V30 22435 C 2097.16 1.24936 -3.25871 0
M  V30 22436 C 2098.51 1.67732 -3.90066 0
M  V30 22437 O 2099.53 1.34469 -3.29843 0
M  V30 22438 O 2098.39 2.29361 -4.9604 0
M  V30 22439 H 2095.49 0.379032 -0.735027 0
M  V30 22440 H 2098.03 0.0375096 -1.69659 0
M  V30 22441 H 2096.8 0.418302 -3.89058 0
M  V30 22442 H 2096.43 2.06159 -3.39977 0
M  V30 22443 N 2097.42 1.54103 0.330149 0
M  V30 22444 C 2098.65 1.76264 1.09297 0
M  V30 22445 C 2099.07 0.5067 1.81147 0
M  V30 22446 O 2098.43 -0.541409 1.73027 0
M  V30 22447 C 2098.48 2.95141 2.07181 0
M  V30 22448 O 2097.58 2.66226 3.14956 0
M  V30 22449 H 2096.92 0.584284 0.31545 0
M  V30 22450 H 2099.45 2.01107 0.376453 0
M  V30 22451 H 2099.46 3.22305 2.50167 0
M  V30 22452 H 2098.14 3.86224 1.54285 0
M  V30 22453 H 2096.72 2.49992 2.76692 0
M  V30 22454 N 2098.9 -0.59187 1.46064 0
M  V30 22455 C 2099.81 -1.72959 1.585 0
M  V30 22456 C 2100.83 -1.67565 0.468813 0
M  V30 22457 O 2102 -1.87639 0.731679 0
M  V30 22458 C 2099.07 -3.09451 1.56336 0
M  V30 22459 C 2098.13 -3.26179 2.79117 0
M  V30 22460 C 2097.36 -4.56159 2.77046 0
M  V30 22461 O 2097.59 -5.39474 1.85268 0
M  V30 22462 O 2096.52 -4.75937 3.68466 0
M  V30 22463 H 2100.35 -1.65416 2.54699 0
M  V30 22464 H 2097.93 -0.757834 1.28753 0
M  V30 22465 H 2099.81 -3.90742 1.57793 0
M  V30 22466 H 2098.49 -3.17451 0.632949 0
M  V30 22467 H 2097.4 -2.44416 2.83217 0
M  V30 22468 H 2098.73 -3.23064 3.71336 0
M  V30 22469 N 2100.38 -1.33616 -0.835729 0
M  V30 22470 C 2101.61 -1.28444 -1.6284 0
M  V30 22471 C 2102.03 0.141205 -1.87569 0
M  V30 22472 O 2101.39 1.09885 -1.44205 0
M  V30 22473 C 2101.44 -2.0683 -2.95387 0
M  V30 22474 O 2100.54 -1.42905 -3.86849 0
M  V30 22475 H 2099.88 -0.441742 -0.495742 0
M  V30 22476 H 2102.41 -1.76226 -1.0395 0
M  V30 22477 H 2102.42 -2.17712 -3.45059 0
M  V30 22478 H 2101.1 -3.1049 -2.76711 0
M  V30 22479 H 2099.67 -1.40689 -3.45342 0
M  V30 22480 N 2101.86 1.05436 -1.17136 0
M  V30 22481 C 2102.81 2.11403 -0.853984 0
M  V30 22482 C 2103.79 1.59995 0.170369 0
M  V30 22483 O 2104.98 1.76972 -0.0317102 0
M  V30 22484 C 2102.11 3.4134 -0.366345 0
M  V30 22485 C 2101.2 3.9955 -1.42198 0
M  V30 22486 N 2101.59 4.31757 -2.63476 0
M  V30 22487 C 2099.89 4.2726 -1.27926 0
M  V30 22488 C 2100.59 4.78146 -3.31287 0
M  V30 22489 N 2099.57 4.78114 -2.58665 0
M  V30 22490 H 2103.37 2.34162 -1.77611 0
M  V30 22491 H 2100.88 1.23061 -1.05971 0
M  V30 22492 H 2102.88 4.16726 -0.120535 0
M  V30 22493 H 2101.54 3.20015 0.549603 0
M  V30 22494 H 2102.55 4.21833 -3.00461 0
M  V30 22495 H 2099.23 4.15334 -0.424764 0
M  V30 22496 H 2100.62 5.12198 -4.34859 0
M  V30 22497 N 2103.34 0.971211 1.24118 0
M  V30 22498 C 2104.58 0.633768 1.91906 0
M  V30 22499 C 2104.91 -0.834157 1.76258 0
M  V30 22500 O 2104.18 -1.59579 1.13628 0
M  V30 22501 H 2102.76 0.231413 0.710251 0
M  V30 22502 H 2105.42 1.23304 1.50938 0
M  V30 22503 H 2104.51 0.877411 2.99513 0
M  V30 22504 N 2104.81 -1.39054 0.741747 0
M  V30 22505 C 2106.04 -2.05193 0.301789 0
M  V30 22506 C 2106.46 -1.55567 -1.05739 0
M  V30 22507 O 2105.82 -0.702382 -1.67141 0
M  V30 22508 C 2105.87 -3.59172 0.320615 0
M  V30 22509 O 2104.97 -4.06596 -0.68946 0
M  V30 22510 H 2104.32 -0.649957 0.135837 0
M  V30 22511 H 2106.85 -1.77958 1.00956 0
M  V30 22512 H 2106.86 -4.07657 0.167351 0
M  V30 22513 H 2105.53 -3.94652 1.31234 0
M  V30 22514 H 2104.11 -3.69509 -0.50178 0
M  V30 22515 N 2106.29 -0.489897 -1.49792 0
M  V30 22516 C 2107.52 0.0578875 -2.07319 0
M  V30 22517 C 2107.94 1.31067 -1.34919 0
M  V30 22518 O 2107.3 1.76775 -0.402515 0
M  V30 22519 C 2107.35 0.305835 -3.59301 0
M  V30 22520 O 2106.45 1.38274 -3.88528 0
M  V30 22521 H 2105.79 -0.021301 -0.663658 0
M  V30 22522 H 2108.32 -0.686335 -1.92745 0
M  V30 22523 H 2108.33 0.540697 -4.04401 0
M  V30 22524 H 2107.01 -0.609525 -4.11409 0
M  V30 22525 H 2105.59 1.13371 -3.55248 0
M  V30 22526 N 2107.77 1.56011 -0.223262 0
M  V30 22527 C 2109 2.03189 0.415817 0
M  V30 22528 C 2109.42 1.102 1.52439 0
M  V30 22529 O 2108.78 0.0904999 1.81074 0
M  V30 22530 C 2108.83 3.48586 0.923053 0
M  V30 22531 O 2107.93 3.58734 2.03429 0
M  V30 22532 H 2107.27 0.65733 0.0938783 0
M  V30 22533 H 2109.8 2.01715 -0.342399 0
M  V30 22534 H 2109.81 3.88941 1.23243 0
M  V30 22535 H 2108.49 4.1575 0.11169 0
M  V30 22536 H 2107.06 3.30267 1.73142 0
M  V30 22537 N 2109.25 -0.0501116 1.5752 0
M  V30 22538 C 2110.21 -1.0417 2.0416 0
M  V30 22539 C 2111.21 -1.30309 0.942133 0
M  V30 22540 O 2112.4 -1.25665 1.20639 0
M  V30 22541 C 2109.53 -2.37997 2.4407 0
M  V30 22542 H 2110.73 -0.639249 2.93008 0
M  V30 22543 H 2108.28 -0.296417 1.53464 0
M  V30 22544 H 2109.01 -2.83032 1.58314 0
M  V30 22545 H 2108.8 -2.2036 3.2432 0
M  V30 22546 H 2110.29 -3.09229 2.80654 0
M  V30 22547 N 2110.73 -1.54276 -0.321972 0
M  V30 22548 C 2111.95 -1.76841 -1.0836 0
M  V30 22549 C 2112.38 -0.5163 -1.80876 0
M  V30 22550 O 2111.73 0.532225 -1.73312 0
M  V30 22551 C 2111.78 -2.96236 -2.05613 0
M  V30 22552 O 2110.89 -2.67893 -3.1354 0
M  V30 22553 H 2110.23 -0.585948 -0.312347 0
M  V30 22554 H 2112.76 -2.01304 -0.365783 0
M  V30 22555 H 2112.77 -3.23627 -2.48455 0
M  V30 22556 H 2111.44 -3.87037 -1.52234 0
M  V30 22557 H 2110.02 -2.51456 -2.75362 0
M  V30 22558 N 2112.2 0.584116 -1.46376 0
M  V30 22559 C 2113.43 1.37331 -1.55419 0
M  V30 22560 C 2113.85 1.87082 -0.195472 0
M  V30 22561 O 2113.21 1.61486 0.824141 0
M  V30 22562 C 2113.26 2.53779 -2.56181 0
M  V30 22563 O 2112.36 3.55172 -2.09586 0
M  V30 22564 H 2111.71 0.409042 -0.523049 0
M  V30 22565 H 2114.24 0.708655 -1.91936 0
M  V30 22566 H 2114.25 3.00715 -2.75744 0
M  V30 22567 H 2112.92 2.16921 -3.5485 0
M  V30 22568 H 2111.5 3.14726 -2.00005 0
M  V30 22569 N 2113.68 1.34058 0.828631 0
M  V30 22570 C 2115.09 1.2341 1.40095 0
M  V30 22571 C 2115.45 -0.142779 1.9568 0
M  V30 22572 O 2114.57 -1.04286 1.89614 0
M  V30 22573 C 2115.17 2.23441 2.54675 0
M  V30 22574 C 2113.72 2.16602 3.07832 0
M  V30 22575 C 2112.87 2.1036 1.80676 0
M  V30 22576 H 2115.82 1.45507 0.633514 0
M  V30 22577 H 2115.84 1.84809 3.32605 0
M  V30 22578 H 2115.36 3.23642 2.1419 0
M  V30 22579 H 2113.46 1.19738 3.52836 0
M  V30 22580 H 2113.57 3.07604 3.6731 0
M  V30 22581 H 2111.93 1.55992 2.01342 0
M  V30 22582 H 2112.72 3.12386 1.42373 0
M  V30 22583 N 2115.16 -1.04814 1.17694 0
M  V30 22584 C 2116.09 -2.1459 0.920505 0
M  V30 22585 C 2117.07 -1.69531 -0.138953 0
M  V30 22586 O 2118.26 -1.94196 0.0120784 0
M  V30 22587 C 2115.39 -3.44537 0.437198 0
M  V30 22588 C 2114.34 -4.03181 1.43628 0
M  V30 22589 C 2113.67 -5.28517 0.810779 0
M  V30 22590 C 2114.97 -4.40226 2.81066 0
M  V30 22591 H 2116.66 -2.363 1.83856 0
M  V30 22592 H 2114.21 -1.13563 0.885411 0
M  V30 22593 H 2116.16 -4.20686 0.245199 0
M  V30 22594 H 2114.88 -3.22492 -0.516401 0
M  V30 22595 H 2113.54 -3.29106 1.61508 0
M  V30 22596 H 2113.19 -5.02777 -0.149773 0
M  V30 22597 H 2112.89 -5.68714 1.47776 0
M  V30 22598 H 2114.42 -6.0735 0.62914 0
M  V30 22599 H 2115.83 -5.07393 2.66881 0
M  V30 22600 H 2114.23 -4.91451 3.44377 0
M  V30 22601 H 2115.3 -3.50396 3.35188 0
M  V30 22602 N 2116.64 -0.977779 -1.23601 0
M  V30 22603 C 2117.86 -0.662789 -1.96524 0
M  V30 22604 C 2118.29 0.763086 -1.71926 0
M  V30 22605 O 2117.65 1.51941 -0.989123 0
M  V30 22606 C 2117.7 -0.95584 -3.47701 0
M  V30 22607 O 2116.8 -0.046501 -4.12374 0
M  V30 22608 H 2116.14 -0.249541 -0.615325 0
M  V30 22609 H 2118.67 -1.31066 -1.57108 0
M  V30 22610 H 2118.68 -0.891475 -3.98142 0
M  V30 22611 H 2117.36 -1.99494 -3.64932 0
M  V30 22612 H 2115.93 -0.165051 -3.72535 0
M  V30 22613 N 2118.12 1.38658 -0.749111 0
M  V30 22614 C 2119.08 2.28849 -0.126757 0
M  V30 22615 C 2120.08 1.46977 0.652253 0
M  V30 22616 O 2121.27 1.6748 0.479181 0
M  V30 22617 C 2118.4 3.30665 0.829083 0
M  V30 22618 H 2119.6 2.85391 -0.921529 0
M  V30 22619 H 2117.15 1.47543 -0.515832 0
M  V30 22620 H 2117.88 2.79205 1.6497 0
M  V30 22621 H 2117.67 3.91149 0.272946 0
M  V30 22622 H 2119.16 3.98117 1.26067 0
M  V30 22623 N 2119.6 0.497834 1.49531 0
M  V30 22624 C 2120.51 -0.286926 2.32839 0
M  V30 22625 C 2121.52 -0.970397 1.44427 0
M  V30 22626 O 2122.7 -0.952478 1.77454 0
M  V30 22627 C 2119.76 -1.33928 3.19788 0
M  V30 22628 C 2118.82 -0.669588 4.24046 0
M  V30 22629 C 2118.06 -1.67181 5.0684 0
M  V30 22630 O 2118.28 -2.90132 4.91101 0
M  V30 22631 O 2117.21 -1.22887 5.89222 0
M  V30 22632 H 2121.04 0.394869 3.01122 0
M  V30 22633 H 2118.62 0.259218 1.47134 0
M  V30 22634 H 2120.51 -1.94822 3.73661 0
M  V30 22635 H 2119.18 -2.00407 2.54202 0
M  V30 22636 H 2118.09 -0.0209922 3.74094 0
M  V30 22637 H 2119.42 -0.0473067 4.92177 0
M  V30 22638 N 2121.07 -1.5589 0.231532 0
M  V30 22639 C 2122.32 -1.98169 -0.396667 0
M  V30 22640 C 2122.64 -1.12067 -1.59581 0
M  V30 22641 O 2121.91 -0.199942 -1.94877 0
M  V30 22642 H 2120.49 -0.731878 -0.149544 0
M  V30 22643 H 2123.15 -1.92142 0.326749 0
M  V30 22644 H 2122.25 -3.0377 -0.716243 0
M  V30 22645 N 2122.55 0.0417572 -1.57545 0
M  V30 22646 C 2123.97 0.397174 -1.54579 0
M  V30 22647 C 2124.17 1.77381 -0.955943 0
M  V30 22648 O 2123.22 2.45948 -0.571457 0
M  V30 22649 C 2124.54 0.310665 -2.99091 0
M  V30 22650 C 2126.08 0.388675 -3.10577 0
M  V30 22651 C 2126.56 0.331754 -4.56797 0
M  V30 22652 N 2128.05 0.390933 -4.61547 0
M  V30 22653 C 2128.79 0.36958 -5.72208 0
M  V30 22654 N 2128.28 0.301264 -6.92145 0
M  V30 22655 N 2130.07 0.41837 -5.60541 0
M  V30 22656 H 2122.23 -0.859292 -1.94242 0
M  V30 22657 H 2124.49 -0.325513 -0.890362 0
M  V30 22658 H 2124.19 -0.634841 -3.45923 0
M  V30 22659 H 2124.07 1.10929 -3.6052 0
M  V30 22660 H 2126.46 1.32461 -2.63701 0
M  V30 22661 H 2126.54 -0.439073 -2.52004 0
M  V30 22662 H 2126.18 -0.60046 -5.04338 0
M  V30 22663 H 2126.11 1.17744 -5.13268 0
M  V30 22664 H 2128.6 0.44676 -3.7525 0
M  V30 22665 H 2128.91 0.289723 -7.72257 0
M  V30 22666 H 2127.26 0.2675 -6.94485 0
M  V30 22667 H 2130.45 0.469643 -4.65738 0
M  V30 22668 H 2130.62 0.398261 -6.46775 0
M  V30 22669 N 2124.03 1.54445 0.313786 0
M  V30 22670 C 2125.44 1.64251 0.887611 0
M  V30 22671 C 2125.79 0.542877 1.8854 0
M  V30 22672 O 2124.92 -0.322627 2.13981 0
M  V30 22673 C 2125.51 2.97739 1.61668 0
M  V30 22674 C 2124.07 3.09709 2.13909 0
M  V30 22675 C 2123.22 2.5987 0.967618 0
M  V30 22676 H 2126.17 1.58438 0.091111 0
M  V30 22677 H 2126.19 2.88447 2.4815 0
M  V30 22678 H 2125.7 3.77752 0.890231 0
M  V30 22679 H 2123.8 2.34391 2.89641 0
M  V30 22680 H 2123.92 4.15667 2.38239 0
M  V30 22681 H 2122.28 2.16006 1.34957 0
M  V30 22682 H 2123.06 3.42349 0.255325 0
M  V30 22683 N 2125.51 -0.576345 1.46683 0
M  V30 22684 C 2126.73 -1.36505 1.56145 0
M  V30 22685 C 2127.16 -1.86975 0.20539 0
M  V30 22686 O 2126.52 -1.6192 -0.815566 0
M  V30 22687 C 2126.56 -2.52417 2.57523 0
M  V30 22688 O 2125.67 -3.54056 2.11467 0
M  V30 22689 H 2125.01 -0.406262 0.525211 0
M  V30 22690 H 2127.54 -0.698466 1.92309 0
M  V30 22691 H 2127.55 -2.99248 2.77335 0
M  V30 22692 H 2126.22 -2.15036 3.55995 0
M  V30 22693 H 2124.8 -3.13661 2.01671 0
M  V30 22694 N 2126.99 -1.34495 -0.82151 0
M  V30 22695 C 2128.4 -1.24152 -1.39439 0
M  V30 22696 C 2128.75 0.1324 -1.95753 0
M  V30 22697 O 2127.87 1.03279 -1.90164 0
M  V30 22698 C 2128.47 -2.24789 -2.53487 0
M  V30 22699 C 2127.03 -2.18232 -3.06679 0
M  V30 22700 C 2126.17 -2.11315 -1.79558 0
M  V30 22701 H 2129.12 -1.45841 -0.625789 0
M  V30 22702 H 2129.15 -1.8657 -3.3162 0
M  V30 22703 H 2128.66 -3.24774 -2.1247 0
M  V30 22704 H 2126.76 -1.21608 -3.52196 0
M  V30 22705 H 2126.87 -3.09548 -3.65673 0
M  V30 22706 H 2125.24 -1.57058 -2.00512 0
M  V30 22707 H 2126.02 -3.13136 -1.40714 0
M  V30 22708 N 2128.46 1.04188 -1.18248 0
M  V30 22709 C 2129.39 2.14099 -0.931872 0
M  V30 22710 C 2130.38 1.69603 0.129961 0
M  V30 22711 O 2131.56 1.94187 -0.0223769 0
M  V30 22712 C 2128.69 3.443 -0.455463 0
M  V30 22713 C 2127.64 4.02414 -1.45764 0
M  V30 22714 C 2126.97 5.2808 -0.838796 0
M  V30 22715 C 2128.27 4.38729 -2.83397 0
M  V30 22716 H 2129.96 2.35321 -1.85106 0
M  V30 22717 H 2127.51 1.13091 -0.891421 0
M  V30 22718 H 2129.46 4.2055 -0.267505 0
M  V30 22719 H 2128.19 3.22761 0.499291 0
M  V30 22720 H 2126.85 3.28245 -1.63251 0
M  V30 22721 H 2126.49 5.02849 0.123108 0
M  V30 22722 H 2126.19 5.67923 -1.5079 0
M  V30 22723 H 2127.72 6.07008 -0.661341 0
M  V30 22724 H 2129.13 5.0597 -2.69568 0
M  V30 22725 H 2127.53 4.89618 -3.46979 0
M  V30 22726 H 2128.6 3.48613 -3.37041 0
M  V30 22727 N 2129.94 0.98432 1.23081 0
M  V30 22728 C 2130.85 0.536158 2.28391 0
M  V30 22729 C 2131.87 -0.410933 1.69078 0
M  V30 22730 O 2133.04 -0.279885 1.99446 0
M  V30 22731 C 2130.11 -0.150493 3.46373 0
M  V30 22732 C 2129.17 0.83849 4.21032 0
M  V30 22733 C 2128.4 0.184512 5.33381 0
M  V30 22734 O 2128.63 -1.02355 5.61141 0
M  V30 22735 O 2127.56 0.885058 5.95357 0
M  V30 22736 H 2131.39 1.41206 2.68877 0
M  V30 22737 H 2128.97 0.752144 1.29086 0
M  V30 22738 H 2130.85 -0.535499 4.17984 0
M  V30 22739 H 2129.53 -1.00109 3.07831 0
M  V30 22740 H 2128.44 1.27427 3.51729 0
M  V30 22741 H 2129.77 1.65802 4.63433 0
M  V30 22742 N 2131.42 -1.38259 0.756453 0
M  V30 22743 C 2132.38 -2.28779 0.138891 0
M  V30 22744 C 2133.38 -1.47321 -0.644449 0
M  V30 22745 O 2134.57 -1.67732 -0.470292 0
M  V30 22746 C 2131.71 -3.311 -0.811535 0
M  V30 22747 H 2132.9 -2.84898 0.936651 0
M  V30 22748 H 2130.45 -1.47267 0.52365 0
M  V30 22749 H 2131.19 -2.80076 -1.63487 0
M  V30 22750 H 2130.97 -3.91288 -0.252199 0
M  V30 22751 H 2132.46 -3.9878 -1.23953 0
M  V30 22752 N 2132.9 -0.505757 -1.49264 0
M  V30 22753 C 2134.31 -0.0591588 -1.86606 0
M  V30 22754 C 2134.66 1.35636 -1.41765 0
M  V30 22755 O 2133.79 2.01164 -0.797622 0
M  V30 22756 C 2134.38 -0.100581 -3.38651 0
M  V30 22757 C 2132.94 0.290698 -3.75276 0
M  V30 22758 C 2132.09 -0.471033 -2.7327 0
M  V30 22759 H 2135.04 -0.718294 -1.41514 0
M  V30 22760 H 2135.06 0.693588 -3.74125 0
M  V30 22761 H 2134.57 -1.13093 -3.71257 0
M  V30 22762 H 2132.67 1.3241 -3.48279 0
M  V30 22763 H 2132.78 -0.0320604 -4.79089 0
M  V30 22764 H 2131.15 0.0797288 -2.54575 0
M  V30 22765 H 2131.93 -1.50155 -3.0872 0
M  V30 22766 N 2134.38 1.55765 -0.239796 0
M  V30 22767 C 2135.32 2.22467 0.679046 0
M  V30 22768 C 2136.32 1.20993 1.18562 0
M  V30 22769 O 2137.52 1.39024 1.14334 0
M  V30 22770 H 2133.9 0.713528 0.237447 0
M  V30 22771 H 2135.87 2.98254 0.0932403 0
M  V30 22772 C 2134.62 2.93244 1.86825 0
M  V30 22773 H 2133.94 3.71094 1.48759 0
M  V30 22774 H 2135.38 3.43289 2.48855 0
M  V30 22775 C 2133.84 1.96721 2.735 0
M  V30 22776 O 2134.37 1.49575 3.72814 0
M  V30 22777 N 2132.58 1.63976 2.39917 0
M  V30 22778 H 2132.12 2.02511 1.59208 0
M  V30 22779 H 2132.08 0.996588 2.98187 0
M  V30 22780 N 2135.85 -0.0334016 1.57565 0
M  V30 22781 C 2136.76 -1.05241 2.0967 0
M  V30 22782 C 2137.78 -1.39917 1.03437 0
M  V30 22783 O 2138.96 -1.49324 1.35146 0
M  V30 22784 C 2136.02 -2.3357 2.56215 0
M  V30 22785 C 2135.08 -2.05514 3.76912 0
M  V30 22786 C 2134.32 -3.27724 4.21227 0
M  V30 22787 O 2134.54 -4.38244 3.65101 0
M  V30 22788 O 2133.47 -3.13679 5.13701 0
M  V30 22789 H 2137.3 -0.639612 2.96888 0
M  V30 22790 H 2134.88 -0.250101 1.47292 0
M  V30 22791 H 2136.77 -3.09022 2.86502 0
M  V30 22792 H 2135.44 -2.74153 1.7211 0
M  V30 22793 H 2134.35 -1.27644 3.5165 0
M  V30 22794 H 2135.68 -1.69789 4.61988 0
M  V30 22795 N 2137.33 -1.54609 -0.305591 0
M  V30 22796 C 2138.75 -1.4572 -0.650988 0
M  V30 22797 C 2138.95 -0.644662 -1.90909 0
M  V30 22798 O 2138 -0.150545 -2.52051 0
M  V30 22799 C 2139.32 -2.89634 -0.808259 0
M  V30 22800 C 2140.87 -2.99648 -0.904441 0
M  V30 22801 C 2141.34 -4.44748 -1.09375 0
M  V30 22802 N 2142.83 -4.48438 -1.16006 0
M  V30 22803 C 2143.57 -5.57887 -1.32474 0
M  V30 22804 N 2143.06 -6.77269 -1.4587 0
M  V30 22805 N 2144.86 -5.45567 -1.35326 0
M  V30 22806 H 2137.01 -2.05909 0.521082 0
M  V30 22807 H 2139.27 -0.932366 0.171455 0
M  V30 22808 H 2138.98 -3.51671 0.0452303 0
M  V30 22809 H 2138.85 -3.36787 -1.69866 0
M  V30 22810 H 2141.24 -2.37727 -1.74842 0
M  V30 22811 H 2141.32 -2.55798 0.00987599 0
M  V30 22812 H 2140.96 -5.07262 -0.25455 0
M  V30 22813 H 2140.89 -4.86224 -2.02222 0
M  V30 22814 H 2143.38 -3.62428 -1.07025 0
M  V30 22815 H 2143.7 -7.56439 -1.58179 0
M  V30 22816 H 2142.04 -6.80143 -1.42934 0
M  V30 22817 H 2145.23 -4.51248 -1.24469 0
M  V30 22818 H 2145.4 -6.30915 -1.47817 0
M  V30 22819 N 2138.81 0.568558 -1.46987 0
M  V30 22820 C 2139.74 1.69147 -1.54668 0
M  V30 22821 C 2140.76 1.56914 -0.433789 0
M  V30 22822 O 2141.94 1.6408 -0.702853 0
M  V30 22823 C 2139.04 3.07522 -1.4242 0
M  V30 22824 C 2138.22 3.45619 -2.68078 0
M  V30 22825 C 2137.28 4.63111 -2.49829 0
M  V30 22826 O 2136.3 4.68261 -3.23605 0
M  V30 22827 N 2137.5 5.5889 -1.56914 0
M  V30 22828 H 2140.27 1.63008 -2.51492 0
M  V30 22829 H 2137.83 0.75491 -1.43223 0
M  V30 22830 H 2139.82 3.83937 -1.27963 0
M  V30 22831 H 2138.39 3.07949 -0.537222 0
M  V30 22832 H 2137.61 2.58767 -2.97378 0
M  V30 22833 H 2138.9 3.67844 -3.51523 0
M  V30 22834 H 2138.3 5.57477 -0.961042 0
M  V30 22835 H 2136.86 6.34678 -1.48414 0
M  V30 22836 N 2140.29 1.34929 0.814366 0
M  V30 22837 C 2141.7 1.14798 1.10877 0
M  V30 22838 C 2141.9 -0.0447901 2.0145 0
M  V30 22839 O 2140.96 -0.717746 2.42084 0
M  V30 22840 C 2142.27 2.44729 1.74724 0
M  V30 22841 C 2143.82 2.50864 1.8718 0
M  V30 22842 C 2144.3 3.80819 2.54443 0
M  V30 22843 N 2145.79 3.82027 2.61935 0
M  V30 22844 C 2146.52 4.79305 3.14729 0
M  V30 22845 N 2146.02 5.86969 3.68021 0
M  V30 22846 N 2147.81 4.6675 3.1321 0
M  V30 22847 H 2139.96 2.11338 0.212102 0
M  V30 22848 H 2142.23 0.934964 0.156671 0
M  V30 22849 H 2141.93 3.32146 1.15637 0
M  V30 22850 H 2141.81 2.58702 2.74505 0
M  V30 22851 H 2144.19 1.6388 2.45412 0
M  V30 22852 H 2144.27 2.40811 0.862763 0
M  V30 22853 H 2143.92 4.68196 1.96862 0
M  V30 22854 H 2143.85 3.88157 3.55867 0
M  V30 22855 H 2146.34 3.04231 2.2417 0
M  V30 22856 H 2146.65 6.57199 4.06582 0
M  V30 22857 H 2145 5.90671 3.66241 0
M  V30 22858 H 2148.19 3.81784 2.70849 0
M  V30 22859 H 2148.36 5.42728 3.54049 0
M  V30 22860 N 2141.77 -1.0356 1.18799 0
M  V30 22861 C 2142.68 -2.15173 0.934763 0
M  V30 22862 C 2143.69 -1.73695 -0.102902 0
M  V30 22863 O 2144.87 -2.0124 0.0801886 0
M  V30 22864 C 2141.93 -3.43507 0.469463 0
M  V30 22865 C 2140.99 -3.99337 1.57571 0
M  V30 22866 C 2140.23 -5.21546 1.13251 0
M  V30 22867 O 2140.45 -5.704 -0.0066957 0
M  V30 22868 O 2139.38 -5.70039 1.93233 0
M  V30 22869 H 2143.21 -2.39393 1.86881 0
M  V30 22870 H 2140.8 -1.13608 0.970239 0
M  V30 22871 H 2142.68 -4.20834 0.218298 0
M  V30 22872 H 2141.35 -3.20747 -0.436226 0
M  V30 22873 H 2140.26 -3.23375 1.88095 0
M  V30 22874 H 2141.59 -4.26448 2.45771 0
M  V30 22875 N 2143.25 -0.990834 -1.22557 0
M  V30 22876 C 2144.18 -0.559304 -2.26703 0
M  V30 22877 C 2145.16 0.412782 -1.65016 0
M  V30 22878 O 2146.34 0.303868 -1.91808 0
M  V30 22879 C 2143.47 0.12888 -3.47061 0
M  V30 22880 C 2142.43 -0.76154 -4.2117 0
M  V30 22881 C 2141.75 0.0594442 -5.34667 0
M  V30 22882 C 2143.05 -2.0574 -4.80071 0
M  V30 22883 H 2144.75 -1.42983 -2.63052 0
M  V30 22884 H 2142.29 -0.68896 -1.26449 0
M  V30 22885 H 2144.24 0.44215 -4.19074 0
M  V30 22886 H 2142.97 1.03394 -3.09802 0
M  V30 22887 H 2141.63 -1.05842 -3.50989 0
M  V30 22888 H 2141.28 0.965355 -4.9365 0
M  V30 22889 H 2140.98 -0.533291 -5.85175 0
M  V30 22890 H 2142.5 0.366857 -6.09497 0
M  V30 22891 H 2143.91 -1.80821 -5.44037 0
M  V30 22892 H 2142.31 -2.59878 -5.4091 0
M  V30 22893 H 2143.38 -2.73748 -4.00237 0
M  V30 22894 N 2144.72 1.37856 -0.763775 0
M  V30 22895 C 2145.69 2.28702 -0.151022 0
M  V30 22896 C 2146.69 1.47661 0.636627 0
M  V30 22897 O 2147.88 1.67979 0.46139 0
M  V30 22898 C 2145.01 3.31525 0.793965 0
M  V30 22899 H 2146.2 2.84397 -0.951747 0
M  V30 22900 H 2143.75 1.46987 -0.531452 0
M  V30 22901 H 2144.49 2.80939 1.61999 0
M  V30 22902 H 2144.27 3.91416 0.231444 0
M  V30 22903 H 2145.76 3.99432 1.21837 0
M  V30 22904 N 2146.2 0.513665 1.48994 0
M  V30 22905 C 2147.45 -0.0263732 2.02783 0
M  V30 22906 C 2147.78 -1.35469 1.39147 0
M  V30 22907 O 2147.06 -1.87097 0.531511 0
M  V30 22908 C 2147.34 -0.165605 3.59719 0
M  V30 22909 C 2147.19 1.18673 4.33863 0
M  V30 22910 C 2148.51 -0.900228 4.30794 0
M  V30 22911 H 2145.63 -0.00811043 0.736955 0
M  V30 22912 H 2148.27 0.667534 1.77888 0
M  V30 22913 H 2146.42 -0.756613 3.81061 0
M  V30 22914 H 2148.09 1.81759 4.23983 0
M  V30 22915 H 2146.34 1.77281 3.95922 0
M  V30 22916 H 2147.01 1.04247 5.42067 0
M  V30 22917 H 2149.48 -0.398863 4.14184 0
M  V30 22918 H 2148.36 -0.966514 5.40324 0
M  V30 22919 H 2148.62 -1.94685 3.96926 0
M  V30 22920 N 2147.68 -1.55636 0.248053 0
M  V30 22921 C 2148.63 -2.21428 -0.651012 0
M  V30 22922 C 2149.6 -1.17855 -1.17045 0
M  V30 22923 O 2150.78 -1.46306 -1.22471 0
M  V30 22924 C 2147.92 -2.91846 -1.84174 0
M  V30 22925 C 2147.03 -4.10077 -1.35872 0
M  V30 22926 C 2146.17 -4.68207 -2.50909 0
M  V30 22927 C 2145.21 -5.78685 -1.99475 0
M  V30 22928 N 2144.35 -6.30993 -3.07883 0
M  V30 22929 H 2149.19 -2.97884 -0.0832758 0
M  V30 22930 H 2146.72 -1.47071 -0.0293424 0
M  V30 22931 H 2148.68 -3.30873 -2.54124 0
M  V30 22932 H 2147.31 -2.17862 -2.38193 0
M  V30 22933 H 2146.36 -3.76356 -0.553219 0
M  V30 22934 H 2147.67 -4.89829 -0.941776 0
M  V30 22935 H 2146.83 -5.09814 -3.28899 0
M  V30 22936 H 2145.57 -3.87674 -2.95905 0
M  V30 22937 H 2144.57 -5.36555 -1.19955 0
M  V30 22938 H 2145.8 -6.6107 -1.55447 0
M  V30 22939 H 2143.74 -5.53365 -3.52312 0
M  V30 22940 H 2143.66 -7.05941 -2.70523 0
M  V30 22941 H 2144.93 -6.77258 -3.8593 0
M  V30 22942 N 2149.16 0.0250451 -1.5758 0
M  V30 22943 C 2150.4 0.719842 -1.91305 0
M  V30 22944 C 2150.76 1.72305 -0.84705 0
M  V30 22945 O 2151.96 2.46639 -1.06876 0
M  V30 22946 C 2150.23 1.36835 -3.30168 0
M  V30 22947 S 2151.79 2.09174 -3.85735 0
M  V30 22948 H 2148.61 0.238377 -0.669849 0
M  V30 22949 H 2151.21 -0.025625 -1.95483 0
M  V30 22950 H 2149.92 0.625028 -4.05613 0
M  V30 22951 H 2149.45 2.15228 -3.29303 0
M  V30 22952 H 2151.46 3.3637 -3.64787 0
M  V30 22953 N 2150.64 1.54769 0.297388 0
M  V30 22954 C 2151.57 1.88972 1.37157 0
M  V30 22955 C 2152.55 0.748993 1.52722 0
M  V30 22956 O 2153.73 1.00504 1.6617 0
M  V30 22957 C 2150.86 2.1402 2.73519 0
M  V30 22958 C 2149.82 3.29865 2.72714 0
M  V30 22959 C 2149.14 3.4034 4.12399 0
M  V30 22960 C 2150.44 4.66881 2.34135 0
M  V30 22961 H 2152.14 2.7894 1.0878 0
M  V30 22962 H 2149.68 1.34212 0.521848 0
M  V30 22963 H 2151.63 2.36533 3.48755 0
M  V30 22964 H 2150.36 1.20827 3.03428 0
M  V30 22965 H 2149.02 3.07281 1.99934 0
M  V30 22966 H 2148.67 2.44657 4.3949 0
M  V30 22967 H 2148.37 4.18214 4.1276 0
M  V30 22968 H 2149.89 3.65118 4.89409 0
M  V30 22969 H 2151.3 4.89101 2.99087 0
M  V30 22970 H 2149.7 5.47495 2.45703 0
M  V30 22971 H 2150.77 4.67354 1.29261 0
M  V30 22972 N 2152.11 -0.560755 1.47286 0
M  V30 22973 C 2153.53 -0.886333 1.32726 0
M  V30 22974 C 2153.73 -1.99021 0.31509 0
M  V30 22975 O 2152.79 -2.51002 -0.274638 0
M  V30 22976 C 2154.1 -1.28292 2.71959 0
M  V30 22977 C 2155.65 -1.39455 2.80217 0
M  V30 22978 C 2156.12 -1.8247 4.20082 0
M  V30 22979 N 2157.61 -1.89627 4.22606 0
M  V30 22980 C 2158.35 -2.24232 5.27738 0
M  V30 22981 N 2157.84 -2.57475 6.43178 0
M  V30 22982 N 2159.64 -2.24975 5.15114 0
M  V30 22983 H 2151.79 0.168088 2.11734 0
M  V30 22984 H 2154.05 0.0125326 0.947917 0
M  V30 22985 H 2153.76 -0.545664 3.47441 0
M  V30 22986 H 2153.63 -2.23983 3.03499 0
M  V30 22987 H 2156.02 -2.12262 2.05009 0
M  V30 22988 H 2156.1 -0.419601 2.52335 0
M  V30 22989 H 2155.74 -1.10234 4.95793 0
M  V30 22990 H 2155.67 -2.80962 4.45385 0
M  V30 22991 H 2158.16 -1.66337 3.39323 0
M  V30 22992 H 2158.48 -2.82897 7.19159 0
M  V30 22993 H 2156.82 -2.55063 6.46504 0
M  V30 22994 H 2160.01 -1.98441 4.23956 0
M  V30 22995 H 2160.19 -2.51614 5.97155 0
M  V30 22996 N 2153.59 -1.35359 -0.807199 0
M  V30 22997 C 2154.52 -1.30893 -1.93363 0
M  V30 22998 C 2155.5 -0.183475 -1.69108 0
M  V30 22999 O 2156.69 -0.378339 -1.90479 0
M  V30 23000 C 2153.82 -1.07954 -3.30096 0
M  V30 23001 C 2152.77 -2.17133 -3.68832 0
M  V30 23002 C 2152.1 -1.7936 -5.0372 0
M  V30 23003 C 2153.4 -3.59094 -3.79274 0
M  V30 23004 H 2155.09 -2.25145 -1.97357 0
M  V30 23005 H 2152.64 -1.08381 -0.948131 0
M  V30 23006 H 2154.59 -1.03469 -4.085 0
M  V30 23007 H 2153.31 -0.101468 -3.26442 0
M  V30 23008 H 2151.97 -2.20714 -2.92713 0
M  V30 23009 H 2151.62 -0.801733 -4.96569 0
M  V30 23010 H 2151.32 -2.52445 -5.30608 0
M  V30 23011 H 2152.85 -1.764 -5.84564 0
M  V30 23012 H 2154.26 -3.57839 -4.47911 0
M  V30 23013 H 2152.66 -4.30934 -4.17632 0
M  V30 23014 H 2153.73 -3.9529 -2.80845 0
M  V30 23015 N 2155.07 1.02928 -1.19346 0
M  V30 23016 C 2156 2.13099 -0.954528 0
M  V30 23017 C 2156.98 1.69731 0.111965 0
M  V30 23018 O 2158.17 1.94152 -0.0429718 0
M  V30 23019 C 2155.3 3.43798 -0.491955 0
M  V30 23020 C 2154.25 4.00845 -1.50024 0
M  V30 23021 C 2153.58 5.2716 -0.894759 0
M  V30 23022 C 2154.88 4.35699 -2.88035 0
M  V30 23023 H 2156.57 2.33345 -1.87592 0
M  V30 23024 H 2154.12 1.1214 -0.903366 0
M  V30 23025 H 2156.07 4.20243 -0.312095 0
M  V30 23026 H 2154.79 3.23272 0.46503 0
M  V30 23027 H 2153.45 3.26495 -1.66724 0
M  V30 23028 H 2153.1 5.02952 0.0697668 0
M  V30 23029 H 2152.8 5.66291 -1.56805 0
M  V30 23030 H 2154.32 6.06272 -0.725685 0
M  V30 23031 H 2155.74 5.03083 -2.7492 0
M  V30 23032 H 2154.13 4.8591 -3.52152 0
M  V30 23033 H 2155.2 3.45019 -3.4072 0
M  V30 23034 N 2156.55 0.997319 1.2203 0
M  V30 23035 C 2157.78 0.694247 1.94905 0
M  V30 23036 C 2158.19 -0.741849 1.73615 0
M  V30 23037 O 2157.55 -1.50108 1.03796 0
M  V30 23038 C 2157.6 0.996196 3.47503 0
M  V30 23039 O 2157.32 2.37587 3.68082 0
M  V30 23040 C 2158.82 0.711446 4.37554 0
M  V30 23041 H 2156.04 0.256462 0.620055 0
M  V30 23042 H 2158.58 1.33329 1.5506 0
M  V30 23043 H 2156.74 0.402886 3.85299 0
M  V30 23044 H 2157.15 2.47854 4.62243 0
M  V30 23045 H 2158.63 0.972956 5.43358 0
M  V30 23046 H 2159.1 -0.35455 4.37767 0
M  V30 23047 H 2159.71 1.28601 4.05391 0
M  V30 23048 N 2158.03 -1.37449 0.771075 0
M  V30 23049 C 2158.98 -2.27627 0.130441 0
M  V30 23050 C 2159.96 -1.46067 -0.674776 0
M  V30 23051 O 2161.15 -1.6863 -0.53786 0
M  V30 23052 C 2158.28 -3.35044 -0.748371 0
M  V30 23053 C 2157.37 -4.24051 0.0646391 0
M  V30 23054 N 2157.76 -4.93471 1.10994 0
M  V30 23055 C 2156.06 -4.45715 -0.159446 0
M  V30 23056 C 2156.76 -5.59168 1.60332 0
M  V30 23057 N 2155.73 -5.35833 0.915614 0
M  V30 23058 H 2159.54 -2.78772 0.930764 0
M  V30 23059 H 2157.05 -1.50558 0.608767 0
M  V30 23060 H 2159.05 -3.98555 -1.22309 0
M  V30 23061 H 2157.71 -2.85454 -1.54745 0
M  V30 23062 H 2158.72 -4.95941 1.49207 0
M  V30 23063 H 2155.39 -4.06999 -0.930484 0
M  V30 23064 H 2156.78 -6.24655 2.475 0
M  V30 23065 N 2159.5 -0.52156 -1.4872 0
M  V30 23066 C 2160.73 0.0117966 -2.06897 0
M  V30 23067 C 2161.15 1.28928 -1.37924 0
M  V30 23068 O 2160.5 1.76502 -0.464046 0
M  V30 23069 C 2160.56 0.248161 -3.60647 0
M  V30 23070 O 2160.28 -0.978703 -4.27028 0
M  V30 23071 C 2161.78 0.822848 -4.35596 0
M  V30 23072 H 2159 -0.0297145 -0.670342 0
M  V30 23073 H 2161.54 -0.724798 -1.91225 0
M  V30 23074 H 2159.7 0.934783 -3.75953 0
M  V30 23075 H 2160.11 -0.754221 -5.19049 0
M  V30 23076 H 2161.58 0.937703 -5.43977 0
M  V30 23077 H 2162.06 1.82571 -3.99455 0
M  V30 23078 H 2162.67 0.173056 -4.24948 0
M  V30 23079 N 2160.98 1.55502 -0.256304 0
M  V30 23080 C 2162.23 1.99168 0.365812 0
M  V30 23081 C 2162.56 1.14455 1.57259 0
M  V30 23082 O 2161.81 0.197615 1.947 0
M  V30 23083 C 2162.11 3.48098 0.810077 0
M  V30 23084 C 2161.78 4.49967 -0.289975 0
M  V30 23085 C 2160.44 4.77544 -0.592079 0
M  V30 23086 C 2162.79 5.10877 -1.03217 0
M  V30 23087 C 2160.12 5.63304 -1.64029 0
M  V30 23088 C 2162.47 5.97775 -2.06996 0
M  V30 23089 C 2161.14 6.23681 -2.37861 0
M  V30 23090 H 2160.41 0.728809 0.13386 0
M  V30 23091 H 2163.05 1.87968 -0.366092 0
M  V30 23092 H 2161.36 3.56679 1.62134 0
M  V30 23093 H 2163.05 3.79279 1.30186 0
M  V30 23094 H 2159.64 4.28577 -0.0443795 0
M  V30 23095 H 2163.83 4.89612 -0.812025 0
M  V30 23096 H 2159.08 5.81628 -1.88465 0
M  V30 23097 H 2163.26 6.44013 -2.64992 0
M  V30 23098 H 2160.89 6.89929 -3.19221 0
M  V30 23099 N 2162.46 -0.0166879 1.57591 0
M  V30 23100 C 2163.41 -1.03177 2.08464 0
M  V30 23101 C 2164.4 -1.36659 1.00103 0
M  V30 23102 O 2165.61 -1.35419 1.18582 0
M  V30 23103 H 2161.98 -0.350315 0.66542 0
M  V30 23104 H 2163.95 -0.576996 2.92768 0
M  V30 23105 C 2162.7 -2.32023 2.58961 0
M  V30 23106 H 2162.03 -2.07123 3.41965 0
M  V30 23107 H 2163.47 -3.01365 2.98253 0
M  V30 23108 C 2161.93 -3.01849 1.49629 0
M  V30 23109 O 2162.46 -3.92175 0.8696 0
M  V30 23110 N 2160.66 -2.63388 1.2278 0
M  V30 23111 H 2160.21 -1.9002 1.73926 0
M  V30 23112 H 2160.17 -3.10424 0.498436 0
M  V30 23113 N 2163.94 -1.54924 -0.289176 0
M  V30 23114 C 2165.35 -1.46402 -0.635496 0
M  V30 23115 C 2165.55 -0.664874 -1.90215 0
M  V30 23116 O 2164.61 -0.17727 -2.51877 0
M  V30 23117 C 2165.92 -2.90475 -0.777494 0
M  V30 23118 C 2167.47 -3.0059 -0.872609 0
M  V30 23119 C 2167.95 -4.45884 -1.04651 0
M  V30 23120 N 2169.44 -4.49643 -1.11243 0
M  V30 23121 C 2170.17 -5.59261 -1.2655 0
M  V30 23122 N 2169.67 -6.78778 -1.38679 0
M  V30 23123 N 2171.46 -5.46972 -1.29532 0
M  V30 23124 H 2163.61 -2.05345 0.542893 0
M  V30 23125 H 2165.88 -0.930495 0.181335 0
M  V30 23126 H 2165.58 -3.51603 0.0825272 0
M  V30 23127 H 2165.46 -3.3857 -1.66284 0
M  V30 23128 H 2167.84 -2.39568 -1.72311 0
M  V30 23129 H 2167.92 -2.55773 0.0370062 0
M  V30 23130 H 2167.57 -5.07503 -0.200734 0
M  V30 23131 H 2167.5 -4.88342 -1.97053 0
M  V30 23132 H 2169.99 -3.63543 -1.03175 0
M  V30 23133 H 2170.3 -7.58074 -1.50147 0
M  V30 23134 H 2168.65 -6.81621 -1.35713 0
M  V30 23135 H 2171.84 -4.52543 -1.19675 0
M  V30 23136 H 2172.01 -6.32448 -1.41117 0
M  V30 23137 N 2165.42 0.552936 -1.47582 0
M  V30 23138 C 2166.33 1.68696 -1.6303 0
M  V30 23139 C 2167.34 1.66263 -0.513075 0
M  V30 23140 O 2168.52 1.85633 -0.781171 0
M  V30 23141 C 2165.58 3.05197 -1.64486 0
M  V30 23142 C 2164.64 3.18664 -2.87666 0
M  V30 23143 C 2163.88 4.48653 -2.89043 0
M  V30 23144 O 2164.1 5.34372 -1.99506 0
M  V30 23145 O 2163.03 4.66001 -3.80955 0
M  V30 23146 H 2166.86 1.58604 -2.58995 0
M  V30 23147 H 2164.45 0.723431 -1.30717 0
M  V30 23148 H 2166.33 3.86421 -1.68098 0
M  V30 23149 H 2165 3.15662 -0.716893 0
M  V30 23150 H 2163.91 2.36821 -2.89597 0
M  V30 23151 H 2165.24 3.13105 -3.79771 0
M  V30 23152 N 2166.89 1.35785 0.800009 0
M  V30 23153 C 2168.12 1.32363 1.5863 0
M  V30 23154 C 2168.53 -0.099518 1.88938 0
M  V30 23155 O 2167.88 -1.06381 1.49763 0
M  V30 23156 C 2167.94 2.0694 2.93966 0
M  V30 23157 C 2167.6 3.56091 2.86441 0
M  V30 23158 C 2168.6 4.50553 2.59419 0
M  V30 23159 C 2166.28 3.98831 3.05351 0
M  V30 23160 C 2168.28 5.8573 2.51394 0
M  V30 23161 C 2165.96 5.34102 2.96948 0
M  V30 23162 C 2166.96 6.27364 2.70006 0
M  V30 23163 O 2166.65 7.60153 2.61578 0
M  V30 23164 H 2166.38 0.456006 0.499033 0
M  V30 23165 H 2168.94 1.7932 1.00168 0
M  V30 23166 H 2167.17 1.5463 3.54438 0
M  V30 23167 H 2168.86 1.96511 3.55159 0
M  V30 23168 H 2169.62 4.18848 2.44522 0
M  V30 23169 H 2165.5 3.2662 3.25331 0
M  V30 23170 H 2169.04 6.58494 2.30285 0
M  V30 23171 H 2164.94 5.65418 3.11405 0
M  V30 23172 H 2165.71 7.70154 2.77137 0
M  V30 23173 N 2168.37 -1.02294 1.19891 0
M  V30 23174 C 2169.6 -1.79404 1.03062 0
M  V30 23175 C 2170.02 -1.84059 -0.420428 0
M  V30 23176 O 2169.37 -1.28896 -1.29198 0
M  V30 23177 C 2169.42 -3.24174 1.59979 0
M  V30 23178 O 2169.14 -3.19825 2.99405 0
M  V30 23179 C 2170.65 -4.17859 1.48016 0
M  V30 23180 H 2167.87 -0.564396 0.362902 0
M  V30 23181 H 2170.41 -1.28805 1.58838 0
M  V30 23182 H 2168.56 -3.71943 1.08338 0
M  V30 23183 H 2168.98 -4.10647 3.26296 0
M  V30 23184 H 2170.45 -5.17305 1.92611 0
M  V30 23185 H 2170.93 -4.37074 0.431619 0
M  V30 23186 H 2171.54 -3.75968 1.98817 0
M  V30 23187 N 2169.85 -1.00378 -1.21499 0
M  V30 23188 C 2170.8 -0.534183 -2.21654 0
M  V30 23189 C 2171.78 0.403544 -1.55757 0
M  V30 23190 O 2172.98 0.228594 -1.75518 0
M  V30 23191 C 2170.11 0.139036 -3.43018 0
M  V30 23192 C 2169.19 -0.819638 -4.16104 0
M  V30 23193 N 2169.58 -1.97196 -4.65776 0
M  V30 23194 C 2167.88 -0.637767 -4.41417 0
M  V30 23195 C 2168.58 -2.57457 -5.21623 0
M  V30 23196 N 2167.56 -1.85627 -5.10924 0
M  V30 23197 H 2171.36 -1.41287 -2.57711 0
M  V30 23198 H 2168.87 -0.867442 -1.37292 0
M  V30 23199 H 2170.87 0.492917 -4.13976 0
M  V30 23200 H 2169.53 1.01372 -3.0847 0
M  V30 23201 H 2170.54 -2.35237 -4.61393 0
M  V30 23202 H 2167.22 0.189943 -4.17068 0
M  V30 23203 H 2168.61 -3.54903 -5.7052 0
M  V30 23204 N 2171.33 1.37038 -0.778354 0
M  V30 23205 C 2172.55 2.0432 -0.356086 0
M  V30 23206 C 2172.98 1.58315 1.01577 0
M  V30 23207 O 2172.34 0.74645 1.65221 0
M  V30 23208 C 2172.38 3.58196 -0.41573 0
M  V30 23209 O 2171.49 4.08281 0.581416 0
M  V30 23210 H 2170.83 0.646127 -0.153022 0
M  V30 23211 H 2173.36 1.75219 -1.05639 0
M  V30 23212 H 2173.37 4.0707 -0.275375 0
M  V30 23213 H 2172.04 3.91034 -1.41652 0
M  V30 23214 H 2170.62 3.70709 0.403635 0
M  V30 23215 N 2172.81 0.529439 1.48441 0
M  V30 23216 C 2173.76 -0.253463 2.26587 0
M  V30 23217 C 2174.74 -0.910366 1.32669 0
M  V30 23218 O 2175.93 -0.813262 1.5721 0
M  V30 23219 C 2173.06 -1.3001 3.1773 0
M  V30 23220 C 2172.15 -0.648014 4.1912 0
M  V30 23221 N 2172.54 0.265936 5.051 0
M  V30 23222 C 2170.84 -0.905282 4.36716 0
M  V30 23223 C 2171.54 0.642059 5.78146 0
M  V30 23224 N 2170.51 0.0032706 5.436 0
M  V30 23225 H 2174.32 0.449662 2.9044 0
M  V30 23226 H 2171.83 0.347431 1.5864 0
M  V30 23227 H 2173.83 -1.87468 3.72372 0
M  V30 23228 H 2172.49 -2.00461 2.55432 0
M  V30 23229 H 2173.5 0.638504 5.13949 0
M  V30 23230 H 2170.18 -1.6004 3.85608 0
M  V30 23231 H 2171.57 1.39145 6.57334 0
M  V30 23232 N 2174.29 -1.55364 0.264547 0
M  V30 23233 C 2175.53 -1.99655 -0.355771 0
M  V30 23234 C 2175.86 -1.15266 -1.56293 0
M  V30 23235 O 2175.14 -0.220196 -1.9325 0
M  V30 23236 C 2175.42 -3.52238 -0.748347 0
M  V30 23237 C 2175.28 -4.47386 0.465419 0
M  V30 23238 C 2176.59 -4.10422 -1.58877 0
M  V30 23239 H 2173.71 -0.725828 -0.12784 0
M  V30 23240 H 2176.36 -1.86375 0.369383 0
M  V30 23241 H 2174.51 -3.63686 -1.36619 0
M  V30 23242 H 2176.18 -4.47896 1.10395 0
M  V30 23243 H 2174.42 -4.1948 1.10539 0
M  V30 23244 H 2175.09 -5.51804 0.147135 0
M  V30 23245 H 2177.57 -4.02185 -1.06707 0
M  V30 23246 H 2176.44 -5.17415 -1.83228 0
M  V30 23247 H 2176.7 -3.59985 -2.56639 0
M  V30 23248 N 2175.76 0.00833021 -1.57598 0
M  V30 23249 C 2177 0.699511 -1.92058 0
M  V30 23250 C 2177.37 1.71397 -0.865278 0
M  V30 23251 O 2178.57 2.45492 -1.09486 0
M  V30 23252 C 2176.84 1.33325 -3.31601 0
M  V30 23253 S 2178.4 2.05071 -3.87932 0
M  V30 23254 H 2175.22 0.231259 -0.672339 0
M  V30 23255 H 2177.82 -0.0463571 -1.95445 0
M  V30 23256 H 2176.52 0.581972 -4.06253 0
M  V30 23257 H 2176.05 2.11723 -3.31567 0
M  V30 23258 H 2178.07 3.32482 -3.68334 0
M  V30 23259 N 2177.24 1.55075 0.280956 0
M  V30 23260 C 2178.49 1.75566 1.01511 0
M  V30 23261 C 2178.82 0.55079 1.86226 0
M  V30 23262 O 2178.1 -0.451807 1.8918 0
M  V30 23263 C 2178.38 3.05625 1.90434 0
M  V30 23264 C 2178.23 4.36452 1.08766 0
M  V30 23265 C 2179.55 3.31672 2.89277 0
M  V30 23266 H 2176.67 0.638765 0.367626 0
M  V30 23267 H 2179.31 1.87803 0.28812 0
M  V30 23268 H 2177.46 2.95324 2.5242 0
M  V30 23269 H 2179.13 4.587 0.489115 0
M  V30 23270 H 2177.38 4.32035 0.390884 0
M  V30 23271 H 2178.05 5.23764 1.74285 0
M  V30 23272 H 2180.52 3.41715 2.37424 0
M  V30 23273 H 2179.4 4.23955 3.48645 0
M  V30 23274 H 2179.66 2.50928 3.63988 0
M  V30 23275 N 2178.72 -0.545102 1.47873 0
M  V30 23276 C 2179.94 -1.33162 1.59005 0
M  V30 23277 C 2180.37 -1.86498 0.245004 0
M  V30 23278 O 2179.73 -1.63614 -0.781037 0
M  V30 23279 C 2179.78 -2.46898 2.62819 0
M  V30 23280 O 2178.88 -3.49491 2.1893 0
M  V30 23281 H 2178.22 -0.395031 0.53371 0
M  V30 23282 H 2180.75 -0.657518 1.93747 0
M  V30 23283 H 2180.76 -2.93298 2.8362 0
M  V30 23284 H 2179.44 -2.07436 3.60476 0
M  V30 23285 H 2178.01 -3.09312 2.08279 0
M  V30 23286 N 2180.2 -1.36208 -0.792797 0
M  V30 23287 C 2181.16 -1.30111 -1.88689 0
M  V30 23288 C 2182.16 -0.209535 -1.59429 0
M  V30 23289 O 2183.35 -0.464108 -1.67904 0
M  V30 23290 C 2180.48 -1.01615 -3.25403 0
M  V30 23291 H 2181.68 -2.2741 -1.95511 0
M  V30 23292 H 2179.23 -1.20931 -0.990219 0
M  V30 23293 H 2179.96 -0.0476043 -3.24265 0
M  V30 23294 H 2179.75 -1.80604 -3.48029 0
M  V30 23295 H 2181.24 -0.999458 -4.05463 0
M  V30 23296 N 2181.68 1.01656 -1.20431 0
M  V30 23297 C 2182.9 1.79392 -1.04084 0
M  V30 23298 C 2183.33 1.83678 0.405466 0
M  V30 23299 O 2182.68 1.27186 1.29203 0
M  V30 23300 C 2182.73 3.21706 -1.62904 0
M  V30 23301 O 2181.84 4.0319 -0.866689 0
M  V30 23302 H 2181.18 0.553315 -0.367068 0
M  V30 23303 H 2183.71 1.27864 -1.59725 0
M  V30 23304 H 2183.72 3.72418 -1.6664 0
M  V30 23305 H 2182.39 3.17901 -2.68164 0
M  V30 23306 H 2180.97 3.61788 -0.903537 0
M  V30 23307 N 2183.15 1.01021 1.20965 0
M  V30 23308 C 2184.06 0.584483 2.27202 0
M  V30 23309 C 2185.08 -0.374977 1.69912 0
M  V30 23310 O 2186.26 -0.237516 1.99995 0
M  V30 23311 C 2183.32 -0.0769879 3.46615 0
M  V30 23312 C 2182.38 0.927608 4.19159 0
M  V30 23313 C 2181.61 0.297609 5.3287 0
M  V30 23314 O 2181.84 -0.904289 5.63186 0
M  V30 23315 O 2180.77 1.01114 5.93346 0
M  V30 23316 H 2184.6 1.46877 2.65821 0
M  V30 23317 H 2182.18 0.779356 1.27461 0
M  V30 23318 H 2184.06 -0.446718 4.19026 0
M  V30 23319 H 2182.74 -0.935572 3.09885 0
M  V30 23320 H 2181.65 1.34859 3.48947 0
M  V30 23321 H 2182.98 1.75595 4.59812 0
M  V30 23322 N 2184.63 -1.36623 0.78561 0
M  V30 23323 C 2185.86 -2.04129 0.366917 0
M  V30 23324 C 2186.28 -1.58852 -1.00736 0
M  V30 23325 O 2185.64 -0.755202 -1.64822 0
M  V30 23326 C 2185.69 -3.5797 0.43472 0
M  V30 23327 O 2184.79 -4.08584 -0.559755 0
M  V30 23328 H 2184.13 -0.645306 0.156447 0
M  V30 23329 H 2186.66 -1.74656 1.06566 0
M  V30 23330 H 2186.67 -4.06918 0.296959 0
M  V30 23331 H 2185.35 -3.90277 1.43724 0
M  V30 23332 H 2183.92 -3.70918 -0.38397 0
M  V30 23333 N 2186.11 -0.537304 -1.48158 0
M  V30 23334 C 2187.06 0.221446 -2.29735 0
M  V30 23335 C 2188.03 0.927005 -1.37825 0
M  V30 23336 O 2189.21 0.926601 -1.6679 0
M  V30 23337 C 2186.35 1.25789 -3.21358 0
M  V30 23338 C 2185.46 0.560427 -4.28349 0
M  V30 23339 C 2184.6 1.58043 -5.07145 0
M  V30 23340 C 2183.64 0.86684 -6.05931 0
M  V30 23341 N 2182.78 1.83273 -6.77758 0
M  V30 23342 H 2187.62 -0.480372 -2.94103 0
M  V30 23343 H 2185.15 -0.248729 -1.44982 0
M  V30 23344 H 2187.11 1.87117 -3.72885 0
M  V30 23345 H 2185.74 1.92799 -2.58898 0
M  V30 23346 H 2184.79 -0.166961 -3.80033 0
M  V30 23347 H 2186.1 0.000474239 -4.988 0
M  V30 23348 H 2185.26 2.2678 -5.62722 0
M  V30 23349 H 2184 2.17429 -4.3655 0
M  V30 23350 H 2183 0.165438 -5.49551 0
M  V30 23351 H 2184.23 0.278998 -6.78527 0
M  V30 23352 H 2182.17 2.41553 -6.09908 0
M  V30 23353 H 2182.09 1.32441 -7.44309 0
M  V30 23354 H 2183.36 2.51186 -7.3792 0
M  V30 23355 N 2187.59 1.55221 -0.272782 0
M  V30 23356 C 2188.52 2.25408 0.609392 0
M  V30 23357 C 2189.5 1.2434 1.16076 0
M  V30 23358 O 2190.68 1.53054 1.19533 0
M  V30 23359 C 2187.81 2.97338 1.79464 0
M  V30 23360 C 2186.77 4.05315 1.37491 0
M  V30 23361 C 2186.09 4.64808 2.64307 0
M  V30 23362 C 2187.39 5.19636 0.526828 0
M  V30 23363 H 2189.09 2.9939 0.0240678 0
M  V30 23364 H 2186.63 1.43996 0.0101357 0
M  V30 23365 H 2188.59 3.45149 2.41765 0
M  V30 23366 H 2187.31 2.20887 2.40576 0
M  V30 23367 H 2185.97 3.58312 0.775106 0
M  V30 23368 H 2185.62 3.85027 3.23672 0
M  V30 23369 H 2185.32 5.37713 2.36935 0
M  V30 23370 H 2186.84 5.15366 3.2746 0
M  V30 23371 H 2188.26 5.63513 1.05478 0
M  V30 23372 H 2186.65 5.9909 0.348095 0
M  V30 23373 H 2187.72 4.82761 -0.454948 0
M  V30 23374 N 2189.07 2.77022e-05 1.576 0
M  V30 23375 C 2190.29 -0.699433 1.9525 0
M  V30 23376 C 2190.72 -1.66511 0.874964 0
M  V30 23377 O 2190.07 -1.8053 -0.166897 0
M  V30 23378 C 2190.12 -1.4075 3.31996 0
M  V30 23379 O 2189.23 -2.52192 3.26302 0
M  V30 23380 H 2188.57 -0.18604 0.637405 0
M  V30 23381 H 2191.1 0.053226 2.04531 0
M  V30 23382 H 2191.11 -1.77092 3.67563 0
M  V30 23383 H 2189.78 -0.699458 4.09976 0
M  V30 23384 H 2188.36 -2.18177 3.02412 0
M  V30 23385 N 2190.54 -1.55222 -0.272728 0
M  V30 23386 C 2191.45 -1.91218 -1.35915 0
M  V30 23387 C 2192.47 -0.809463 -1.54025 0
M  V30 23388 O 2193.65 -1.10855 -1.68146 0
M  V30 23389 C 2190.71 -2.17698 -2.69831 0
M  V30 23390 C 2189.77 -3.41258 -2.60464 0
M  V30 23391 C 2189.01 -3.66465 -3.87994 0
M  V30 23392 O 2189.23 -2.94178 -4.88688 0
M  V30 23393 O 2188.16 -4.59999 -3.88181 0
M  V30 23394 H 2191.99 -2.83701 -1.08385 0
M  V30 23395 H 2189.57 -1.41772 -0.471276 0
M  V30 23396 H 2191.46 -2.36153 -3.49012 0
M  V30 23397 H 2190.13 -1.28397 -2.97146 0
M  V30 23398 H 2189.04 -3.28137 -1.79657 0
M  V30 23399 H 2190.37 -4.30778 -2.38098 0
M  V30 23400 N 2192.02 0.537252 -1.4816 0
M  V30 23401 C 2192.96 1.6589 -1.56703 0
M  V30 23402 C 2193.93 1.57138 -0.417898 0
M  V30 23403 O 2195.12 1.77714 -0.628493 0
M  V30 23404 C 2192.24 3.04252 -1.48824 0
M  V30 23405 C 2191.29 3.31386 -2.68487 0
M  V30 23406 S 2192.12 3.18452 -4.30521 0
M  V30 23407 C 2193.28 4.59273 -4.25228 0
M  V30 23408 H 2193.51 1.58392 -2.51593 0
M  V30 23409 H 2191.05 0.719648 -1.36603 0
M  V30 23410 H 2193 3.84051 -1.44964 0
M  V30 23411 H 2191.66 3.09197 -0.552832 0
M  V30 23412 H 2190.86 4.32304 -2.59093 0
M  V30 23413 H 2190.46 2.59243 -2.69572 0
M  V30 23414 H 2192.75 5.50643 -3.94713 0
M  V30 23415 H 2193.69 4.73723 -5.26301 0
M  V30 23416 H 2194.1 4.38255 -3.55799 0
M  V30 23417 N 2193.5 1.36626 0.785562 0
M  V30 23418 C 2194.73 1.344 1.57961 0
M  V30 23419 C 2195.15 -0.071493 1.87964 0
M  V30 23420 O 2194.51 -1.04457 1.48184 0
M  V30 23421 C 2194.56 2.17651 2.87507 0
M  V30 23422 O 2193.66 1.57165 3.81278 0
M  V30 23423 H 2193 0.459836 0.479006 0
M  V30 23424 H 2195.53 1.79962 0.973379 0
M  V30 23425 H 2195.54 2.30368 3.36741 0
M  V30 23426 H 2194.22 3.20546 2.64997 0
M  V30 23427 H 2192.79 1.53409 3.39883 0
M  V30 23428 N 2194.98 -1.01016 1.20969 0
M  V30 23429 C 2196.22 -1.74973 1.02529 0
M  V30 23430 C 2196.56 -1.89132 -0.440767 0
M  V30 23431 O 2195.83 -1.42186 -1.32715 0
M  V30 23432 C 2196.12 -3.16527 1.71705 0
M  V30 23433 C 2195.97 -3.10124 3.25797 0
M  V30 23434 C 2197.29 -4.15339 1.45539 0
M  V30 23435 H 2194.41 -0.635128 0.373874 0
M  V30 23436 H 2197.05 -1.17802 1.49073 0
M  V30 23437 H 2195.2 -3.65339 1.32135 0
M  V30 23438 H 2196.87 -2.69066 3.74702 0
M  V30 23439 H 2195.11 -2.47356 3.56367 0
M  V30 23440 H 2195.78 -4.10216 3.6936 0
M  V30 23441 H 2198.26 -3.7521 1.79879 0
M  V30 23442 H 2197.14 -5.12537 1.96462 0
M  V30 23443 H 2197.4 -4.40426 0.384315 0
M  V30 23444 N 2196.46 -1.01661 -1.20428 0
M  V30 23445 C 2197.68 -0.725166 -1.93776 0
M  V30 23446 C 2198.1 0.714135 -1.74773 0
M  V30 23447 O 2197.46 1.48438 -1.06171 0
M  V30 23448 C 2197.51 -1.05136 -3.45874 0
M  V30 23449 O 2197.23 -2.43412 -3.64255 0
M  V30 23450 C 2198.73 -0.780967 -4.36367 0
M  V30 23451 H 2195.95 -0.266294 -0.615896 0
M  V30 23452 H 2198.49 -1.35779 -1.52919 0
M  V30 23453 H 2196.65 -0.464133 -3.8461 0
M  V30 23454 H 2197.06 -2.55177 -4.58241 0
M  V30 23455 H 2198.54 -1.05928 -5.41741 0
M  V30 23456 H 2199.01 0.28486 -4.38275 0
M  V30 23457 H 2199.62 -1.35034 -4.03294 0
M  V30 23458 N 2197.93 1.36205 -0.792844 0
M  V30 23459 C 2198.86 2.32573 -0.207894 0
M  V30 23460 C 2199.85 1.56815 0.659028 0
M  V30 23461 O 2201.03 1.84952 0.592143 0
M  V30 23462 C 2198.16 3.4106 0.655389 0
M  V30 23463 C 2197.11 4.27854 -0.111917 0
M  V30 23464 C 2196.44 5.27539 0.872181 0
M  V30 23465 C 2197.74 5.05784 -1.30308 0
M  V30 23466 H 2199.43 2.81743 -1.01299 0
M  V30 23467 H 2196.98 1.35459 -0.488564 0
M  V30 23468 H 2198.93 4.07469 1.07457 0
M  V30 23469 H 2197.66 2.90466 1.49323 0
M  V30 23470 H 2196.32 3.63005 -0.512116 0
M  V30 23471 H 2195.96 4.73217 1.70514 0
M  V30 23472 H 2195.66 5.86477 0.363188 0
M  V30 23473 H 2197.19 5.96821 1.28986 0
M  V30 23474 H 2198.6 5.65214 -0.959478 0
M  V30 23475 H 2197 5.7415 -1.7456 0
M  V30 23476 H 2198.07 4.37226 -2.0967 0
M  V30 23477 N 2199.41 0.545154 1.47871 0
M  V30 23478 C 2200.34 -0.197752 2.32661 0
M  V30 23479 C 2201.32 -0.920479 1.43043 0
M  V30 23480 O 2202.51 -0.9033 1.71913 0
M  V30 23481 C 2199.64 -1.23576 3.24571 0
M  V30 23482 C 2198.59 -0.630249 4.23334 0
M  V30 23483 C 2197.92 -1.77202 5.04483 0
M  V30 23484 C 2199.22 0.408065 5.20703 0
M  V30 23485 H 2200.91 0.510097 2.95023 0
M  V30 23486 H 2198.46 0.246756 1.4187 0
M  V30 23487 H 2200.41 -1.76355 3.82723 0
M  V30 23488 H 2199.14 -1.9734 2.6024 0
M  V30 23489 H 2197.79 -0.123857 3.66391 0
M  V30 23490 H 2197.44 -2.4984 4.36565 0
M  V30 23491 H 2197.14 -1.37271 5.71341 0
M  V30 23492 H 2198.67 -2.3033 5.65491 0
M  V30 23493 H 2200.08 -0.0332043 5.7329 0
M  V30 23494 H 2198.48 0.725591 5.95697 0
M  V30 23495 H 2199.55 1.30837 4.66915 0
M  V30 23496 N 2200.89 -1.55074 0.28101 0
M  V30 23497 C 2202.31 -1.59433 -0.0729684 0
M  V30 23498 C 2202.51 -1.29819 -1.54108 0
M  V30 23499 O 2201.56 -1.06191 -2.29085 0
M  V30 23500 C 2202.88 -2.99129 0.306974 0
M  V30 23501 C 2204.42 -3.11967 0.254078 0
M  V30 23502 C 2204.9 -4.53939 0.608547 0
M  V30 23503 N 2206.39 -4.59798 0.560322 0
M  V30 23504 C 2207.12 -5.67688 0.807319 0
M  V30 23505 N 2206.62 -6.83699 1.11924 0
M  V30 23506 N 2208.41 -5.57264 0.735721 0
M  V30 23507 H 2200.56 -1.72588 1.23803 0
M  V30 23508 H 2202.83 -0.805073 0.500561 0
M  V30 23509 H 2202.53 -3.25655 1.32822 0
M  V30 23510 H 2202.41 -3.75579 -0.349297 0
M  V30 23511 H 2204.79 -2.85202 -0.75789 0
M  V30 23512 H 2204.88 -2.37717 0.94469 0
M  V30 23513 H 2204.52 -4.81431 1.61823 0
M  V30 23514 H 2204.45 -5.26497 -0.10392 0
M  V30 23515 H 2206.94 -3.76462 0.329354 0
M  V30 23516 H 2207.25 -7.61886 1.29422 0
M  V30 23517 H 2205.6 -6.853 1.15708 0
M  V30 23518 H 2208.79 -4.65509 0.491834 0
M  V30 23519 H 2208.96 -6.41269 0.931595 0
M  V30 23520 N 2202.37 -0.00838561 -1.57598 0
M  V30 23521 C 2203.65 0.712203 -1.82173 0
M  V30 23522 C 2204.03 1.91519 -0.887907 0
M  V30 23523 O 2203.37 2.28417 0.0614199 0
M  V30 23524 C 2203.58 1.11002 -3.30877 0
M  V30 23525 C 2204.93 1.51037 -3.96829 0
M  V30 23526 O 2205.96 1.20358 -3.3525 0
M  V30 23527 O 2204.82 2.08116 -5.05322 0
M  V30 23528 H 2201.91 0.347515 -0.750441 0
M  V30 23529 H 2204.46 -0.0344821 -1.69665 0
M  V30 23530 H 2203.23 0.252913 -3.90482 0
M  V30 23531 H 2202.85 1.91554 -3.48415 0
M  V30 23532 N 2203.85 1.55365 0.264492 0
M  V30 23533 C 2205.26 1.66992 0.834906 0
M  V30 23534 C 2205.61 0.602585 1.86717 0
M  V30 23535 O 2204.73 -0.254387 2.149 0
M  V30 23536 C 2205.33 3.02732 1.52114 0
M  V30 23537 C 2203.89 3.16358 2.03948 0
M  V30 23538 C 2203.04 2.62817 0.884452 0
M  V30 23539 H 2205.99 1.58648 0.040659 0
M  V30 23540 H 2206.01 2.96196 2.38848 0
M  V30 23541 H 2205.52 3.80393 0.769601 0
M  V30 23542 H 2203.62 2.43487 2.82037 0
M  V30 23543 H 2203.73 4.23036 2.24894 0
M  V30 23544 H 2202.1 2.20191 1.28016 0
M  V30 23545 H 2202.88 3.42988 0.14628 0
M  V30 23546 N 2205.33 -0.529387 1.48443 0
M  V30 23547 C 2206.55 -1.31468 1.60409 0
M  V30 23548 C 2206.98 -1.86227 0.264771 0
M  V30 23549 O 2206.33 -1.64433 -0.763639 0
M  V30 23550 C 2206.38 -2.44096 2.65423 0
M  V30 23551 O 2205.49 -3.47149 2.22624 0
M  V30 23552 H 2204.83 -0.389348 0.53787 0
M  V30 23553 H 2207.36 -0.636931 1.94433 0
M  V30 23554 H 2207.37 -2.90274 2.86715 0
M  V30 23555 H 2206.04 -2.03601 3.62656 0
M  V30 23556 H 2204.62 -3.07086 2.11548 0
M  V30 23557 N 2206.8 -1.37041 -0.778305 0
M  V30 23558 C 2207.74 -1.26636 -1.89838 0
M  V30 23559 C 2208.71 -0.148225 -1.61923 0
M  V30 23560 O 2209.9 -0.321298 -1.85742 0
M  V30 23561 C 2207.03 -0.95646 -3.24915 0
M  V30 23562 C 2206.07 -2.09058 -3.71749 0
M  V30 23563 S 2206.9 -3.70964 -3.86194 0
M  V30 23564 C 2208.06 -3.4211 -5.24129 0
M  V30 23565 H 2208.29 -2.21439 -1.98373 0
M  V30 23566 H 2205.83 -1.22587 -0.938717 0
M  V30 23567 H 2207.78 -0.78448 -4.02934 0
M  V30 23568 H 2206.45 -0.0260265 -3.14089 0
M  V30 23569 H 2205.64 -1.82858 -4.69658 0
M  V30 23570 H 2205.24 -2.22235 -3.00811 0
M  V30 23571 H 2207.53 -2.96692 -6.09081 0
M  V30 23572 H 2208.48 -4.39324 -5.55338 0
M  V30 23573 H 2208.88 -2.77194 -4.91756 0
M  V30 23574 N 2208.28 1.00373 -1.21503 0
M  V30 23575 C 2209.51 1.78278 -1.0598 0
M  V30 23576 C 2209.93 1.84098 0.385962 0
M  V30 23577 O 2209.29 1.28549 1.27847 0
M  V30 23578 C 2209.34 3.1996 -1.66307 0
M  V30 23579 O 2208.44 4.02248 -0.909404 0
M  V30 23580 H 2207.78 0.54939 -0.372916 0
M  V30 23581 H 2210.31 1.26162 -1.61072 0
M  V30 23582 H 2210.32 3.70629 -1.70581 0
M  V30 23583 H 2209 3.15038 -2.71521 0
M  V30 23584 H 2207.57 3.60809 -0.941859 0
M  V30 23585 N 2209.76 1.02298 1.19887 0
M  V30 23586 C 2211.17 0.746598 1.71122 0
M  V30 23587 C 2211.52 -0.734303 1.81941 0
M  V30 23588 O 2210.65 -1.57272 1.48642 0
M  V30 23589 C 2211.24 1.34862 3.10802 0
M  V30 23590 C 2209.8 1.12096 3.59321 0
M  V30 23591 C 2208.95 1.45035 2.36347 0
M  V30 23592 H 2211.9 1.19165 1.04811 0
M  V30 23593 H 2211.92 0.742503 3.73185 0
M  V30 23594 H 2211.43 2.42643 3.02896 0
M  V30 23595 H 2209.53 0.0610992 3.7255 0
M  V30 23596 H 2209.65 1.80551 4.43777 0
M  V30 23597 H 2208.01 0.869529 2.39398 0
M  V30 23598 H 2208.79 2.53887 2.31076 0
M  V30 23599 N 2211.24 -1.35782 0.800057 0
M  V30 23600 C 2212.17 -2.32459 0.220225 0
M  V30 23601 C 2213.15 -1.57162 -0.650702 0
M  V30 23602 O 2214.33 -1.85264 -0.582326 0
M  V30 23603 C 2211.46 -3.41403 -0.637293 0
M  V30 23604 C 2210.42 -4.27788 0.134606 0
M  V30 23605 C 2209.74 -5.27994 -0.844192 0
M  V30 23606 C 2211.04 -5.05086 1.32988 0
M  V30 23607 H 2212.74 -2.81201 1.02792 0
M  V30 23608 H 2210.28 -1.35198 0.495741 0
M  V30 23609 H 2212.24 -4.08033 -1.05295 0
M  V30 23610 H 2210.96 -2.91253 -1.4778 0
M  V30 23611 H 2209.62 -3.62729 0.53136 0
M  V30 23612 H 2209.27 -4.74114 -1.68002 0
M  V30 23613 H 2208.97 -5.86661 -0.332081 0
M  V30 23614 H 2210.49 -5.97496 -1.25819 0
M  V30 23615 H 2211.91 -5.64697 0.989439 0
M  V30 23616 H 2210.3 -5.73217 1.77603 0
M  V30 23617 H 2211.37 -4.36108 2.11986 0
M  V30 23618 N 2212.72 -0.552988 -1.4758 0
M  V30 23619 C 2213.96 -0.0273058 -2.02082 0
M  V30 23620 C 2214.28 1.32561 -1.43013 0
M  V30 23621 O 2213.55 1.86363 -0.603778 0
M  V30 23622 H 2212.13 -0.00710495 -0.746966 0
M  V30 23623 H 2214.8 -0.72204 -1.81032 0
M  V30 23624 H 2213.89 0.0639403 -3.12034 0
M  V30 23625 N 2214.19 1.54923 -0.28923 0
M  V30 23626 C 2215.44 2.00196 0.323963 0
M  V30 23627 C 2215.77 1.17738 1.54439 0
M  V30 23628 O 2215.05 0.250912 1.92875 0
M  V30 23629 C 2215.33 3.53384 0.692214 0
M  V30 23630 C 2215.18 4.46589 -0.536535 0
M  V30 23631 C 2216.5 4.12898 1.52327 0
M  V30 23632 H 2213.62 0.72777 0.116277 0
M  V30 23633 H 2216.26 1.85764 -0.398987 0
M  V30 23634 H 2214.41 3.65813 1.30816 0
M  V30 23635 H 2216.09 4.46083 -1.17507 0
M  V30 23636 H 2214.33 4.17668 -1.17199 0
M  V30 23637 H 2215 5.515 -0.234903 0
M  V30 23638 H 2217.48 4.03832 1.00295 0
M  V30 23639 H 2216.35 5.20265 1.74973 0
M  V30 23640 H 2216.61 3.64022 2.50879 0
M  V30 23641 N 2215.67 0.0167433 1.57591 0
M  V30 23642 C 2216.63 -0.954167 2.08395 0
M  V30 23643 C 2217.63 -1.26196 0.996553 0
M  V30 23644 O 2218.82 -1.20436 1.25861 0
M  V30 23645 C 2215.96 -2.27431 2.53944 0
M  V30 23646 H 2217.15 -0.514399 2.95455 0
M  V30 23647 H 2214.7 -0.231062 1.54583 0
M  V30 23648 H 2215.44 -2.76063 1.70176 0
M  V30 23649 H 2215.22 -2.06406 3.33375 0
M  V30 23650 H 2216.71 -2.97048 2.93517 0
M  V30 23651 N 2217.15 -1.55503 -0.256249 0
M  V30 23652 C 2218.38 -1.80941 -1.00339 0
M  V30 23653 C 2218.79 -0.591171 -1.79306 0
M  V30 23654 O 2218.15 0.44005 -1.77115 0
M  V30 23655 C 2218.2 -3.0448 -1.9487 0
M  V30 23656 O 2217.92 -4.216 -1.19099 0
M  V30 23657 C 2219.42 -3.42648 -2.81259 0
M  V30 23658 H 2216.64 -0.602344 -0.295674 0
M  V30 23659 H 2219.19 -2.02547 -0.281962 0
M  V30 23660 H 2217.34 -2.84952 -2.62452 0
M  V30 23661 H 2217.76 -4.91555 -1.8296 0
M  V30 23662 H 2219.23 -4.32217 -3.43355 0
M  V30 23663 H 2219.71 -2.62808 -3.51893 0
M  V30 23664 H 2220.31 -3.64495 -2.19143 0
M  V30 23665 N 2218.63 0.521507 -1.48721 0
M  V30 23666 C 2219.56 1.63428 -1.66774 0
M  V30 23667 C 2220.54 1.62068 -0.516528 0
M  V30 23668 O 2221.72 1.79131 -0.750045 0
M  V30 23669 C 2218.85 3.0199 -1.71521 0
M  V30 23670 C 2217.81 3.18211 -2.86227 0
M  V30 23671 C 2217.13 4.57919 -2.76069 0
M  V30 23672 C 2218.43 3.00177 -4.27424 0
M  V30 23673 H 2220.13 1.48574 -2.59935 0
M  V30 23674 H 2217.67 0.713336 -1.2509 0
M  V30 23675 H 2219.63 3.79717 -1.82738 0
M  V30 23676 H 2218.35 3.17885 -0.749449 0
M  V30 23677 H 2217.01 2.42903 -2.74579 0
M  V30 23678 H 2216.66 4.70662 -1.77445 0
M  V30 23679 H 2216.36 4.69716 -3.53045 0
M  V30 23680 H 2217.88 5.37734 -2.89266 0
M  V30 23681 H 2219.3 3.67689 -4.39861 0
M  V30 23682 H 2217.69 3.23461 -5.05463 0
M  V30 23683 H 2218.76 1.96511 -4.43296 0
M  V30 23684 N 2220.11 1.37452 0.771027 0
M  V30 23685 C 2221.33 1.35895 1.56013 0
M  V30 23686 C 2221.75 -0.0555192 1.88718 0
M  V30 23687 O 2221.11 -1.0175 1.51503 0
M  V30 23688 C 2221.16 2.19806 2.86997 0
M  V30 23689 O 2220.88 3.55742 2.55694 0
M  V30 23690 C 2222.38 2.26237 3.81224 0
M  V30 23691 H 2219.6 0.465461 0.483308 0
M  V30 23692 H 2222.14 1.80801 0.955579 0
M  V30 23693 H 2220.3 1.78408 3.43874 0
M  V30 23694 H 2220.71 3.99735 3.39577 0
M  V30 23695 H 2222.19 2.89271 4.70134 0
M  V30 23696 H 2222.66 1.271 4.20407 0
M  V30 23697 H 2223.27 2.67951 3.30276 0
M  V30 23698 N 2221.58 -0.997276 1.22033 0
M  V30 23699 C 2223 -1.5507 1.03973 0
M  V30 23700 C 2223.35 -1.92118 -0.398158 0
M  V30 23701 O 2222.47 -1.743 -1.28251 0
M  V30 23702 C 2223.07 -2.81778 1.88114 0
M  V30 23703 C 2221.63 -3.33578 1.74363 0
M  V30 23704 C 2220.77 -2.06702 1.8485 0
M  V30 23705 H 2223.72 -0.818859 1.35943 0
M  V30 23706 H 2223.74 -3.53968 1.39595 0
M  V30 23707 H 2223.26 -2.54782 2.92759 0
M  V30 23708 H 2221.36 -3.65492 0.724334 0
M  V30 23709 H 2221.47 -4.04477 2.56779 0
M  V30 23710 H 2219.83 -2.20059 1.28242 0
M  V30 23711 H 2220.62 -1.82109 2.91017 0
M  V30 23712 N 2223.06 -1.02932 -1.19343 0
M  V30 23713 C 2224.29 -0.745545 -1.93537 0
M  V30 23714 C 2224.71 0.68948 -1.75008 0
M  V30 23715 O 2224.07 1.47609 -1.05268 0
M  V30 23716 C 2224.12 -1.10245 -3.43334 0
M  V30 23717 O 2223.22 -0.221361 -4.11805 0
M  V30 23718 H 2222.56 -0.275415 -0.604188 0
M  V30 23719 H 2225.09 -1.37612 -1.51407 0
M  V30 23720 H 2225.1 -1.05954 -3.94002 0
M  V30 23721 H 2223.78 -2.14792 -3.56142 0
M  V30 23722 H 2222.36 -0.322907 -3.71499 0
M  V30 23723 N 2224.54 1.35356 -0.807246 0
M  V30 23724 C 2225.77 2.03519 -0.399345 0
M  V30 23725 C 2226.19 1.60434 0.981958 0
M  V30 23726 O 2225.55 0.781328 1.636 0
M  V30 23727 C 2225.6 3.57233 -0.491615 0
M  V30 23728 O 2224.7 4.09422 0.494682 0
M  V30 23729 H 2224.04 0.642736 -0.166693 0
M  V30 23730 H 2226.57 1.72939 -1.09331 0
M  V30 23731 H 2226.58 4.06394 -0.361659 0
M  V30 23732 H 2225.26 3.87941 -1.49914 0
M  V30 23733 H 2223.83 3.71482 0.324911 0
M  V30 23734 N 2226.02 0.560807 1.47284 0
M  V30 23735 C 2227.25 0.0430626 2.06855 0
M  V30 23736 C 2227.66 -1.25226 1.41293 0
M  V30 23737 O 2227.02 -1.75209 0.510679 0
M  V30 23738 C 2227.07 -0.152455 3.61178 0
M  V30 23739 O 2226.79 1.09158 4.24283 0
M  V30 23740 C 2228.29 -0.707068 4.37625 0
M  V30 23741 H 2225.51 0.047477 0.669318 0
M  V30 23742 H 2228.06 0.775243 1.89236 0
M  V30 23743 H 2226.21 -0.834777 3.78299 0
M  V30 23744 H 2226.62 0.891573 5.16867 0
M  V30 23745 H 2228.1 -0.793148 5.46272 0
M  V30 23746 H 2228.58 -1.71916 4.04155 0
M  V30 23747 H 2229.18 -0.0603279 4.25257 0
M  V30 23748 N 2227.5 -1.54768 0.297442 0
M  V30 23749 C 2228.74 -2.01977 -0.313794 0
M  V30 23750 C 2229.1 -1.18123 -1.51364 0
M  V30 23751 O 2230.3 -1.55013 -2.196 0
M  V30 23752 C 2228.57 -3.51161 -0.664902 0
M  V30 23753 S 2230.13 -4.20335 -1.2595 0
M  V30 23754 H 2226.95 -0.704422 -0.096489 0
M  V30 23755 H 2229.55 -1.90836 0.424485 0
M  V30 23756 H 2228.26 -4.09827 0.216882 0
M  V30 23757 H 2227.79 -3.66331 -1.43406 0
M  V30 23758 H 2229.8 -4.25817 -2.54743 0
M  V30 23759 N 2228.97 -0.0251005 -1.5758 0
M  V30 23760 C 2230.39 0.514292 -1.79477 0
M  V30 23761 C 2230.74 1.72489 -0.934987 0
M  V30 23762 O 2229.86 2.15918 -0.144283 0
M  V30 23763 C 2230.46 0.939785 -3.25505 0
M  V30 23764 C 2229.02 1.42432 -3.48411 0
M  V30 23765 C 2228.16 0.387152 -2.74584 0
M  V30 23766 H 2231.11 -0.251157 -1.567 0
M  V30 23767 H 2231.13 1.80439 -3.34996 0
M  V30 23768 H 2230.65 0.0584946 -3.88056 0
M  V30 23769 H 2228.75 2.32567 -2.91107 0
M  V30 23770 H 2228.86 1.43447 -4.57121 0
M  V30 23771 H 2227.22 0.854367 -2.39943 0
M  V30 23772 H 2228.01 -0.485603 -3.39848 0
M  V30 23773 N 2230.45 1.55637 0.247999 0
M  V30 23774 C 2231.68 1.8181 0.997996 0
M  V30 23775 C 2232.1 0.60201 1.78206 0
M  V30 23776 O 2231.46 -0.44893 1.75654 0
M  V30 23777 C 2231.51 3.05708 1.91245 0
M  V30 23778 O 2230.61 2.82547 3.00401 0
M  V30 23779 H 2229.95 0.600184 0.284035 0
M  V30 23780 H 2232.48 2.0282 0.269321 0
M  V30 23781 H 2232.49 3.35112 2.32731 0
M  V30 23782 H 2231.17 3.93859 1.33595 0
M  V30 23783 H 2229.75 2.64307 2.63051 0
M  V30 23784 N 2231.93 -0.513613 1.48996 0
M  V30 23785 C 2232.86 -1.62541 1.67639 0
M  V30 23786 C 2233.84 -1.61792 0.525116 0
M  V30 23787 O 2235.03 -1.78731 0.759534 0
M  V30 23788 C 2232.16 -3.01076 1.7312 0
M  V30 23789 C 2231.11 -3.16688 2.87911 0
M  V30 23790 C 2230.44 -4.56448 2.78494 0
M  V30 23791 C 2231.74 -2.97906 4.2901 0
M  V30 23792 H 2233.43 -1.47194 2.60719 0
M  V30 23793 H 2230.98 -0.706692 1.25467 0
M  V30 23794 H 2232.93 -3.78742 1.84749 0
M  V30 23795 H 2231.65 -3.17483 0.766297 0
M  V30 23796 H 2230.31 -2.41444 2.75863 0
M  V30 23797 H 2229.96 -4.69714 1.79938 0
M  V30 23798 H 2229.66 -4.67837 3.55531 0
M  V30 23799 H 2231.19 -5.36192 2.92113 0
M  V30 23800 H 2232.6 -3.65351 4.41805 0
M  V30 23801 H 2231 -3.20776 5.07172 0
M  V30 23802 H 2232.07 -1.94157 4.44332 0
M  V30 23803 N 2233.41 -1.37859 -0.763727 0
M  V30 23804 C 2234.66 -1.33707 -1.52481 0
M  V30 23805 C 2234.99 0.075927 -1.94052 0
M  V30 23806 O 2234.26 1.03498 -1.64677 0
M  V30 23807 C 2234.55 -2.28353 -2.78437 0
M  V30 23808 C 2234.4 -3.78468 -2.43069 0
M  V30 23809 C 2235.72 -2.21304 -3.80411 0
M  V30 23810 H 2232.84 -0.487014 -0.55316 0
M  V30 23811 H 2235.48 -1.68625 -0.875532 0
M  V30 23812 H 2233.63 -1.98705 -3.33839 0
M  V30 23813 H 2235.3 -4.18746 -1.93519 0
M  V30 23814 H 2233.54 -3.96644 -1.75659 0
M  V30 23815 H 2234.22 -4.40138 -3.33141 0
M  V30 23816 H 2236.69 -2.47455 -3.34523 0
M  V30 23817 H 2235.57 -2.89656 -4.66252 0
M  V30 23818 H 2235.83 -1.20856 -4.2526 0
M  V30 23819 N 2234.89 0.990791 -1.22561 0
M  V30 23820 C 2235.8 2.11555 -1.01398 0
M  V30 23821 C 2236.81 1.73958 0.0383656 0
M  V30 23822 O 2237.99 2.00804 -0.154822 0
M  V30 23823 C 2235.05 3.41528 -0.596629 0
M  V30 23824 C 2234.12 3.93214 -1.72283 0
M  V30 23825 C 2233.35 5.16983 -1.3253 0
M  V30 23826 O 2233.57 5.70031 -0.205009 0
M  V30 23827 O 2232.51 5.62475 -2.14257 0
M  V30 23828 H 2236.33 2.32293 -1.95637 0
M  V30 23829 H 2233.92 1.09929 -1.01174 0
M  V30 23830 H 2235.8 4.19734 -0.374337 0
M  V30 23831 H 2234.47 3.22145 0.316883 0
M  V30 23832 H 2233.38 3.16171 -1.99967 0
M  V30 23833 H 2234.71 4.17032 -2.61429 0
M  V30 23834 N 2236.37 1.03564 1.18795 0
M  V30 23835 C 2237.61 0.734602 1.88276 0
M  V30 23836 C 2237.93 -0.739554 1.80432 0
M  V30 23837 O 2237.2 -1.53331 1.21928 0
M  V30 23838 H 2235.78 0.268737 0.696986 0
M  V30 23839 H 2238.45 1.31131 1.44189 0
M  V30 23840 H 2237.54 1.03494 2.94441 0
M  V30 23841 N 2237.84 -1.34926 0.814413 0
M  V30 23842 C 2239.26 -1.51595 0.499111 0
M  V30 23843 C 2239.46 -1.76158 -0.978288 0
M  V30 23844 O 2238.52 -1.80755 -1.76306 0
M  V30 23845 C 2239.83 -2.68629 1.35126 0
M  V30 23846 C 2241.38 -2.82509 1.34751 0
M  V30 23847 C 2241.85 -4.02576 2.18395 0
M  V30 23848 N 2243.34 -4.09768 2.15973 0
M  V30 23849 C 2244.08 -5.01808 2.77446 0
M  V30 23850 N 2243.57 -5.99127 3.47877 0
M  V30 23851 N 2245.37 -4.94614 2.67046 0
M  V30 23852 H 2237.52 -1.1724 1.77112 0
M  V30 23853 H 2239.78 -0.574271 0.754266 0
M  V30 23854 H 2239.49 -2.5708 2.40005 0
M  V30 23855 H 2239.36 -3.63427 1.00997 0
M  V30 23856 H 2241.75 -2.93504 0.306532 0
M  V30 23857 H 2241.83 -1.88544 1.72872 0
M  V30 23858 H 2241.47 -3.92342 3.22537 0
M  V30 23859 H 2241.4 -4.95737 1.77629 0
M  V30 23860 H 2243.89 -3.40104 1.64735 0
M  V30 23861 H 2244.21 -6.6597 3.9205 0
M  V30 23862 H 2242.55 -5.99278 3.51982 0
M  V30 23863 H 2245.74 -4.17542 2.11604 0
M  V30 23864 H 2245.92 -5.66151 3.15242 0
M  V30 23865 N 2239.32 -0.56861 -1.46985 0
M  V30 23866 C 2240.55 -0.0539536 -2.0653 0
M  V30 23867 C 2240.96 1.25023 -1.42007 0
M  V30 23868 O 2240.3 1.76346 -0.514572 0
M  V30 23869 C 2240.36 0.200791 -3.58939 0
M  V30 23870 C 2240.03 -1.01567 -4.45571 0
M  V30 23871 C 2241.03 -1.92416 -4.82983 0
M  V30 23872 C 2238.71 -1.23355 -4.86918 0
M  V30 23873 C 2240.7 -3.03412 -5.60553 0
M  V30 23874 C 2238.39 -2.34659 -5.6425 0
M  V30 23875 C 2239.39 -3.24518 -6.0098 0
M  V30 23876 O 2239.08 -4.3389 -6.76753 0
M  V30 23877 H 2238.81 -0.0480352 -0.674291 0
M  V30 23878 H 2241.36 -0.784929 -1.8981 0
M  V30 23879 H 2239.59 0.986213 -3.73913 0
M  V30 23880 H 2241.28 0.662223 -4.00461 0
M  V30 23881 H 2242.05 -1.76793 -4.5163 0
M  V30 23882 H 2237.93 -0.543259 -4.57788 0
M  V30 23883 H 2241.47 -3.73576 -5.89141 0
M  V30 23884 H 2237.37 -2.5025 -5.95017 0
M  V30 23885 H 2238.14 -4.32081 -6.95161 0
M  V30 23886 N 2240.8 1.54608 -0.305646 0
M  V30 23887 C 2242.05 1.99836 0.301666 0
M  V30 23888 C 2242.37 1.19553 1.54052 0
M  V30 23889 O 2241.64 0.292692 1.93701 0
M  V30 23890 H 2240.22 0.73818 0.114455 0
M  V30 23891 H 2242.88 1.90364 -0.41805 0
M  V30 23892 H 2241.98 3.06842 0.570494 0
M  V30 23893 N 2242.28 0.033457 1.57564 0
M  V30 23894 C 2243.24 -0.932011 2.09395 0
M  V30 23895 C 2244.24 -1.25132 1.00988 0
M  V30 23896 O 2245.43 -1.19094 1.27131 0
M  V30 23897 C 2242.56 -2.24725 2.56342 0
M  V30 23898 H 2243.76 -0.483033 2.95984 0
M  V30 23899 H 2241.31 -0.214653 1.54819 0
M  V30 23900 H 2242.04 -2.74242 1.73095 0
M  V30 23901 H 2241.83 -2.02859 3.35545 0
M  V30 23902 H 2243.32 -2.93918 2.96651 0
M  V30 23903 N 2243.76 -1.55766 -0.239741 0
M  V30 23904 C 2244.98 -1.81995 -0.984138 0
M  V30 23905 C 2245.4 -0.610156 -1.78669 0
M  V30 23906 O 2244.76 0.42124 -1.77572 0
M  V30 23907 C 2244.81 -3.0653 -1.91629 0
M  V30 23908 O 2244.53 -4.2284 -1.14621 0
M  V30 23909 C 2246.03 -3.45612 -2.77609 0
M  V30 23910 H 2243.25 -0.605446 -0.289269 0
M  V30 23911 H 2245.79 -2.02835 -0.260464 0
M  V30 23912 H 2243.95 -2.87719 -2.59415 0
M  V30 23913 H 2244.36 -4.93467 -1.77736 0
M  V30 23914 H 2245.84 -4.35834 -3.38751 0
M  V30 23915 H 2246.31 -2.66526 -3.49086 0
M  V30 23916 H 2246.92 -3.66798 -2.15265 0
M  V30 23917 N 2245.23 0.505704 -1.49266 0
M  V30 23918 C 2246.51 1.26704 -1.49015 0
M  V30 23919 C 2246.89 2.1 -0.215242 0
M  V30 23920 O 2246.24 2.13944 0.802509 0
M  V30 23921 C 2246.45 2.12778 -2.76634 0
M  V30 23922 C 2247.8 2.72122 -3.25937 0
M  V30 23923 O 2248.82 2.23049 -2.77719 0
M  V30 23924 O 2247.68 3.61444 -4.09903 0
M  V30 23925 H 2244.77 0.57312 -0.596207 0
M  V30 23926 H 2247.32 0.520361 -1.61525 0
M  V30 23927 H 2246.09 1.51174 -3.60919 0
M  V30 23928 H 2245.71 2.94648 -2.66961 0
M  V30 23929 N 2246.71 1.38262 0.756405 0
M  V30 23930 C 2247.64 1.37979 1.88372 0
M  V30 23931 C 2248.62 0.246111 1.6831 0
M  V30 23932 O 2249.81 0.448773 1.88944 0
M  V30 23933 C 2246.94 1.2013 3.25862 0
M  V30 23934 C 2245.89 2.30673 3.60519 0
M  V30 23935 C 2245.22 1.97932 4.96716 0
M  V30 23936 C 2246.52 3.72923 3.65686 0
M  V30 23937 H 2248.21 2.32315 1.88865 0
M  V30 23938 H 2245.76 1.11825 0.907253 0
M  V30 23939 H 2247.71 1.18559 4.04378 0
M  V30 23940 H 2246.44 0.222555 3.25841 0
M  V30 23941 H 2245.09 2.31425 2.8432 0
M  V30 23942 H 2244.74 0.98548 4.93252 0
M  V30 23943 H 2244.44 2.71965 5.20873 0
M  V30 23944 H 2245.97 1.97974 5.77615 0
M  V30 23945 H 2247.38 3.74216 4.34322 0
M  V30 23946 H 2245.78 4.46137 4.0135 0
M  V30 23947 H 2246.85 4.05441 2.6598 0
M  V30 23948 N 2248.19 -0.984277 1.23084 0
M  V30 23949 C 2249.61 -1.24974 0.992659 0
M  V30 23950 C 2249.81 -1.99123 -0.308583 0
M  V30 23951 O 2248.86 -2.30581 -1.02901 0
M  V30 23952 C 2250.18 -2.05308 2.19702 0
M  V30 23953 C 2251.72 -2.18461 2.24151 0
M  V30 23954 C 2252.2 -3.02185 3.44163 0
M  V30 23955 N 2253.69 -3.09771 3.44378 0
M  V30 23956 C 2254.42 -3.74867 4.33892 0
M  V30 23957 N 2253.92 -4.41817 5.33638 0
M  V30 23958 N 2255.71 -3.71714 4.21646 0
M  V30 23959 H 2247.86 -0.487417 2.06732 0
M  V30 23960 H 2250.13 -0.277928 0.906344 0
M  V30 23961 H 2249.83 -1.58195 3.14113 0
M  V30 23962 H 2249.71 -3.0606 2.2047 0
M  V30 23963 H 2252.09 -2.64784 1.30282 0
M  V30 23964 H 2252.18 -1.17111 2.27417 0
M  V30 23965 H 2251.82 -2.56561 4.38337 0
M  V30 23966 H 2251.75 -4.03697 3.38137 0
M  V30 23967 H 2254.24 -2.6213 2.72206 0
M  V30 23968 H 2254.55 -4.89255 5.98205 0
M  V30 23969 H 2252.9 -4.40538 5.37542 0
M  V30 23970 H 2256.09 -3.18576 3.42968 0
M  V30 23971 H 2256.26 -4.22164 4.91611 0
M  V30 23972 N 2249.67 -1.04192 -1.18244 0
M  V30 23973 C 2250.9 -0.766106 -1.92194 0
M  V30 23974 C 2251.31 0.676902 -1.76248 0
M  V30 23975 O 2250.67 1.46153 -1.09296 0
M  V30 23976 C 2250.72 -1.12448 -3.43566 0
M  V30 23977 O 2250.44 -2.51084 -3.5901 0
M  V30 23978 C 2251.94 -0.873351 -4.34612 0
M  V30 23979 H 2249.16 -0.279299 -0.610109 0
M  V30 23980 H 2251.71 -1.38992 -1.50005 0
M  V30 23981 H 2249.86 -0.54561 -3.83539 0
M  V30 23982 H 2250.27 -2.64839 -4.52726 0
M  V30 23983 H 2251.75 -1.17395 -5.39372 0
M  V30 23984 H 2252.23 0.191832 -4.38781 0
M  V30 23985 H 2252.83 -1.43558 -4.00339 0
M  V30 23986 N 2251.15 1.34492 -0.821557 0
M  V30 23987 C 2252.56 1.80739 -0.467988 0
M  V30 23988 C 2252.91 1.68117 1.01148 0
M  V30 23989 O 2252.03 1.22039 1.78705 0
M  V30 23990 C 2252.63 3.28153 -0.842684 0
M  V30 23991 C 2251.19 3.72484 -0.541504 0
M  V30 23992 C 2250.33 2.56227 -1.06033 0
M  V30 23993 H 2253.29 1.22259 -1.01185 0
M  V30 23994 H 2253.31 3.8022 -0.145943 0
M  V30 23995 H 2252.82 3.37308 -1.91951 0
M  V30 23996 H 2250.92 3.68869 0.52597 0
M  V30 23997 H 2251.03 4.66662 -1.08461 0
M  V30 23998 H 2249.4 2.50099 -0.481936 0
M  V30 23999 H 2250.18 2.68153 -2.14357 0
M  V30 24000 N 2252.62 0.576397 1.46681 0
M  V30 24001 C 2253.56 -0.198191 2.28342 0
M  V30 24002 C 2254.57 -0.861429 1.38142 0
M  V30 24003 O 2255.76 -0.732053 1.62798 0
M  V30 24004 C 2252.86 -1.29967 3.12989 0
M  V30 24005 C 2252.03 -0.729563 4.31273 0
M  V30 24006 C 2251.09 -1.71795 4.97366 0
M  V30 24007 O 2250.12 -1.25648 5.55159 0
M  V30 24008 N 2251.32 -3.05189 4.93801 0
M  V30 24009 H 2254.08 0.502376 2.95459 0
M  V30 24010 H 2251.64 0.413743 1.56524 0
M  V30 24011 H 2253.64 -1.96002 3.5407 0
M  V30 24012 H 2252.21 -1.90319 2.47987 0
M  V30 24013 H 2251.43 0.108081 3.94052 0
M  V30 24014 H 2252.71 -0.328348 5.07739 0
M  V30 24015 H 2252.11 -3.45309 4.48083 0
M  V30 24016 H 2250.67 -3.6673 5.38843 0
M  V30 24017 N 2254.1 -1.54444 0.313841 0
M  V30 24018 C 2255.51 -1.85867 -0.176211 0
M  V30 24019 C 2255.86 -1.23563 -1.52402 0
M  V30 24020 O 2254.99 -0.538053 -2.09604 0
M  V30 24021 C 2255.58 -3.37223 -0.32651 0
M  V30 24022 C 2254.14 -3.68631 -0.760781 0
M  V30 24023 C 2253.29 -2.77026 0.123296 0
M  V30 24024 H 2256.24 -1.4943 0.534444 0
M  V30 24025 H 2256.26 -3.62418 -1.15902 0
M  V30 24026 H 2255.77 -3.8254 0.654598 0
M  V30 24027 H 2253.88 -3.28841 -1.75198 0
M  V30 24028 H 2253.99 -4.75682 -0.571269 0
M  V30 24029 H 2252.35 -2.51547 -0.399552 0
M  V30 24030 H 2253.14 -3.25166 1.10099 0
M  V30 24031 N 2255.58 -0.0418125 -1.57545 0
M  V30 24032 C 2256.82 0.638056 -1.94186 0
M  V30 24033 C 2257.18 1.68557 -0.919368 0
M  V30 24034 O 2258.39 2.41884 -1.17241 0
M  V30 24035 C 2256.66 1.22708 -3.35675 0
M  V30 24036 S 2258.22 1.92626 -3.9426 0
M  V30 24037 H 2255.03 0.209752 -0.679356 0
M  V30 24038 H 2257.64 -0.108513 -1.95199 0
M  V30 24039 H 2256.34 0.452431 -4.07899 0
M  V30 24040 H 2255.87 2.01067 -3.38135 0
M  V30 24041 H 2257.89 3.20596 -3.78725 0
M  V30 24042 N 2257.06 1.55891 0.231477 0
M  V30 24043 C 2258.28 1.82858 0.978657 0
M  V30 24044 C 2258.71 0.620877 1.77558 0
M  V30 24045 O 2258.07 -0.430274 1.7612 0
M  V30 24046 C 2258.11 3.0772 1.87992 0
M  V30 24047 O 2257.22 2.85717 2.97388 0
M  V30 24048 H 2256.56 0.603162 0.277653 0
M  V30 24049 H 2259.09 2.03094 0.247795 0
M  V30 24050 H 2259.1 3.37562 2.29164 0
M  V30 24051 H 2257.77 3.95254 1.2941 0
M  V30 24052 H 2256.35 2.67083 2.60233 0
M  V30 24053 N 2258.54 -0.497781 1.49532 0
M  V30 24054 C 2259.95 -0.829242 1.36366 0
M  V30 24055 C 2260.15 -1.97506 0.399218 0
M  V30 24056 O 2259.21 -2.51941 -0.167933 0
M  V30 24057 C 2260.52 -1.16642 2.77155 0
M  V30 24058 C 2262.07 -1.27444 2.85879 0
M  V30 24059 C 2262.54 -1.64489 4.27443 0
M  V30 24060 N 2264.04 -1.71532 4.30268 0
M  V30 24061 C 2264.77 -2.01647 5.36774 0
M  V30 24062 N 2264.27 -2.29964 6.5352 0
M  V30 24063 N 2266.06 -2.02925 5.24193 0
M  V30 24064 H 2258.21 0.257741 2.1083 0
M  V30 24065 H 2260.47 0.0527257 0.946533 0
M  V30 24066 H 2260.18 -0.397811 3.49443 0
M  V30 24067 H 2260.05 -2.10909 3.12725 0
M  V30 24068 H 2262.44 -2.03376 2.13827 0
M  V30 24069 H 2262.52 -0.3122 2.53888 0
M  V30 24070 H 2262.17 -0.891063 5.00022 0
M  V30 24071 H 2262.1 -2.61819 4.56901 0
M  V30 24072 H 2264.59 -1.51796 3.46073 0
M  V30 24073 H 2264.9 -2.5214 7.3051 0
M  V30 24074 H 2263.24 -2.27414 6.56741 0
M  V30 24075 H 2266.44 -1.80281 4.31991 0
M  V30 24076 H 2266.61 -2.26061 6.0729 0
M  V30 24077 N 2260.01 -1.38661 -0.749062 0
M  V30 24078 C 2261.43 -1.31369 -1.32662 0
M  V30 24079 C 2261.78 0.0284495 -1.96179 0
M  V30 24080 O 2260.9 0.930536 -1.95371 0
M  V30 24081 C 2261.5 -2.37909 -2.41215 0
M  V30 24082 C 2260.06 -2.34181 -2.9468 0
M  V30 24083 C 2259.2 -2.20536 -1.68104 0
M  V30 24084 H 2262.15 -1.48953 -0.547602 0
M  V30 24085 H 2262.17 -2.03886 -3.21264 0
M  V30 24086 H 2261.69 -3.3558 -1.94956 0
M  V30 24087 H 2259.79 -1.40106 -3.45255 0
M  V30 24088 H 2259.9 -3.28496 -3.48751 0
M  V30 24089 H 2258.26 -1.67466 -1.91904 0
M  V30 24090 H 2259.05 -3.20155 -1.23918 0
M  V30 24091 N 2261.49 0.977736 -1.23605 0
M  V30 24092 C 2262.46 2.05217 -1.02072 0
M  V30 24093 C 2263.46 1.60789 0.0184023 0
M  V30 24094 O 2264.65 1.72785 -0.2216 0
M  V30 24095 C 2261.78 3.36516 -0.544985 0
M  V30 24096 H 2262.97 2.25752 -1.97424 0
M  V30 24097 H 2260.52 1.15153 -1.05686 0
M  V30 24098 H 2261.26 3.2167 0.412184 0
M  V30 24099 H 2261.04 3.70102 -1.29486 0
M  V30 24100 H 2262.53 4.15532 -0.415058 0
M  V30 24101 N 2262.97 1.04818 1.1769 0
M  V30 24102 C 2264.2 0.776241 1.92326 0
M  V30 24103 C 2264.62 -0.661551 1.76083 0
M  V30 24104 O 2263.98 -1.45916 1.07603 0
M  V30 24105 C 2264.03 1.15693 3.41537 0
M  V30 24106 O 2263.13 0.286848 4.11401 0
M  V30 24107 H 2262.47 0.284992 0.59973 0
M  V30 24108 H 2265 1.40003 1.49199 0
M  V30 24109 H 2265.01 1.12209 3.92267 0
M  V30 24110 H 2263.69 2.20431 3.5268 0
M  V30 24111 H 2262.26 0.381969 3.70939 0
M  V30 24112 N 2264.45 -1.34055 0.828678 0
M  V30 24113 C 2265.86 -1.80489 0.477566 0
M  V30 24114 C 2266.21 -1.68651 -1.00256 0
M  V30 24115 O 2265.34 -1.22985 -1.78055 0
M  V30 24116 C 2265.93 -3.27701 0.860075 0
M  V30 24117 C 2264.49 -3.72192 0.56125 0
M  V30 24118 C 2263.64 -2.55661 1.0739 0
M  V30 24119 H 2266.59 -1.2172 1.01832 0
M  V30 24120 H 2266.61 -3.80137 0.166105 0
M  V30 24121 H 2266.12 -3.36285 1.93737 0
M  V30 24122 H 2264.22 -3.69143 -0.5064 0
M  V30 24123 H 2264.34 -4.6608 1.10934 0
M  V30 24124 H 2262.7 -2.4984 0.495193 0
M  V30 24125 H 2263.48 -2.67012 2.15776 0
M  V30 24126 N 2265.93 -0.584167 -1.46374 0
M  V30 24127 C 2266.84 0.150686 -2.34116 0
M  V30 24128 C 2267.85 0.884541 -1.4984 0
M  V30 24129 O 2269.03 0.847397 -1.82705 0
M  V30 24130 C 2266.09 1.15056 -3.27052 0
M  V30 24131 C 2265.16 0.421218 -4.27229 0
M  V30 24132 C 2264.39 1.37346 -5.15725 0
M  V30 24133 O 2264.61 2.61006 -5.07181 0
M  V30 24134 O 2263.55 0.88325 -5.95384 0
M  V30 24135 H 2267.37 -0.56976 -2.98308 0
M  V30 24136 H 2264.96 -0.34456 -1.45372 0
M  V30 24137 H 2266.84 1.72705 -3.84384 0
M  V30 24138 H 2265.51 1.85245 -2.65454 0
M  V30 24139 H 2264.42 -0.197151 -3.7358 0
M  V30 24140 H 2265.75 -0.239727 -4.91616 0
M  V30 24141 N 2267.41 1.54275 -0.322027 0
M  V30 24142 C 2268.82 1.85957 0.166351 0
M  V30 24143 C 2269.17 1.2437 1.51745 0
M  V30 24144 O 2268.29 0.549161 2.09316 0
M  V30 24145 C 2268.89 3.37391 0.308622 0
M  V30 24146 C 2267.45 3.6903 0.741221 0
M  V30 24147 C 2266.59 2.76956 -0.137985 0
M  V30 24148 H 2269.54 1.49145 -0.542361 0
M  V30 24149 H 2269.57 3.63028 1.13978 0
M  V30 24150 H 2269.08 3.82187 -0.674876 0
M  V30 24151 H 2267.18 3.29765 1.73452 0
M  V30 24152 H 2267.29 4.75978 0.546035 0
M  V30 24153 H 2265.66 2.51755 0.386207 0
M  V30 24154 H 2266.44 3.24578 -1.11822 0
M  V30 24155 N 2268.88 0.0501669 1.5752 0
M  V30 24156 C 2269.79 -0.939789 2.14954 0
M  V30 24157 C 2270.81 -1.34237 1.10708 0
M  V30 24158 O 2271.99 -1.4195 1.42871 0
M  V30 24159 C 2269.05 -2.1966 2.68236 0
M  V30 24160 C 2268.11 -1.85246 3.87276 0
M  V30 24161 C 2267.34 -3.04935 4.38007 0
M  V30 24162 O 2267.57 -4.18274 3.87818 0
M  V30 24163 O 2266.5 -2.86008 5.29607 0
M  V30 24164 H 2270.33 -0.481339 2.99861 0
M  V30 24165 H 2267.91 -0.171673 1.4841 0
M  V30 24166 H 2269.79 -2.93401 3.0248 0
M  V30 24167 H 2268.47 -2.64645 1.864 0
M  V30 24168 H 2267.38 -1.08824 3.57922 0
M  V30 24169 H 2268.71 -1.45061 4.70338 0
M  V30 24170 N 2270.36 -1.56011 -0.223207 0
M  V30 24171 C 2271.29 -1.953 -1.27984 0
M  V30 24172 C 2272.27 -0.821005 -1.48975 0
M  V30 24173 O 2273.46 -1.08318 -1.61186 0
M  V30 24174 C 2270.59 -2.26827 -2.62996 0
M  V30 24175 C 2269.54 -3.42501 -2.56665 0
M  V30 24176 C 2268.87 -3.59629 -3.95691 0
M  V30 24177 C 2270.17 -4.77521 -2.11592 0
M  V30 24178 H 2271.86 -2.83812 -0.953475 0
M  V30 24179 H 2269.41 -1.36549 -0.45722 0
M  V30 24180 H 2271.36 -2.52904 -3.37072 0
M  V30 24181 H 2270.08 -1.35167 -2.97317 0
M  V30 24182 H 2268.74 -3.16471 -1.85046 0
M  V30 24183 H 2268.39 -2.65347 -4.27317 0
M  V30 24184 H 2268.09 -4.37431 -3.92337 0
M  V30 24185 H 2269.62 -3.88052 -4.71432 0
M  V30 24186 H 2271.03 -5.02814 -2.75411 0
M  V30 24187 H 2269.43 -5.58594 -2.19301 0
M  V30 24188 H 2270.5 -4.72989 -1.06816 0
M  V30 24189 N 2271.84 0.489844 -1.49794 0
M  V30 24190 C 2272.77 1.59853 -1.70203 0
M  V30 24191 C 2273.75 1.60936 -0.550789 0
M  V30 24192 O 2274.94 1.775 -0.787872 0
M  V30 24193 C 2272.07 2.98284 -1.77888 0
M  V30 24194 C 2271.02 3.12068 -2.92912 0
M  V30 24195 C 2270.35 4.5196 -2.8572 0
M  V30 24196 C 2271.65 2.91043 -4.33695 0
M  V30 24197 H 2273.34 1.43027 -2.63028 0
M  V30 24198 H 2270.89 0.686642 -1.26575 0
M  V30 24199 H 2272.84 3.75755 -1.90751 0
M  V30 24200 H 2271.56 3.16224 -0.816708 0
M  V30 24201 H 2270.22 2.37024 -2.79669 0
M  V30 24202 H 2269.87 4.66792 -1.87388 0
M  V30 24203 H 2269.57 4.62122 -3.62929 0
M  V30 24204 H 2271.09 5.31477 -3.00607 0
M  V30 24205 H 2272.51 3.58276 -4.47561 0
M  V30 24206 H 2270.9 3.12666 -5.12211 0
M  V30 24207 H 2271.97 1.87063 -4.47365 0
M  V30 24208 N 2273.32 1.39056 0.741698 0
M  V30 24209 C 2274.73 1.3207 1.31963 0
M  V30 24210 C 2275.08 -0.0180453 1.96192 0
M  V30 24211 O 2274.2 -0.920162 1.95862 0
M  V30 24212 C 2274.8 2.39185 2.3995 0
M  V30 24213 C 2273.36 2.35741 2.93434 0
M  V30 24214 C 2272.51 2.21425 1.66932 0
M  V30 24215 H 2275.46 1.49241 0.539695 0
M  V30 24216 H 2275.48 2.05587 3.20178 0
M  V30 24217 H 2274.99 3.36609 1.93174 0
M  V30 24218 H 2273.09 1.41935 3.44507 0
M  V30 24219 H 2273.2 3.30341 3.47004 0
M  V30 24220 H 2271.57 1.68481 1.91014 0
M  V30 24221 H 2272.35 3.20808 1.22218 0
M  V30 24222 N 2274.8 -0.971167 1.24121 0
M  V30 24223 C 2275.71 -2.09915 1.04751 0
M  V30 24224 C 2276.72 -1.73997 -0.0106856 0
M  V30 24225 O 2277.9 -2.00532 0.186749 0
M  V30 24226 C 2274.96 -3.40535 0.650888 0
M  V30 24227 C 2274.02 -3.90423 1.78517 0
M  V30 24228 C 2273.26 -5.14809 1.40738 0
M  V30 24229 O 2273.48 -5.69633 0.29567 0
M  V30 24230 O 2272.41 -5.58995 2.23178 0
M  V30 24231 H 2276.24 -2.29151 1.99308 0
M  V30 24232 H 2273.82 -1.08305 1.0291 0
M  V30 24233 H 2275.71 -4.19085 0.441066 0
M  V30 24234 H 2274.38 -3.22609 -0.265592 0
M  V30 24235 H 2273.29 -3.1295 2.04972 0
M  V30 24236 H 2274.62 -4.1282 2.6803 0
M  V30 24237 N 2276.27 -1.05441 -1.17133 0
M  V30 24238 C 2277.24 -0.661802 -2.19438 0
M  V30 24239 C 2278.24 0.288014 -1.582 0
M  V30 24240 O 2279.43 0.0715497 -1.74053 0
M  V30 24241 C 2276.56 0.027561 -3.40889 0
M  V30 24242 H 2277.75 -1.56732 -2.55685 0
M  V30 24243 H 2275.31 -0.84859 -1.31258 0
M  V30 24244 H 2276.04 0.946235 -3.10188 0
M  V30 24245 H 2275.83 -0.655306 -3.86585 0
M  V30 24246 H 2277.32 0.288269 -4.16604 0
M  V30 24247 N 2277.75 1.33613 -0.835776 0
M  V30 24248 C 2279.03 1.92406 -0.352051 0
M  V30 24249 C 2279.41 1.76226 1.16222 0
M  V30 24250 O 2278.76 1.14877 1.97524 0
M  V30 24251 C 2278.97 3.39812 -0.795545 0
M  V30 24252 C 2280.32 4.16961 -0.801776 0
M  V30 24253 O 2281.34 3.48451 -0.738951 0
M  V30 24254 O 2280.2 5.39259 -0.886702 0
M  V30 24255 H 2277.29 0.821056 -0.0989786 0
M  V30 24256 H 2279.84 1.42506 -0.921422 0
M  V30 24257 H 2278.61 3.45446 -1.83801 0
M  V30 24258 H 2278.23 3.97084 -0.202575 0
M  V30 24259 N 2279.23 0.591922 1.46062 0
M  V30 24260 C 2280.46 0.0850678 2.07225 0
M  V30 24261 C 2280.88 -1.21461 1.43628 0
M  V30 24262 O 2280.24 -1.73583 0.523336 0
M  V30 24263 C 2280.29 -0.0575933 3.60554 0
M  V30 24264 O 2279.39 -1.11181 3.9713 0
M  V30 24265 H 2278.73 0.0669684 0.660614 0
M  V30 24266 H 2281.26 0.817483 1.87559 0
M  V30 24267 H 2281.27 -0.260829 4.07165 0
M  V30 24268 H 2279.95 0.891488 4.06233 0
M  V30 24269 H 2278.52 -0.886292 3.62214 0
M  V30 24270 N 2280.71 -1.54102 0.330204 0
M  V30 24271 C 2281.66 -2.24568 -0.532722 0
M  V30 24272 C 2282.63 -1.23893 -1.10633 0
M  V30 24273 O 2283.81 -1.52593 -1.14543 0
M  V30 24274 C 2280.95 -3.01198 -1.68445 0
M  V30 24275 C 2280.06 -4.16702 -1.13943 0
M  V30 24276 C 2279.2 -4.80849 -2.25738 0
M  V30 24277 C 2278.24 -5.88445 -1.68519 0
M  V30 24278 N 2277.37 -6.46426 -2.74003 0
M  V30 24279 H 2282.21 -2.97906 0.0747429 0
M  V30 24280 H 2279.75 -1.4702 0.0486579 0
M  V30 24281 H 2281.71 -3.43878 -2.36228 0
M  V30 24282 H 2280.34 -2.30182 -2.2631 0
M  V30 24283 H 2279.39 -3.78759 -0.352944 0
M  V30 24284 H 2280.7 -4.94132 -0.680805 0
M  V30 24285 H 2279.86 -5.26531 -3.01413 0
M  V30 24286 H 2278.6 -4.02814 -2.7494 0
M  V30 24287 H 2277.6 -5.42159 -0.913448 0
M  V30 24288 H 2278.83 -6.6838 -1.20186 0
M  V30 24289 H 2276.77 -5.71262 -3.22484 0
M  V30 24290 H 2276.69 -7.19289 -2.32723 0
M  V30 24291 H 2277.96 -6.96763 -3.49487 0
M  V30 24292 N 2282.19 -0.0585199 -1.57491 0
M  V30 24293 C 2283.13 0.913338 -2.11959 0
M  V30 24294 C 2284.1 1.30405 -1.02877 0
M  V30 24295 O 2285.29 1.39224 -1.30466 0
M  V30 24296 C 2282.43 2.18031 -2.67501 0
M  V30 24297 C 2281.54 1.84342 -3.90694 0
M  V30 24298 C 2280.68 3.05551 -4.34525 0
M  V30 24299 C 2279.72 2.67817 -5.504 0
M  V30 24300 N 2278.85 3.81744 -5.89251 0
M  V30 24301 H 2283.69 0.441965 -2.94704 0
M  V30 24302 H 2281.23 0.20652 -1.45643 0
M  V30 24303 H 2283.19 2.92178 -2.97805 0
M  V30 24304 H 2281.82 2.62732 -1.87542 0
M  V30 24305 H 2280.87 1.00313 -3.66935 0
M  V30 24306 H 2282.18 1.52571 -4.74893 0
M  V30 24307 H 2281.34 3.8799 -4.66421 0
M  V30 24308 H 2280.07 3.40505 -3.49153 0
M  V30 24309 H 2279.08 1.83797 -5.18169 0
M  V30 24310 H 2280.3 2.34048 -6.37494 0
M  V30 24311 H 2278.25 4.16485 -5.0683 0
M  V30 24312 H 2278.17 3.53697 -6.68158 0
M  V30 24313 H 2279.44 4.648 -6.25764 0
M  V30 24314 N 2283.66 1.56128 0.21493 0
M  V30 24315 C 2284.59 1.95976 1.26947 0
M  V30 24316 C 2285.58 0.828894 1.48537 0
M  V30 24317 O 2286.76 1.09171 1.60609 0
M  V30 24318 C 2283.89 2.28218 2.6179 0
M  V30 24319 C 2282.84 3.43858 2.54845 0
M  V30 24320 C 2282.17 3.61722 3.93778 0
M  V30 24321 C 2283.47 4.78636 2.09057 0
M  V30 24322 H 2285.16 2.84314 0.93841 0
M  V30 24323 H 2282.71 1.36789 0.449972 0
M  V30 24324 H 2284.66 2.54688 3.35726 0
M  V30 24325 H 2283.39 1.36741 2.96596 0
M  V30 24326 H 2282.05 3.17447 1.83365 0
M  V30 24327 H 2281.69 2.6761 4.25904 0
M  V30 24328 H 2281.39 4.39505 3.90012 0
M  V30 24329 H 2282.92 3.90547 4.69367 0
M  V30 24330 H 2284.33 5.04267 2.72741 0
M  V30 24331 H 2282.73 5.59749 2.16336 0
M  V30 24332 H 2283.8 4.73549 1.04306 0
M  V30 24333 N 2285.14 -0.481893 1.50052 0
M  V30 24334 C 2286.55 -1.06303 1.53482 0
M  V30 24335 C 2286.9 -1.9337 0.332031 0
M  V30 24336 O 2286.03 -2.0913 -0.556219 0
M  V30 24337 C 2286.62 -1.93461 2.78133 0
M  V30 24338 C 2285.18 -2.46702 2.8428 0
M  V30 24339 C 2284.33 -1.2478 2.47639 0
M  V30 24340 H 2287.28 -0.264968 1.56472 0
M  V30 24341 H 2287.3 -2.78395 2.59377 0
M  V30 24342 H 2286.81 -1.30065 3.65656 0
M  V30 24343 H 2284.92 -3.13682 2.01082 0
M  V30 24344 H 2285.03 -2.82548 3.86915 0
M  V30 24345 H 2283.39 -1.57915 1.99837 0
M  V30 24346 H 2284.18 -0.630634 3.37458 0
M  V30 24347 N 2286.62 -1.39448 -0.734313 0
M  V30 24348 C 2287.85 -1.4017 -1.52864 0
M  V30 24349 C 2288.27 0.00168206 -1.881 0
M  V30 24350 O 2287.63 0.988853 -1.51959 0
M  V30 24351 C 2287.68 -2.28171 -2.79231 0
M  V30 24352 O 2286.78 -1.71207 -3.75182 0
M  V30 24353 H 2286.12 -0.477298 -0.461609 0
M  V30 24354 H 2288.65 -1.83451 -0.905916 0
M  V30 24355 H 2288.66 -2.42708 -3.27959 0
M  V30 24356 H 2287.34 -3.3016 -2.52917 0
M  V30 24357 H 2285.91 -1.65918 -3.33955 0
M  V30 24358 N 2288.1 0.964571 -1.24635 0
M  V30 24359 C 2289.51 1.52258 -1.08048 0
M  V30 24360 C 2289.86 1.93106 0.347082 0
M  V30 24361 O 2288.99 1.77639 1.23585 0
M  V30 24362 C 2289.58 2.76691 -1.95518 0
M  V30 24363 C 2288.14 3.28838 -1.83146 0
M  V30 24364 C 2287.29 2.01729 -1.90265 0
M  V30 24365 H 2290.24 0.782529 -1.38066 0
M  V30 24366 H 2290.26 3.50143 -1.48931 0
M  V30 24367 H 2289.77 2.46931 -2.99411 0
M  V30 24368 H 2287.87 3.63443 -0.820983 0
M  V30 24369 H 2287.98 3.97526 -2.67413 0
M  V30 24370 H 2286.35 2.16582 -1.34031 0
M  V30 24371 H 2287.13 1.74329 -2.95743 0
M  V30 24372 N 2289.58 1.0606 1.16572 0
M  V30 24373 C 2290.54 0.67343 2.19083 0
M  V30 24374 C 2291.54 -0.27962 1.5835 0
M  V30 24375 O 2292.73 -0.0623182 1.74088 0
M  V30 24376 C 2289.86 -0.00948241 3.40899 0
M  V30 24377 H 2291.05 1.58086 2.54851 0
M  V30 24378 H 2288.61 0.855539 1.30806 0
M  V30 24379 H 2289.34 -0.929772 3.10686 0
M  V30 24380 H 2289.13 0.675798 3.86232 0
M  V30 24381 H 2290.62 -0.266171 4.16751 0
M  V30 24382 N 2291.06 -1.33168 0.84285 0
M  V30 24383 C 2292.47 -1.50502 0.531154 0
M  V30 24384 C 2292.67 -1.78194 -0.940702 0
M  V30 24385 O 2291.73 -1.84454 -1.72432 0
M  V30 24386 C 2293.04 -2.65702 1.40794 0
M  V30 24387 C 2294.59 -2.79587 1.40713 0
M  V30 24388 C 2295.06 -3.97853 2.26885 0
M  V30 24389 N 2296.55 -4.05095 2.24616 0
M  V30 24390 C 2297.29 -4.9581 2.88028 0
M  V30 24391 N 2296.79 -5.91614 3.60507 0
M  V30 24392 N 2298.58 -4.88838 2.77477 0
M  V30 24393 H 2290.73 -1.13457 1.79559 0
M  V30 24394 H 2292.99 -0.558143 0.766277 0
M  V30 24395 H 2292.7 -2.51932 2.45404 0
M  V30 24396 H 2292.57 -3.61203 1.08683 0
M  V30 24397 H 2294.96 -2.92787 0.36872 0
M  V30 24398 H 2295.04 -1.84835 1.76832 0
M  V30 24399 H 2294.68 -3.85412 3.30787 0
M  V30 24400 H 2294.61 -4.91858 1.88105 0
M  V30 24401 H 2297.11 -3.36533 1.71912 0
M  V30 24402 H 2297.42 -6.57505 4.06088 0
M  V30 24403 H 2295.76 -5.91677 3.64614 0
M  V30 24404 H 2298.95 -4.12959 2.20413 0
M  V30 24405 H 2299.13 -5.59336 3.2718 0
M  V30 24406 N 2292.53 -0.599659 -1.45746 0
M  V30 24407 C 2293.5 0.113794 -2.28917 0
M  V30 24408 C 2294.5 0.802705 -1.39332 0
M  V30 24409 O 2295.69 0.652074 -1.61535 0
M  V30 24410 C 2292.82 1.17108 -3.20154 0
M  V30 24411 H 2294.01 -0.617341 -2.93477 0
M  V30 24412 H 2291.56 -0.358354 -1.52136 0
M  V30 24413 H 2292.3 1.93324 -2.60377 0
M  V30 24414 H 2292.08 0.6814 -3.86134 0
M  V30 24415 H 2293.57 1.67098 -3.82711 0
M  V30 24416 N 2294.01 1.53925 -0.338371 0
M  V30 24417 C 2295.24 2.05244 0.261262 0
M  V30 24418 C 2295.65 1.21366 1.44623 0
M  V30 24419 O 2295.01 0.247768 1.8081 0
M  V30 24420 C 2295.06 3.55021 0.68135 0
M  V30 24421 O 2294.78 4.35715 -0.456491 0
M  V30 24422 C 2296.28 4.22491 1.34224 0
M  V30 24423 H 2293.5 0.669032 0.0513568 0
M  V30 24424 H 2296.05 1.98571 -0.488857 0
M  V30 24425 H 2294.2 3.61933 1.38142 0
M  V30 24426 H 2294.62 5.24357 -0.122656 0
M  V30 24427 H 2296.09 5.28695 1.58698 0
M  V30 24428 H 2296.57 3.74518 2.29419 0
M  V30 24429 H 2297.17 4.19758 0.68435 0
M  V30 24430 N 2295.49 0.0668712 1.57458 0
M  V30 24431 C 2296.4 -0.916937 2.15938 0
M  V30 24432 C 2297.42 -1.33056 1.12126 0
M  V30 24433 O 2298.59 -1.40426 1.44369 0
M  V30 24434 C 2295.66 -2.16802 2.70551 0
M  V30 24435 C 2294.72 -1.81128 3.89219 0
M  V30 24436 C 2293.95 -3.00272 4.41217 0
M  V30 24437 O 2294.17 -4.14137 3.92233 0
M  V30 24438 O 2293.11 -2.80375 5.3261 0
M  V30 24439 H 2296.93 -0.449508 3.00355 0
M  V30 24440 H 2294.52 -0.155923 1.48584 0
M  V30 24441 H 2296.4 -2.90176 3.05575 0
M  V30 24442 H 2295.08 -2.62653 1.89196 0
M  V30 24443 H 2293.98 -1.05022 3.59056 0
M  V30 24444 H 2295.32 -1.40065 4.7185 0
M  V30 24445 N 2296.97 -1.56239 -0.206647 0
M  V30 24446 C 2298.2 -1.84042 -0.945313 0
M  V30 24447 C 2298.61 -0.647917 -1.77334 0
M  V30 24448 O 2297.97 0.38348 -1.78426 0
M  V30 24449 C 2298.02 -3.10525 -1.85084 0
M  V30 24450 O 2297.74 -4.25176 -1.05626 0
M  V30 24451 C 2299.24 -3.51423 -2.70216 0
M  V30 24452 H 2296.46 -0.611445 -0.276362 0
M  V30 24453 H 2299 -2.03341 -0.217381 0
M  V30 24454 H 2297.16 -2.93157 -2.53254 0
M  V30 24455 H 2297.57 -4.97126 -1.67229 0
M  V30 24456 H 2299.05 -4.42922 -3.2943 0
M  V30 24457 H 2299.52 -2.7387 -3.43354 0
M  V30 24458 H 2300.13 -3.71282 -2.07436 0
M  V30 24459 N 2298.45 0.473929 -1.50305 0
M  V30 24460 C 2299.72 1.23515 -1.51669 0
M  V30 24461 C 2300.1 2.09496 -0.259738 0
M  V30 24462 O 2299.45 2.15598 0.756948 0
M  V30 24463 C 2299.66 2.06863 -2.81085 0
M  V30 24464 C 2301.01 2.65147 -3.31636 0
M  V30 24465 O 2302.03 2.17108 -2.82387 0
M  V30 24466 O 2300.89 3.52668 -4.17478 0
M  V30 24467 H 2297.99 0.560344 -0.60823 0
M  V30 24468 H 2300.53 0.485982 -1.62592 0
M  V30 24469 H 2299.3 1.43484 -3.64044 0
M  V30 24470 H 2298.93 2.88919 -2.73151 0
M  V30 24471 N 2299.92 1.39835 0.726907 0
M  V30 24472 C 2300.87 1.392 1.84097 0
M  V30 24473 C 2301.84 0.250531 1.642 0
M  V30 24474 O 2303.03 0.446879 1.85493 0
M  V30 24475 C 2300.17 1.24925 3.21695 0
M  V30 24476 C 2299.28 2.48684 3.53242 0
M  V30 24477 C 2298.41 2.26936 4.80285 0
M  V30 24478 C 2297.45 3.46329 5.047 0
M  V30 24479 N 2296.59 3.23847 6.22951 0
M  V30 24480 H 2301.43 2.3443 1.83974 0
M  V30 24481 H 2298.97 1.16443 0.898856 0
M  V30 24482 H 2300.92 1.14658 4.01135 0
M  V30 24483 H 2299.55 0.33321 3.21076 0
M  V30 24484 H 2298.61 2.69524 2.68442 0
M  V30 24485 H 2299.92 3.37589 3.67199 0
M  V30 24486 H 2299.07 2.13957 5.67721 0
M  V30 24487 H 2297.81 1.35439 4.68516 0
M  V30 24488 H 2296.82 3.59798 4.15723 0
M  V30 24489 H 2298.04 4.38738 5.18349 0
M  V30 24490 H 2295.99 2.35022 6.12455 0
M  V30 24491 H 2295.9 4.06311 6.37532 0
M  V30 24492 H 2297.17 3.14578 7.13205 0
M  V30 24493 N 2301.4 -0.957948 1.25144 0
M  V30 24494 C 2302.31 -2.08792 1.06971 0
M  V30 24495 C 2303.33 -1.73998 0.00776969 0
M  V30 24496 O 2304.5 -2.00323 0.208008 0
M  V30 24497 C 2301.57 -3.39826 0.68697 0
M  V30 24498 C 2300.63 -3.88508 1.82648 0
M  V30 24499 C 2299.86 -5.13287 1.4619 0
M  V30 24500 O 2300.09 -5.69288 0.356071 0
M  V30 24501 O 2299.02 -5.56596 2.29094 0
M  V30 24502 H 2302.85 -2.27024 2.01727 0
M  V30 24503 H 2300.43 -1.07207 1.04053 0
M  V30 24504 H 2302.31 -4.18594 0.485491 0
M  V30 24505 H 2300.99 -3.22872 -0.23136 0
M  V30 24506 H 2299.89 -3.10758 2.08279 0
M  V30 24507 H 2301.23 -4.09954 2.72394 0
M  V30 24508 N 2302.88 -1.06677 -1.16008 0
M  V30 24509 C 2304.29 -0.809595 -1.68233 0
M  V30 24510 C 2304.64 0.666271 -1.84541 0
M  V30 24511 O 2303.77 1.51647 -1.54377 0
M  V30 24512 C 2304.36 -1.46304 -3.05582 0
M  V30 24513 C 2302.92 -1.25355 -3.54913 0
M  V30 24514 C 2302.07 -1.53707 -2.30801 0
M  V30 24515 H 2305.02 -1.22973 -1.00316 0
M  V30 24516 H 2305.04 -0.880496 -3.70172 0
M  V30 24517 H 2304.55 -2.53718 -2.93681 0
M  V30 24518 H 2302.65 -0.199327 -3.72066 0
M  V30 24519 H 2302.77 -1.96897 -4.3677 0
M  V30 24520 H 2301.13 -0.95778 -2.36006 0
M  V30 24521 H 2301.91 -2.62288 -2.21494 0
M  V30 24522 N 2304.36 1.32719 -0.8499 0
M  V30 24523 C 2305.29 2.2785 -0.248372 0
M  V30 24524 C 2306.3 1.52225 0.577191 0
M  V30 24525 O 2307.49 1.73904 0.402458 0
M  V30 24526 C 2304.59 3.3225 0.668048 0
M  V30 24527 C 2303.76 4.37234 -0.120611 0
M  V30 24528 C 2302.82 5.21239 0.720841 0
M  V30 24529 O 2301.85 5.68986 0.156066 0
M  V30 24530 N 2303.05 5.4361 2.03638 0
M  V30 24531 H 2305.82 2.80109 -1.06579 0
M  V30 24532 H 2303.38 1.45529 -0.709421 0
M  V30 24533 H 2305.37 3.85357 1.2362 0
M  V30 24534 H 2303.94 2.80186 1.38616 0
M  V30 24535 H 2303.16 3.84476 -0.870176 0
M  V30 24536 H 2304.45 5.04468 -0.662494 0
M  V30 24537 H 2303.85 5.06539 2.51862 0
M  V30 24538 H 2302.4 5.99731 2.55276 0
M  V30 24539 N 2305.84 0.60738 1.45426 0
M  V30 24540 C 2307.25 0.271013 1.57282 0
M  V30 24541 C 2307.45 -1.22644 1.59877 0
M  V30 24542 O 2306.51 -2.00945 1.52896 0
M  V30 24543 C 2307.82 0.942003 2.85564 0
M  V30 24544 C 2309.37 0.917902 2.99238 0
M  V30 24545 C 2309.84 1.5689 4.3029 0
M  V30 24546 N 2311.34 1.53438 4.37048 0
M  V30 24547 C 2312.07 2.00724 5.3712 0
M  V30 24548 N 2311.57 2.56095 6.43729 0
M  V30 24549 N 2313.36 1.91493 5.28476 0
M  V30 24550 H 2305.51 1.57968 1.41985 0
M  V30 24551 H 2307.77 0.661727 0.678838 0
M  V30 24552 H 2307.48 1.99638 2.89547 0
M  V30 24553 H 2307.35 0.465162 3.74321 0
M  V30 24554 H 2309.74 -0.127932 2.94823 0
M  V30 24555 H 2309.82 1.43301 2.11893 0
M  V30 24556 H 2309.47 2.61406 4.35465 0
M  V30 24557 H 2309.4 1.02882 5.16452 0
M  V30 24558 H 2311.89 1.12988 3.60613 0
M  V30 24559 H 2312.2 2.8997 7.16336 0
M  V30 24560 H 2310.54 2.60134 6.44481 0
M  V30 24561 H 2313.74 1.47975 4.44096 0
M  V30 24562 H 2313.91 2.28658 6.06316 0
M  V30 24563 N 2307.31 -1.53743 0.34653 0
M  V30 24564 C 2308.24 -2.28059 -0.501153 0
M  V30 24565 C 2309.23 -1.29736 -1.10011 0
M  V30 24566 O 2310.41 -1.58583 -1.12094 0
M  V30 24567 C 2307.54 -3.05562 -1.65073 0
M  V30 24568 C 2306.49 -4.11413 -1.17996 0
M  V30 24569 C 2305.82 -4.76889 -2.41829 0
M  V30 24570 C 2307.12 -5.21558 -0.278303 0
M  V30 24571 H 2308.81 -2.99164 0.118803 0
M  V30 24572 H 2306.36 -1.43881 0.0585784 0
M  V30 24573 H 2308.31 -3.56291 -2.25022 0
M  V30 24574 H 2307.04 -2.32113 -2.29763 0
M  V30 24575 H 2305.7 -3.61602 -0.603268 0
M  V30 24576 H 2305.34 -4.00031 -3.04933 0
M  V30 24577 H 2305.04 -5.48405 -2.1101 0
M  V30 24578 H 2306.57 -5.30403 -3.02499 0
M  V30 24579 H 2307.98 -5.67904 -0.784723 0
M  V30 24580 H 2306.38 -6.00068 -0.0618652 0
M  V30 24581 H 2307.45 -4.80041 0.684761 0
M  V30 24582 N 2308.79 -0.0752207 -1.5742 0
M  V30 24583 C 2309.72 0.888286 -2.15944 0
M  V30 24584 C 2310.7 1.30804 -1.08739 0
M  V30 24585 O 2311.89 1.37848 -1.3679 0
M  V30 24586 C 2309.02 2.15465 -2.72382 0
M  V30 24587 C 2307.97 1.87418 -3.84784 0
M  V30 24588 C 2307.3 3.20714 -4.2784 0
M  V30 24589 C 2308.6 1.17675 -5.08871 0
M  V30 24590 H 2310.29 0.400747 -2.96706 0
M  V30 24591 H 2307.84 0.191317 -1.42723 0
M  V30 24592 H 2309.79 2.83289 -3.1197 0
M  V30 24593 H 2308.52 2.66467 -1.88846 0
M  V30 24594 H 2307.17 1.21998 -3.45705 0
M  V30 24595 H 2306.82 3.69564 -3.41221 0
M  V30 24596 H 2306.52 3.02738 -5.03611 0
M  V30 24597 H 2308.05 3.8973 -4.70046 0
M  V30 24598 H 2309.46 1.75574 -5.45753 0
M  V30 24599 H 2307.86 1.09946 -5.89942 0
M  V30 24600 H 2308.93 0.156368 -4.84648 0
M  V30 24601 N 2310.27 1.56347 0.198358 0
M  V30 24602 C 2311.52 1.807 0.920616 0
M  V30 24603 C 2311.85 0.64873 1.83044 0
M  V30 24604 O 2311.12 -0.350892 1.91309 0
M  V30 24605 C 2311.41 3.1529 1.73966 0
M  V30 24606 C 2311.26 4.41604 0.854773 0
M  V30 24607 C 2312.58 3.4654 2.71289 0
M  V30 24608 H 2309.7 0.657354 0.333249 0
M  V30 24609 H 2312.34 1.89066 0.188165 0
M  V30 24610 H 2310.49 3.08289 2.36411 0
M  V30 24611 H 2312.16 4.60647 0.245281 0
M  V30 24612 H 2310.41 4.335 0.161322 0
M  V30 24613 H 2311.08 5.32266 1.46276 0
M  V30 24614 H 2313.55 3.5382 2.18977 0
M  V30 24615 H 2312.43 4.4184 3.25682 0
M  V30 24616 H 2312.69 2.6987 3.50175 0
M  V30 24617 N 2311.75 -0.465951 1.50554 0
M  V30 24618 C 2313.16 -1.04669 1.54601 0
M  V30 24619 C 2313.51 -1.93007 0.352522 0
M  V30 24620 O 2312.64 -2.09708 -0.534007 0
M  V30 24621 C 2313.23 -1.905 2.8017 0
M  V30 24622 C 2311.79 -2.43673 2.8688 0
M  V30 24623 C 2310.94 -1.22147 2.48949 0
M  V30 24624 H 2313.89 -0.248357 1.56745 0
M  V30 24625 H 2313.91 -2.75628 2.62315 0
M  V30 24626 H 2313.42 -1.2618 3.67015 0
M  V30 24627 H 2311.52 -3.11532 2.04398 0
M  V30 24628 H 2311.63 -2.78429 3.8989 0
M  V30 24629 H 2310 -1.55786 2.01501 0
M  V30 24630 H 2310.78 -0.594807 3.38108 0
M  V30 24631 N 2313.23 -1.40218 -0.719481 0
M  V30 24632 C 2314.5 -1.28786 -1.47219 0
M  V30 24633 C 2314.88 0.0955697 -2.10884 0
M  V30 24634 O 2314.23 1.10807 -1.99835 0
M  V30 24635 C 2314.44 -2.42377 -2.51106 0
M  V30 24636 C 2315.79 -2.82428 -3.17048 0
M  V30 24637 O 2316.81 -2.41942 -2.61424 0
M  V30 24638 O 2315.67 -3.52363 -4.17735 0
M  V30 24639 H 2312.77 -0.505552 -0.654482 0
M  V30 24640 H 2315.31 -1.52129 -0.751987 0
M  V30 24641 H 2314.08 -3.34797 -2.0255 0
M  V30 24642 H 2313.71 -2.20784 -3.30667 0
M  V30 24643 N 2314.7 0.951297 -1.25651 0
M  V30 24644 C 2315.95 1.69071 -1.09991 0
M  V30 24645 C 2316.27 1.9229 0.358322 0
M  V30 24646 O 2317.47 2.6396 0.63542 0
M  V30 24647 C 2315.93 3.04397 -1.92017 0
M  V30 24648 C 2315.54 2.88962 -3.42353 0
M  V30 24649 C 2317.28 3.82098 -1.84937 0
M  V30 24650 C 2315.19 4.19698 -4.16662 0
M  V30 24651 H 2314.12 0.634073 -0.408005 0
M  V30 24652 H 2316.77 1.05876 -1.49875 0
M  V30 24653 H 2315.15 3.68515 -1.44959 0
M  V30 24654 H 2316.32 2.33755 -3.97108 0
M  V30 24655 H 2314.64 2.24712 -3.50561 0
M  V30 24656 H 2317.24 4.78937 -2.37747 0
M  V30 24657 H 2317.58 4.08185 -0.817954 0
M  V30 24658 H 2318.11 3.24736 -2.29764 0
M  V30 24659 H 2314.85 3.98798 -5.20231 0
M  V30 24660 H 2314.37 4.74657 -3.66689 0
M  V30 24661 H 2316.05 4.88219 -4.2456 0
M  V30 24662 N 2316.18 1.07291 1.1544 0
M  V30 24663 C 2317.11 0.650624 2.19772 0
M  V30 24664 C 2318.13 -0.296544 1.60076 0
M  V30 24665 O 2319.32 -0.0859592 1.78293 0
M  V30 24666 C 2316.42 -0.0649803 3.38838 0
M  V30 24667 C 2315.59 0.898216 4.28078 0
M  V30 24668 C 2314.65 0.220019 5.2574 0
M  V30 24669 O 2313.67 0.860871 5.62652 0
M  V30 24670 N 2314.88 -1.03455 5.71207 0
M  V30 24671 H 2317.64 1.54812 2.56619 0
M  V30 24672 H 2315.2 0.957517 1.3055 0
M  V30 24673 H 2317.19 -0.529344 4.01223 0
M  V30 24674 H 2315.76 -0.864414 3.00411 0
M  V30 24675 H 2314.98 1.54171 3.62801 0
M  V30 24676 H 2316.27 1.55129 4.84574 0
M  V30 24677 H 2315.67 -1.57517 5.43328 0
M  V30 24678 H 2314.23 -1.44261 6.35635 0
M  V30 24679 N 2317.66 -1.32267 0.856927 0
M  V30 24680 C 2318.57 -2.32594 0.306172 0
M  V30 24681 C 2319.59 -1.64148 -0.57718 0
M  V30 24682 O 2320.76 -1.9567 -0.477009 0
M  V30 24683 C 2317.83 -3.43155 -0.4945 0
M  V30 24684 C 2316.89 -4.27287 0.415261 0
M  V30 24685 C 2316.12 -5.32569 -0.347293 0
M  V30 24686 O 2316.34 -5.48167 -1.57698 0
M  V30 24687 O 2315.28 -6.0121 0.288087 0
M  V30 24688 H 2319.1 -2.81596 1.13742 0
M  V30 24689 H 2316.69 -1.35931 0.619926 0
M  V30 24690 H 2318.57 -4.10578 -0.948871 0
M  V30 24691 H 2317.25 -2.96338 -1.30251 0
M  V30 24692 H 2316.15 -3.62665 0.917856 0
M  V30 24693 H 2317.49 -4.77635 1.18852 0
M  V30 24694 N 2319.14 -0.615084 -1.45102 0
M  V30 24695 C 2320.39 -0.110753 -2.01396 0
M  V30 24696 C 2320.7 1.26914 -1.48836 0
M  V30 24697 O 2321.91 1.86661 -1.97155 0
M  V30 24698 C 2320.36 -0.147293 -3.59598 0
M  V30 24699 C 2319.97 -1.5275 -4.21155 0
M  V30 24700 C 2321.71 0.301406 -4.23429 0
M  V30 24701 C 2319.62 -1.52002 -5.71533 0
M  V30 24702 H 2318.55 -0.0376373 -0.75306 0
M  V30 24703 H 2321.2 -0.77152 -1.66493 0
M  V30 24704 H 2319.58 0.58027 -3.91725 0
M  V30 24705 H 2320.76 -2.27737 -4.0059 0
M  V30 24706 H 2319.07 -1.91892 -3.69549 0
M  V30 24707 H 2321.67 0.326298 -5.33703 0
M  V30 24708 H 2322.01 1.32558 -3.94631 0
M  V30 24709 H 2322.55 -0.373134 -3.96046 0
M  V30 24710 H 2319.29 -2.52204 -6.0504 0
M  V30 24711 H 2318.81 -0.812845 -5.94267 0
M  V30 24712 H 2320.48 -1.24693 -6.34871 0
M  V30 24713 N 2320.62 1.53557 -0.354678 0
M  V30 24714 C 2322.03 1.596 -0.00318231 0
M  V30 24715 C 2322.23 1.37024 1.47738 0
M  V30 24716 O 2321.29 1.17 2.23757 0
M  V30 24717 C 2322.6 2.97324 -0.449342 0
M  V30 24718 C 2324.15 3.104 -0.402632 0
M  V30 24719 C 2324.63 4.50519 -0.824434 0
M  V30 24720 N 2326.12 4.56601 -0.779059 0
M  V30 24721 C 2326.85 5.6319 -1.07725 0
M  V30 24722 N 2326.35 6.77581 -1.44417 0
M  V30 24723 N 2328.14 5.5312 -1.00076 0
M  V30 24724 H 2320.29 1.66485 -1.31896 0
M  V30 24725 H 2322.55 0.780274 -0.538402 0
M  V30 24726 H 2322.26 3.18947 -1.48208 0
M  V30 24727 H 2322.13 3.76818 0.169706 0
M  V30 24728 H 2324.52 2.88493 0.620954 0
M  V30 24729 H 2324.6 2.32939 -1.05703 0
M  V30 24730 H 2324.25 4.73162 -1.84608 0
M  V30 24731 H 2324.18 5.26394 -0.147397 0
M  V30 24732 H 2326.67 3.74462 -0.508594 0
M  V30 24733 H 2326.98 7.54843 -1.65625 0
M  V30 24734 H 2325.33 6.78999 -1.48272 0
M  V30 24735 H 2328.52 4.62632 -0.713374 0
M  V30 24736 H 2328.69 6.36093 -1.23649 0
M  V30 24737 N 2322.1 0.083568 1.57378 0
M  V30 24738 C 2323.34 -0.583699 1.94218 0
M  V30 24739 C 2323.67 -1.68545 0.964683 0
M  V30 24740 O 2322.95 -1.945 -0.00418839 0
M  V30 24741 C 2323.23 -1.14966 3.41255 0
M  V30 24742 C 2323.09 -0.0537487 4.49768 0
M  V30 24743 C 2324.4 -2.05159 3.89356 0
M  V30 24744 H 2321.52 -0.210711 0.706236 0
M  V30 24745 H 2324.17 0.151933 1.89392 0
M  V30 24746 H 2322.32 -1.77659 3.45499 0
M  V30 24747 H 2323.99 0.579931 4.5764 0
M  V30 24748 H 2322.23 0.614144 4.29431 0
M  V30 24749 H 2322.9 -0.490355 5.49818 0
M  V30 24750 H 2325.38 -1.52387 3.87192 0
M  V30 24751 H 2324.25 -2.41689 4.92826 0
M  V30 24752 H 2324.51 -2.9645 3.27978 0
M  V30 24753 N 2323.57 -1.5645 -0.190064 0
M  V30 24754 C 2324.8 -1.85389 -0.929831 0
M  V30 24755 C 2325.22 -0.667735 -1.75849 0
M  V30 24756 O 2324.58 0.383428 -1.77199 0
M  V30 24757 C 2324.63 -3.12596 -1.79767 0
M  V30 24758 O 2323.73 -2.93502 -2.89708 0
M  V30 24759 H 2323.07 -0.610312 -0.261563 0
M  V30 24760 H 2325.6 -2.0368 -0.193861 0
M  V30 24761 H 2325.61 -3.43519 -2.20133 0
M  V30 24762 H 2324.29 -3.98546 -1.18885 0
M  V30 24763 H 2322.87 -2.73888 -2.5306 0
M  V30 24764 N 2325.05 0.45796 -1.50799 0
M  V30 24765 C 2326.46 1.03847 -1.55154 0
M  V30 24766 C 2326.81 1.92817 -0.362753 0
M  V30 24767 O 2325.94 2.09988 0.522878 0
M  V30 24768 C 2326.53 1.89012 -2.81176 0
M  V30 24769 C 2325.09 2.42149 -2.88168 0
M  V30 24770 C 2324.24 1.20825 -2.49593 0
M  V30 24771 H 2327.19 0.240041 -1.56874 0
M  V30 24772 H 2327.21 2.74233 -2.63774 0
M  V30 24773 H 2326.72 1.24232 -3.67679 0
M  V30 24774 H 2324.82 3.10444 -2.06047 0
M  V30 24775 H 2324.94 2.76357 -3.91361 0
M  V30 24776 H 2323.3 1.54716 -2.02324 0
M  V30 24777 H 2324.08 0.576868 -3.38419 0
M  V30 24778 N 2326.53 1.40598 0.712035 0
M  V30 24779 C 2327.78 1.38372 1.46752 0
M  V30 24780 C 2328.09 -0.00974952 1.95598 0
M  V30 24781 O 2329.3 -0.154629 2.71059 0
M  V30 24782 C 2327.75 2.43211 2.65285 0
M  V30 24783 C 2327.36 3.88386 2.23294 0
M  V30 24784 C 2329.11 2.50097 3.43004 0
M  V30 24785 C 2327.01 4.84814 3.38688 0
M  V30 24786 H 2325.94 0.514516 0.551171 0
M  V30 24787 H 2328.59 1.6635 0.774587 0
M  V30 24788 H 2326.98 2.08338 3.36766 0
M  V30 24789 H 2328.15 4.32422 1.5921 0
M  V30 24790 H 2326.46 3.85008 1.58611 0
M  V30 24791 H 2329.06 3.19327 4.28876 0
M  V30 24792 H 2329.4 1.5326 3.87062 0
M  V30 24793 H 2329.94 2.83979 2.78569 0
M  V30 24794 H 2326.68 5.82997 2.99658 0
M  V30 24795 H 2326.2 4.4544 4.01675 0
M  V30 24796 H 2327.88 5.04802 4.04703 0
M  V30 24797 N 2328.01 -0.94462 1.26153 0
M  V30 24798 C 2329.25 -1.69292 1.1166 0
M  V30 24799 C 2329.59 -1.91202 -0.339893 0
M  V30 24800 O 2328.86 -1.49021 -1.24992 0
M  V30 24801 C 2329.14 -3.06981 1.88242 0
M  V30 24802 C 2329 -2.92418 3.41777 0
M  V30 24803 C 2330.32 -4.0704 1.6735 0
M  V30 24804 H 2327.44 -0.614417 0.407015 0
M  V30 24805 H 2330.08 -1.09735 1.55108 0
M  V30 24806 H 2328.23 -3.57821 1.51315 0
M  V30 24807 H 2329.9 -2.48825 3.88438 0
M  V30 24808 H 2328.14 -2.28118 3.68978 0
M  V30 24809 H 2328.81 -3.9006 3.90586 0
M  V30 24810 H 2331.29 -3.65148 1.99515 0
M  V30 24811 H 2330.17 -5.01402 2.23354 0
M  V30 24812 H 2330.43 -4.3777 0.617235 0
M  V30 24813 N 2329.49 -1.07901 -1.1487 0
M  V30 24814 C 2330.71 -0.82696 -1.902 0
M  V30 24815 C 2331.14 0.614633 -1.77775 0
M  V30 24816 O 2330.49 1.43011 -1.11434 0
M  V30 24817 C 2330.54 -1.24708 -3.38349 0
M  V30 24818 O 2329.65 -0.395823 -4.10496 0
M  V30 24819 H 2328.99 -0.300792 -0.591963 0
M  V30 24820 H 2331.52 -1.4391 -1.45434 0
M  V30 24821 H 2331.53 -1.2257 -3.89154 0
M  V30 24822 H 2330.2 -2.29704 -3.46711 0
M  V30 24823 H 2328.78 -0.480182 -3.69795 0
M  V30 24824 N 2330.96 1.31811 -0.863929 0
M  V30 24825 C 2331.91 2.28663 -0.313343 0
M  V30 24826 C 2332.88 1.55463 0.584841 0
M  V30 24827 O 2334.07 1.8364 0.517773 0
M  V30 24828 C 2331.21 3.41684 0.48435 0
M  V30 24829 C 2330.32 4.29747 -0.440669 0
M  V30 24830 C 2329.45 5.29906 0.370558 0
M  V30 24831 C 2328.49 6.09613 -0.551272 0
M  V30 24832 N 2327.63 7.01745 0.223339 0
M  V30 24833 H 2332.47 2.75146 -1.14449 0
M  V30 24834 H 2330.01 1.35363 -0.575793 0
M  V30 24835 H 2331.96 4.05944 0.962555 0
M  V30 24836 H 2330.59 2.96327 1.28024 0
M  V30 24837 H 2329.65 3.65984 -1.0373 0
M  V30 24838 H 2330.96 4.85415 -1.14776 0
M  V30 24839 H 2330.11 5.99813 0.911533 0
M  V30 24840 H 2328.85 4.74878 1.11097 0
M  V30 24841 H 2327.86 5.38601 -1.10405 0
M  V30 24842 H 2329.08 6.66727 -1.29044 0
M  V30 24843 H 2327.03 6.49133 0.946672 0
M  V30 24844 H 2326.94 7.54807 -0.424532 0
M  V30 24845 H 2328.21 7.75925 0.745739 0
M  V30 24846 N 2332.44 0.62277 1.44773 0
M  V30 24847 C 2333.39 -0.0871274 2.30635 0
M  V30 24848 C 2334.36 -0.845072 1.42996 0
M  V30 24849 O 2335.54 -0.827782 1.71908 0
M  V30 24850 C 2332.68 -1.06839 3.28146 0
M  V30 24851 C 2331.8 -0.309733 4.30888 0
M  V30 24852 C 2330.93 -1.28206 5.15496 0
M  V30 24853 C 2329.97 -0.51209 6.09954 0
M  V30 24854 N 2329.11 -1.43446 6.8729 0
M  V30 24855 H 2333.95 0.651025 2.90802 0
M  V30 24856 H 2331.48 0.332835 1.43285 0
M  V30 24857 H 2333.44 -1.65059 3.8316 0
M  V30 24858 H 2332.07 -1.77377 2.69699 0
M  V30 24859 H 2331.12 0.388247 3.78414 0
M  V30 24860 H 2332.44 0.290341 4.97954 0
M  V30 24861 H 2331.59 -1.93586 5.74986 0
M  V30 24862 H 2330.33 -1.91607 4.48484 0
M  V30 24863 H 2329.33 0.155248 5.49581 0
M  V30 24864 H 2330.56 0.117077 6.78999 0
M  V30 24865 H 2328.51 -2.05583 6.22954 0
M  V30 24866 H 2328.42 -0.888203 7.50764 0
M  V30 24867 H 2329.69 -2.07736 7.51309 0
M  V30 24868 N 2333.92 -1.53367 0.362817 0
M  V30 24869 C 2335.17 -2.00818 -0.22729 0
M  V30 24870 C 2335.49 -1.25188 -1.49509 0
M  V30 24871 O 2334.76 -0.364382 -1.92481 0
M  V30 24872 H 2333.34 -0.741919 -0.0869792 0
M  V30 24873 H 2336 -1.88681 0.488414 0
M  V30 24874 H 2335.1 -3.08748 -0.456219 0
M  V30 24875 N 2335.4 -0.091913 -1.57332 0
M  V30 24876 C 2336.63 0.58017 -1.98287 0
M  V30 24877 C 2337.04 1.62458 -0.969741 0
M  V30 24878 O 2336.38 1.83634 0.0493178 0
M  V30 24879 C 2336.44 1.28876 -3.35606 0
M  V30 24880 C 2336.11 0.395479 -4.55286 0
M  V30 24881 C 2337.1 -0.355093 -5.18686 0
M  V30 24882 C 2334.79 0.314467 -5.01315 0
M  V30 24883 C 2336.78 -1.17469 -6.26482 0
M  V30 24884 C 2334.47 -0.508784 -6.08978 0
M  V30 24885 C 2335.47 -1.25201 -6.71427 0
M  V30 24886 O 2335.15 -2.06165 -7.77014 0
M  V30 24887 H 2334.89 0.160455 -0.656681 0
M  V30 24888 H 2337.44 -0.166916 -2.04721 0
M  V30 24889 H 2335.67 2.08235 -3.25845 0
M  V30 24890 H 2337.36 1.85506 -3.6103 0
M  V30 24891 H 2338.13 -0.302219 -4.84057 0
M  V30 24892 H 2334 0.882617 -4.52472 0
M  V30 24893 H 2337.55 -1.7553 -6.75156 0
M  V30 24894 H 2333.45 -0.56315 -6.43039 0
M  V30 24895 H 2334.21 -1.98813 -7.93987 0
M  V30 24896 N 2336.88 1.56548 0.181765 0
M  V30 24897 C 2337.81 1.98625 1.22761 0
M  V30 24898 C 2338.79 0.860215 1.46746 0
M  V30 24899 O 2339.97 1.12553 1.58257 0
M  V30 24900 C 2337.1 2.3372 2.5689 0
M  V30 24901 C 2336.06 3.49186 2.47494 0
M  V30 24902 C 2335.38 3.69993 3.86017 0
M  V30 24903 C 2336.68 4.82963 1.98857 0
M  V30 24904 H 2338.38 2.8624 0.877892 0
M  V30 24905 H 2335.92 1.37713 0.420856 0
M  V30 24906 H 2337.88 2.61752 3.30248 0
M  V30 24907 H 2336.6 1.43002 2.93629 0
M  V30 24908 H 2335.26 3.21265 1.7659 0
M  V30 24909 H 2334.91 2.76584 4.20132 0
M  V30 24910 H 2334.61 4.47679 3.80601 0
M  V30 24911 H 2336.13 4.00415 4.60977 0
M  V30 24912 H 2337.54 5.09939 2.61983 0
M  V30 24913 H 2335.94 5.64212 2.04414 0
M  V30 24914 H 2337.01 4.75654 0.942381 0
M  V30 24915 N 2338.35 -0.449957 1.5104 0
M  V30 24916 C 2339.3 -1.54332 1.67826 0
M  V30 24917 C 2340.29 -1.51836 0.532426 0
M  V30 24918 O 2341.48 -1.58502 0.78779 0
M  V30 24919 C 2338.61 -2.92625 1.79515 0
M  V30 24920 C 2337.7 -2.99925 2.99843 0
M  V30 24921 N 2338.09 -2.76993 4.23212 0
M  V30 24922 C 2336.38 -3.31077 2.98838 0
M  V30 24923 C 2337.09 -2.89809 5.04366 0
M  V30 24924 N 2336.06 -3.20932 4.38752 0
M  V30 24925 H 2339.86 -1.35335 2.60887 0
M  V30 24926 H 2337.38 -0.657059 1.48514 0
M  V30 24927 H 2339.37 -3.71267 1.89649 0
M  V30 24928 H 2338.03 -3.12652 0.876282 0
M  V30 24929 H 2339.05 -2.52164 4.52365 0
M  V30 24930 H 2335.72 -3.56959 2.16533 0
M  V30 24931 H 2337.11 -2.76141 6.12532 0
M  V30 24932 N 2339.83 -1.40974 -0.704569 0
M  V30 24933 C 2341.08 -1.39847 -1.46455 0
M  V30 24934 C 2341.41 -0.00451012 -1.94499 0
M  V30 24935 O 2340.66 0.982027 -1.69277 0
M  V30 24936 C 2340.96 -2.34404 -2.69796 0
M  V30 24937 C 2340.63 -3.81433 -2.40458 0
M  V30 24938 C 2339.29 -4.21488 -2.32167 0
M  V30 24939 C 2341.64 -4.743 -2.16077 0
M  V30 24940 C 2338.97 -5.5243 -1.97579 0
M  V30 24941 C 2341.32 -6.05552 -1.83 0
M  V30 24942 C 2339.99 -6.44638 -1.73199 0
M  V30 24943 H 2339.26 -0.511735 -0.535918 0
M  V30 24944 H 2341.9 -1.73708 -0.806093 0
M  V30 24945 H 2340.21 -1.93765 -3.40532 0
M  V30 24946 H 2341.9 -2.30809 -3.27915 0
M  V30 24947 H 2338.49 -3.49703 -2.47801 0
M  V30 24948 H 2342.68 -4.44164 -2.21433 0
M  V30 24949 H 2337.93 -5.81605 -1.88537 0
M  V30 24950 H 2342.11 -6.77019 -1.63152 0
M  V30 24951 H 2339.74 -7.46016 -1.46166 0
M  V30 24952 N 2341.31 0.937917 -1.26653 0
M  V30 24953 C 2342.24 2.05431 -1.10997 0
M  V30 24954 C 2343.22 1.70094 -0.014246 0
M  V30 24955 O 2344.41 1.93299 -0.186871 0
M  V30 24956 C 2341.54 3.39202 -0.745621 0
M  V30 24957 C 2340.49 3.88612 -1.79344 0
M  V30 24958 C 2339.82 5.19071 -1.28333 0
M  V30 24959 C 2341.12 4.13133 -3.1956 0
M  V30 24960 H 2342.81 2.18787 -2.04384 0
M  V30 24961 H 2340.36 1.0513 -0.98406 0
M  V30 24962 H 2342.31 4.1677 -0.622961 0
M  V30 24963 H 2341.03 3.25831 0.223953 0
M  V30 24964 H 2339.69 3.13228 -1.90483 0
M  V30 24965 H 2339.34 5.02084 -0.303503 0
M  V30 24966 H 2339.04 5.531 -1.98379 0
M  V30 24967 H 2340.56 5.99219 -1.1734 0
M  V30 24968 H 2341.98 4.81304 -3.1148 0
M  V30 24969 H 2340.38 4.5845 -3.87226 0
M  V30 24970 H 2341.45 3.18794 -3.65374 0
M  V30 24971 N 2342.79 1.08509 1.14296 0
M  V30 24972 C 2343.7 0.727792 2.23025 0
M  V30 24973 C 2344.71 -0.26616 1.71952 0
M  V30 24974 O 2345.89 -0.109846 2.011 0
M  V30 24975 C 2342.96 0.143602 3.46402 0
M  V30 24976 C 2342.02 1.1923 4.12411 0
M  V30 24977 C 2341.25 0.635892 5.29898 0
M  V30 24978 O 2341.47 -0.544293 5.67797 0
M  V30 24979 O 2340.41 1.38644 5.85714 0
M  V30 24980 H 2344.23 1.63485 2.55942 0
M  V30 24981 H 2341.82 0.858839 1.22247 0
M  V30 24982 H 2343.7 -0.17933 4.21018 0
M  V30 24983 H 2342.37 -0.736603 3.15208 0
M  V30 24984 H 2341.28 1.56778 3.39664 0
M  V30 24985 H 2342.61 2.04482 4.47714 0
M  V30 24986 N 2344.27 -1.31351 0.870907 0
M  V30 24987 C 2345.68 -1.78878 0.534745 0
M  V30 24988 C 2346.03 -1.71756 -0.948392 0
M  V30 24989 O 2345.15 -1.28587 -1.74053 0
M  V30 24990 C 2345.75 -3.24799 0.963896 0
M  V30 24991 C 2344.31 -3.70218 0.679376 0
M  V30 24992 C 2343.45 -2.52115 1.15469 0
M  V30 24993 H 2346.41 -1.18419 1.05653 0
M  V30 24994 H 2346.43 -3.79416 0.286958 0
M  V30 24995 H 2345.94 -3.29951 2.04338 0
M  V30 24996 H 2344.04 -3.70567 -0.388704 0
M  V30 24997 H 2344.15 -4.62315 1.25706 0
M  V30 24998 H 2342.52 -2.48138 0.574427 0
M  V30 24999 H 2343.3 -2.60012 2.24162 0
M  V30 25000 N 2345.74 -0.630439 -1.44441 0
M  V30 25001 C 2346.69 0.0967703 -2.27795 0
M  V30 25002 C 2347.68 0.81681 -1.38625 0
M  V30 25003 O 2348.87 0.703031 -1.62439 0
M  V30 25004 C 2346 1.07813 -3.25931 0
M  V30 25005 C 2345.09 0.357752 -4.22588 0
M  V30 25006 N 2345.48 -0.613258 -5.02069 0
M  V30 25007 C 2343.77 0.602287 -4.41915 0
M  V30 25008 C 2344.48 -1.03881 -5.72349 0
M  V30 25009 N 2343.45 -0.377737 -5.42286 0
M  V30 25010 H 2347.25 -0.648672 -2.86652 0
M  V30 25011 H 2344.77 -0.455889 -1.5587 0
M  V30 25012 H 2346.76 1.61371 -3.84402 0
M  V30 25013 H 2345.42 1.82388 -2.68635 0
M  V30 25014 H 2346.44 -0.991036 -5.0833 0
M  V30 25015 H 2343.11 1.33096 -3.95717 0
M  V30 25016 H 2344.5 -1.84097 -6.46187 0
M  V30 25017 N 2347.22 1.53172 -0.370945 0
M  V30 25018 C 2348.45 2.05752 0.217668 0
M  V30 25019 C 2348.87 1.24406 1.42016 0
M  V30 25020 O 2348.22 0.286065 1.80244 0
M  V30 25021 C 2348.27 3.56386 0.605891 0
M  V30 25022 O 2347.99 4.34649 -0.54881 0
M  V30 25023 C 2349.5 4.25243 1.25232 0
M  V30 25024 H 2346.72 0.669971 0.0371541 0
M  V30 25025 H 2349.26 1.97489 -0.530867 0
M  V30 25026 H 2347.41 3.64782 1.30434 0
M  V30 25027 H 2347.83 5.23978 -0.233852 0
M  V30 25028 H 2349.3 5.31943 1.47448 0
M  V30 25029 H 2349.78 3.793 2.21423 0
M  V30 25030 H 2350.39 4.21115 0.595159 0
M  V30 25031 N 2348.7 0.100255 1.57281 0
M  V30 25032 C 2349.93 -0.573846 1.99303 0
M  V30 25033 C 2350.35 -1.6061 0.979087 0
M  V30 25034 O 2349.71 -1.81226 -0.0517485 0
M  V30 25035 C 2349.76 -1.19352 3.40276 0
M  V30 25036 O 2348.86 -2.30929 3.4168 0
M  V30 25037 H 2348.2 -0.145127 0.647946 0
M  V30 25038 H 2350.73 0.183192 2.03778 0
M  V30 25039 H 2350.74 -1.53358 3.78081 0
M  V30 25040 H 2349.42 -0.437313 4.13594 0
M  V30 25041 H 2347.99 -1.98504 3.15675 0
M  V30 25042 N 2350.18 -1.56643 -0.17346 0
M  V30 25043 C 2351.43 -1.81513 -0.888674 0
M  V30 25044 C 2351.75 -0.676904 -1.82874 0
M  V30 25045 O 2351.02 0.30338 -1.93537 0
M  V30 25046 H 2349.6 -0.669588 -0.331152 0
M  V30 25047 H 2352.26 -1.94124 -0.173789 0
M  V30 25048 H 2351.36 -2.75481 -1.46686 0
M  V30 25049 N 2351.66 0.44194 -1.51277 0
M  V30 25050 C 2352.9 1.19047 -1.64922 0
M  V30 25051 C 2353.26 1.89026 -0.358764 0
M  V30 25052 O 2352.55 1.80411 0.645161 0
M  V30 25053 C 2352.75 2.23681 -2.7875 0
M  V30 25054 C 2352.57 1.63972 -4.1874 0
M  V30 25055 C 2351.34 1.42665 -4.84742 0
M  V30 25056 C 2353.54 1.11849 -5.0199 0
M  V30 25057 N 2351.52 0.785052 -6.0886 0
M  V30 25058 C 2352.9 0.60188 -6.17072 0
M  V30 25059 C 2354.95 1.00981 -4.87552 0
M  V30 25060 C 2353.65 -0.0127276 -7.19299 0
M  V30 25061 C 2355.68 0.409103 -5.89983 0
M  V30 25062 C 2355.04 -0.0969889 -7.04333 0
M  V30 25063 H 2351.14 0.42346 -0.657424 0
M  V30 25064 H 2353.72 0.487787 -1.88491 0
M  V30 25065 H 2351.9 2.91343 -2.56853 0
M  V30 25066 H 2353.63 2.90661 -2.816 0
M  V30 25067 H 2350.38 1.68711 -4.42531 0
M  V30 25068 H 2350.81 0.481823 -6.75283 0
M  V30 25069 H 2355.45 1.38696 -3.99404 0
M  V30 25070 H 2353.17 -0.402021 -8.07099 0
M  V30 25071 H 2356.75 0.326977 -5.8088 0
M  V30 25072 H 2355.63 -0.554511 -7.82237 0
M  V30 25073 N 2353.14 1.41345 0.697083 0
M  V30 25074 C 2354.1 1.42801 1.79278 0
M  V30 25075 C 2355.1 0.318865 1.57607 0
M  V30 25076 O 2356.29 0.578671 1.64308 0
M  V30 25077 C 2353.42 1.2379 3.1763 0
M  V30 25078 H 2354.61 2.40338 1.79381 0
M  V30 25079 H 2352.17 1.27465 0.90456 0
M  V30 25080 H 2352.9 0.270871 3.23167 0
M  V30 25081 H 2352.69 2.0415 3.34761 0
M  V30 25082 H 2354.18 1.2764 3.97615 0
M  V30 25083 N 2354.61 -0.931187 1.27148 0
M  V30 25084 C 2356.03 -1.20651 1.04477 0
M  V30 25085 C 2356.23 -2.00253 -0.22385 0
M  V30 25086 O 2355.29 -2.34738 -0.93029 0
M  V30 25087 C 2356.6 -1.95805 2.28212 0
M  V30 25088 C 2358.15 -2.08758 2.33215 0
M  V30 25089 C 2358.62 -2.87316 3.5667 0
M  V30 25090 N 2360.11 -2.94886 3.57206 0
M  V30 25091 C 2360.85 -3.56126 4.49401 0
M  V30 25092 N 2360.34 -4.18786 5.51896 0
M  V30 25093 N 2362.14 -3.53496 4.37032 0
M  V30 25094 H 2354.29 -0.399296 2.08613 0
M  V30 25095 H 2356.55 -0.239237 0.917317 0
M  V30 25096 H 2356.26 -1.44731 3.2054 0
M  V30 25097 H 2356.13 -2.96434 2.33253 0
M  V30 25098 H 2358.52 -2.5902 1.41395 0
M  V30 25099 H 2358.6 -1.0736 2.3218 0
M  V30 25100 H 2358.24 -2.37738 4.48824 0
M  V30 25101 H 2358.17 -3.88992 3.54955 0
M  V30 25102 H 2360.66 -2.50349 2.83079 0
M  V30 25103 H 2360.98 -4.63443 6.18418 0
M  V30 25104 H 2359.32 -4.17343 5.55743 0
M  V30 25105 H 2362.51 -3.03743 3.56171 0
M  V30 25106 H 2362.69 -4.00933 5.09074 0
M  V30 25107 N 2356.09 -1.09114 -1.13719 0
M  V30 25108 C 2357.51 -0.820198 -1.36912 0
M  V30 25109 C 2357.71 0.567045 -1.93357 0
M  V30 25110 O 2356.76 1.32251 -2.15095 0
M  V30 25111 C 2358.08 -1.90881 -2.32347 0
M  V30 25112 C 2359.62 -1.93566 -2.4597 0
M  V30 25113 C 2360.1 -3.01562 -3.44709 0
M  V30 25114 N 2361.59 -3.00781 -3.52257 0
M  V30 25115 C 2362.33 -3.80986 -4.28529 0
M  V30 25116 N 2361.82 -4.7109 -5.07982 0
M  V30 25117 N 2363.61 -3.69258 -4.23798 0
M  V30 25118 H 2355.77 -1.98554 -0.754313 0
M  V30 25119 H 2358.03 -0.86207 -0.394385 0
M  V30 25120 H 2357.73 -2.90655 -1.98022 0
M  V30 25121 H 2357.61 -1.7843 -3.32329 0
M  V30 25122 H 2360 -0.944335 -2.79582 0
M  V30 25123 H 2360.08 -2.10096 -1.45923 0
M  V30 25124 H 2359.72 -4.00906 -3.11828 0
M  V30 25125 H 2359.65 -2.82277 -4.44553 0
M  V30 25126 H 2362.14 -2.3548 -2.95563 0
M  V30 25127 H 2362.45 -5.28879 -5.63478 0
M  V30 25128 H 2360.8 -4.75128 -5.07226 0
M  V30 25129 H 2363.99 -2.98228 -3.60801 0
M  V30 25130 H 2364.16 -4.32003 -4.82988 0
M  V30 25131 N 2357.57 1.30887 -0.877861 0
M  V30 25132 C 2358.82 1.96414 -0.492731 0
M  V30 25133 C 2359.14 1.69348 0.956641 0
M  V30 25134 O 2358.4 0.986943 1.68991 0
M  V30 25135 C 2358.7 3.50361 -0.705809 0
M  V30 25136 C 2358.36 3.97463 -2.12917 0
M  V30 25137 C 2357.03 4.10036 -2.51842 0
M  V30 25138 C 2359.38 4.22127 -3.05709 0
M  V30 25139 C 2356.71 4.44628 -3.82783 0
M  V30 25140 C 2359.06 4.58186 -4.36174 0
M  V30 25141 C 2357.72 4.68967 -4.75002 0
M  V30 25142 H 2356.99 0.718729 -0.180303 0
M  V30 25143 H 2359.64 1.55881 -1.11236 0
M  V30 25144 H 2357.94 3.918 -0.00309945 0
M  V30 25145 H 2359.64 3.99123 -0.387526 0
M  V30 25146 H 2356.23 3.88179 -1.81701 0
M  V30 25147 H 2360.42 4.11901 -2.7686 0
M  V30 25148 H 2355.67 4.51173 -4.12617 0
M  V30 25149 H 2359.85 4.76222 -5.08119 0
M  V30 25150 H 2357.47 4.95527 -5.76504 0
M  V30 25151 N 2359.05 0.638091 1.44105 0
M  V30 25152 C 2360.29 0.145581 2.02277 0
M  V30 25153 C 2360.63 -1.23189 1.50127 0
M  V30 25154 O 2359.9 -1.81919 0.688165 0
M  V30 25155 C 2360.18 0.139854 3.59828 0
M  V30 25156 C 2360.04 1.55016 4.22244 0
M  V30 25157 C 2361.36 -0.531889 4.36874 0
M  V30 25158 H 2358.48 0.0543761 0.734991 0
M  V30 25159 H 2361.12 0.815893 1.7159 0
M  V30 25160 H 2359.27 -0.430939 3.86103 0
M  V30 25161 H 2360.94 2.17038 4.07053 0
M  V30 25162 H 2359.18 2.10197 3.79473 0
M  V30 25163 H 2359.85 1.49813 5.31282 0
M  V30 25164 H 2362.33 -0.046405 4.16074 0
M  V30 25165 H 2361.21 -0.50511 5.46571 0
M  V30 25166 H 2361.47 -1.60345 4.11997 0
M  V30 25167 N 2360.53 -1.52973 0.379063 0
M  V30 25168 C 2361.77 -2.01744 -0.206692 0
M  V30 25169 C 2362.1 -1.26542 -1.47312 0
M  V30 25170 O 2361.38 -0.362937 -1.91084 0
M  V30 25171 C 2361.66 -3.56819 -0.485003 0
M  V30 25172 C 2361.52 -4.42701 0.795997 0
M  V30 25173 C 2362.83 -4.21076 -1.27995 0
M  V30 25174 H 2359.95 -0.733311 -0.0736478 0
M  V30 25175 H 2362.6 -1.83121 0.506613 0
M  V30 25176 H 2360.75 -3.72818 -1.09266 0
M  V30 25177 H 2362.42 -4.38473 1.43315 0
M  V30 25178 H 2360.66 -4.10125 1.41351 0
M  V30 25179 H 2361.33 -5.49192 0.556044 0
M  V30 25180 H 2363.81 -4.08992 -0.765795 0
M  V30 25181 H 2362.68 -5.29581 -1.44343 0
M  V30 25182 H 2362.94 -3.7803 -2.29229 0
M  V30 25183 N 2362 -0.108595 -1.57225 0
M  V30 25184 C 2363.25 0.552727 -1.95122 0
M  V30 25185 C 2363.58 1.66989 -0.991375 0
M  V30 25186 O 2362.86 1.94482 -0.0267553 0
M  V30 25187 C 2363.14 1.09522 -3.43041 0
M  V30 25188 C 2362.99 -0.0178123 -4.49796 0
M  V30 25189 C 2364.31 1.98938 -3.9257 0
M  V30 25190 H 2361.43 0.199449 -0.709499 0
M  V30 25191 H 2364.07 -0.182044 -1.89126 0
M  V30 25192 H 2362.22 1.7214 -3.48282 0
M  V30 25193 H 2363.9 -0.652664 -4.5666 0
M  V30 25194 H 2362.14 -0.682385 -4.28399 0
M  V30 25195 H 2362.81 0.402822 -5.50528 0
M  V30 25196 H 2365.29 1.46207 -3.89567 0
M  V30 25197 H 2364.16 2.33818 -4.96609 0
M  V30 25198 H 2364.42 2.91195 -3.32653 0
M  V30 25199 N 2363.48 1.56732 0.16515 0
M  V30 25200 C 2364.9 1.50989 0.517148 0
M  V30 25201 C 2365.1 0.813926 1.8433 0
M  V30 25202 O 2364.15 0.376864 2.49672 0
M  V30 25203 C 2365.47 2.95734 0.544209 0
M  V30 25204 C 2367.01 3.06574 0.630985 0
M  V30 25205 C 2367.49 4.5279 0.688881 0
M  V30 25206 N 2368.98 4.57061 0.751602 0
M  V30 25207 C 2369.72 5.67549 0.817077 0
M  V30 25208 N 2369.21 6.87652 0.843008 0
M  V30 25209 N 2371 5.55535 0.856571 0
M  V30 25210 H 2363.16 2.00381 -0.704353 0
M  V30 25211 H 2365.42 0.913143 -0.254703 0
M  V30 25212 H 2365.12 3.49835 -0.361668 0
M  V30 25213 H 2365 3.50713 1.38854 0
M  V30 25214 H 2367.39 2.52503 1.52729 0
M  V30 25215 H 2367.47 2.5467 -0.24014 0
M  V30 25216 H 2367.11 5.07493 -0.203189 0
M  V30 25217 H 2367.04 5.02456 1.57624 0
M  V30 25218 H 2369.53 3.70592 0.739596 0
M  V30 25219 H 2369.84 7.67608 0.894313 0
M  V30 25220 H 2368.19 6.9025 0.811183 0
M  V30 25221 H 2371.38 4.60622 0.833356 0
M  V30 25222 H 2371.55 6.41661 0.904134 0
M  V30 25223 N 2364.96 -0.433911 1.51509 0
M  V30 25224 C 2366.38 -0.770658 1.39761 0
M  V30 25225 C 2366.58 -1.95635 0.482628 0
M  V30 25226 O 2365.63 -2.52426 -0.0609248 0
M  V30 25227 C 2366.95 -1.04782 2.81853 0
M  V30 25228 C 2368.49 -1.15204 2.91027 0
M  V30 25229 C 2368.97 -1.46212 4.34035 0
M  V30 25230 N 2370.46 -1.53129 4.37157 0
M  V30 25231 C 2371.19 -1.78699 5.44843 0
M  V30 25232 N 2370.69 -2.02039 6.62685 0
M  V30 25233 N 2372.48 -1.8051 5.32328 0
M  V30 25234 H 2364.63 0.346929 2.09548 0
M  V30 25235 H 2366.9 0.092824 0.943445 0
M  V30 25236 H 2366.6 -0.249242 3.50816 0
M  V30 25237 H 2366.48 -1.97456 3.21389 0
M  V30 25238 H 2368.86 -1.94124 2.22261 0
M  V30 25239 H 2368.95 -0.204236 2.54983 0
M  V30 25240 H 2368.59 -0.678185 5.03352 0
M  V30 25241 H 2368.52 -2.42204 4.67595 0
M  V30 25242 H 2371.01 -1.36981 3.522 0
M  V30 25243 H 2371.32 -2.2093 7.40547 0
M  V30 25244 H 2369.67 -1.99354 6.65795 0
M  V30 25245 H 2372.86 -1.61797 4.39249 0
M  V30 25246 H 2373.03 -2.001 6.16331 0
M  V30 25247 N 2366.44 -1.41713 -0.689577 0
M  V30 25248 C 2367.85 -1.36877 -1.26971 0
M  V30 25249 C 2368.2 -0.0547825 -1.96124 0
M  V30 25250 O 2367.33 0.846835 -1.99142 0
M  V30 25251 C 2367.92 -2.47926 -2.30907 0
M  V30 25252 C 2366.48 -2.46469 -2.84482 0
M  V30 25253 C 2365.63 -2.27468 -1.58599 0
M  V30 25254 H 2368.58 -1.51142 -0.483933 0
M  V30 25255 H 2368.6 -2.17329 -3.12328 0
M  V30 25256 H 2368.11 -3.43546 -1.80548 0
M  V30 25257 H 2366.21 -1.54623 -3.39002 0
M  V30 25258 H 2366.32 -3.42992 -3.34504 0
M  V30 25259 H 2364.69 -1.75455 -1.84629 0
M  V30 25260 H 2365.47 -3.25123 -1.10227 0
M  V30 25261 N 2367.92 0.924431 -1.2764 0
M  V30 25262 C 2369.15 1.704 -1.16822 0
M  V30 25263 C 2369.55 1.87159 0.277158 0
M  V30 25264 O 2368.9 1.39069 1.20023 0
M  V30 25265 C 2368.96 3.12163 -1.78311 0
M  V30 25266 C 2368.62 3.18729 -3.27507 0
M  V30 25267 C 2369.62 3.00731 -4.24095 0
M  V30 25268 C 2367.31 3.41583 -3.68275 0
M  V30 25269 C 2369.3 3.05482 -5.59428 0
M  V30 25270 C 2366.99 3.45968 -5.03736 0
M  V30 25271 C 2367.98 3.27936 -5.99122 0
M  V30 25272 O 2367.67 3.32061 -7.32114 0
M  V30 25273 H 2367.4 0.539792 -0.40694 0
M  V30 25274 H 2369.96 1.16623 -1.6908 0
M  V30 25275 H 2368.19 3.67435 -1.20534 0
M  V30 25276 H 2369.88 3.721 -1.62161 0
M  V30 25277 H 2370.64 2.82912 -3.93936 0
M  V30 25278 H 2366.52 3.54668 -2.94502 0
M  V30 25279 H 2370.07 2.91326 -6.33857 0
M  V30 25280 H 2365.96 3.63312 -5.33549 0
M  V30 25281 H 2366.73 3.48494 -7.40604 0
M  V30 25282 N 2369.39 1.09715 1.13139 0
M  V30 25283 C 2370.36 0.742789 2.1683 0
M  V30 25284 C 2371.36 -0.229101 1.5916 0
M  V30 25285 O 2372.55 -0.00690175 1.74199 0
M  V30 25286 C 2369.68 0.0989767 3.40756 0
M  V30 25287 H 2370.87 1.66114 2.49692 0
M  V30 25288 H 2368.43 0.896721 1.28018 0
M  V30 25289 H 2369.16 -0.830459 3.13487 0
M  V30 25290 H 2368.95 0.798333 3.83887 0
M  V30 25291 H 2370.44 -0.13345 4.17387 0
M  V30 25292 N 2370.87 -1.30419 0.88479 0
M  V30 25293 C 2372.1 -2.00018 0.517328 0
M  V30 25294 C 2372.51 -1.66499 -0.898603 0
M  V30 25295 O 2371.85 -0.898209 -1.60243 0
M  V30 25296 C 2371.92 -3.54251 0.612088 0
M  V30 25297 C 2371.58 -4.11287 1.99229 0
M  V30 25298 C 2372.58 -4.27295 2.96167 0
M  V30 25299 C 2370.26 -4.4667 2.29763 0
M  V30 25300 C 2372.26 -4.77898 4.21773 0
M  V30 25301 C 2369.94 -4.96972 3.55615 0
M  V30 25302 C 2370.94 -5.12539 4.51434 0
M  V30 25303 O 2370.63 -5.61756 5.75053 0
M  V30 25304 H 2370.36 -0.646187 0.198541 0
M  V30 25305 H 2372.91 -1.67279 1.19193 0
M  V30 25306 H 2371.14 -3.86515 -0.119493 0
M  V30 25307 H 2372.83 -4.05092 0.25593 0
M  V30 25308 H 2373.6 -4.00262 2.73889 0
M  V30 25309 H 2369.48 -4.33821 1.5595 0
M  V30 25310 H 2373.02 -4.89964 4.9657 0
M  V30 25311 H 2368.92 -5.23441 3.7773 0
M  V30 25312 H 2369.69 -5.80099 5.77432 0
M  V30 25313 N 2372.35 -0.645724 -1.43764 0
M  V30 25314 C 2373.28 0.100032 -2.27981 0
M  V30 25315 C 2374.26 0.837169 -1.39392 0
M  V30 25316 O 2375.45 0.838276 -1.68835 0
M  V30 25317 C 2372.57 1.14818 -3.18645 0
M  V30 25318 C 2371.62 0.509935 -4.23441 0
M  V30 25319 S 2372.45 -0.710917 -5.3076 0
M  V30 25320 C 2373.61 0.33688 -6.24993 0
M  V30 25321 H 2373.84 -0.614373 -2.90883 0
M  V30 25322 H 2371.37 -0.43433 -1.48165 0
M  V30 25323 H 2373.33 1.74792 -3.71427 0
M  V30 25324 H 2371.99 1.83486 -2.54935 0
M  V30 25325 H 2371.19 1.29982 -4.8695 0
M  V30 25326 H 2370.79 -0.0155235 -3.73997 0
M  V30 25327 H 2373.08 1.20525 -6.66693 0
M  V30 25328 H 2374.02 -0.263003 -7.07611 0
M  V30 25329 H 2374.43 0.669326 -5.60518 0
M  V30 25330 N 2373.83 1.5277 -0.38717 0
M  V30 25331 C 2375.06 2.05672 0.195549 0
M  V30 25332 C 2375.47 1.2589 1.41239 0
M  V30 25333 O 2374.81 0.298113 1.81265 0
M  V30 25334 C 2374.87 3.53896 0.632265 0
M  V30 25335 C 2374.54 4.54568 -0.470819 0
M  V30 25336 C 2375.53 5.02665 -1.32755 0
M  V30 25337 C 2373.22 4.98241 -0.637239 0
M  V30 25338 C 2375.21 5.93057 -2.33585 0
M  V30 25339 C 2372.9 5.88435 -1.64888 0
M  V30 25340 C 2373.9 6.35735 -2.4966 0
M  V30 25341 O 2373.58 7.24146 -3.49095 0
M  V30 25342 H 2373.32 0.675162 0.0336462 0
M  V30 25343 H 2375.87 1.97892 -0.550255 0
M  V30 25344 H 2374.1 3.59287 1.43001 0
M  V30 25345 H 2375.79 3.8955 1.14041 0
M  V30 25346 H 2376.56 4.69657 -1.21028 0
M  V30 25347 H 2372.43 4.60998 0.0128757 0
M  V30 25348 H 2375.98 6.29899 -2.99788 0
M  V30 25349 H 2371.88 6.20857 -1.76654 0
M  V30 25350 H 2372.64 7.42202 -3.45078 0
M  V30 25351 N 2375.31 0.116931 1.57166 0
M  V30 25352 C 2376.25 -0.85138 2.16458 0
M  V30 25353 C 2377.25 -1.27684 1.11325 0
M  V30 25354 O 2378.45 -1.24882 1.29632 0
M  V30 25355 H 2374.83 -0.29266 0.692715 0
M  V30 25356 H 2376.8 -0.326797 2.96605 0
M  V30 25357 C 2375.55 -2.09241 2.77693 0
M  V30 25358 H 2374.87 -1.77396 3.58289 0
M  V30 25359 H 2376.31 -2.75004 3.22721 0
M  V30 25360 C 2374.77 -2.88082 1.74672 0
M  V30 25361 O 2375.3 -3.83394 1.19884 0
M  V30 25362 N 2373.51 -2.52035 1.44661 0
M  V30 25363 H 2373.05 -1.74596 1.89405 0
M  V30 25364 H 2373.01 -3.05083 0.759729 0
M  V30 25365 N 2376.78 -1.56818 -0.156836 0
M  V30 25366 C 2378.01 -1.87319 -0.890298 0
M  V30 25367 C 2378.43 -0.704885 -1.74393 0
M  V30 25368 O 2377.79 0.345755 -1.77973 0
M  V30 25369 C 2377.84 -3.16339 -1.73096 0
M  V30 25370 O 2376.94 -2.99581 -2.83417 0
M  V30 25371 H 2376.29 -0.615723 -0.248559 0
M  V30 25372 H 2378.82 -2.04045 -0.150614 0
M  V30 25373 H 2378.83 -3.48111 -2.12797 0
M  V30 25374 H 2377.5 -4.00978 -1.10405 0
M  V30 25375 H 2376.08 -2.79194 -2.47194 0
M  V30 25376 N 2378.26 0.425871 -1.51737 0
M  V30 25377 C 2379.54 1.18627 -1.55522 0
M  V30 25378 C 2379.92 2.08564 -0.326256 0
M  V30 25379 O 2379.27 2.17897 0.687974 0
M  V30 25380 C 2379.48 1.97815 -2.87524 0
M  V30 25381 C 2380.83 2.54462 -3.39903 0
M  V30 25382 O 2381.85 2.08014 -2.89152 0
M  V30 25383 O 2380.71 3.39208 -4.28486 0
M  V30 25384 H 2377.8 0.54071 -0.625749 0
M  V30 25385 H 2380.35 0.434009 -1.64056 0
M  V30 25386 H 2379.12 1.3183 -3.68425 0
M  V30 25387 H 2378.74 2.80083 -2.82205 0
M  V30 25388 N 2379.74 1.42077 0.682052 0
M  V30 25389 C 2380.69 1.44987 1.79576 0
M  V30 25390 C 2381.66 0.302643 1.6332 0
M  V30 25391 O 2382.84 0.505665 1.83977 0
M  V30 25392 C 2379.98 1.35096 3.17558 0
M  V30 25393 C 2379.1 2.59797 3.45152 0
M  V30 25394 C 2378.23 2.42101 4.72822 0
M  V30 25395 C 2377.27 3.6221 4.93427 0
M  V30 25396 N 2376.41 3.43502 6.12332 0
M  V30 25397 H 2381.25 2.40164 1.76423 0
M  V30 25398 H 2378.78 1.19244 0.861355 0
M  V30 25399 H 2380.74 1.27361 3.97284 0
M  V30 25400 H 2379.37 0.435189 3.19853 0
M  V30 25401 H 2378.42 2.77928 2.59731 0
M  V30 25402 H 2379.74 3.491 3.56273 0
M  V30 25403 H 2378.89 2.3191 5.60627 0
M  V30 25404 H 2377.63 1.50276 4.6397 0
M  V30 25405 H 2376.63 3.72841 4.04066 0
M  V30 25406 H 2377.86 4.55007 5.04128 0
M  V30 25407 H 2375.8 2.54388 6.04668 0
M  V30 25408 H 2375.72 4.26388 6.24283 0
M  V30 25409 H 2376.99 3.37109 7.02835 0
M  V30 25410 N 2381.22 -0.917649 1.28129 0
M  V30 25411 C 2382.5 -1.6454 1.05764 0
M  V30 25412 C 2382.88 -2.07192 -0.404308 0
M  V30 25413 O 2382.22 -1.8139 -1.3896 0
M  V30 25414 C 2382.43 -2.83986 2.02862 0
M  V30 25415 C 2383.78 -3.55096 2.32792 0
M  V30 25416 O 2384.81 -2.94128 2.00915 0
M  V30 25417 O 2383.67 -4.64964 2.87178 0
M  V30 25418 H 2380.76 -0.721645 0.403928 0
M  V30 25419 H 2383.31 -0.967298 1.39433 0
M  V30 25420 H 2382.08 -2.49533 3.01412 0
M  V30 25421 H 2381.7 -3.59511 1.69816 0
M  V30 25422 N 2382.7 -1.10314 -1.12555 0
M  V30 25423 C 2383.93 -0.866906 -1.87863 0
M  V30 25424 C 2384.34 0.582525 -1.79589 0
M  V30 25425 O 2383.7 1.40154 -1.1689 0
M  V30 25426 C 2383.75 -1.30502 -3.37122 0
M  V30 25427 O 2383.47 -2.69761 -3.45196 0
M  V30 25428 C 2384.97 -1.1025 -4.29371 0
M  V30 25429 H 2382.19 -0.311246 -0.594447 0
M  V30 25430 H 2384.73 -1.46748 -1.42426 0
M  V30 25431 H 2382.89 -0.748148 -3.80107 0
M  V30 25432 H 2383.3 -2.88465 -4.3805 0
M  V30 25433 H 2384.78 -1.45821 -5.32391 0
M  V30 25434 H 2385.25 -0.0410263 -4.39181 0
M  V30 25435 H 2385.86 -1.64578 -3.92166 0
M  V30 25436 N 2384.18 1.29948 -0.891694 0
M  V30 25437 C 2385.42 1.9617 -0.514296 0
M  V30 25438 C 2385.75 1.70184 0.935476 0
M  V30 25439 O 2385.03 1.01031 1.66202 0
M  V30 25440 C 2385.31 3.51152 -0.79778 0
M  V30 25441 C 2385.17 3.86628 -2.29867 0
M  V30 25442 C 2386.48 4.39216 -0.278826 0
M  V30 25443 H 2383.6 0.712532 -0.188327 0
M  V30 25444 H 2386.25 1.53704 -1.11691 0
M  V30 25445 H 2384.4 3.87454 -0.284894 0
M  V30 25446 H 2386.07 3.60314 -2.88048 0
M  V30 25447 H 2384.31 3.34457 -2.76263 0
M  V30 25448 H 2384.98 4.94769 -2.44761 0
M  V30 25449 H 2387.46 4.0986 -0.717897 0
M  V30 25450 H 2386.33 5.46559 -0.506449 0
M  V30 25451 H 2386.59 4.34425 0.82019 0
M  V30 25452 N 2385.65 0.653339 1.4342 0
M  V30 25453 C 2386.56 -0.0388153 2.34568 0
M  V30 25454 C 2387.58 -0.812043 1.53889 0
M  V30 25455 O 2388.76 -0.759261 1.8654 0
M  V30 25456 C 2385.82 -0.99321 3.32169 0
M  V30 25457 C 2384.88 -0.216902 4.28752 0
M  V30 25458 C 2384.11 -1.12584 5.2169 0
M  V30 25459 O 2384.34 -2.3651 5.19056 0
M  V30 25460 O 2383.27 -0.598179 5.9892 0
M  V30 25461 H 2387.1 0.711438 2.95249 0
M  V30 25462 H 2384.68 0.413527 1.43563 0
M  V30 25463 H 2386.56 -1.54169 3.92186 0
M  V30 25464 H 2385.24 -1.72369 2.7399 0
M  V30 25465 H 2384.15 0.375166 3.72214 0
M  V30 25466 H 2385.48 0.474011 4.89912 0
M  V30 25467 N 2387.13 -1.52563 0.395266 0
M  V30 25468 C 2388.55 -1.59535 0.0454962 0
M  V30 25469 C 2388.75 -1.40893 -1.44054 0
M  V30 25470 O 2387.8 -1.22891 -2.20576 0
M  V30 25471 C 2389.12 -2.96028 0.528015 0
M  V30 25472 C 2390.66 -3.09223 0.484788 0
M  V30 25473 C 2391.14 -4.48174 0.943591 0
M  V30 25474 N 2392.63 -4.54375 0.899845 0
M  V30 25475 C 2393.37 -5.60136 1.22619 0
M  V30 25476 N 2392.86 -6.73514 1.62331 0
M  V30 25477 N 2394.65 -5.50272 1.14706 0
M  V30 25478 H 2386.81 -1.62929 1.36264 0
M  V30 25479 H 2389.07 -0.765725 0.5589 0
M  V30 25480 H 2388.77 -3.14905 1.56612 0
M  V30 25481 H 2388.65 -3.77136 -0.0697393 0
M  V30 25482 H 2391.04 -2.90038 -0.544247 0
M  V30 25483 H 2391.12 -2.30054 1.11842 0
M  V30 25484 H 2390.76 -4.68101 1.97088 0
M  V30 25485 H 2390.69 -5.25818 0.286909 0
M  V30 25486 H 2393.18 -3.72982 0.607697 0
M  V30 25487 H 2393.49 -7.50186 1.8558 0
M  V30 25488 H 2391.84 -6.7483 1.66223 0
M  V30 25489 H 2395.03 -4.60578 0.835782 0
M  V30 25490 H 2395.2 -6.32592 1.40471 0
M  V30 25491 N 2388.61 -0.125265 -1.57101 0
M  V30 25492 C 2389.86 0.531213 -1.95408 0
M  V30 25493 C 2390.18 1.66286 -1.00893 0
M  V30 25494 O 2389.44 1.95671 -0.0339775 0
M  V30 25495 C 2389.74 1.09856 -3.40098 0
M  V30 25496 C 2389.4 0.0876197 -4.50815 0
M  V30 25497 C 2388.07 -0.190345 -4.80823 0
M  V30 25498 C 2390.42 -0.600993 -5.17723 0
M  V30 25499 C 2387.75 -1.1631 -5.75056 0
M  V30 25500 C 2390.1 -1.56242 -6.13002 0
M  V30 25501 C 2388.76 -1.84831 -6.414 0
M  V30 25502 H 2388.03 0.194385 -0.715049 0
M  V30 25503 H 2390.68 -0.207497 -1.90373 0
M  V30 25504 H 2388.98 1.91416 -3.41858 0
M  V30 25505 H 2390.68 1.61471 -3.67053 0
M  V30 25506 H 2387.27 0.314453 -4.27445 0
M  V30 25507 H 2391.46 -0.39942 -4.9469 0
M  V30 25508 H 2386.71 -1.39127 -5.9536 0
M  V30 25509 H 2390.89 -2.10165 -6.63931 0
M  V30 25510 H 2388.51 -2.60361 -7.14224 0
M  V30 25511 N 2390.09 1.56899 0.148518 0
M  V30 25512 C 2391.33 1.83537 0.862662 0
M  V30 25513 C 2391.67 0.706635 1.80888 0
M  V30 25514 O 2390.94 -0.289851 1.92328 0
M  V30 25515 C 2391.22 3.20665 1.63847 0
M  V30 25516 C 2391.08 4.44099 0.713847 0
M  V30 25517 C 2392.4 3.54996 2.60127 0
M  V30 25518 H 2389.52 0.667623 0.312167 0
M  V30 25519 H 2392.16 1.89569 0.12792 0
M  V30 25520 H 2390.31 3.15654 2.26483 0
M  V30 25521 H 2391.98 4.61195 0.0986049 0
M  V30 25522 H 2390.22 4.33794 0.0233256 0
M  V30 25523 H 2390.89 5.3665 1.29268 0
M  V30 25524 H 2393.37 3.60607 2.0761 0
M  V30 25525 H 2392.25 4.51977 3.1146 0
M  V30 25526 H 2392.51 2.80874 3.41412 0
M  V30 25527 N 2391.57 -0.417818 1.51961 0
M  V30 25528 C 2392.5 -1.51551 1.77636 0
M  V30 25529 C 2393.48 -1.58125 0.626946 0
M  V30 25530 O 2394.66 -1.73539 0.871662 0
M  V30 25531 C 2391.79 -2.89457 1.91917 0
M  V30 25532 C 2390.75 -2.97737 3.07468 0
M  V30 25533 C 2390.07 -4.37813 3.06959 0
M  V30 25534 C 2391.37 -2.70019 4.47087 0
M  V30 25535 H 2393.07 -1.30315 2.69552 0
M  V30 25536 H 2390.61 -0.625469 1.29707 0
M  V30 25537 H 2392.56 -3.66226 2.08461 0
M  V30 25538 H 2391.29 -3.11967 0.966653 0
M  V30 25539 H 2389.95 -2.23411 2.9066 0
M  V30 25540 H 2389.6 -4.5732 2.09446 0
M  V30 25541 H 2389.3 -4.4428 3.84564 0
M  V30 25542 H 2390.82 -5.16529 3.25622 0
M  V30 25543 H 2392.23 -3.36514 4.64145 0
M  V30 25544 H 2390.63 -2.87872 5.26545 0
M  V30 25545 H 2391.7 -1.65506 4.5578 0
M  V30 25546 N 2393.04 -1.42436 -0.674508 0
M  V30 25547 C 2393.99 -1.46173 -1.80932 0
M  V30 25548 C 2394.99 -0.337429 -1.66005 0
M  V30 25549 O 2396.19 -0.510455 -1.7261 0
M  V30 25550 H 2392.57 -0.457809 -0.596586 0
M  V30 25551 H 2394.54 -2.4177 -1.74899 0
M  V30 25552 C 2393.29 -1.38128 -3.19086 0
M  V30 25553 H 2392.61 -2.23936 -3.31199 0
M  V30 25554 H 2394.05 -1.44804 -3.98507 0
M  V30 25555 C 2392.51 -0.0961109 -3.36763 0
M  V30 25556 O 2393.04 0.851004 -3.92582 0
M  V30 25557 N 2391.24 -0.0131697 -2.90597 0
M  V30 25558 H 2390.79 -0.784683 -2.45358 0
M  V30 25559 H 2390.75 0.84608 -3.02802 0
M  V30 25560 N 2394.52 0.910841 -1.28614 0
M  V30 25561 C 2395.45 2.0303 -1.15329 0
M  V30 25562 C 2396.43 1.70026 -0.0503222 0
M  V30 25563 O 2397.62 1.92859 -0.22783 0
M  V30 25564 C 2394.75 3.37544 -0.817403 0
M  V30 25565 C 2393.7 3.84721 -1.87547 0
M  V30 25566 C 2393.03 5.16232 -1.39314 0
M  V30 25567 C 2394.33 4.06261 -3.28251 0
M  V30 25568 H 2396.02 2.14402 -2.08979 0
M  V30 25569 H 2393.57 1.03019 -1.00614 0
M  V30 25570 H 2395.52 4.15355 -0.711224 0
M  V30 25571 H 2394.24 3.26233 0.154789 0
M  V30 25572 H 2392.9 3.09117 -1.97084 0
M  V30 25573 H 2392.55 5.01327 -0.409934 0
M  V30 25574 H 2392.25 5.48768 -2.10066 0
M  V30 25575 H 2393.78 5.96595 -1.30024 0
M  V30 25576 H 2395.19 4.74588 -3.21619 0
M  V30 25577 H 2393.59 4.50133 -3.96863 0
M  V30 25578 H 2394.66 3.10973 -3.72054 0
M  V30 25579 N 2396 1.10909 1.11969 0
M  V30 25580 C 2396.96 0.765745 2.1603 0
M  V30 25581 C 2397.96 -0.212207 1.59394 0
M  V30 25582 O 2399.15 0.0115747 1.74196 0
M  V30 25583 C 2396.29 0.135113 3.40632 0
M  V30 25584 H 2397.48 1.68753 2.47916 0
M  V30 25585 H 2395.03 0.910249 1.2706 0
M  V30 25586 H 2395.77 -0.797162 3.1435 0
M  V30 25587 H 2395.55 0.839004 3.83018 0
M  V30 25588 H 2397.04 -0.0891735 4.17505 0
M  V30 25589 N 2397.48 -1.29474 0.898573 0
M  V30 25590 C 2398.71 -1.99748 0.539296 0
M  V30 25591 C 2399.12 -1.67264 -0.875687 0
M  V30 25592 O 2398.48 -0.917077 -1.57784 0
M  V30 25593 C 2398.53 -3.54244 0.720673 0
M  V30 25594 O 2398.25 -3.85577 2.07996 0
M  V30 25595 C 2399.75 -4.41785 0.366195 0
M  V30 25596 H 2396.97 -0.638254 0.207058 0
M  V30 25597 H 2399.52 -1.65036 1.20761 0
M  V30 25598 H 2397.67 -3.87272 0.0995543 0
M  V30 25599 H 2398.08 -4.80253 2.10849 0
M  V30 25600 H 2399.56 -5.49313 0.543945 0
M  V30 25601 H 2400.04 -4.33639 -0.696686 0
M  V30 25602 H 2400.64 -4.14226 0.964208 0
M  V30 25603 N 2398.96 -0.660936 -1.43071 0
M  V30 25604 C 2399.92 0.0166003 -2.29194 0
M  V30 25605 C 2400.92 0.742887 -1.42611 0
M  V30 25606 O 2402.11 0.582975 -1.64156 0
M  V30 25607 C 2399.24 1.03424 -3.24833 0
M  V30 25608 H 2400.43 -0.741259 -2.90595 0
M  V30 25609 H 2397.99 -0.422558 -1.5048 0
M  V30 25610 H 2398.72 1.82107 -2.68342 0
M  V30 25611 H 2398.51 0.517014 -3.88676 0
M  V30 25612 H 2400 1.50716 -3.89454 0
M  V30 25613 N 2400.43 1.52351 -0.403352 0
M  V30 25614 C 2401.37 2.24531 0.46026 0
M  V30 25615 C 2402.38 1.27283 1.01503 0
M  V30 25616 O 2403.57 1.53267 0.914955 0
M  V30 25617 C 2400.67 2.95908 1.65203 0
M  V30 25618 C 2399.84 4.19978 1.22217 0
M  V30 25619 C 2398.9 4.7423 2.28019 0
M  V30 25620 O 2397.93 5.36959 1.88847 0
M  V30 25621 N 2399.13 4.55302 3.60112 0
M  V30 25622 H 2401.89 2.99282 -0.158209 0
M  V30 25623 H 2399.45 1.60252 -0.23043 0
M  V30 25624 H 2401.45 3.29097 2.35536 0
M  V30 25625 H 2400.02 2.24378 2.17654 0
M  V30 25626 H 2399.24 3.92668 0.347181 0
M  V30 25627 H 2400.52 5.00563 0.911836 0
M  V30 25628 H 2399.92 4.0526 3.94691 0
M  V30 25629 H 2398.48 4.92944 4.26438 0
M  V30 25630 N 2401.91 0.133594 1.57033 0
M  V30 25631 C 2403.16 -0.521614 1.95977 0
M  V30 25632 C 2403.49 -1.65391 1.01782 0
M  V30 25633 O 2402.77 -1.94414 0.0576923 0
M  V30 25634 C 2403.05 -1.04051 3.4474 0
M  V30 25635 C 2402.9 0.0893688 4.49711 0
M  V30 25636 C 2404.22 -1.92668 3.95686 0
M  V30 25637 H 2401.34 -0.188136 0.712582 0
M  V30 25638 H 2403.98 0.21211 1.88812 0
M  V30 25639 H 2402.13 -1.66577 3.50976 0
M  V30 25640 H 2403.8 0.725232 4.55563 0
M  V30 25641 H 2402.05 0.750453 4.27259 0
M  V30 25642 H 2402.72 -0.315187 5.51099 0
M  V30 25643 H 2405.19 -1.39991 3.91844 0
M  V30 25644 H 2404.07 -2.25888 5.00266 0
M  V30 25645 H 2404.33 -2.85866 3.37244 0
M  V30 25646 N 2403.39 -1.56975 -0.140195 0
M  V30 25647 C 2404.3 -2.02049 -1.1922 0
M  V30 25648 C 2405.32 -0.937088 -1.46611 0
M  V30 25649 O 2406.49 -1.24707 -1.58146 0
M  V30 25650 C 2403.56 -2.39783 -2.5041 0
M  V30 25651 C 2402.62 -3.62104 -2.30605 0
M  V30 25652 C 2401.85 -3.98029 -3.5554 0
M  V30 25653 O 2402.07 -3.34536 -4.61998 0
M  V30 25654 O 2401.01 -4.91243 -3.47799 0
M  V30 25655 H 2404.83 -2.91866 -0.839508 0
M  V30 25656 H 2402.42 -1.45256 -0.349427 0
M  V30 25657 H 2404.3 -2.64882 -3.27743 0
M  V30 25658 H 2402.98 -1.53119 -2.85195 0
M  V30 25659 H 2401.88 -3.42183 -1.51201 0
M  V30 25660 H 2403.22 -4.49408 -2.00733 0
M  V30 25661 N 2404.87 0.409753 -1.5218 0
M  V30 25662 C 2406.1 1.17679 -1.69809 0
M  V30 25663 C 2406.51 1.84772 -0.406941 0
M  V30 25664 O 2405.85 1.72675 0.626833 0
M  V30 25665 C 2405.91 2.28285 -2.77716 0
M  V30 25666 C 2405.58 1.81333 -4.19485 0
M  V30 25667 C 2406.57 1.30145 -5.03347 0
M  V30 25668 C 2404.26 1.88186 -4.65716 0
M  V30 25669 C 2406.25 0.864305 -6.31513 0
M  V30 25670 C 2403.94 1.44083 -5.93871 0
M  V30 25671 C 2404.94 0.932904 -6.76599 0
M  V30 25672 O 2404.62 0.498239 -8.02355 0
M  V30 25673 H 2404.36 0.359664 -0.572379 0
M  V30 25674 H 2406.91 0.488276 -1.99512 0
M  V30 25675 H 2405.14 3.00498 -2.43388 0
M  V30 25676 H 2406.83 2.90046 -2.83951 0
M  V30 25677 H 2407.6 1.24224 -4.68821 0
M  V30 25678 H 2403.47 2.26664 -4.01428 0
M  V30 25679 H 2407.02 0.467164 -6.96034 0
M  V30 25680 H 2402.92 1.49683 -6.27905 0
M  V30 25681 H 2403.68 0.621604 -8.16136 0
M  V30 25682 N 2406.35 1.42792 0.666944 0
M  V30 25683 C 2407.57 1.47303 1.46002 0
M  V30 25684 C 2408 0.0880648 1.87894 0
M  V30 25685 O 2407.35 -0.915225 1.56503 0
M  V30 25686 C 2407.4 2.41234 2.68027 0
M  V30 25687 O 2406.51 1.88913 3.66587 0
M  V30 25688 H 2405.85 0.498778 0.438311 0
M  V30 25689 H 2408.38 1.87564 0.817358 0
M  V30 25690 H 2408.39 2.58079 3.16006 0
M  V30 25691 H 2407.06 3.41851 2.36877 0
M  V30 25692 H 2405.64 1.81662 3.25658 0
M  V30 25693 N 2407.82 -0.904008 1.29095 0
M  V30 25694 C 2408.73 -2.04068 1.15731 0
M  V30 25695 C 2409.75 -1.73809 0.0815613 0
M  V30 25696 O 2410.93 -1.9926 0.292784 0
M  V30 25697 C 2407.99 -3.36606 0.830483 0
M  V30 25698 C 2407.05 -3.80411 1.98962 0
M  V30 25699 C 2406.29 -5.06625 1.67829 0
M  V30 25700 O 2406.51 -5.67265 0.597205 0
M  V30 25701 O 2405.44 -5.46379 2.52495 0
M  V30 25702 H 2409.27 -2.18264 2.11174 0
M  V30 25703 H 2406.85 -1.02698 1.08506 0
M  V30 25704 H 2408.74 -4.16158 0.662594 0
M  V30 25705 H 2407.41 -3.23563 -0.0942109 0
M  V30 25706 H 2406.32 -3.01645 2.21272 0
M  V30 25707 H 2407.65 -3.98032 2.89536 0
M  V30 25708 N 2409.3 -1.11501 -1.11379 0
M  V30 25709 C 2410.58 -0.775997 -1.79548 0
M  V30 25710 C 2410.96 0.735845 -1.9786 0
M  V30 25711 O 2410.31 1.66607 -1.56379 0
M  V30 25712 C 2410.52 -1.53983 -3.13194 0
M  V30 25713 C 2411.87 -1.71951 -3.88224 0
M  V30 25714 O 2412.89 -1.50412 -3.22885 0
M  V30 25715 O 2411.75 -2.07747 -5.05474 0
M  V30 25716 H 2408.84 -0.281204 -0.777723 0
M  V30 25717 H 2411.39 -1.21847 -1.18116 0
M  V30 25718 H 2410.16 -2.56823 -2.95225 0
M  V30 25719 H 2409.78 -1.09095 -3.8234 0
M  V30 25720 N 2410.78 1.28995 -0.905426 0
M  V30 25721 C 2411.71 2.26592 -0.344788 0
M  V30 25722 C 2412.73 1.54536 0.512108 0
M  V30 25723 O 2413.92 1.75454 0.328337 0
M  V30 25724 C 2411.02 3.34785 0.526528 0
M  V30 25725 C 2410.19 4.36329 -0.305948 0
M  V30 25726 C 2409.25 5.23828 0.499117 0
M  V30 25727 O 2408.27 5.69136 -0.0854004 0
M  V30 25728 N 2409.48 5.51758 1.80398 0
M  V30 25729 H 2412.24 2.75336 -1.18364 0
M  V30 25730 H 2409.8 1.4239 -0.770506 0
M  V30 25731 H 2411.79 3.90254 1.07164 0
M  V30 25732 H 2410.36 2.85813 1.26608 0
M  V30 25733 H 2409.58 3.80439 -1.03246 0
M  V30 25734 H 2410.87 5.01205 -0.875861 0
M  V30 25735 H 2410.27 5.16766 2.30151 0
M  V30 25736 H 2408.83 6.10019 2.2961 0
M  V30 25737 N 2412.26 0.668514 1.42719 0
M  V30 25738 C 2413.19 -0.0525728 2.2914 0
M  V30 25739 C 2414.2 -0.771832 1.43341 0
M  V30 25740 O 2415.39 -0.627038 1.67124 0
M  V30 25741 C 2412.49 -1.09799 3.2062 0
M  V30 25742 C 2411.67 -0.453813 4.35039 0
M  V30 25743 C 2410.73 -1.39816 5.07285 0
M  V30 25744 O 2409.75 -0.90088 5.62026 0
M  V30 25745 N 2410.95 -2.73167 5.12211 0
M  V30 25746 H 2413.72 0.68926 2.91666 0
M  V30 25747 H 2411.28 0.512449 1.53576 0
M  V30 25748 H 2413.27 -1.73088 3.65818 0
M  V30 25749 H 2411.84 -1.74162 2.59589 0
M  V30 25750 H 2411.06 0.358465 3.92567 0
M  V30 25751 H 2412.35 -0.00478028 5.088 0
M  V30 25752 H 2411.75 -3.16114 4.69136 0
M  V30 25753 H 2410.3 -3.3172 5.61075 0
M  V30 25754 N 2413.74 -1.52135 0.411426 0
M  V30 25755 C 2414.7 -2.25664 -0.401049 0
M  V30 25756 C 2415.7 -1.28119 -0.97171 0
M  V30 25757 O 2416.89 -1.52042 -0.850227 0
M  V30 25758 C 2414.02 -3.02866 -1.56477 0
M  V30 25759 H 2415.22 -2.98914 0.243003 0
M  V30 25760 H 2412.77 -1.55437 0.163995 0
M  V30 25761 H 2413.5 -2.33971 -2.24562 0
M  V30 25762 H 2413.29 -3.74485 -1.16204 0
M  V30 25763 H 2414.78 -3.58633 -2.13945 0
M  V30 25764 N 2415.22 -0.14192 -1.5696 0
M  V30 25765 C 2416.15 0.837589 -2.12273 0
M  V30 25766 C 2417.13 1.24576 -1.04497 0
M  V30 25767 O 2418.31 1.34276 -1.32296 0
M  V30 25768 C 2415.44 2.12399 -2.63826 0
M  V30 25769 C 2414.48 1.86214 -3.83701 0
M  V30 25770 S 2415.32 1.05772 -5.2495 0
M  V30 25771 C 2416.47 2.35542 -5.79889 0
M  V30 25772 H 2416.71 0.367197 -2.95024 0
M  V30 25773 H 2414.24 0.0722743 -1.54231 0
M  V30 25774 H 2416.2 2.86301 -2.9418 0
M  V30 25775 H 2414.86 2.56554 -1.81215 0
M  V30 25776 H 2414.05 2.81589 -4.18 0
M  V30 25777 H 2413.65 1.20423 -3.54082 0
M  V30 25778 H 2415.94 3.31229 -5.91011 0
M  V30 25779 H 2416.89 2.05756 -6.77547 0
M  V30 25780 H 2417.3 2.45958 -5.08099 0
M  V30 25781 N 2416.69 1.57047 0.131868 0
M  V30 25782 C 2417.62 2.0243 1.1638 0
M  V30 25783 C 2418.6 0.906465 1.43935 0
M  V30 25784 O 2419.79 1.17531 1.54596 0
M  V30 25785 C 2416.92 2.41774 2.49324 0
M  V30 25786 C 2415.87 3.56883 2.36259 0
M  V30 25787 C 2415.2 3.82087 3.74051 0
M  V30 25788 C 2416.5 4.89045 1.83392 0
M  V30 25789 H 2418.19 2.88888 0.786383 0
M  V30 25790 H 2415.74 1.38982 0.37683 0
M  V30 25791 H 2417.69 2.72126 3.21754 0
M  V30 25792 H 2416.42 1.52271 2.88931 0
M  V30 25793 H 2415.08 3.26721 1.6628 0
M  V30 25794 H 2414.72 2.8981 4.1112 0
M  V30 25795 H 2414.42 4.59561 3.66166 0
M  V30 25796 H 2415.95 4.14878 4.48005 0
M  V30 25797 H 2417.36 5.18016 2.45627 0
M  V30 25798 H 2415.76 5.70429 1.8636 0
M  V30 25799 H 2416.83 4.78412 0.790578 0
M  V30 25800 N 2418.17 -0.401677 1.52395 0
M  V30 25801 C 2419.12 -1.48988 1.7627 0
M  V30 25802 C 2420.09 -1.54674 0.605413 0
M  V30 25803 O 2421.27 -1.71129 0.843772 0
M  V30 25804 C 2418.41 -2.86357 1.92597 0
M  V30 25805 C 2417.53 -2.89922 3.20264 0
M  V30 25806 C 2416.66 -4.18638 3.2698 0
M  V30 25807 C 2415.7 -4.16206 4.48819 0
M  V30 25808 N 2414.84 -5.36506 4.52886 0
M  V30 25809 H 2419.68 -1.2793 2.69143 0
M  V30 25810 H 2417.21 -0.620847 1.33356 0
M  V30 25811 H 2419.17 -3.66111 2.00046 0
M  V30 25812 H 2417.8 -3.05893 1.03098 0
M  V30 25813 H 2416.85 -2.02615 3.21949 0
M  V30 25814 H 2418.17 -2.83991 4.10061 0
M  V30 25815 H 2417.32 -5.06789 3.33542 0
M  V30 25816 H 2416.06 -4.27274 2.35134 0
M  V30 25817 H 2415.06 -3.26445 4.42395 0
M  V30 25818 H 2416.29 -4.09204 5.41968 0
M  V30 25819 H 2414.24 -5.45796 3.63927 0
M  V30 25820 H 2414.15 -5.326 5.36538 0
M  V30 25821 H 2415.42 -6.26589 4.63688 0
M  V30 25822 N 2419.65 -1.43144 -0.659362 0
M  V30 25823 C 2420.88 -1.47863 -1.44721 0
M  V30 25824 C 2421.29 -0.0946217 -1.88563 0
M  V30 25825 O 2420.65 0.893887 -1.5911 0
M  V30 25826 C 2420.7 -2.41918 -2.68623 0
M  V30 25827 O 2420.42 -3.74936 -2.26616 0
M  V30 25828 C 2421.92 -2.55816 -3.6204 0
M  V30 25829 H 2419.14 -0.502395 -0.444792 0
M  V30 25830 H 2421.69 -1.87823 -0.808883 0
M  V30 25831 H 2419.84 -2.0517 -3.28609 0
M  V30 25832 H 2420.26 -4.25455 -3.06738 0
M  V30 25833 H 2421.73 -3.25715 -4.45661 0
M  V30 25834 H 2422.21 -1.60106 -4.08978 0
M  V30 25835 H 2422.81 -2.93349 -3.07939 0
M  V30 25836 N 2421.13 0.897149 -1.29572 0
M  V30 25837 C 2422.54 1.46317 -1.15967 0
M  V30 25838 C 2422.89 1.94674 0.244233 0
M  V30 25839 O 2422.01 1.83941 1.13995 0
M  V30 25840 C 2422.61 2.65938 -2.0991 0
M  V30 25841 C 2421.17 3.18668 -2.00319 0
M  V30 25842 C 2420.32 1.9136 -2.00691 0
M  V30 25843 H 2423.27 0.708243 -1.4202 0
M  V30 25844 H 2423.29 3.41756 -1.67282 0
M  V30 25845 H 2422.8 2.30712 -3.12079 0
M  V30 25846 H 2420.9 3.5858 -1.01248 0
M  V30 25847 H 2421.01 3.82793 -2.88109 0
M  V30 25848 H 2419.38 2.09173 -1.45323 0
M  V30 25849 H 2420.16 1.58407 -3.04568 0
M  V30 25850 N 2422.61 1.1209 1.10786 0
M  V30 25851 C 2423.55 0.780625 2.1911 0
M  V30 25852 C 2424.55 -0.230931 1.67819 0
M  V30 25853 O 2425.75 -0.0895111 1.79777 0
M  V30 25854 H 2422.13 0.234591 0.714473 0
M  V30 25855 H 2424.1 1.70271 2.45052 0
M  V30 25856 C 2422.85 0.24753 3.46818 0
M  V30 25857 H 2422.17 1.01718 3.86644 0
M  V30 25858 H 2423.61 0.0477036 4.23973 0
M  V30 25859 C 2422.07 -1.02373 3.2097 0
M  V30 25860 O 2422.6 -2.1022 3.42302 0
M  V30 25861 N 2420.81 -0.949223 2.7466 0
M  V30 25862 H 2420.35 -0.071472 2.57501 0
M  V30 25863 H 2420.31 -1.80045 2.57743 0
M  V30 25864 N 2424.08 -1.28513 0.912254 0
M  V30 25865 C 2425.31 -1.99165 0.560451 0
M  V30 25866 C 2425.73 -1.68183 -0.857897 0
M  V30 25867 O 2425.08 -0.933761 -1.56803 0
M  V30 25868 C 2425.13 -3.53459 0.758204 0
M  V30 25869 O 2424.86 -3.83349 2.12074 0
M  V30 25870 C 2426.36 -4.41372 0.413032 0
M  V30 25871 H 2423.58 -0.636022 0.213816 0
M  V30 25872 H 2426.12 -1.63746 1.22505 0
M  V30 25873 H 2424.28 -3.87145 0.140624 0
M  V30 25874 H 2424.69 -4.77989 2.15931 0
M  V30 25875 H 2426.16 -5.48706 0.602176 0
M  V30 25876 H 2426.64 -4.34354 -0.650654 0
M  V30 25877 H 2427.25 -4.1318 1.00809 0
M  V30 25878 N 2425.56 -0.676073 -1.42362 0
M  V30 25879 C 2426.81 -0.198866 -2.01521 0
M  V30 25880 C 2427.14 1.19502 -1.53458 0
M  V30 25881 O 2426.39 1.81655 -0.727999 0
M  V30 25882 C 2426.69 -0.183493 -3.56929 0
M  V30 25883 C 2426.36 -1.52223 -4.24428 0
M  V30 25884 C 2425.02 -1.88878 -4.42582 0
M  V30 25885 C 2427.37 -2.40385 -4.62455 0
M  V30 25886 C 2424.7 -3.13317 -4.96033 0
M  V30 25887 C 2427.05 -3.64138 -5.17287 0
M  V30 25888 C 2425.72 -4.0096 -5.33654 0
M  V30 25889 H 2424.99 -0.0727701 -0.737418 0
M  V30 25890 H 2427.63 -0.871311 -1.7053 0
M  V30 25891 H 2425.94 0.572464 -3.87595 0
M  V30 25892 H 2427.63 0.202965 -4.00486 0
M  V30 25893 H 2424.22 -1.22709 -4.10659 0
M  V30 25894 H 2428.41 -2.13351 -4.48102 0
M  V30 25895 H 2423.66 -3.41866 -5.0689 0
M  V30 25896 H 2427.84 -4.32653 -5.45696 0
M  V30 25897 H 2425.47 -4.9746 -5.74837 0
M  V30 25898 N 2427.04 1.51915 -0.419488 0
M  V30 25899 C 2428 2.25874 0.389076 0
M  V30 25900 C 2429 1.28632 0.964901 0
M  V30 25901 O 2430.19 1.52491 0.842152 0
M  V30 25902 C 2427.33 3.03691 1.54869 0
M  V30 25903 H 2428.52 2.98781 -0.258851 0
M  V30 25904 H 2426.07 1.55348 -0.172236 0
M  V30 25905 H 2426.81 2.35158 2.23318 0
M  V30 25906 H 2426.59 3.75096 1.14217 0
M  V30 25907 H 2428.08 3.59762 2.1204 0
M  V30 25908 N 2428.52 0.150242 1.56882 0
M  V30 25909 C 2429.76 -0.500799 1.96519 0
M  V30 25910 C 2430.1 -1.64302 1.0353 0
M  V30 25911 O 2429.37 -1.94342 0.0783093 0
M  V30 25912 C 2429.66 -1.00389 3.45824 0
M  V30 25913 C 2429.51 0.137062 4.49591 0
M  V30 25914 C 2430.83 -1.8846 3.97707 0
M  V30 25915 H 2427.95 -0.180568 0.714538 0
M  V30 25916 H 2430.59 0.232124 1.88577 0
M  V30 25917 H 2428.74 -1.62845 3.52723 0
M  V30 25918 H 2430.41 0.77351 4.54769 0
M  V30 25919 H 2428.65 0.795727 4.26439 0
M  V30 25920 H 2429.32 -0.256718 5.51403 0
M  V30 25921 H 2431.8 -1.35827 3.93307 0
M  V30 25922 H 2430.68 -2.20569 5.02634 0
M  V30 25923 H 2430.94 -2.82273 3.40257 0
M  V30 25924 N 2430 -1.57115 -0.123538 0
M  V30 25925 C 2431.24 -1.86429 -0.838065 0
M  V30 25926 C 2431.6 -0.737643 -1.77265 0
M  V30 25927 O 2432.8 -0.912434 -2.5284 0
M  V30 25928 C 2431.07 -3.20965 -1.57214 0
M  V30 25929 S 2432.63 -3.719 -2.32886 0
M  V30 25930 H 2429.45 -0.653631 -0.279799 0
M  V30 25931 H 2432.05 -1.95261 -0.0966691 0
M  V30 25932 H 2430.76 -4.0091 -0.877451 0
M  V30 25933 H 2430.29 -3.15199 -2.35399 0
M  V30 25934 H 2432.3 -3.43038 -3.58524 0
M  V30 25935 N 2431.47 0.393589 -1.52606 0
M  V30 25936 C 2432.7 1.1604 -1.71296 0
M  V30 25937 C 2433.12 1.83855 -0.429292 0
M  V30 25938 O 2432.47 1.72498 0.595891 0
M  V30 25939 C 2432.53 2.21188 -2.85934 0
M  V30 25940 O 2432.25 1.56138 -4.09332 0
M  V30 25941 C 2433.75 3.10631 -3.16265 0
M  V30 25942 H 2430.97 0.348094 -0.573647 0
M  V30 25943 H 2433.51 0.461057 -1.99235 0
M  V30 25944 H 2431.67 2.86765 -2.6047 0
M  V30 25945 H 2432.08 2.2597 -4.73326 0
M  V30 25946 H 2433.55 3.80449 -3.99953 0
M  V30 25947 H 2434.03 3.7388 -2.30457 0
M  V30 25948 H 2434.64 2.50704 -3.43551 0
M  V30 25949 N 2432.95 1.43492 0.651762 0
M  V30 25950 C 2433.86 1.51213 1.79365 0
M  V30 25951 C 2434.88 0.399123 1.69361 0
M  V30 25952 O 2436.05 0.653464 1.90504 0
M  V30 25953 C 2433.12 1.43407 3.15651 0
M  V30 25954 C 2432.18 2.6539 3.37441 0
M  V30 25955 C 2431.41 2.57947 4.67225 0
M  V30 25956 O 2431.64 1.62802 5.46673 0
M  V30 25957 O 2430.57 3.48471 4.90767 0
M  V30 25958 H 2434.4 2.47641 1.75806 0
M  V30 25959 H 2431.98 1.25509 0.810425 0
M  V30 25960 H 2433.86 1.41501 3.96932 0
M  V30 25961 H 2432.54 0.501141 3.19797 0
M  V30 25962 H 2431.45 2.72868 2.55918 0
M  V30 25963 H 2432.78 3.5766 3.38142 0
M  V30 25964 N 2434.43 -0.890264 1.30046 0
M  V30 25965 C 2435.38 -1.98258 1.12595 0
M  V30 25966 C 2436.36 -1.60844 0.0426303 0
M  V30 25967 O 2437.56 -1.74999 0.265377 0
M  V30 25968 C 2434.69 -3.33501 0.814359 0
M  V30 25969 C 2433.77 -3.77246 1.93768 0
M  V30 25970 N 2434.16 -3.93138 3.18239 0
M  V30 25971 C 2432.46 -4.06599 1.83285 0
M  V30 25972 C 2433.16 -4.30156 3.91588 0
M  V30 25973 N 2432.14 -4.39724 3.19599 0
M  V30 25974 H 2435.94 -2.08628 2.07007 0
M  V30 25975 H 2433.45 -1.07972 1.21308 0
M  V30 25976 H 2435.45 -4.11475 0.670362 0
M  V30 25977 H 2434.11 -3.24472 -0.12174 0
M  V30 25978 H 2435.12 -3.78412 3.53588 0
M  V30 25979 H 2431.8 -4.06073 0.970081 0
M  V30 25980 H 2433.19 -4.50218 4.98752 0
M  V30 25981 N 2435.91 -1.12676 -1.1019 0
M  V30 25982 C 2437.32 -0.86334 -1.34233 0
M  V30 25983 C 2437.52 0.505243 -1.95063 0
M  V30 25984 O 2436.58 1.25341 -2.19194 0
M  V30 25985 C 2437.89 -1.98176 -2.26156 0
M  V30 25986 C 2439.44 -2.01294 -2.39687 0
M  V30 25987 C 2439.92 -3.12376 -3.3494 0
M  V30 25988 N 2441.41 -3.11835 -3.4251 0
M  V30 25989 C 2442.14 -3.94426 -4.16192 0
M  V30 25990 N 2441.64 -4.87012 -4.92738 0
M  V30 25991 N 2443.43 -3.82554 -4.11836 0
M  V30 25992 H 2435.58 -2.00854 -0.690762 0
M  V30 25993 H 2437.85 -0.874181 -0.366759 0
M  V30 25994 H 2437.55 -2.96808 -1.88675 0
M  V30 25995 H 2437.43 -1.88912 -3.26484 0
M  V30 25996 H 2439.81 -1.0328 -2.76437 0
M  V30 25997 H 2439.89 -2.14632 -1.39165 0
M  V30 25998 H 2439.54 -4.10624 -2.98915 0
M  V30 25999 H 2439.47 -2.96277 -4.35348 0
M  V30 26000 H 2441.96 -2.44764 -2.87922 0
M  V30 26001 H 2442.27 -5.46537 -5.46367 0
M  V30 26002 H 2440.62 -4.91024 -4.91854 0
M  V30 26003 H 2443.81 -3.09556 -3.51131 0
M  V30 26004 H 2443.98 -4.47151 -4.68999 0
M  V30 26005 N 2437.39 1.28028 -0.919057 0
M  V30 26006 C 2438.63 1.94362 -0.553872 0
M  V30 26007 C 2438.96 1.72658 0.906326 0
M  V30 26008 O 2438.23 1.06933 1.64141 0
M  V30 26009 H 2436.81 0.719213 -0.201847 0
M  V30 26010 H 2439.47 1.55907 -1.16957 0
M  V30 26011 H 2438.56 3.02885 -0.752811 0
M  V30 26012 N 2438.86 0.683613 1.42002 0
M  V30 26013 C 2440.11 0.206716 2.00638 0
M  V30 26014 C 2440.43 -1.19668 1.54722 0
M  V30 26015 O 2441.63 -1.77041 2.05836 0
M  V30 26016 C 2440.09 0.318695 3.58486 0
M  V30 26017 C 2439.7 1.7267 4.13387 0
M  V30 26018 C 2441.44 -0.0990395 4.24384 0
M  V30 26019 C 2439.35 1.79097 5.63629 0
M  V30 26020 H 2438.28 0.0735239 0.750407 0
M  V30 26021 H 2440.93 0.850077 1.62622 0
M  V30 26022 H 2439.31 -0.392712 3.94048 0
M  V30 26023 H 2440.48 2.4659 3.89269 0
M  V30 26024 H 2438.8 2.09305 3.59972 0
M  V30 26025 H 2441.4 -0.0712894 5.34652 0
M  V30 26026 H 2441.74 -1.13579 4.00507 0
M  V30 26027 H 2442.27 0.561668 3.93815 0
M  V30 26028 H 2439.01 2.80784 5.92318 0
M  V30 26029 H 2438.53 1.09545 5.89712 0
M  V30 26030 H 2440.21 1.54841 6.28198 0
M  V30 26031 N 2440.34 -1.5169 0.427538 0
M  V30 26032 C 2441.27 -2.30394 -0.379559 0
M  V30 26033 C 2442.25 -1.35385 -1.0298 0
M  V30 26034 O 2443.44 -1.64302 -1.03531 0
M  V30 26035 C 2440.57 -3.13883 -1.48644 0
M  V30 26036 C 2439.52 -4.1709 -0.960221 0
M  V30 26037 C 2438.85 -4.89037 -2.1621 0
M  V30 26038 C 2440.15 -5.223 -0.00144499 0
M  V30 26039 H 2441.84 -2.98114 0.277216 0
M  V30 26040 H 2439.39 -1.43368 0.134764 0
M  V30 26041 H 2441.34 -3.67718 -2.0582 0
M  V30 26042 H 2440.07 -2.43966 -2.17136 0
M  V30 26043 H 2438.73 -3.64292 -0.410742 0
M  V30 26044 H 2438.37 -4.15633 -2.83299 0
M  V30 26045 H 2438.07 -5.58819 -1.81644 0
M  V30 26046 H 2439.6 -5.45692 -2.73958 0
M  V30 26047 H 2441.01 -5.71265 -0.482586 0
M  V30 26048 H 2439.41 -5.99552 0.256305 0
M  V30 26049 H 2440.48 -4.75736 0.938258 0
M  V30 26050 N 2441.82 -0.15856 -1.568 0
M  V30 26051 C 2442.75 0.77257 -2.20349 0
M  V30 26052 C 2443.73 1.24857 -1.1552 0
M  V30 26053 O 2444.92 1.30404 -1.43905 0
M  V30 26054 C 2442.05 2.00724 -2.83421 0
M  V30 26055 C 2441 1.66758 -3.94177 0
M  V30 26056 C 2440.33 2.97584 -4.44238 0
M  V30 26057 C 2441.63 0.905357 -5.14393 0
M  V30 26058 H 2443.32 0.242906 -2.98413 0
M  V30 26059 H 2440.87 0.115393 -1.43537 0
M  V30 26060 H 2442.82 2.66354 -3.26548 0
M  V30 26061 H 2441.54 2.56082 -2.02705 0
M  V30 26062 H 2440.2 1.03502 -3.51686 0
M  V30 26063 H 2439.85 3.50957 -3.60331 0
M  V30 26064 H 2439.55 2.75617 -5.1895 0
M  V30 26065 H 2441.08 3.64266 -4.90044 0
M  V30 26066 H 2442.49 1.46398 -5.54293 0
M  V30 26067 H 2440.89 0.785195 -5.94941 0
M  V30 26068 H 2441.96 -0.100753 -4.84795 0
M  V30 26069 N 2443.3 1.57178 0.115204 0
M  V30 26070 C 2444.23 1.97271 1.16691 0
M  V30 26071 C 2445.24 0.872526 1.37444 0
M  V30 26072 O 2446.43 1.15079 1.36452 0
M  V30 26073 C 2443.53 2.25909 2.52623 0
M  V30 26074 C 2442.71 3.57215 2.5242 0
M  V30 26075 C 2441.77 3.74022 3.70127 0
M  V30 26076 O 2440.79 4.46093 3.53538 0
M  V30 26077 N 2441.99 3.13077 4.88839 0
M  V30 26078 H 2444.76 2.88097 0.82583 0
M  V30 26079 H 2442.32 1.59012 0.304433 0
M  V30 26080 H 2444.31 2.34364 3.29932 0
M  V30 26081 H 2442.88 1.41191 2.78898 0
M  V30 26082 H 2442.1 3.59913 1.60798 0
M  V30 26083 H 2443.39 4.43514 2.49345 0
M  V30 26084 H 2442.79 2.54498 5.0522 0
M  V30 26085 H 2441.34 3.27047 5.63811 0
M  V30 26086 N 2444.78 -0.38549 1.52813 0
M  V30 26087 C 2445.74 -1.45382 1.77191 0
M  V30 26088 C 2446.74 -1.47429 0.641979 0
M  V30 26089 O 2447.93 -1.48538 0.910059 0
M  V30 26090 C 2445.06 -2.84647 1.87587 0
M  V30 26091 H 2446.26 -1.25049 2.72585 0
M  V30 26092 H 2443.81 -0.617442 1.43587 0
M  V30 26093 H 2444.54 -3.1032 0.941903 0
M  V30 26094 H 2444.33 -2.84562 2.69753 0
M  V30 26095 H 2445.82 -3.6205 2.08109 0
M  V30 26096 N 2446.26 -1.43835 -0.644143 0
M  V30 26097 C 2447.22 -1.49356 -1.73855 0
M  V30 26098 C 2448.22 -0.37714 -1.56315 0
M  V30 26099 O 2449.41 -0.639254 -1.62047 0
M  V30 26100 C 2446.54 -1.35493 -3.12817 0
M  V30 26101 H 2447.73 -2.4683 -1.70338 0
M  V30 26102 H 2445.29 -1.30735 -0.856629 0
M  V30 26103 H 2446.02 -0.390625 -3.21939 0
M  V30 26104 H 2445.81 -2.16434 -3.26954 0
M  V30 26105 H 2447.3 -1.42309 -3.92604 0
M  V30 26106 N 2447.73 0.883355 -1.30517 0
M  V30 26107 C 2448.96 1.67365 -1.2249 0
M  V30 26108 C 2449.38 1.86938 0.208734 0
M  V30 26109 O 2448.74 1.4015 1.15012 0
M  V30 26110 C 2448.79 3.02652 -1.96047 0
M  V30 26111 O 2447.89 3.91749 -1.28866 0
M  V30 26112 H 2447.23 0.511345 -0.423582 0
M  V30 26113 H 2449.76 1.10236 -1.72364 0
M  V30 26114 H 2449.77 3.52683 -2.05131 0
M  V30 26115 H 2448.45 2.87724 -3.00312 0
M  V30 26116 H 2447.03 3.5019 -1.28147 0
M  V30 26117 N 2449.21 1.13259 1.09591 0
M  V30 26118 C 2450.49 0.804463 1.78291 0
M  V30 26119 C 2450.87 -0.704275 1.99005 0
M  V30 26120 O 2450.22 -1.64098 1.5901 0
M  V30 26121 C 2450.43 1.58946 3.10704 0
M  V30 26122 C 2451.77 1.78106 3.85439 0
M  V30 26123 O 2452.8 1.5553 3.20451 0
M  V30 26124 O 2451.66 2.15762 5.02105 0
M  V30 26125 H 2448.75 0.293541 0.773151 0
M  V30 26126 H 2451.3 1.23711 1.16162 0
M  V30 26127 H 2450.07 2.61487 2.91101 0
M  V30 26128 H 2449.69 1.15164 3.80556 0
M  V30 26129 N 2450.69 -1.27539 0.925834 0
M  V30 26130 C 2451.64 -2.26908 0.422085 0
M  V30 26131 C 2452.61 -1.58077 -0.510001 0
M  V30 26132 O 2453.79 -1.85902 -0.429566 0
M  V30 26133 C 2450.93 -3.43606 -0.320776 0
M  V30 26134 C 2450.04 -4.27155 0.645205 0
M  V30 26135 C 2449.18 -5.3107 -0.117312 0
M  V30 26136 C 2448.22 -6.06288 0.841498 0
M  V30 26137 N 2447.36 -7.02011 0.111727 0
M  V30 26138 H 2452.2 -2.69373 1.27446 0
M  V30 26139 H 2449.73 -1.32461 0.63972 0
M  V30 26140 H 2451.69 -4.10074 -0.767778 0
M  V30 26141 H 2450.32 -3.02098 -1.1374 0
M  V30 26142 H 2449.37 -3.60618 1.21073 0
M  V30 26143 H 2450.68 -4.79386 1.37805 0
M  V30 26144 H 2449.84 -6.03479 -0.624316 0
M  V30 26145 H 2448.58 -4.79637 -0.883135 0
M  V30 26146 H 2447.58 -5.3272 1.35977 0
M  V30 26147 H 2448.81 -6.59811 1.60707 0
M  V30 26148 H 2446.75 -6.52911 -0.635884 0
M  V30 26149 H 2446.67 -7.51922 0.784176 0
M  V30 26150 H 2447.94 -7.78599 -0.374686 0
M  V30 26151 N 2452.17 -0.691135 -1.41637 0
M  V30 26152 C 2453.44 -0.148455 -1.95036 0
M  V30 26153 C 2453.82 1.34052 -1.63074 0
M  V30 26154 O 2453.17 2.08476 -0.935417 0
M  V30 26155 C 2453.38 -0.435012 -3.46278 0
M  V30 26156 C 2454.73 -0.36035 -4.23068 0
M  V30 26157 O 2455.75 -0.369675 -3.54277 0
M  V30 26158 O 2454.61 -0.31663 -5.45582 0
M  V30 26159 H 2451.71 -0.01238 -0.826907 0
M  V30 26160 H 2454.25 -0.76699 -1.51378 0
M  V30 26161 H 2453.03 -1.46583 -3.62807 0
M  V30 26162 H 2452.65 0.214718 -3.9702 0
M  V30 26163 N 2453.65 1.51461 -0.435577 0
M  V30 26164 C 2454.58 2.24265 0.421949 0
M  V30 26165 C 2455.56 1.26129 1.02617 0
M  V30 26166 O 2456.74 1.55259 1.06897 0
M  V30 26167 C 2453.87 2.99169 1.58795 0
M  V30 26168 C 2452.91 4.11948 1.10458 0
M  V30 26169 S 2453.75 5.35478 0.0480519 0
M  V30 26170 C 2454.9 6.13919 1.21876 0
M  V30 26171 H 2455.14 2.96652 -0.196155 0
M  V30 26172 H 2452.67 1.52823 -0.220081 0
M  V30 26173 H 2454.63 3.42923 2.25641 0
M  V30 26174 H 2453.29 2.26374 2.17746 0
M  V30 26175 H 2452.48 4.63629 1.97646 0
M  V30 26176 H 2452.08 3.70446 0.514385 0
M  V30 26177 H 2454.37 6.42899 2.13745 0
M  V30 26178 H 2455.32 7.04202 0.741952 0
M  V30 26179 H 2455.73 5.45386 1.45653 0
M  V30 26180 N 2455.12 0.166873 1.56714 0
M  V30 26181 C 2456.07 -0.777344 2.14339 0
M  V30 26182 C 2457.06 -1.19589 1.07644 0
M  V30 26183 O 2458.25 -1.15899 1.33777 0
M  V30 26184 C 2455.38 -2.00841 2.7842 0
M  V30 26185 C 2454.47 -1.61205 3.92267 0
M  V30 26186 N 2454.86 -0.925017 4.9727 0
M  V30 26187 C 2453.15 -1.90339 4.03345 0
M  V30 26188 C 2453.86 -0.730526 5.77095 0
M  V30 26189 N 2452.83 -1.27058 5.28542 0
M  V30 26190 H 2456.63 -0.243414 2.9289 0
M  V30 26191 H 2454.15 -0.0339668 1.62364 0
M  V30 26192 H 2456.14 -2.69503 3.18078 0
M  V30 26193 H 2454.8 -2.54733 2.01349 0
M  V30 26194 H 2455.82 -0.583556 5.14602 0
M  V30 26195 H 2452.49 -2.4594 3.37372 0
M  V30 26196 H 2453.88 -0.18755 6.71638 0
M  V30 26197 N 2456.6 -1.57237 -0.106866 0
M  V30 26198 C 2457.88 -1.76478 -0.843495 0
M  V30 26199 C 2458.26 -0.745499 -1.97498 0
M  V30 26200 O 2457.61 0.228266 -2.27357 0
M  V30 26201 C 2457.82 -3.21875 -1.34897 0
M  V30 26202 C 2459.17 -3.84723 -1.79647 0
M  V30 26203 O 2460.19 -3.25552 -1.44548 0
M  V30 26204 O 2459.05 -4.88752 -2.44506 0
M  V30 26205 H 2456.14 -0.723024 -0.401455 0
M  V30 26206 H 2458.69 -1.69463 -0.0896629 0
M  V30 26207 H 2457.46 -3.87587 -0.537742 0
M  V30 26208 H 2457.08 -3.33477 -2.16516 0
M  V30 26209 N 2458.08 0.377381 -1.53015 0
M  V30 26210 C 2459.33 1.11945 -1.69823 0
M  V30 26211 C 2459.68 1.87334 -0.438614 0
M  V30 26212 O 2458.97 1.82985 0.568062 0
M  V30 26213 C 2459.17 2.11657 -2.87986 0
M  V30 26214 C 2459 1.46064 -4.25318 0
M  V30 26215 C 2457.77 1.21978 -4.90357 0
M  V30 26216 C 2459.97 0.904575 -5.06282 0
M  V30 26217 N 2457.95 0.526107 -6.11641 0
M  V30 26218 C 2459.32 0.339617 -6.19069 0
M  V30 26219 C 2461.37 0.802113 -4.91397 0
M  V30 26220 C 2460.08 -0.317795 -7.18598 0
M  V30 26221 C 2462.1 0.158502 -5.91188 0
M  V30 26222 C 2461.46 -0.395633 -7.03288 0
M  V30 26223 H 2457.56 0.395195 -0.674792 0
M  V30 26224 H 2460.15 0.407403 -1.9039 0
M  V30 26225 H 2458.32 2.80187 -2.68979 0
M  V30 26226 H 2460.05 2.78456 -2.93674 0
M  V30 26227 H 2456.81 1.4979 -4.49288 0
M  V30 26228 H 2457.23 0.194979 -6.76719 0
M  V30 26229 H 2461.87 1.21631 -4.04927 0
M  V30 26230 H 2459.59 -0.743978 -8.04668 0
M  V30 26231 H 2463.18 0.0803115 -5.81745 0
M  V30 26232 H 2462.06 -0.885785 -7.79181 0
M  V30 26233 N 2459.56 1.44175 0.636506 0
M  V30 26234 C 2460.49 1.53447 1.76 0
M  V30 26235 C 2461.47 0.38787 1.65619 0
M  V30 26236 O 2462.65 0.607289 1.8446 0
M  V30 26237 C 2459.78 1.47315 3.14508 0
M  V30 26238 C 2458.74 2.60397 3.39673 0
M  V30 26239 C 2458.06 2.39317 4.78154 0
M  V30 26240 C 2459.36 4.02573 3.32765 0
M  V30 26241 H 2461.06 2.47486 1.68497 0
M  V30 26242 H 2458.6 1.19112 0.809216 0
M  V30 26243 H 2460.56 1.52404 3.92875 0
M  V30 26244 H 2459.28 0.497906 3.22782 0
M  V30 26245 H 2457.94 2.54689 2.63684 0
M  V30 26246 H 2457.59 1.39997 4.83125 0
M  V30 26247 H 2457.29 3.1513 4.9595 0
M  V30 26248 H 2458.81 2.46215 5.58758 0
M  V30 26249 H 2460.23 4.09679 4.01044 0
M  V30 26250 H 2458.62 4.78547 3.62096 0
M  V30 26251 H 2459.69 4.26524 2.30662 0
M  V30 26252 N 2461.04 -0.876421 1.30983 0
M  V30 26253 C 2462.27 -1.65947 1.23066 0
M  V30 26254 C 2462.67 -1.88059 -0.207504 0
M  V30 26255 O 2462.02 -1.43428 -1.14779 0
M  V30 26256 C 2462.08 -3.0533 1.89773 0
M  V30 26257 C 2461.74 -3.06354 3.39111 0
M  V30 26258 C 2462.74 -2.84784 4.34965 0
M  V30 26259 C 2460.43 -3.2768 3.80699 0
M  V30 26260 C 2462.42 -2.84509 5.7038 0
M  V30 26261 C 2460.11 -3.27033 5.16229 0
M  V30 26262 C 2461.1 -3.05474 6.1088 0
M  V30 26263 O 2460.79 -3.0466 7.43934 0
M  V30 26264 H 2460.52 -0.524317 0.426694 0
M  V30 26265 H 2463.08 -1.10268 1.73292 0
M  V30 26266 H 2461.31 -3.62708 1.34088 0
M  V30 26267 H 2463 -3.65825 1.75859 0
M  V30 26268 H 2463.76 -2.68096 4.04165 0
M  V30 26269 H 2459.64 -3.43493 3.07463 0
M  V30 26270 H 2463.19 -2.676 6.44233 0
M  V30 26271 H 2459.08 -3.43259 5.46666 0
M  V30 26272 H 2459.85 -3.20767 7.53028 0
M  V30 26273 N 2462.51 -1.13839 -1.08989 0
M  V30 26274 C 2463.48 -0.822752 -2.13924 0
M  V30 26275 C 2464.48 0.169872 -1.599 0
M  V30 26276 O 2465.67 -0.0577557 -1.74104 0
M  V30 26277 C 2462.8 -0.225378 -3.40154 0
M  V30 26278 H 2463.99 -1.75267 -2.43355 0
M  V30 26279 H 2461.55 -0.943616 -1.24602 0
M  V30 26280 H 2462.28 0.713538 -3.16353 0
M  V30 26281 H 2462.07 -0.94026 -3.80659 0
M  V30 26282 H 2463.56 -0.0215518 -4.17594 0
M  V30 26283 N 2463.99 1.27046 -0.932584 0
M  V30 26284 C 2465.24 1.94147 -0.575593 0
M  V30 26285 C 2465.57 1.73253 0.883954 0
M  V30 26286 O 2464.82 1.05773 1.64653 0
M  V30 26287 C 2465.12 3.47053 -0.853774 0
M  V30 26288 C 2464.79 3.88075 -2.29584 0
M  V30 26289 C 2463.45 3.98985 -2.69006 0
M  V30 26290 C 2465.8 4.08781 -3.23338 0
M  V30 26291 C 2463.13 4.27993 -4.01296 0
M  V30 26292 C 2465.48 4.39274 -4.55215 0
M  V30 26293 C 2464.15 4.48398 -4.94465 0
M  V30 26294 H 2463.42 0.710435 -0.210624 0
M  V30 26295 H 2466.06 1.51023 -1.17747 0
M  V30 26296 H 2464.37 3.91434 -0.169272 0
M  V30 26297 H 2466.06 3.9712 -0.556459 0
M  V30 26298 H 2462.65 3.80123 -1.98001 0
M  V30 26299 H 2466.84 3.99787 -2.94081 0
M  V30 26300 H 2462.09 4.33267 -4.31381 0
M  V30 26301 H 2466.27 4.54243 -5.2786 0
M  V30 26302 H 2463.9 4.7063 -5.97002 0
M  V30 26303 N 2465.47 0.698636 1.41269 0
M  V30 26304 C 2466.42 0.0238959 2.32588 0
M  V30 26305 C 2467.41 -0.765265 1.51129 0
M  V30 26306 O 2468.62 -0.670542 1.67044 0
M  V30 26307 H 2464.99 -0.0110739 0.751918 0
M  V30 26308 H 2466.96 0.811082 2.87166 0
M  V30 26309 C 2465.71 -0.89631 3.35949 0
M  V30 26310 H 2465.04 -0.298478 3.98684 0
M  V30 26311 H 2466.48 -1.33669 4.02379 0
M  V30 26312 C 2464.94 -2.01391 2.7008 0
M  V30 26313 O 2465.47 -3.10302 2.55099 0
M  V30 26314 N 2463.67 -1.79255 2.28727 0
M  V30 26315 H 2463.22 -0.906799 2.41112 0
M  V30 26316 H 2463.18 -2.54216 1.84991 0
M  V30 26317 N 2466.95 -1.51228 0.443603 0
M  V30 26318 C 2468.36 -1.86691 -0.0180538 0
M  V30 26319 C 2468.71 -1.36035 -1.41382 0
M  V30 26320 O 2467.84 -0.713758 -2.0429 0
M  V30 26321 C 2468.43 -3.38777 -0.0395375 0
M  V30 26322 C 2466.99 -3.73753 -0.445627 0
M  V30 26323 C 2466.14 -2.74984 0.357633 0
M  V30 26324 H 2469.09 -1.44363 0.659164 0
M  V30 26325 H 2469.11 -3.70937 -0.847696 0
M  V30 26326 H 2468.62 -3.75616 0.976448 0
M  V30 26327 H 2466.72 -3.42506 -1.46698 0
M  V30 26328 H 2466.83 -4.78812 -0.166071 0
M  V30 26329 H 2465.2 -2.54028 -0.184928 0
M  V30 26330 H 2465.98 -3.14665 1.37261 0
M  V30 26331 N 2468.43 -0.175182 -1.56623 0
M  V30 26332 C 2469.36 0.749156 -2.21156 0
M  V30 26333 C 2470.34 1.23624 -1.16838 0
M  V30 26334 O 2471.52 1.2887 -1.4528 0
M  V30 26335 C 2468.65 1.97706 -2.85534 0
M  V30 26336 C 2467.61 1.62568 -3.95924 0
M  V30 26337 C 2466.93 2.92856 -4.4737 0
M  V30 26338 C 2468.23 0.850747 -5.15325 0
M  V30 26339 H 2469.93 0.211242 -2.98654 0
M  V30 26340 H 2467.47 0.100163 -1.43651 0
M  V30 26341 H 2469.43 2.62875 -3.29355 0
M  V30 26342 H 2468.15 2.53918 -2.0541 0
M  V30 26343 H 2466.81 0.997657 -3.52764 0
M  V30 26344 H 2466.46 3.47115 -3.64033 0
M  V30 26345 H 2466.16 2.70097 -5.21844 0
M  V30 26346 H 2467.68 3.59048 -4.9388 0
M  V30 26347 H 2469.09 1.40511 -5.55814 0
M  V30 26348 H 2467.49 0.72205 -5.9574 0
M  V30 26349 H 2468.56 -0.152167 -4.84661 0
M  V30 26350 N 2469.91 1.57292 0.0985263 0
M  V30 26351 C 2470.84 2.04853 1.1206 0
M  V30 26352 C 2471.82 0.936792 1.4198 0
M  V30 26353 O 2473 1.20784 1.52069 0
M  V30 26354 C 2470.13 2.47008 2.4414 0
M  V30 26355 C 2469.09 3.61814 2.28636 0
M  V30 26356 C 2468.41 3.89935 3.65862 0
M  V30 26357 C 2469.71 4.92825 1.72977 0
M  V30 26358 H 2471.41 2.90491 0.724928 0
M  V30 26359 H 2468.95 1.3975 0.347266 0
M  V30 26360 H 2470.9 2.78889 3.15909 0
M  V30 26361 H 2469.63 1.58365 2.85636 0
M  V30 26362 H 2468.29 3.30174 1.59312 0
M  V30 26363 H 2467.94 2.98465 4.0488 0
M  V30 26364 H 2467.64 4.67224 3.56336 0
M  V30 26365 H 2469.16 4.24288 4.39104 0
M  V30 26366 H 2470.57 5.23109 2.34584 0
M  V30 26367 H 2468.97 5.74254 1.74219 0
M  V30 26368 H 2470.04 4.79981 0.688922 0
M  V30 26369 N 2471.38 -0.369261 1.53213 0
M  V30 26370 C 2472.35 -1.43495 1.78723 0
M  V30 26371 C 2473.35 -1.4674 0.65758 0
M  V30 26372 O 2474.54 -1.47565 0.925762 0
M  V30 26373 C 2471.67 -2.82641 1.90596 0
M  V30 26374 H 2472.86 -1.22151 2.73896 0
M  V30 26375 H 2470.41 -0.602178 1.44234 0
M  V30 26376 H 2471.15 -3.09304 0.974764 0
M  V30 26377 H 2470.93 -2.81685 2.72756 0
M  V30 26378 H 2472.42 -3.59823 2.11937 0
M  V30 26379 N 2472.86 -1.4451 -0.628851 0
M  V30 26380 C 2474.11 -1.47122 -1.38562 0
M  V30 26381 C 2474.43 -0.105933 -1.94712 0
M  V30 26382 O 2473.7 0.862048 -1.75913 0
M  V30 26383 H 2472.28 -0.541738 -0.514324 0
M  V30 26384 H 2474.94 -1.80306 -0.739986 0
M  V30 26385 H 2474.04 -2.19793 -2.21579 0
M  V30 26386 N 2474.34 0.869463 -1.31446 0
M  V30 26387 C 2475.57 1.65532 -1.24125 0
M  V30 26388 C 2475.98 1.87807 0.193354 0
M  V30 26389 O 2475.34 1.43658 1.12555 0
M  V30 26390 C 2475.39 3.023 -1.98234 0
M  V30 26391 O 2475.11 2.8102 -3.36094 0
M  V30 26392 C 2476.61 3.96745 -1.97758 0
M  V30 26393 H 2473.83 0.516048 -0.428878 0
M  V30 26394 H 2476.38 1.08522 -1.7333 0
M  V30 26395 H 2474.53 3.55998 -1.52788 0
M  V30 26396 H 2474.95 3.67895 -3.73836 0
M  V30 26397 H 2476.42 4.90026 -2.54122 0
M  V30 26398 H 2476.9 4.28575 -0.960212 0
M  V30 26399 H 2477.5 3.48984 -2.43085 0
M  V30 26400 N 2475.82 1.14415 1.08383 0
M  V30 26401 C 2477.07 0.907107 1.80151 0
M  V30 26402 C 2477.38 -0.567818 1.87177 0
M  V30 26403 O 2478.59 -0.922127 2.55361 0
M  V30 26404 C 2477.04 1.57342 3.23684 0
M  V30 26405 C 2476.65 3.08463 3.24892 0
M  V30 26406 C 2478.39 1.41751 4.00134 0
M  V30 26407 C 2476.3 3.67929 4.63014 0
M  V30 26408 H 2475.23 0.335726 0.675133 0
M  V30 26409 H 2477.88 1.37309 1.21731 0
M  V30 26410 H 2476.26 1.03511 3.82232 0
M  V30 26411 H 2477.44 3.68963 2.76049 0
M  V30 26412 H 2475.75 3.23694 2.61937 0
M  V30 26413 H 2478.35 1.83581 5.02197 0
M  V30 26414 H 2478.69 0.363649 4.14709 0
M  V30 26415 H 2479.23 1.9262 3.48055 0
M  V30 26416 H 2475.96 4.73169 4.53642 0
M  V30 26417 H 2475.48 3.1221 5.12138 0
M  V30 26418 H 2477.16 3.68236 5.31988 0
M  V30 26419 N 2477.3 -1.26549 0.939309 0
M  V30 26420 C 2478.71 -1.46148 0.64133 0
M  V30 26421 C 2478.91 -1.84681 -0.805931 0
M  V30 26422 O 2477.97 -1.96737 -1.58275 0
M  V30 26423 C 2479.28 -2.54526 1.60115 0
M  V30 26424 C 2480.83 -2.68379 1.61064 0
M  V30 26425 C 2481.3 -3.79927 2.55772 0
M  V30 26426 N 2482.79 -3.87317 2.54046 0
M  V30 26427 C 2483.53 -4.73079 3.24012 0
M  V30 26428 N 2483.03 -5.63242 4.03398 0
M  V30 26429 N 2484.82 -4.66909 3.12974 0
M  V30 26430 H 2476.97 -0.998252 1.8748 0
M  V30 26431 H 2479.23 -0.499764 0.805568 0
M  V30 26432 H 2478.94 -2.33034 2.63416 0
M  V30 26433 H 2478.81 -3.52146 1.35177 0
M  V30 26434 H 2481.2 -2.89246 0.584886 0
M  V30 26435 H 2481.28 -1.71209 1.90056 0
M  V30 26436 H 2480.92 -3.59813 3.58465 0
M  V30 26437 H 2480.85 -4.7655 2.24071 0
M  V30 26438 H 2483.35 -3.22854 1.96401 0
M  V30 26439 H 2483.66 -6.25571 4.53741 0
M  V30 26440 H 2482 -5.63 4.07499 0
M  V30 26441 H 2485.19 -3.95472 2.50439 0
M  V30 26442 H 2485.37 -5.33526 3.67769 0
M  V30 26443 N 2478.77 -0.706118 -1.40896 0
M  V30 26444 C 2480 -0.249471 -2.05894 0
M  V30 26445 C 2480.42 1.09663 -1.52825 0
M  V30 26446 O 2479.78 1.68875 -0.659618 0
M  V30 26447 C 2479.83 -0.229104 -3.59871 0
M  V30 26448 O 2478.93 0.792713 -4.0471 0
M  V30 26449 H 2478.27 -0.119252 -0.653204 0
M  V30 26450 H 2480.8 -0.963942 -1.8047 0
M  V30 26451 H 2480.81 -0.0635509 -4.07951 0
M  V30 26452 H 2479.49 -1.21148 -3.97864 0
M  V30 26453 H 2478.07 0.595655 -3.68112 0
M  V30 26454 N 2480.25 1.50991 -0.451617 0
M  V30 26455 C 2481.2 2.28091 0.352585 0
M  V30 26456 C 2482.17 1.32293 1.00438 0
M  V30 26457 O 2483.35 1.61212 1.02055 0
M  V30 26458 C 2480.49 3.13631 1.43977 0
M  V30 26459 C 2479.61 4.24439 0.804697 0
M  V30 26460 C 2478.74 4.97267 1.86813 0
M  V30 26461 C 2477.78 5.99976 1.21226 0
M  V30 26462 N 2476.92 6.66156 2.21768 0
M  V30 26463 H 2481.76 2.9637 -0.311238 0
M  V30 26464 H 2479.29 1.46168 -0.165333 0
M  V30 26465 H 2481.25 3.61563 2.08155 0
M  V30 26466 H 2479.88 2.47438 2.07303 0
M  V30 26467 H 2478.93 3.80366 0.050846 0
M  V30 26468 H 2480.25 4.97979 0.285989 0
M  V30 26469 H 2479.4 5.48818 2.58619 0
M  V30 26470 H 2478.14 4.23389 2.4206 0
M  V30 26471 H 2477.14 5.47703 0.479732 0
M  V30 26472 H 2478.37 6.75817 0.666933 0
M  V30 26473 H 2476.32 5.95082 2.76069 0
M  V30 26474 H 2476.23 7.35507 1.74828 0
M  V30 26475 H 2477.5 7.22332 2.93013 0
M  V30 26476 N 2481.73 0.183486 1.56528 0
M  V30 26477 C 2482.66 -0.737417 2.2155 0
M  V30 26478 C 2483.64 -1.23003 1.17492 0
M  V30 26479 O 2484.83 -1.28098 1.45961 0
M  V30 26480 C 2481.96 -1.96189 2.86578 0
M  V30 26481 C 2480.91 -1.60466 3.9678 0
M  V30 26482 C 2480.24 -2.90479 4.48917 0
M  V30 26483 C 2481.54 -0.823406 5.15769 0
M  V30 26484 H 2483.23 -0.195401 2.98762 0
M  V30 26485 H 2480.78 -0.0925433 1.43702 0
M  V30 26486 H 2482.73 -2.61125 3.30744 0
M  V30 26487 H 2481.45 -2.52825 2.06754 0
M  V30 26488 H 2480.11 -0.978935 3.53288 0
M  V30 26489 H 2479.76 -3.4518 3.65869 0
M  V30 26490 H 2479.46 -2.67326 5.23269 0
M  V30 26491 H 2480.98 -3.56423 4.95777 0
M  V30 26492 H 2482.4 -1.37561 5.56552 0
M  V30 26493 H 2480.79 -0.690446 5.96115 0
M  V30 26494 H 2481.86 0.177867 4.84574 0
M  V30 26495 N 2483.21 -1.57342 -0.0901833 0
M  V30 26496 C 2484.43 -1.90927 -0.810049 0
M  V30 26497 C 2484.86 -0.778217 -1.71247 0
M  V30 26498 O 2484.22 0.269959 -1.79279 0
M  V30 26499 C 2484.26 -3.23396 -1.59523 0
M  V30 26500 O 2483.37 -3.11332 -2.70456 0
M  V30 26501 H 2482.71 -0.625711 -0.22222 0
M  V30 26502 H 2485.24 -2.045 -0.0639357 0
M  V30 26503 H 2485.25 -3.56823 -1.97841 0
M  V30 26504 H 2483.92 -4.053 -0.932983 0
M  V30 26505 H 2482.5 -2.89428 -2.3513 0
M  V30 26506 N 2484.69 0.36113 -1.53407 0
M  V30 26507 C 2486.1 0.703099 -1.43278 0
M  V30 26508 C 2486.3 1.93109 -0.575418 0
M  V30 26509 O 2485.36 2.5243 -0.0595806 0
M  V30 26510 C 2486.67 0.912149 -2.86532 0
M  V30 26511 C 2488.22 1.01188 -2.96193 0
M  V30 26512 C 2488.69 1.25337 -4.40516 0
M  V30 26513 N 2490.19 1.32097 -4.43965 0
M  V30 26514 C 2490.92 1.525 -5.52749 0
M  V30 26515 N 2490.42 1.70191 -6.7157 0
M  V30 26516 N 2492.21 1.54906 -5.40334 0
M  V30 26517 H 2484.36 -0.446512 -2.07654 0
M  V30 26518 H 2486.62 -0.137731 -0.937941 0
M  V30 26519 H 2486.33 0.0815796 -3.51605 0
M  V30 26520 H 2486.2 1.81897 -3.30444 0
M  V30 26521 H 2488.59 1.83299 -2.3127 0
M  V30 26522 H 2488.67 0.0823479 -2.55667 0
M  V30 26523 H 2488.32 0.437257 -5.06014 0
M  V30 26524 H 2488.25 2.19619 -4.78618 0
M  V30 26525 H 2490.74 1.20021 -3.58334 0
M  V30 26526 H 2491.05 1.85346 -7.50244 0
M  V30 26527 H 2489.39 1.67361 -6.74548 0
M  V30 26528 H 2492.59 1.40656 -4.46468 0
M  V30 26529 H 2492.76 1.70466 -6.25176 0
M  V30 26530 N 2486.16 1.44842 0.621179 0
M  V30 26531 C 2487.58 1.28948 0.940458 0
M  V30 26532 C 2487.78 0.232525 2.00154 0
M  V30 26533 O 2486.84 -0.378193 2.49652 0
M  V30 26534 C 2488.15 2.66421 1.39428 0
M  V30 26535 C 2489.7 2.74211 1.50922 0
M  V30 26536 C 2490.17 4.12177 1.99685 0
M  V30 26537 N 2491.66 4.14403 2.0694 0
M  V30 26538 C 2492.4 5.18015 2.45862 0
M  V30 26539 N 2491.89 6.31982 2.83851 0
M  V30 26540 N 2493.69 5.05371 2.46083 0
M  V30 26541 H 2485.84 2.12248 -0.0803921 0
M  V30 26542 H 2488.1 0.947625 0.0266747 0
M  V30 26543 H 2487.81 3.44888 0.688864 0
M  V30 26544 H 2487.68 2.93977 2.36341 0
M  V30 26545 H 2490.07 1.96057 2.20558 0
M  V30 26546 H 2490.15 2.50384 0.523583 0
M  V30 26547 H 2489.79 4.90811 1.30641 0
M  V30 26548 H 2489.72 4.33387 2.99138 0
M  V30 26549 H 2492.21 3.32155 1.80226 0
M  V30 26550 H 2492.53 7.06846 3.12392 0
M  V30 26551 H 2490.87 6.35404 2.81578 0
M  V30 26552 H 2494.06 4.15388 2.15802 0
M  V30 26553 H 2494.24 5.8624 2.76092 0
M  V30 26554 N 2487.64 -0.862479 1.31905 0
M  V30 26555 C 2489.06 -1.14943 1.10726 0
M  V30 26556 C 2489.26 -2.01158 -0.117386 0
M  V30 26557 O 2488.31 -2.39339 -0.804553 0
M  V30 26558 C 2489.63 -1.83433 2.38271 0
M  V30 26559 C 2491.18 -1.96102 2.43953 0
M  V30 26560 C 2491.65 -2.68006 3.71398 0
M  V30 26561 N 2493.14 -2.75537 3.72335 0
M  V30 26562 C 2493.88 -3.31804 4.67647 0
M  V30 26563 N 2493.37 -3.88943 5.7332 0
M  V30 26564 N 2495.17 -3.29833 4.55156 0
M  V30 26565 H 2487.32 -0.288154 2.10436 0
M  V30 26566 H 2489.58 -0.190275 0.928708 0
M  V30 26567 H 2489.29 -1.27536 3.27761 0
M  V30 26568 H 2489.16 -2.83653 2.48638 0
M  V30 26569 H 2491.55 -2.51161 1.54926 0
M  V30 26570 H 2491.63 -0.949017 2.37544 0
M  V30 26571 H 2491.27 -2.13613 4.60795 0
M  V30 26572 H 2491.2 -3.69629 3.75076 0
M  V30 26573 H 2493.69 -2.34992 2.95951 0
M  V30 26574 H 2494.01 -4.30011 6.42114 0
M  V30 26575 H 2492.35 -3.87297 5.77084 0
M  V30 26576 H 2495.54 -2.84436 3.71771 0
M  V30 26577 H 2495.71 -3.73385 5.29611 0
M  V30 26578 N 2489.12 -1.14988 -1.07775 0
M  V30 26579 C 2490.35 -0.946246 -1.84556 0
M  V30 26580 C 2490.77 0.50033 -1.81324 0
M  V30 26581 O 2490.13 1.35635 -1.20303 0
M  V30 26582 C 2490.18 -1.45973 -3.29733 0
M  V30 26583 O 2489.28 -0.656081 -4.07148 0
M  V30 26584 H 2488.62 -0.33783 -0.571635 0
M  V30 26585 H 2491.15 -1.52867 -1.35988 0
M  V30 26586 H 2491.16 -1.4707 -3.80571 0
M  V30 26587 H 2489.84 -2.51289 -3.31401 0
M  V30 26588 H 2488.41 -0.714386 -3.65993 0
M  V30 26589 N 2490.6 1.26049 -0.946007 0
M  V30 26590 C 2491.56 2.24456 -0.463936 0
M  V30 26591 C 2492.56 1.5501 0.427627 0
M  V30 26592 O 2493.75 1.72726 0.226127 0
M  V30 26593 C 2490.88 3.39292 0.330753 0
M  V30 26594 H 2492.08 2.68616 -1.33361 0
M  V30 26595 H 2489.63 1.38288 -0.72844 0
M  V30 26596 H 2490.36 3.00539 1.21847 0
M  V30 26597 H 2490.15 3.90883 -0.308748 0
M  V30 26598 H 2491.64 4.12387 0.657793 0
M  V30 26599 N 2492.08 0.71358 1.4052 0
M  V30 26600 C 2493.01 0.0203529 2.29191 0
M  V30 26601 C 2494.02 -0.725838 1.45724 0
M  V30 26602 O 2495.21 -0.573551 1.69034 0
M  V30 26603 C 2492.31 -0.995429 3.23951 0
M  V30 26604 C 2491.48 -0.315179 4.36263 0
M  V30 26605 C 2490.54 -1.23607 5.11476 0
M  V30 26606 O 2489.57 -0.721619 5.64607 0
M  V30 26607 N 2490.77 -2.56733 5.20642 0
M  V30 26608 H 2493.54 0.781702 2.89326 0
M  V30 26609 H 2491.1 0.561048 1.51868 0
M  V30 26610 H 2493.09 -1.61362 3.71139 0
M  V30 26611 H 2491.66 -1.65816 2.64998 0
M  V30 26612 H 2490.88 0.483175 3.91228 0
M  V30 26613 H 2492.17 0.157093 5.08557 0
M  V30 26614 H 2491.56 -3.01029 4.78955 0
M  V30 26615 H 2490.12 -3.13701 5.71345 0
M  V30 26616 N 2493.55 -1.50749 0.459618 0
M  V30 26617 C 2494.49 -2.24908 -0.386217 0
M  V30 26618 C 2495.47 -1.27745 -1.00598 0
M  V30 26619 O 2496.65 -1.5694 -1.04414 0
M  V30 26620 C 2493.78 -3.01657 -1.54015 0
M  V30 26621 C 2492.82 -4.13653 -1.0389 0
M  V30 26622 S 2493.66 -5.35487 0.0371442 0
M  V30 26623 C 2494.81 -6.15781 -1.12094 0
M  V30 26624 H 2495.04 -2.96303 0.243324 0
M  V30 26625 H 2492.58 -1.52454 0.244366 0
M  V30 26626 H 2494.54 -3.4647 -2.20157 0
M  V30 26627 H 2493.2 -2.2981 -2.14117 0
M  V30 26628 H 2492.39 -4.66715 -1.90245 0
M  V30 26629 H 2491.99 -3.71217 -0.455385 0
M  V30 26630 H 2494.28 -6.46218 -2.0349 0
M  V30 26631 H 2495.23 -7.05293 -0.629826 0
M  V30 26632 H 2495.63 -5.47634 -1.36958 0
M  V30 26633 N 2495.03 -0.191784 -1.56429 0
M  V30 26634 C 2496.45 0.164109 -1.58754 0
M  V30 26635 C 2496.65 1.61286 -1.20785 0
M  V30 26636 O 2495.7 2.34787 -0.92904 0
M  V30 26637 C 2497.02 -0.135248 -3.00396 0
M  V30 26638 C 2498.57 -0.0750901 -3.1291 0
M  V30 26639 C 2499.04 -0.347712 -4.56678 0
M  V30 26640 N 2500.53 -0.296212 -4.62252 0
M  V30 26641 C 2501.27 -0.481048 -5.71379 0
M  V30 26642 N 2500.76 -0.726054 -6.88985 0
M  V30 26643 N 2502.56 -0.415534 -5.60562 0
M  V30 26644 H 2494.71 -1.13721 -1.79391 0
M  V30 26645 H 2496.97 -0.453657 -0.832406 0
M  V30 26646 H 2496.68 -1.13964 -3.32724 0
M  V30 26647 H 2496.55 0.563708 -3.72964 0
M  V30 26648 H 2498.94 0.919899 -2.80396 0
M  V30 26649 H 2499.02 -0.807071 -2.42734 0
M  V30 26650 H 2498.66 -1.34 -4.89904 0
M  V30 26651 H 2498.59 0.40512 -5.25039 0
M  V30 26652 H 2501.08 -0.113326 -3.7773 0
M  V30 26653 H 2501.4 -0.855992 -7.68045 0
M  V30 26654 H 2499.74 -0.762909 -6.908 0
M  V30 26655 H 2502.93 -0.224568 -4.67561 0
M  V30 26656 H 2503.1 -0.563002 -6.4555 0
M  V30 26657 N 2496.51 1.57387 0.0818378 0
M  V30 26658 C 2497.76 1.87031 0.784041 0
M  V30 26659 C 2498.09 0.78272 1.77728 0
M  V30 26660 O 2497.36 -0.208017 1.93384 0
M  V30 26661 C 2497.65 3.27326 1.50099 0
M  V30 26662 C 2497.5 4.46727 0.524847 0
M  V30 26663 C 2498.82 3.65709 2.44837 0
M  V30 26664 H 2495.94 0.680262 0.28357 0
M  V30 26665 H 2498.58 1.89941 0.0474019 0
M  V30 26666 H 2496.73 3.24976 2.12891 0
M  V30 26667 H 2498.4 4.61198 -0.0970922 0
M  V30 26668 H 2496.65 4.33502 -0.160682 0
M  V30 26669 H 2497.32 5.4165 1.06391 0
M  V30 26670 H 2499.79 3.69088 1.92128 0
M  V30 26671 H 2498.67 4.64781 2.9201 0
M  V30 26672 H 2498.93 2.95101 3.29192 0
M  V30 26673 O 2498.03 -0.225609 1.59916 0
M  V30 26674 H 2498.72 -0.867131 1.73207 0
M  V30 END ATOM
M  V30 BEGIN BOND
M  V30 END BOND
M  V30 END CTAB
M  END
$$$$
