drugbank_target|P08581 Hepatocyte growth factor receptor (DB02152; DB06314; DB06896; DB06995; DB06997; DB07369; DB07969; DB08079; DB08791; DB08865; DB08875; DB11791; DB12010; DB12200; DB12267; DB12742)
 OpenBabel12092119433D

  0  0  0     0  0            999 V3000
M  V30 BEGIN CTAB
M  V30 COUNTS 21803 22055 0 0 0
M  V30 BEGIN ATOM
M  V30 1 H -0.908 1.98254 -0.117106 0
M  V30 2 N 0 1.576 0 0
M  V30 3 C 0.933 2.03868 1.02534 0
M  V30 4 C 1.911 0.928543 1.3348 0
M  V30 5 O 3.095 1.19667 1.45644 0
M  V30 6 C 0.222 2.43627 2.35294 0
M  V30 7 C -0.732 3.65373 2.2001 0
M  V30 8 S 0.101 5.13292 1.52614 0
M  V30 9 C 1.257 5.56322 2.86805 0
M  V30 10 H 1.49 2.90518 0.631377 0
M  V30 11 H -0.977 1.52953 0.210867 0
M  V30 12 H 0.981 2.67203 3.11629 0
M  V30 13 H -0.358 1.57376 2.7183 0
M  V30 14 H -1.165 3.90944 3.18086 0
M  V30 15 H -1.563 3.418 1.51819 0
M  V30 16 H 0.729 5.58782 3.83104 0
M  V30 17 H 1.672 6.56266 2.65933 0
M  V30 18 H 2.08 4.83886 2.90714 0
M  V30 19 N 1.4781 -0.272755 1.55222 0
M  V30 20 C 2.4251 -1.33716 1.88119 0
M  V30 21 C 3.3951 -1.49066 0.73271 0
M  V30 22 O 4.5801 -1.63469 0.984002 0
M  V30 23 C 1.7201 -2.69238 2.15882 0
M  V30 24 C 0.8331 -2.62108 3.43399 0
M  V30 25 C -0.0319 -3.89811 3.60861 0
M  V30 26 C -0.9929 -3.77193 4.8207 0
M  V30 27 N -1.8559 -4.9673 4.96189 0
M  V30 28 H 2.9841 -1.04962 2.78903 0
M  V30 29 H 0.5211 -0.507088 1.38083 0
M  V30 30 H 2.4791 -3.48089 2.29978 0
M  V30 31 H 1.1091 -2.96194 1.28331 0
M  V30 32 H 0.1611 -1.74967 3.37773 0
M  V30 33 H 1.4731 -2.48685 4.32386 0
M  V30 34 H 0.6271 -4.77103 3.74777 0
M  V30 35 H -0.6339 -4.06102 2.7006 0
M  V30 36 H -1.6289 -2.88284 4.68159 0
M  V30 37 H -0.4039 -3.62421 5.74307 0
M  V30 38 H -2.4579 -5.13431 4.08319 0
M  V30 39 H -2.5409 -4.85839 5.79221 0
M  V30 40 H -1.2729 -5.85594 5.1449 0
M  V30 41 N 2.9562 -1.48159 -0.537278 0
M  V30 42 C 3.9192 -1.61665 -1.62472 0
M  V30 43 C 4.9192 -0.490395 -1.5314 0
M  V30 44 O 6.1092 -0.755998 -1.5694 0
M  V30 45 C 3.2412 -1.57997 -3.02076 0
M  V30 46 H 4.4342 -2.58621 -1.51839 0
M  V30 47 H 1.9872 -1.36647 -0.758771 0
M  V30 48 H 2.7222 -0.624913 -3.18222 0
M  V30 49 H 2.5072 -2.39755 -3.10258 0
M  V30 50 H 3.9972 -1.70627 -3.81151 0
M  V30 51 N 4.4343 0.785586 -1.36625 0
M  V30 52 C 5.8453 1.36101 -1.27803 0
M  V30 53 C 6.1963 1.96035 0.0804875 0
M  V30 54 O 5.3213 1.92834 0.982042 0
M  V30 55 C 5.9163 2.47442 -2.31426 0
M  V30 56 C 4.4753 3.00789 -2.26281 0
M  V30 57 C 3.6223 1.73896 -2.15999 0
M  V30 58 H 6.5733 0.586928 -1.47448 0
M  V30 59 H 6.5943 3.2656 -1.95291 0
M  V30 60 H 6.1063 2.03791 -3.30289 0
M  V30 61 H 4.2073 3.48851 -1.30896 0
M  V30 62 H 4.3203 3.57343 -3.19128 0
M  V30 63 H 2.6843 1.9628 -1.62316 0
M  V30 64 H 3.4673 1.32368 -3.16755 0
M  V30 65 N 5.9124 1.20967 1.01018 0
M  V30 66 C 6.8754 0.965918 2.07853 0
M  V30 67 C 7.8754 -0.0610545 1.60684 0
M  V30 68 O 9.0654 0.175681 1.73312 0
M  V30 69 C 6.1974 0.455513 3.37843 0
M  V30 70 H 7.3904 1.91365 2.3091 0
M  V30 71 H 4.9434 1.02594 1.17916 0
M  V30 72 H 5.6784 -0.497381 3.20463 0
M  V30 73 H 5.4634 1.19622 3.73407 0
M  V30 74 H 6.9534 0.304667 4.16487 0
M  V30 75 N 7.3905 -1.2043 1.01659 0
M  V30 76 C 8.6365 -1.90079 0.706963 0
M  V30 77 C 8.9695 -1.78648 -0.761474 0
M  V30 78 O 8.2445 -1.17069 -1.55323 0
M  V30 79 C 8.5275 -3.41469 1.14327 0
M  V30 80 C 8.3805 -3.61833 2.67201 0
M  V30 81 C 9.6995 -4.34261 0.714529 0
M  V30 82 H 6.8185 -0.690254 0.2583 0
M  V30 83 H 9.4605 -1.41826 1.26433 0
M  V30 84 H 7.6105 -3.82696 0.669056 0
M  V30 85 H 9.2825 -3.2986 3.22475 0
M  V30 86 H 7.5255 -3.05304 3.08175 0
M  V30 87 H 8.1965 -4.67955 2.92783 0
M  V30 88 H 10.6725 -4.00682 1.12221 0
M  V30 89 H 9.5485 -5.38806 1.04784 0
M  V30 90 H 9.8095 -4.40431 -0.383799 0
M  V30 91 N 8.8686 -0.792821 -1.36206 0
M  V30 92 C 9.7986 -0.207853 -2.32573 0
M  V30 93 C 10.7796 0.659055 -1.56813 0
M  V30 94 O 11.9646 0.592176 -1.84951 0
M  V30 95 C 9.0946 0.655449 -3.41059 0
M  V30 96 C 8.0486 -0.111842 -4.27854 0
M  V30 97 C 7.3746 0.872274 -5.27537 0
M  V30 98 C 8.6746 -1.30299 -5.05786 0
M  V30 99 H 10.3686 -1.01294 -2.81744 0
M  V30 100 H 7.9146 -0.48854 -1.3546 0
M  V30 101 H 9.8676 1.07464 -4.07467 0
M  V30 102 H 8.5916 1.49328 -2.90463 0
M  V30 103 H 7.2506 -0.512053 -3.63006 0
M  V30 104 H 6.8986 1.70523 -4.73214 0
M  V30 105 H 6.5986 0.363291 -5.86476 0
M  V30 106 H 8.1226 1.28996 -5.96818 0
M  V30 107 H 9.5366 -0.959379 -5.65216 0
M  V30 108 H 7.9336 -1.7455 -5.74154 0
M  V30 109 H 9.0036 -2.09663 -4.37229 0
M  V30 110 N 10.3467 1.47872 -0.545128 0
M  V30 111 C 11.3097 2.28337 0.198717 0
M  V30 112 C 12.3097 1.36255 0.853888 0
M  V30 113 O 13.4997 1.59003 0.711606 0
M  V30 114 C 10.6317 3.15585 1.28915 0
M  V30 115 H 11.8247 2.95567 -0.507941 0
M  V30 116 H 9.3777 1.53362 -0.301616 0
M  V30 117 H 10.1127 2.53019 2.02859 0
M  V30 118 H 9.8977 3.83337 0.824309 0
M  V30 119 H 11.3877 3.76243 1.81194 0
M  V30 120 N 11.8248 0.280983 1.55075 0
M  V30 121 C 13.2358 -0.215629 1.85451 0
M  V30 122 C 13.5868 -1.54991 1.203 0
M  V30 123 O 12.7118 -2.10699 0.493435 0
M  V30 124 C 13.3068 -0.398026 3.36454 0
M  V30 125 C 11.8658 -0.838866 3.66933 0
M  V30 126 C 11.0128 0.064458 2.77225 0
M  V30 127 H 13.9638 0.502601 1.50531 0
M  V30 128 H 13.9848 -1.23569 3.59876 0
M  V30 129 H 13.4968 0.573241 3.83843 0
M  V30 130 H 11.5978 -1.8214 3.25048 0
M  V30 131 H 11.7108 -0.672123 4.74362 0
M  V30 132 H 10.0748 -0.452863 2.50642 0
M  V30 133 H 10.8578 1.03172 3.2743 0
M  V30 134 N 13.3029 -1.57598 0.00835791 0
M  V30 135 C 14.5509 -1.90551 -0.6734 0
M  V30 136 C 14.8719 -0.883301 -1.73847 0
M  V30 137 O 14.1419 0.0781442 -1.95744 0
M  V30 138 H 12.7219 -0.703312 -0.251717 0
M  V30 139 H 15.3839 -1.94833 0.0512592 0
M  V30 140 H 14.4799 -2.9056 -1.13935 0
M  V30 141 N 14.781 0.264519 -1.55364 0
M  V30 142 C 16.03 0.992812 -1.75574 0
M  V30 143 C 16.343 1.87142 -0.568979 0
M  V30 144 O 17.549 2.63513 -0.653682 0
M  V30 145 C 16.005 1.81519 -3.10771 0
M  V30 146 C 15.613 0.984839 -4.37041 0
M  V30 147 C 17.357 2.53727 -3.40327 0
M  V30 148 C 15.264 1.80209 -5.63275 0
M  V30 149 H 14.194 0.374412 -0.65447 0
M  V30 150 H 16.845 0.248138 -1.81815 0
M  V30 151 H 15.227 2.60115 -2.98591 0
M  V30 152 H 16.401 0.242455 -4.60162 0
M  V30 153 H 14.716 0.37691 -4.14691 0
M  V30 154 H 17.313 3.15292 -4.3185 0
M  V30 155 H 17.656 3.24447 -2.60845 0
M  V30 156 H 18.189 1.82156 -3.53644 0
M  V30 157 H 14.928 1.13896 -6.45529 0
M  V30 158 H 14.448 2.52022 -5.44284 0
M  V30 159 H 16.127 2.37364 -6.01887 0
M  V30 160 N 16.2591 1.48442 0.529413 0
M  V30 161 C 17.1891 1.65902 1.64313 0
M  V30 162 C 18.1701 0.507897 1.6234 0
M  V30 163 O 19.3551 0.740503 1.79528 0
M  V30 164 C 16.4851 1.69911 3.02898 0
M  V30 165 C 15.4391 2.8453 3.19729 0
M  V30 166 C 14.7651 2.73629 4.59381 0
M  V30 167 C 16.0651 4.25821 3.02447 0
M  V30 168 H 17.7591 2.5914 1.49955 0
M  V30 169 H 15.3051 1.24709 0.719982 0
M  V30 170 H 17.2581 1.80715 3.80684 0
M  V30 171 H 15.9821 0.732524 3.18279 0
M  V30 172 H 14.6411 2.73283 2.44361 0
M  V30 173 H 14.2891 1.74938 4.71599 0
M  V30 174 H 13.9891 3.50541 4.71588 0
M  V30 175 H 15.5131 2.86401 5.39265 0
M  V30 176 H 16.9271 4.37898 3.70024 0
M  V30 177 H 15.3241 5.03735 3.26146 0
M  V30 178 H 16.3941 4.42244 1.98867 0
M  V30 179 N 17.7372 -0.778329 1.37039 0
M  V30 180 C 18.9832 -1.53892 1.32079 0
M  V30 181 C 19.3162 -1.9396 -0.0965386 0
M  V30 182 O 18.5912 -1.63568 -1.05242 0
M  V30 183 C 18.8742 -2.80847 2.25382 0
M  V30 184 C 18.7272 -2.47076 3.75864 0
M  V30 185 C 20.0462 -3.82741 2.1725 0
M  V30 186 H 17.1652 -0.558303 0.48111 0
M  V30 187 H 19.8072 -0.893397 1.67685 0
M  V30 188 H 17.9572 -3.35931 1.95148 0
M  V30 189 H 19.6292 -1.97957 4.16666 0
M  V30 190 H 17.8722 -1.79863 3.94755 0
M  V30 191 H 18.5432 -3.37798 4.36574 0
M  V30 192 H 21.0192 -3.37133 2.43887 0
M  V30 193 H 19.8952 -4.69303 2.84686 0
M  V30 194 H 20.1562 -4.2652 1.16331 0
M  V30 195 N 19.2153 -1.21501 -1.00376 0
M  V30 196 C 20.1453 -0.999478 -2.11028 0
M  V30 197 C 21.1263 0.0759671 -1.6993 0
M  V30 198 O 22.3113 -0.0841106 -1.94018 0
M  V30 199 C 19.4413 -0.564709 -3.42678 0
M  V30 200 C 18.3953 -1.58486 -3.97576 0
M  V30 201 C 17.7213 -1.00628 -5.25146 0
M  V30 202 C 19.0213 -2.97204 -4.29496 0
M  V30 203 H 20.7153 -1.92495 -2.29317 0
M  V30 204 H 18.2613 -0.92693 -1.102 0
M  V30 205 H 20.2143 -0.401091 -4.19487 0
M  V30 206 H 18.9383 0.396411 -3.24185 0
M  V30 207 H 17.5973 -1.73606 -3.22888 0
M  V30 208 H 17.2453 -0.0368439 -5.02987 0
M  V30 209 H 16.9453 -1.68771 -5.62841 0
M  V30 210 H 18.4693 -0.854015 -6.04598 0
M  V30 211 H 19.8833 -2.8552 -4.97143 0
M  V30 212 H 18.2803 -3.62372 -4.78338 0
M  V30 213 H 19.3503 -3.47956 -3.3772 0
M  V30 214 N 20.6934 1.19889 -1.02296 0
M  V30 215 C 21.6234 2.25141 -0.619174 0
M  V30 216 C 22.6044 1.66051 0.368915 0
M  V30 217 O 23.7894 1.92546 0.252941 0
M  V30 218 C 20.9194 3.4728 0.0368783 0
M  V30 219 C 19.8734 4.19005 -0.872865 0
M  V30 220 C 19.1994 5.34637 -0.0822402 0
M  V30 221 C 20.4994 4.74452 -2.18387 0
M  V30 222 H 22.1934 2.59171 -1.49903 0
M  V30 223 H 19.7394 1.24579 -0.722222 0
M  V30 224 H 21.6924 4.20098 0.330958 0
M  V30 225 H 20.4164 3.12433 0.95149 0
M  V30 226 H 19.0754 3.48061 -1.15105 0
M  V30 227 H 18.7234 4.96034 0.83422 0
M  V30 228 H 18.4234 5.83557 -0.688149 0
M  V30 229 H 19.9474 6.10255 0.205238 0
M  V30 230 H 21.3614 5.39055 -1.95172 0
M  V30 231 H 19.7584 5.33834 -2.74119 0
M  V30 232 H 20.8284 3.92844 -2.84257 0
M  V30 233 N 22.1715 0.800033 1.35784 0
M  V30 234 C 23.4185 0.377342 1.98953 0
M  V30 235 C 23.7465 -1.05378 1.6348 0
M  V30 236 O 23.0015 -1.74459 0.886707 0
M  V30 237 C 23.3005 0.500276 3.53881 0
M  V30 238 C 22.9665 1.89375 4.09204 0
M  V30 239 C 21.6285 2.27499 4.24025 0
M  V30 240 C 23.9805 2.8057 4.39238 0
M  V30 241 C 21.3085 3.562 4.66195 0
M  V30 242 C 23.6605 4.0871 4.82844 0
M  V30 243 C 22.3245 4.46843 4.95871 0
M  V30 244 H 21.5945 0.138079 0.728021 0
M  V30 245 H 24.2415 1.01955 1.62103 0
M  V30 246 H 22.5465 -0.225405 3.91151 0
M  V30 247 H 24.2435 0.154097 4.00704 0
M  V30 248 H 20.8335 1.58753 3.98115 0
M  V30 249 H 25.0175 2.52367 4.27346 0
M  V30 250 H 20.2735 3.85602 4.74469 0
M  V30 251 H 24.4475 4.79481 5.05046 0
M  V30 252 H 22.0745 5.46623 5.28306 0
M  V30 253 N 23.6496 -1.47581 0.552962 0
M  V30 254 C 24.8776 -2.06875 0.0320556 0
M  V30 255 C 25.2926 -1.40625 -1.25976 0
M  V30 256 O 24.6496 -0.501349 -1.75479 0
M  V30 257 C 24.7006 -3.61092 -0.17167 0
M  V30 258 O 24.4216 -4.24858 1.06899 0
M  V30 259 C 25.9226 -4.37242 -0.730344 0
M  V30 260 H 23.1426 -0.669561 0.043915 0
M  V30 261 H 25.6866 -1.89646 0.765163 0
M  V30 262 H 23.8416 -3.7785 -0.854894 0
M  V30 263 H 24.2556 -5.17334 0.864059 0
M  V30 264 H 25.7296 -5.45842 -0.822203 0
M  V30 265 H 26.2066 -4.03235 -1.74064 0
M  V30 266 H 26.8126 -4.25219 -0.0829543 0
M  V30 267 N 25.1277 -0.289203 -1.54924 0
M  V30 268 C 26.0577 0.58549 -2.2604 0
M  V30 269 C 27.0387 1.14753 -1.25562 0
M  V30 270 O 28.2237 1.17906 -1.54311 0
M  V30 271 C 25.3537 1.76305 -2.99222 0
M  V30 272 C 24.3077 1.33191 -4.06748 0
M  V30 273 C 23.6337 2.5937 -4.6758 0
M  V30 274 C 24.9337 0.471775 -5.20165 0
M  V30 275 H 26.6277 -0.00763532 -2.99399 0
M  V30 276 H 24.1737 -0.00511229 -1.43999 0
M  V30 277 H 26.1267 2.38097 -3.47689 0
M  V30 278 H 24.8507 2.38223 -2.23422 0
M  V30 279 H 23.5097 0.737121 -3.59113 0
M  V30 280 H 23.1577 3.19576 -3.88433 0
M  V30 281 H 22.8577 2.31228 -5.40192 0
M  V30 282 H 24.3817 3.21985 -5.18804 0
M  V30 283 H 25.7957 0.995056 -5.64599 0
M  V30 284 H 24.1927 0.284639 -5.99425 0
M  V30 285 H 25.2627 -0.506041 -4.82252 0
M  V30 286 N 26.6058 1.57591 -0.0167156 0
M  V30 287 C 27.8518 1.91567 0.665582 0
M  V30 288 C 28.1848 0.892298 1.72487 0
M  V30 289 O 27.4598 -0.0867127 1.94307 0
M  V30 290 C 27.7428 3.36069 1.29342 0
M  V30 291 C 27.5958 4.49135 0.244541 0
M  V30 292 C 28.9148 3.803 2.21495 0
M  V30 293 H 26.0338 0.69666 0.240488 0
M  V30 294 H 28.6758 1.89866 -0.0714356 0
M  V30 295 H 26.8258 3.3765 1.92158 0
M  V30 296 H 28.4978 4.59689 -0.385228 0
M  V30 297 H 26.7408 4.3165 -0.431379 0
M  V30 298 H 27.4118 5.47242 0.723207 0
M  V30 299 H 29.8878 3.80377 1.68678 0
M  V30 300 H 28.7638 4.82127 2.62382 0
M  V30 301 H 29.0248 3.15104 3.101 0
M  V30 302 N 28.0839 -0.256276 1.55502 0
M  V30 303 C 29.0159 -1.33981 1.85962 0
M  V30 304 C 30.0289 -1.44743 0.745212 0
M  V30 305 O 31.2179 -1.4626 1.02324 0
M  V30 306 C 28.3179 -2.7194 2.02242 0
M  V30 307 C 27.4909 -2.83562 3.33033 0
M  V30 308 C 26.5499 -4.02304 3.39172 0
M  V30 309 O 25.5759 -3.92273 4.12444 0
M  V30 310 N 26.7779 -5.15045 2.67784 0
M  V30 311 H 29.5429 -1.08191 2.7949 0
M  V30 312 H 27.1039 -0.446388 1.55624 0
M  V30 313 H 29.0959 -3.49697 2.03701 0
M  V30 314 H 27.6659 -2.90479 1.15502 0
M  V30 315 H 26.8859 -1.92555 3.43971 0
M  V30 316 H 28.1739 -2.88271 4.19258 0
M  V30 317 H 27.5719 -5.26085 2.07968 0
M  V30 318 H 26.1289 -5.90972 2.74947 0
M  V30 319 N 29.562 -1.4872 -0.521534 0
M  V30 320 C 30.978 -1.35028 -0.850855 0
M  V30 321 C 31.178 -0.367712 -1.98116 0
M  V30 322 O 30.234 0.208037 -2.51642 0
M  V30 323 C 31.547 -2.75263 -1.21041 0
M  V30 324 C 33.095 -2.83813 -1.31981 0
M  V30 325 C 33.57 -4.24769 -1.71276 0
M  V30 326 N 35.061 -4.27482 -1.78363 0
M  V30 327 C 35.796 -5.33494 -2.1017 0
M  V30 328 N 35.292 -6.49775 -2.40343 0
M  V30 329 N 37.085 -5.20894 -2.11248 0
M  V30 330 H 29.236 -2.11214 0.22413 0
M  V30 331 H 31.499 -0.947252 0.0376439 0
M  V30 332 H 31.205 -3.48765 -0.453415 0
M  V30 333 H 31.079 -3.09327 -2.15863 0
M  V30 334 H 33.466 -2.10561 -2.06756 0
M  V30 335 H 33.547 -2.53358 -0.352596 0
M  V30 336 H 33.191 -4.9854 -0.970588 0
M  V30 337 H 33.121 -4.52673 -2.69062 0
M  V30 338 H 35.612 -3.43611 -1.57288 0
M  V30 339 H 35.925 -7.26402 -2.63743 0
M  V30 340 H 34.27 -6.53035 -2.37844 0
M  V30 341 H 37.461 -4.29065 -1.87139 0
M  V30 342 H 37.634 -6.03612 -2.35704 0
M  V30 343 N 31.0401 0.771051 -1.3745 0
M  V30 344 C 32.2651 1.56529 -1.36065 0
M  V30 345 C 32.6901 1.88029 0.0515859 0
M  V30 346 O 32.0481 1.49282 1.02882 0
M  V30 347 C 32.0961 2.85187 -2.20683 0
M  V30 348 O 31.2001 3.79593 -1.61193 0
M  V30 349 H 30.5411 0.47411 -0.464883 0
M  V30 350 H 33.0711 0.954269 -1.80983 0
M  V30 351 H 33.0811 3.34283 -2.33921 0
M  V30 352 H 31.7561 2.61588 -3.23334 0
M  V30 353 H 30.3331 3.38239 -1.56999 0
M  V30 354 N 32.5182 1.22032 0.997298 0
M  V30 355 C 33.4662 0.983634 2.10778 0
M  V30 356 C 34.4602 -0.0717564 1.69248 0
M  V30 357 O 35.6662 0.080304 1.79821 0
M  V30 358 H 32.0412 0.300877 0.689186 0
M  V30 359 H 34.0122 1.92606 2.27916 0
M  V30 360 C 32.7612 0.57326 3.42942 0
M  V30 361 H 32.0842 1.37702 3.75338 0
M  V30 362 H 33.5242 0.447031 4.21637 0
M  V30 363 C 31.9832 -0.7167 3.29188 0
M  V30 364 O 32.5132 -1.77027 3.60589 0
M  V30 365 N 30.7192 -0.686167 2.82383 0
M  V30 366 H 30.2662 0.171507 2.57028 0
M  V30 367 H 30.2242 -1.54955 2.73562 0
M  V30 368 N 33.9963 -1.19345 1.0293 0
M  V30 369 C 35.2443 -1.88665 0.724574 0
M  V30 370 C 35.5653 -1.80036 -0.749144 0
M  V30 371 O 34.8353 -1.2111 -1.53978 0
M  V30 372 H 33.4153 -0.698406 0.265025 0
M  V30 373 H 36.0773 -1.44885 1.30362 0
M  V30 374 H 35.1733 -2.94987 1.01926 0
M  V30 375 N 35.4744 -0.807222 -1.35358 0
M  V30 376 C 36.3844 -0.219594 -2.3357 0
M  V30 377 C 37.4004 0.637734 -1.61892 0
M  V30 378 O 38.5764 0.549336 -1.93763 0
M  V30 379 C 35.6414 0.62158 -3.41083 0
M  V30 380 C 34.7024 -0.256315 -4.28534 0
M  V30 381 C 33.9354 0.544807 -5.30912 0
M  V30 382 O 34.1584 1.77944 -5.41934 0
M  V30 383 O 33.0924 -0.0646478 -6.01865 0
M  V30 384 H 36.9184 -1.03208 -2.85625 0
M  V30 385 H 34.5034 -0.569025 -1.38139 0
M  V30 386 H 36.3854 1.10067 -4.06772 0
M  V30 387 H 35.0604 1.41165 -2.91297 0
M  V30 388 H 33.9674 -0.782559 -3.65823 0
M  V30 389 H 35.3004 -1.01034 -4.81719 0
M  V30 390 N 36.9525 1.47285 -0.560781 0
M  V30 391 C 38.1925 2.0436 -0.0404627 0
M  V30 392 C 38.5565 1.42534 1.28639 0
M  V30 393 O 39.7575 1.90677 1.89462 0
M  V30 394 C 38.0285 3.57369 0.0471856 0
M  V30 395 S 39.5875 4.3579 0.513109 0
M  V30 396 H 36.4055 0.710492 -0.0268674 0
M  V30 397 H 39.0075 1.80611 -0.748323 0
M  V30 398 H 37.7115 3.9989 -0.922817 0
M  V30 399 H 37.2425 3.8562 0.778491 0
M  V30 400 H 39.2575 4.63476 1.77212 0
M  V30 401 N 38.4306 0.297415 1.54768 0
M  V30 402 C 39.3776 -0.580276 2.23386 0
M  V30 403 C 40.3476 -1.13238 1.21517 0
M  V30 404 O 41.5326 -1.17757 1.50126 0
M  V30 405 C 38.6726 -1.74801 2.97555 0
M  V30 406 C 37.7856 -1.22764 4.1419 0
M  V30 407 C 36.9206 -2.35895 4.75949 0
M  V30 408 C 35.9596 -1.80974 5.84735 0
M  V30 409 N 35.0966 -2.87664 6.40464 0
M  V30 410 H 39.9366 0.0114833 2.97998 0
M  V30 411 H 37.4736 0.0174361 1.4709 0
M  V30 412 H 39.4316 -2.43475 3.38786 0
M  V30 413 H 38.0616 -2.31145 2.25326 0
M  V30 414 H 37.1136 -0.433271 3.77924 0
M  V30 415 H 38.4256 -0.785551 4.92575 0
M  V30 416 H 37.5796 -3.12523 5.20014 0
M  V30 417 H 36.3186 -2.83429 3.96887 0
M  V30 418 H 35.3236 -1.02834 5.40097 0
M  V30 419 H 36.5486 -1.34348 6.65678 0
M  V30 420 H 34.4946 -3.34538 5.64287 0
M  V30 421 H 34.4116 -2.4794 7.14186 0
M  V30 422 H 35.6796 -3.642 6.89187 0
M  V30 423 N 39.9087 -1.5758 0.0250728 0
M  V30 424 C 40.8187 -2.1343 -0.973905 0
M  V30 425 C 41.8347 -1.08556 -1.35984 0
M  V30 426 O 43.0107 -1.40592 -1.44207 0
M  V30 427 C 40.0757 -2.64703 -2.23904 0
M  V30 428 C 39.1367 -3.84276 -1.91391 0
M  V30 429 C 38.3697 -4.33095 -3.11873 0
M  V30 430 O 38.5927 -3.81107 -4.24398 0
M  V30 431 O 37.5267 -5.24984 -2.94406 0
M  V30 432 H 41.3527 -2.99057 -0.529036 0
M  V30 433 H 38.9377 -1.48118 -0.195288 0
M  V30 434 H 40.8197 -2.97769 -2.98181 0
M  V30 435 H 39.4947 -1.82161 -2.6758 0
M  V30 436 H 38.4017 -3.56143 -1.14511 0
M  V30 437 H 39.7347 -4.67968 -1.52534 0
M  V30 438 N 41.3868 0.248026 -1.55636 0
M  V30 439 C 42.3498 1.29044 -1.89421 0
M  V30 440 C 43.3498 1.41134 -0.770581 0
M  V30 441 O 44.5398 1.39854 -1.03858 0
M  V30 442 C 41.6718 2.66831 -2.12165 0
M  V30 443 H 42.8648 1.00305 -2.82629 0
M  V30 444 H 40.4178 0.487265 -1.48511 0
M  V30 445 H 41.1528 3.00711 -1.21422 0
M  V30 446 H 40.9378 2.59438 -2.93997 0
M  V30 447 H 42.4278 3.42103 -2.3949 0
M  V30 448 N 42.8649 1.48995 0.513639 0
M  V30 449 C 43.7949 1.67636 1.62544 0
M  V30 450 C 44.7759 0.525087 1.61793 0
M  V30 451 O 45.9609 0.759502 1.78732 0
M  V30 452 C 43.0909 1.73114 3.01079 0
M  V30 453 C 42.0449 2.87905 3.16693 0
M  V30 454 C 41.3709 2.78486 4.56453 0
M  V30 455 C 42.6709 4.29005 2.97913 0
M  V30 456 H 44.3649 2.60716 1.47198 0
M  V30 457 H 41.9109 1.25465 0.706714 0
M  V30 458 H 43.8639 1.84742 3.78746 0
M  V30 459 H 42.5879 0.766241 3.17484 0
M  V30 460 H 41.2469 2.75859 2.41448 0
M  V30 461 H 40.8949 1.7993 4.69717 0
M  V30 462 H 40.5949 3.55523 4.67843 0
M  V30 463 H 42.1189 2.92104 5.36197 0
M  V30 464 H 43.5329 4.41798 3.65359 0
M  V30 465 H 41.9299 5.07166 3.20785 0
M  V30 466 H 42.9999 4.44329 1.94165 0
M  V30 467 N 44.343 -0.763751 1.37857 0
M  V30 468 C 45.306 -1.85889 1.34081 0
M  V30 469 C 46.306 -1.58949 0.243277 0
M  V30 470 O 47.496 -1.66882 0.499589 0
M  V30 471 C 44.628 -3.23176 1.08489 0
M  V30 472 H 45.821 -1.90648 2.31502 0
M  V30 473 H 43.374 -0.964367 1.23003 0
M  V30 474 H 44.109 -3.24091 0.116318 0
M  V30 475 H 43.894 -3.44124 1.8794 0
M  V30 476 H 45.384 -4.03254 1.08517 0
M  V30 477 N 45.8211 -1.22559 -0.990812 0
M  V30 478 C 46.7681 -0.997519 -2.0813 0
M  V30 479 C 47.7381 0.0814702 -1.659 0
M  V30 480 O 48.9231 -0.0685424 -1.90677 0
M  V30 481 C 46.0631 -0.583615 -3.40129 0
M  V30 482 C 45.1761 -1.7336 -3.9569 0
M  V30 483 C 44.3111 -1.26748 -5.15857 0
M  V30 484 C 43.3501 -2.38888 -5.63559 0
M  V30 485 N 42.4871 -1.93308 -6.74964 0
M  V30 486 H 47.3271 -1.93099 -2.26973 0
M  V30 487 H 44.8641 -0.962114 -1.11273 0
M  V30 488 H 46.8221 -0.324801 -4.15934 0
M  V30 489 H 45.4521 0.312845 -3.2128 0
M  V30 490 H 44.5041 -2.10669 -3.16738 0
M  V30 491 H 45.8161 -2.57704 -4.27071 0
M  V30 492 H 44.9701 -0.966173 -5.98957 0
M  V30 493 H 43.7091 -0.394272 -4.86104 0
M  V30 494 H 42.7141 -2.69805 -4.79046 0
M  V30 495 H 43.9391 -3.26728 -5.95336 0
M  V30 496 H 41.8851 -1.08352 -6.4699 0
M  V30 497 H 41.8021 -2.71217 -7.05675 0
M  V30 498 H 43.0701 -1.66252 -7.61564 0
M  V30 499 N 47.2992 1.18797 -1.03562 0
M  V30 500 C 48.5242 1.9314 -0.755764 0
M  V30 501 C 48.9492 1.7537 0.68022 0
M  V30 502 O 48.3072 1.06046 1.47051 0
M  V30 503 C 48.3552 3.42747 -1.12058 0
M  V30 504 O 47.4592 4.11683 -0.243124 0
M  V30 505 H 46.8002 0.602724 -0.278604 0
M  V30 506 H 49.3302 1.50678 -1.3841 0
M  V30 507 H 49.3402 3.93437 -1.08035 0
M  V30 508 H 48.0152 3.55002 -2.16672 0
M  V30 509 H 46.5922 3.71323 -0.342539 0
M  V30 510 N 48.7773 0.814389 1.34928 0
M  V30 511 C 49.6873 0.231978 2.3345 0
M  V30 512 C 50.7033 -0.629139 1.62228 0
M  V30 513 O 51.8793 -0.539052 1.94052 0
M  V30 514 C 48.9443 -0.603482 3.41407 0
M  V30 515 C 48.0053 0.279037 4.28392 0
M  V30 516 C 47.2383 -0.516643 5.31193 0
M  V30 517 O 47.4613 -1.75068 5.4287 0
M  V30 518 O 46.3953 0.0965652 6.01823 0
M  V30 519 H 50.2213 1.04721 2.85074 0
M  V30 520 H 47.8063 0.576343 1.37836 0
M  V30 521 H 49.6883 -1.07908 4.0735 0
M  V30 522 H 48.3633 -1.39618 2.92042 0
M  V30 523 H 47.2703 0.801948 3.65403 0
M  V30 524 H 48.6033 1.03588 4.81176 0
M  V30 525 N 50.2554 -1.46986 0.568584 0
M  V30 526 C 51.1884 -2.27129 -0.220779 0
M  V30 527 C 52.1664 -1.34757 -0.909905 0
M  V30 528 O 53.3504 -1.64152 -0.926622 0
M  V30 529 C 50.4774 -3.12108 -1.31553 0
M  V30 530 C 49.5234 -4.20141 -0.733748 0
M  V30 531 S 50.3564 -5.33783 0.428479 0
M  V30 532 C 51.5124 -6.22327 -0.667811 0
M  V30 533 H 51.7454 -2.93731 0.459267 0
M  V30 534 H 49.2784 -1.5026 0.355154 0
M  V30 535 H 51.2364 -3.61636 -1.94241 0
M  V30 536 H 49.8974 -2.44847 -1.96746 0
M  V30 537 H 49.0904 -4.79373 -1.5562 0
M  V30 538 H 48.6924 -3.73553 -0.182812 0
M  V30 539 H 50.9844 -6.59364 -1.55708 0
M  V30 540 H 51.9274 -7.0801 -0.11258 0
M  V30 541 H 52.3354 -5.5618 -0.965601 0
M  V30 542 N 51.7335 -0.305618 -1.54608 0
M  V30 543 C 52.6815 0.584119 -2.25146 0
M  V30 544 C 53.6755 1.13326 -1.25911 0
M  V30 545 O 54.8815 1.08337 -1.43747 0
M  V30 546 H 51.2565 0.206983 -0.722954 0
M  V30 547 H 53.2275 -0.033291 -2.98381 0
M  V30 548 C 51.9765 1.74225 -3.009 0
M  V30 549 H 51.2995 1.32892 -3.77067 0
M  V30 550 H 52.7395 2.34077 -3.53531 0
M  V30 551 C 51.1985 2.64914 -2.0814 0
M  V30 552 O 51.7285 3.66137 -1.65246 0
M  V30 553 N 49.9345 2.3275 -1.74 0
M  V30 554 H 49.4815 1.50479 -2.09078 0
M  V30 555 H 49.4395 2.93694 -1.12211 0
M  V30 556 N 53.2116 1.57565 -0.0334293 0
M  V30 557 C 54.4576 1.92262 0.645226 0
M  V30 558 C 54.7906 0.910543 1.71531 0
M  V30 559 O 54.0656 -0.066099 1.94388 0
M  V30 560 C 54.3486 3.37422 1.2577 0
M  V30 561 C 54.2016 4.49369 0.196891 0
M  V30 562 C 55.5206 3.82628 2.17449 0
M  V30 563 H 52.6396 0.699171 0.233085 0
M  V30 564 H 55.2816 1.89779 -0.0915694 0
M  V30 565 H 53.4316 3.39669 1.88566 0
M  V30 566 H 55.1036 4.59254 -0.433962 0
M  V30 567 H 53.3466 4.31168 -0.477137 0
M  V30 568 H 54.0176 5.47978 0.665124 0
M  V30 569 H 56.4936 3.82145 1.64634 0
M  V30 570 H 55.3696 4.84883 2.57254 0
M  V30 571 H 55.6306 3.18376 3.0674 0
M  V30 572 N 54.6897 -0.239769 1.55765 0
M  V30 573 C 55.6377 -1.31668 1.91745 0
M  V30 574 C 56.6317 -1.49462 0.797338 0
M  V30 575 O 57.8377 -1.50852 0.982021 0
M  V30 576 H 54.2127 -0.441048 0.609082 0
M  V30 577 H 56.1837 -0.985923 2.81642 0
M  V30 578 C 54.9327 -2.66368 2.2348 0
M  V30 579 H 54.2557 -2.53478 3.09175 0
M  V30 580 H 55.6957 -3.40578 2.52553 0
M  V30 581 C 54.1547 -3.20002 1.05359 0
M  V30 582 O 54.6847 -4.00538 0.305261 0
M  V30 583 N 52.8907 -2.78126 0.842292 0
M  V30 584 H 52.4377 -2.12742 1.45253 0
M  V30 585 H 52.3957 -3.14354 0.053652 0
M  V30 586 N 56.1678 -1.49265 -0.50573 0
M  V30 587 C 57.1008 -1.60183 -1.62532 0
M  V30 588 C 58.0788 -0.451107 -1.56217 0
M  V30 589 O 59.2628 -0.666016 -1.76342 0
M  V30 590 C 56.3898 -1.55238 -3.01029 0
M  V30 591 C 55.4358 -2.7545 -3.25621 0
M  V30 592 S 56.2688 -4.37174 -3.09256 0
M  V30 593 C 57.4248 -4.34866 -4.50158 0
M  V30 594 H 57.6578 -2.54894 -1.53025 0
M  V30 595 H 55.1908 -1.38098 -0.690535 0
M  V30 596 H 57.1488 -1.53071 -3.80893 0
M  V30 597 H 55.8098 -0.618238 -3.07956 0
M  V30 598 H 55.0028 -2.68197 -4.26716 0
M  V30 599 H 54.6048 -2.75005 -2.53472 0
M  V30 600 H 56.8968 -4.06295 -5.42154 0
M  V30 601 H 57.8398 -5.36223 -4.62462 0
M  V30 602 H 58.2478 -3.65007 -4.30616 0
M  V30 603 N 57.6459 0.756429 -1.3826 0
M  V30 604 C 58.5929 1.87011 -1.35261 0
M  V30 605 C 59.5629 1.64695 -0.215616 0
M  V30 606 O 60.7479 1.864 -0.407399 0
M  V30 607 C 57.8879 3.24275 -1.18068 0
M  V30 608 C 57.0009 3.58442 -2.41129 0
M  V30 609 C 56.1359 4.84994 -2.16689 0
M  V30 610 C 55.1749 5.11939 -3.35537 0
M  V30 611 N 54.3119 6.29685 -3.10549 0
M  V30 612 H 59.1519 1.8891 -2.30472 0
M  V30 613 H 56.6889 0.923373 -1.14509 0
M  V30 614 H 58.6469 4.03479 -1.06116 0
M  V30 615 H 57.2769 3.21711 -0.264973 0
M  V30 616 H 56.3289 2.74103 -2.63764 0
M  V30 617 H 57.6409 3.74283 -3.29717 0
M  V30 618 H 56.7949 5.72135 -2.01857 0
M  V30 619 H 55.5339 4.71286 -1.25462 0
M  V30 620 H 54.5389 4.23268 -3.50891 0
M  V30 621 H 55.7639 5.27546 -4.27635 0
M  V30 622 H 53.7099 6.17306 -2.21967 0
M  V30 623 H 53.6269 6.46014 -3.92686 0
M  V30 624 H 54.8949 7.19722 -2.99367 0
M  V30 625 N 59.124 1.23083 0.984299 0
M  V30 626 C 60.354 1.08556 1.75781 0
M  V30 627 C 60.762 -0.366171 1.85623 0
M  V30 628 O 60.105 -1.26524 1.33182 0
M  V30 629 C 60.167 1.63208 3.20318 0
M  V30 630 C 59.831 3.11922 3.33997 0
M  V30 631 C 60.828 4.09259 3.2063 0
M  V30 632 C 58.513 3.51552 3.58771 0
M  V30 633 C 60.507 5.4421 3.31835 0
M  V30 634 C 58.194 4.86649 3.69616 0
M  V30 635 C 59.192 5.82787 3.56157 0
M  V30 636 O 58.88 7.15431 3.66626 0
M  V30 637 H 58.612 0.380713 0.5586 0
M  V30 638 H 61.166 1.63321 1.2456 0
M  V30 639 H 59.396 1.0286 3.72769 0
M  V30 640 H 61.085 1.44216 3.79416 0
M  V30 641 H 61.851 3.79984 3.01392 0
M  V30 642 H 57.73 2.77239 3.6832 0
M  V30 643 H 61.274 6.1923 3.21247 0
M  V30 644 H 57.171 5.15601 3.88363 0
M  V30 645 H 57.939 7.23127 3.83445 0
M  V30 646 N 60.6021 -1.18246 1.0419 0
M  V30 647 C 61.5341 -2.2142 0.592088 0
M  V30 648 C 62.5471 -1.59233 -0.338909 0
M  V30 649 O 63.7361 -1.78002 -0.133231 0
M  V30 650 C 60.8361 -3.38546 -0.154854 0
M  V30 651 C 60.0091 -4.3031 0.784328 0
M  V30 652 C 59.0681 -5.26138 0.0804583 0
M  V30 653 O 58.0941 -5.64738 0.711292 0
M  V30 654 N 59.2961 -5.68261 -1.18574 0
M  V30 655 H 62.0611 -2.60636 1.47949 0
M  V30 656 H 59.6221 -1.33044 0.922544 0
M  V30 657 H 61.6141 -3.99678 -0.635606 0
M  V30 658 H 60.1841 -2.98012 -0.943811 0
M  V30 659 H 59.4041 -3.66764 1.44491 0
M  V30 660 H 60.6921 -4.8852 1.42218 0
M  V30 661 H 60.0901 -5.38957 -1.71876 0
M  V30 662 H 58.6471 -6.31584 -1.61074 0
M  V30 663 N 62.0802 -0.821533 -1.34494 0
M  V30 664 C 63.0102 -0.257138 -2.3208 0
M  V30 665 C 63.9912 0.625645 -1.58176 0
M  V30 666 O 65.1762 0.552811 -1.86166 0
M  V30 667 C 62.3062 0.582958 -3.42372 0
M  V30 668 C 61.2602 -0.202571 -4.2752 0
M  V30 669 C 60.5862 0.760179 -5.29269 0
M  V30 670 C 61.8862 -1.40998 -5.02908 0
M  V30 671 H 63.5802 -1.07247 -2.79532 0
M  V30 672 H 61.1262 -0.517163 -1.34393 0
M  V30 673 H 63.0792 0.987972 -4.09655 0
M  V30 674 H 61.8032 1.43133 -2.93565 0
M  V30 675 H 60.4622 -0.588936 -3.61838 0
M  V30 676 H 60.1102 1.60447 -4.76724 0
M  V30 677 H 59.8102 0.238809 -5.87115 0
M  V30 678 H 61.3342 1.16308 -5.9942 0
M  V30 679 H 62.7482 -1.07905 -5.63054 0
M  V30 680 H 61.1452 -1.86689 -5.70322 0
M  V30 681 H 62.2152 -2.1889 -4.32684 0
M  V30 682 N 63.5583 1.46682 -0.576371 0
M  V30 683 C 64.9693 1.86112 -0.148091 0
M  V30 684 C 65.3203 1.48073 1.2872 0
M  V30 685 O 64.4453 0.892656 1.97131 0
M  V30 686 C 65.0403 3.37786 -0.261982 0
M  V30 687 C 63.5993 3.76235 0.111384 0
M  V30 688 C 62.7463 2.70713 -0.60083 0
M  V30 689 H 65.6973 1.37927 -0.78497 0
M  V30 690 H 65.7183 3.77007 0.514364 0
M  V30 691 H 65.2303 3.6544 -1.30671 0
M  V30 692 H 63.3313 3.54198 1.15649 0
M  V30 693 H 63.4443 4.78391 -0.26052 0
M  V30 694 H 61.8083 2.54666 -0.0417783 0
M  V30 695 H 62.5913 3.01208 -1.64708 0
M  V30 696 N 65.0364 0.313813 1.54444 0
M  V30 697 C 65.9844 -0.572171 2.25453 0
M  V30 698 C 66.9784 -1.12657 1.2651 0
M  V30 699 O 68.1844 -1.07573 1.44319 0
M  V30 700 H 64.5594 -0.203146 0.724041 0
M  V30 701 H 66.5304 0.0491145 2.9836 0
M  V30 702 C 65.2794 -1.72626 3.0182 0
M  V30 703 H 64.6024 -1.30891 3.77767 0
M  V30 704 H 66.0424 -2.32199 3.54767 0
M  V30 705 C 64.5014 -2.63806 2.09542 0
M  V30 706 O 65.0314 -3.65256 1.67185 0
M  V30 707 N 63.2374 -2.31824 1.75232 0
M  V30 708 H 62.7844 -1.49368 2.09873 0
M  V30 709 H 62.7424 -2.93095 1.13767 0
M  V30 710 N 66.5145 -1.57545 0.0417849 0
M  V30 711 C 67.7615 -1.92317 -0.634082 0
M  V30 712 C 68.0895 -0.919334 -1.71402 0
M  V30 713 O 67.3445 0.0698253 -1.95575 0
M  V30 714 C 67.6435 -3.33794 -1.27735 0
M  V30 715 C 67.3095 -4.49716 -0.326543 0
M  V30 716 C 65.9715 -4.81156 -0.0648814 0
M  V30 717 C 68.3235 -5.20182 0.325623 0
M  V30 718 C 65.6515 -5.80414 0.856539 0
M  V30 719 C 68.0035 -6.20424 1.23518 0
M  V30 720 C 66.6675 -6.50298 1.5056 0
M  V30 721 H 65.9375 -0.703736 -0.232027 0
M  V30 722 H 68.5845 -1.91205 0.106259 0
M  V30 723 H 66.8895 -3.31228 -2.09274 0
M  V30 724 H 68.5865 -3.57975 -1.80707 0
M  V30 725 H 65.1765 -4.25176 -0.540665 0
M  V30 726 H 69.3605 -4.96112 0.136546 0
M  V30 727 H 64.6165 -6.019 1.07363 0
M  V30 728 H 68.7905 -6.74141 1.74664 0
M  V30 729 H 66.4175 -7.27025 2.22123 0
M  V30 730 N 67.9926 0.231505 -1.5589 0
M  V30 731 C 69.2206 0.974505 -1.82513 0
M  V30 732 C 69.6356 1.78344 -0.619591 0
M  V30 733 O 68.9926 1.77792 0.411848 0
M  V30 734 C 69.0436 1.90007 -3.07538 0
M  V30 735 O 68.7646 1.12385 -4.2344 0
M  V30 736 C 70.2656 2.75779 -3.47075 0
M  V30 737 H 67.4856 0.286065 -0.606966 0
M  V30 738 H 70.0296 0.249739 -2.02969 0
M  V30 739 H 68.1846 2.57891 -2.89086 0
M  V30 740 H 68.5986 1.75125 -4.944 0
M  V30 741 H 70.0726 3.36443 -4.37619 0
M  V30 742 H 70.5496 3.47672 -2.68367 0
M  V30 743 H 71.1556 2.13323 -3.67931 0
M  V30 744 N 69.4707 1.49531 0.497807 0
M  V30 745 C 70.4337 1.65916 1.58128 0
M  V30 746 C 71.4337 0.530825 1.51786 0
M  V30 747 O 72.6237 0.797342 1.54881 0
M  V30 748 C 69.7557 1.65951 2.9778 0
M  V30 749 H 70.9487 2.62556 1.44929 0
M  V30 750 H 68.5017 1.38611 0.722275 0
M  V30 751 H 69.2367 0.709065 3.16453 0
M  V30 752 H 69.0217 2.47897 3.03792 0
M  V30 753 H 70.5117 1.80673 3.76493 0
M  V30 754 N 70.9488 -0.749086 1.3866 0
M  V30 755 C 71.8588 -1.89358 1.38494 0
M  V30 756 C 72.8748 -1.71708 0.281476 0
M  V30 757 O 74.0508 -1.94554 0.520643 0
M  V30 758 C 71.1158 -3.24782 1.21316 0
M  V30 759 C 70.1768 -3.54926 2.41508 0
M  V30 760 C 69.4098 -4.83888 2.2514 0
M  V30 761 O 69.6328 -5.56592 1.24746 0
M  V30 762 O 68.5668 -5.13612 3.13826 0
M  V30 763 H 72.3928 -1.92452 2.34938 0
M  V30 764 H 69.9778 -0.894981 1.19626 0
M  V30 765 H 71.8598 -4.05739 1.13814 0
M  V30 766 H 70.5348 -3.2249 0.279592 0
M  V30 767 H 69.4418 -2.74112 2.54585 0
M  V30 768 H 70.7748 -3.61983 3.3351 0
M  V30 769 N 72.4269 -1.23603 -0.977757 0
M  V30 770 C 73.6549 -1.09646 -1.75458 0
M  V30 771 C 74.0699 0.351859 -1.85492 0
M  V30 772 O 73.4269 1.24327 -1.336 0
M  V30 773 C 73.4779 -1.71895 -3.18016 0
M  V30 774 O 73.1989 -3.11063 -3.08498 0
M  V30 775 C 74.6999 -1.63415 -4.12081 0
M  V30 776 H 71.9199 -0.38359 -0.550545 0
M  V30 777 H 74.4639 -1.63507 -1.22824 0
M  V30 778 H 72.6189 -1.22061 -3.67668 0
M  V30 779 H 73.0329 -3.41305 -3.9826 0
M  V30 780 H 74.5069 -2.11669 -5.09804 0
M  V30 781 H 74.9839 -0.593462 -4.35172 0
M  V30 782 H 75.5899 -2.12628 -3.68334 0
M  V30 783 N 73.905 1.17692 -1.04816 0
M  V30 784 C 75.316 1.69501 -0.782698 0
M  V30 785 C 75.667 1.83456 0.695577 0
M  V30 786 O 74.792 1.51942 1.54086 0
M  V30 787 C 75.387 3.07874 -1.41419 0
M  V30 788 C 73.946 3.56864 -1.19686 0
M  V30 789 C 73.093 2.3322 -1.50012 0
M  V30 790 H 76.044 1.02262 -1.2136 0
M  V30 791 H 76.065 3.71528 -0.821428 0
M  V30 792 H 75.577 2.97685 -2.49009 0
M  V30 793 H 73.678 3.72337 -0.140043 0
M  V30 794 H 73.791 4.39851 -1.89916 0
M  V30 795 H 72.155 2.37501 -0.920071 0
M  V30 796 H 72.938 2.25644 -2.58727 0
M  V30 797 N 75.3831 0.828654 1.34056 0
M  V30 798 C 76.6321 0.415828 1.97367 0
M  V30 799 C 76.9451 -1.02796 1.6641 0
M  V30 800 O 78.1511 -1.54497 2.23255 0
M  V30 801 C 76.6071 0.692601 3.53173 0
M  V30 802 C 76.2151 2.15038 3.93017 0
M  V30 803 C 77.9591 0.346222 4.23086 0
M  V30 804 C 75.8661 2.37174 5.41758 0
M  V30 805 H 74.7961 0.151755 0.738571 0
M  V30 806 H 77.4471 1.01581 1.52819 0
M  V30 807 H 75.8291 0.0223764 3.95994 0
M  V30 808 H 77.0031 2.86024 3.61285 0
M  V30 809 H 75.3181 2.45875 3.36057 0
M  V30 810 H 77.9151 0.48937 5.32456 0
M  V30 811 H 78.2581 -0.709842 4.10204 0
M  V30 812 H 78.7911 0.971258 3.85761 0
M  V30 813 H 75.5301 3.41308 5.59633 0
M  V30 814 H 75.0501 1.70738 5.74986 0
M  V30 815 H 76.7291 2.19818 6.08514 0
M  V30 816 N 76.8612 -1.46375 0.584142 0
M  V30 817 C 77.7932 -2.28443 -0.186119 0
M  V30 818 C 78.8062 -1.38596 -0.854115 0
M  V30 819 O 79.9952 -1.63183 -0.723438 0
M  V30 820 C 77.0952 -3.13671 -1.28311 0
M  V30 821 C 76.2682 -4.31652 -0.706758 0
M  V30 822 C 75.3272 -4.98267 -1.69163 0
M  V30 823 O 74.3532 -5.55815 -1.22712 0
M  V30 824 N 75.5552 -4.95408 -3.02575 0
M  V30 825 H 78.3202 -2.9519 0.517986 0
M  V30 826 H 75.8812 -1.56303 0.42201 0
M  V30 827 H 77.8732 -3.55101 -1.94128 0
M  V30 828 H 76.4432 -2.48989 -1.89005 0
M  V30 829 H 75.6632 -3.93989 0.128908 0
M  V30 830 H 76.9512 -5.07906 -0.301506 0
M  V30 831 H 76.3492 -4.49902 -3.42936 0
M  V30 832 H 74.9062 -5.40774 -3.63877 0
M  V30 833 N 78.3393 -0.321999 -1.54275 0
M  V30 834 C 79.2873 0.560206 -2.25753 0
M  V30 835 C 80.2813 1.11984 -1.27106 0
M  V30 836 O 81.4873 1.06806 -1.44888 0
M  V30 837 H 77.8623 0.199304 -0.725108 0
M  V30 838 H 79.8333 -0.0649365 -2.98329 0
M  V30 839 C 78.5823 1.71023 -3.02731 0
M  V30 840 H 77.9053 1.28885 -3.78456 0
M  V30 841 H 79.3453 2.30314 -3.55993 0
M  V30 842 C 77.8043 2.62692 -2.10938 0
M  V30 843 O 78.3343 3.64364 -1.6912 0
M  V30 844 N 76.5403 2.30891 -1.76459 0
M  V30 845 H 76.0873 1.48253 -2.10663 0
M  V30 846 H 76.0453 2.92487 -1.1532 0
M  V30 847 N 79.8174 1.5752 -0.0501392 0
M  V30 848 C 81.0634 1.92936 0.624798 0
M  V30 849 C 81.3964 0.928685 1.70555 0
M  V30 850 O 80.6714 -0.0454779 1.94447 0
M  V30 851 C 80.9544 3.38737 1.22185 0
M  V30 852 C 80.8074 4.49552 0.149218 0
M  V30 853 C 82.1264 3.84913 2.13378 0
M  V30 854 H 79.2454 0.701604 0.225657 0
M  V30 855 H 81.8874 1.89671 -0.111693 0
M  V30 856 H 80.0374 3.4165 1.84953 0
M  V30 857 H 81.7094 4.58768 -0.482648 0
M  V30 858 H 79.9524 4.30638 -0.522841 0
M  V30 859 H 80.6234 5.48653 0.606966 0
M  V30 860 H 83.0994 3.8387 1.60572 0
M  V30 861 H 81.9754 4.87584 2.52097 0
M  V30 862 H 82.2364 3.21611 3.03346 0
M  V30 863 N 81.2955 -0.223234 1.56011 0
M  V30 864 C 82.5445 -0.945912 1.78144 0
M  V30 865 C 82.8575 -1.85567 0.618396 0
M  V30 866 O 84.0635 -2.61688 0.723318 0
M  V30 867 C 82.5195 -1.73216 3.15475 0
M  V30 868 C 82.1275 -0.868619 4.39499 0
M  V30 869 C 83.8715 -2.44615 3.46935 0
M  V30 870 C 81.7785 -1.65212 5.67855 0
M  V30 871 H 80.7085 -0.356929 0.664167 0
M  V30 872 H 83.3595 -0.199845 1.82409 0
M  V30 873 H 81.7415 -2.52107 3.05382 0
M  V30 874 H 82.9155 -0.120366 4.60643 0
M  V30 875 H 81.2305 -0.26683 4.15544 0
M  V30 876 H 83.8275 -3.03732 4.40058 0
M  V30 877 H 84.1705 -3.17417 2.69355 0
M  V30 878 H 84.7035 -1.72715 3.58349 0
M  V30 879 H 81.4425 -0.967407 6.48322 0
M  V30 880 H 80.9625 -2.37503 5.50774 0
M  V30 881 H 82.6415 -2.21322 6.07968 0
M  V30 882 N 82.7736 -1.49793 -0.48987 0
M  V30 883 C 83.7036 -1.70201 -1.59856 0
M  V30 884 C 84.6846 -0.55076 -1.60937 0
M  V30 885 O 85.8696 -0.787841 -1.77501 0
M  V30 886 C 82.9996 -1.77882 -2.98287 0
M  V30 887 C 81.9536 -2.92907 -3.12073 0
M  V30 888 C 81.2796 -2.85712 -4.51965 0
M  V30 889 C 82.5796 -4.3369 -2.91051 0
M  V30 890 H 84.2736 -2.63025 -1.43032 0
M  V30 891 H 81.8196 -1.26574 -0.686664 0
M  V30 892 H 83.7726 -1.90744 -3.75759 0
M  V30 893 H 82.4966 -0.816653 -3.16225 0
M  V30 894 H 81.1556 -2.79665 -2.37029 0
M  V30 895 H 80.8036 -1.8738 -4.66795 0
M  V30 896 H 80.5036 -3.62921 -4.62128 0
M  V30 897 H 82.0276 -3.00598 -5.31482 0
M  V30 898 H 83.4416 -4.47555 -3.58284 0
M  V30 899 H 81.8386 -5.12205 -3.12675 0
M  V30 900 H 82.9086 -4.47362 -1.87071 0
M  V30 901 N 84.2517 0.741722 -1.39055 0
M  V30 902 C 85.2017 1.84661 -1.33732 0
M  V30 903 C 86.1857 1.59397 -0.219401 0
M  V30 904 O 87.3777 1.71015 -0.456375 0
M  V30 905 C 84.5067 3.22512 -1.17647 0
M  V30 906 C 83.5927 3.53628 -2.34112 0
M  V30 907 N 83.9837 3.55723 -3.59576 0
M  V30 908 C 82.2817 3.83956 -2.26923 0
M  V30 909 C 82.9827 3.84443 -4.36553 0
M  V30 910 N 81.9587 4.01877 -3.66055 0
M  V30 911 H 85.7607 1.84576 -2.28711 0
M  V30 912 H 83.2747 0.939647 -1.32455 0
M  V30 913 H 85.2717 4.01597 -1.11917 0
M  V30 914 H 83.9317 3.2384 -0.236124 0
M  V30 915 H 84.9427 3.37196 -3.93089 0
M  V30 916 H 81.6197 3.92929 -1.41113 0
M  V30 917 H 83.0097 3.92588 -5.45274 0
M  V30 918 N 85.7298 1.2412 0.971189 0
M  V30 919 C 86.6398 1.04747 2.09917 0
M  V30 920 C 87.6558 -0.0107162 1.73997 0
M  V30 921 O 88.8318 0.186714 2.00533 0
M  V30 922 C 85.8968 0.650828 3.40537 0
M  V30 923 C 84.9578 1.7851 3.90426 0
M  V30 924 C 84.1908 1.40729 5.14812 0
M  V30 925 O 84.4138 0.29557 5.69634 0
M  V30 926 O 83.3478 2.23168 5.58999 0
M  V30 927 H 87.1738 1.99304 2.29154 0
M  V30 928 H 84.7588 1.02908 1.08307 0
M  V30 929 H 86.6408 0.440992 4.19086 0
M  V30 930 H 85.3158 -0.265649 3.22608 0
M  V30 931 H 84.2228 2.04966 3.12953 0
M  V30 932 H 85.5558 2.68023 4.12825 0
M  V30 933 N 87.2079 -1.17134 1.05439 0
M  V30 934 C 88.1579 -2.1919 0.627675 0
M  V30 935 C 89.1419 -1.57328 -0.337147 0
M  V30 936 O 90.3339 -1.76329 -0.153976 0
M  V30 937 C 87.4629 -3.43299 0.00651435 0
M  V30 938 C 86.5489 -4.12255 0.995312 0
M  V30 939 N 86.9399 -4.56997 2.16765 0
M  V30 940 C 85.2379 -4.38316 0.824336 0
M  V30 941 C 85.9389 -5.10239 2.7934 0
M  V30 942 N 84.9149 -5.02595 2.07122 0
M  V30 943 H 88.7169 -2.5149 1.52086 0
M  V30 944 H 86.2309 -1.33491 0.924868 0
M  V30 945 H 88.2279 -4.15693 -0.316965 0
M  V30 946 H 86.8879 -3.1249 -0.882033 0
M  V30 947 H 87.8989 -4.51006 2.54587 0
M  V30 948 H 84.5759 -4.17498 -0.0129526 0
M  V30 949 H 85.9659 -5.54961 3.78772 0
M  V30 950 N 88.686 -0.835752 -1.33615 0
M  V30 951 C 89.636 -0.238856 -2.26745 0
M  V30 952 C 90.62 0.604343 -1.49119 0
M  V30 953 O 91.812 0.456822 -1.71003 0
M  V30 954 C 88.941 0.587725 -3.38232 0
M  V30 955 C 88.027 -0.266811 -4.2326 0
M  V30 956 N 88.418 -1.34403 -4.87616 0
M  V30 957 C 86.716 -0.0533131 -4.45968 0
M  V30 958 C 87.417 -1.86819 -5.50884 0
M  V30 959 N 86.393 -1.17013 -5.30857 0
M  V30 960 H 90.195 -1.06266 -2.74016 0
M  V30 961 H 87.709 -0.679881 -1.47483 0
M  V30 962 H 89.706 1.03161 -4.03935 0
M  V30 963 H 88.366 1.40954 -2.9251 0
M  V30 964 H 89.377 -1.7269 -4.88261 0
M  V30 965 H 86.054 0.735312 -4.10974 0
M  V30 966 H 87.444 -2.7701 -6.1214 0
M  V30 967 N 90.1641 1.46063 -0.591896 0
M  V30 968 C 91.4131 2.01547 -0.0786637 0
M  V30 969 C 91.7261 1.46796 1.29268 0
M  V30 970 O 92.9321 1.94157 1.89777 0
M  V30 971 C 91.3881 3.59787 -0.0900024 0
M  V30 972 C 90.9961 4.23534 -1.46023 0
M  V30 973 C 92.7401 4.22895 0.368806 0
M  V30 974 C 90.6471 5.73881 -1.4288 0
M  V30 975 H 89.5771 0.753564 -0.0256388 0
M  V30 976 H 92.2281 1.677 -0.744905 0
M  V30 977 H 90.6101 3.90752 0.642586 0
M  V30 978 H 91.7841 4.04167 -2.21328 0
M  V30 979 H 90.0991 3.72558 -1.85982 0
M  V30 980 H 92.6961 5.33116 0.411258 0
M  V30 981 H 93.0391 3.9247 1.38827 0
M  V30 982 H 93.5721 3.9659 -0.31001 0
M  V30 983 H 90.3111 6.0898 -2.42536 0
M  V30 984 H 89.8311 5.95486 -0.718095 0
M  V30 985 H 91.5101 6.36776 -1.14565 0
M  V30 986 N 91.6422 0.330177 1.54103 0
M  V30 987 C 92.8892 -0.270405 2.00686 0
M  V30 988 C 93.2172 -1.51621 1.21825 0
M  V30 989 O 92.4722 -1.93536 0.29025 0
M  V30 990 C 92.7712 -0.643134 3.51566 0
M  V30 991 C 92.4372 0.504251 4.48072 0
M  V30 992 C 91.0992 0.819163 4.74176 0
M  V30 993 C 93.4512 1.27465 5.05373 0
M  V30 994 C 90.7792 1.90708 5.5484 0
M  V30 995 C 93.1312 2.35271 5.87223 0
M  V30 996 C 91.7952 2.67336 6.11627 0
M  V30 997 H 91.0652 -0.0989482 0.734364 0
M  V30 998 H 93.7122 0.455324 1.86008 0
M  V30 999 H 92.0172 -1.44938 3.64006 0
M  V30 1000 H 93.7142 -1.11949 3.85056 0
M  V30 1001 H 90.3042 0.248733 4.27878 0
M  V30 1002 H 94.4882 1.04462 4.85182 0
M  V30 1003 H 89.7442 2.15991 5.71977 0
M  V30 1004 H 93.9182 2.95405 6.30641 0
M  V30 1005 H 91.5452 3.51763 6.73919 0
M  V30 1006 N 93.1203 -1.57491 0.0584922 0
M  V30 1007 C 94.0503 -2.14988 -0.911178 0
M  V30 1008 C 95.0313 -1.07343 -1.31952 0
M  V30 1009 O 96.2163 -1.35318 -1.39294 0
M  V30 1010 C 93.3463 -2.70078 -2.18347 0
M  V30 1011 C 92.3003 -3.82771 -1.91495 0
M  V30 1012 C 91.6263 -4.24408 -3.25241 0
M  V30 1013 C 92.9263 -5.07592 -1.23075 0
M  V30 1014 H 94.6203 -2.96263 -0.432246 0
M  V30 1015 H 92.1663 -1.42512 -0.206469 0
M  V30 1016 H 94.1193 -3.08943 -2.86587 0
M  V30 1017 H 92.8433 -1.86005 -2.68458 0
M  V30 1018 H 91.5023 -3.44389 -1.25664 0
M  V30 1019 H 91.1503 -3.37275 -3.73168 0
M  V30 1020 H 90.8503 -5.00366 -3.08071 0
M  V30 1021 H 92.3743 -4.65879 -3.94701 0
M  V30 1022 H 93.7883 -5.43857 -1.81362 0
M  V30 1023 H 92.1853 -5.88741 -1.16207 0
M  V30 1024 H 93.2553 -4.84454 -0.207847 0
M  V30 1025 N 94.5984 0.214957 -1.56127 0
M  V30 1026 C 95.8464 0.936518 -1.79091 0
M  V30 1027 C 96.1674 1.84606 -0.628148 0
M  V30 1028 O 95.4374 1.92664 0.35462 0
M  V30 1029 H 94.0174 0.3488 -0.660566 0
M  V30 1030 H 96.6794 0.22523 -1.93594 0
M  V30 1031 H 95.7754 1.53943 -2.71492 0
M  V30 1032 N 96.0765 1.50051 0.48192 0
M  V30 1033 C 97.0395 1.67584 1.5636 0
M  V30 1034 C 98.0395 0.546894 1.51214 0
M  V30 1035 O 99.2295 0.813725 1.54026 0
M  V30 1036 C 96.3615 1.691 2.96003 0
M  V30 1037 H 97.5545 2.64078 1.42136 0
M  V30 1038 H 95.1075 1.39369 0.707533 0
M  V30 1039 H 95.8425 0.742589 3.15684 0
M  V30 1040 H 95.6275 2.51105 3.01146 0
M  V30 1041 H 97.1175 1.84656 3.74556 0
M  V30 1042 N 97.5546 -0.734337 1.39446 0
M  V30 1043 C 98.7826 -1.52358 1.39981 0
M  V30 1044 C 99.1976 -1.88799 -0.0054975 0
M  V30 1045 O 98.5546 -1.54146 -0.976998 0
M  V30 1046 C 98.6056 -2.81072 2.27333 0
M  V30 1047 O 98.3266 -2.46178 3.62392 0
M  V30 1048 C 99.8276 -3.75096 2.36259 0
M  V30 1049 H 97.0476 -0.470806 0.478103 0
M  V30 1050 H 99.5916 -0.907339 1.83269 0
M  V30 1051 H 97.7466 -3.39026 1.87457 0
M  V30 1052 H 98.1606 -3.28866 4.08592 0
M  V30 1053 H 99.6346 -4.62305 3.01626 0
M  V30 1054 H 100.112 -4.16892 1.38194 0
M  V30 1055 H 100.718 -3.23061 2.76608 0
M  V30 1056 N 99.0327 -1.24633 -0.964593 0
M  V30 1057 C 99.9807 -1.03917 -2.08096 0
M  V30 1058 C 100.975 0.0268581 -1.69379 0
M  V30 1059 O 102.181 -0.127952 -1.79545 0
M  V30 1060 H 98.5557 -0.319044 -0.680966 0
M  V30 1061 H 100.527 -1.98581 -2.22729 0
M  V30 1062 C 99.2757 -0.663983 -3.41301 0
M  V30 1063 H 98.5987 -1.47605 -3.71555 0
M  V30 1064 H 100.039 -0.558663 -4.20303 0
M  V30 1065 C 98.4977 0.629169 -3.30973 0
M  V30 1066 O 99.0277 1.67404 -3.65156 0
M  V30 1067 N 97.2337 0.611057 -2.84103 0
M  V30 1068 H 96.7807 -0.239593 -2.56483 0
M  V30 1069 H 96.7387 1.47647 -2.77575 0
M  V30 1070 N 100.511 1.16574 -1.06058 0
M  V30 1071 C 101.741 1.90675 -0.795397 0
M  V30 1072 C 102.149 1.77547 0.653735 0
M  V30 1073 O 101.492 1.11611 1.45907 0
M  V30 1074 C 101.554 3.42011 -1.10764 0
M  V30 1075 C 101.218 3.78924 -2.55471 0
M  V30 1076 C 102.215 3.81042 -3.53699 0
M  V30 1077 C 99.8998 4.09626 -2.90708 0
M  V30 1078 C 101.894 4.13346 -4.85205 0
M  V30 1079 C 99.5808 4.41597 -4.22416 0
M  V30 1080 C 100.579 4.43436 -5.19474 0
M  V30 1081 O 100.267 4.74649 -6.48817 0
M  V30 1082 H 99.9988 0.611554 -0.288058 0
M  V30 1083 H 102.553 1.48711 -1.41683 0
M  V30 1084 H 100.783 3.84312 -0.429128 0
M  V30 1085 H 102.472 3.97384 -0.827077 0
M  V30 1086 H 103.238 3.57437 -3.27817 0
M  V30 1087 H 99.1168 4.07361 -2.15819 0
M  V30 1088 H 102.661 4.14696 -5.60957 0
M  V30 1089 H 98.5578 4.64667 -4.48056 0
M  V30 1090 H 99.3258 4.9247 -6.5377 0
M  V30 1091 N 101.989 0.842826 1.3317 0
M  V30 1092 C 103.238 0.436738 1.96915 0
M  V30 1093 C 103.551 -1.01025 1.67491 0
M  V30 1094 O 104.757 -1.5212 2.24881 0
M  V30 1095 C 103.213 0.730021 3.52418 0
M  V30 1096 C 102.821 2.19195 3.90714 0
M  V30 1097 C 104.565 0.391076 4.22695 0
M  V30 1098 C 102.472 2.42907 5.39212 0
M  V30 1099 H 101.402 0.15958 0.736919 0
M  V30 1100 H 104.053 1.03196 1.51733 0
M  V30 1101 H 102.435 0.0643755 3.95948 0
M  V30 1102 H 103.609 2.8984 3.58231 0
M  V30 1103 H 101.924 2.49425 3.33431 0
M  V30 1104 H 104.521 0.545817 5.31907 0
M  V30 1105 H 104.864 -0.666294 4.10933 0
M  V30 1106 H 105.397 1.01212 3.84709 0
M  V30 1107 H 102.136 3.47224 5.55982 0
M  V30 1108 H 101.656 1.76827 5.73142 0
M  V30 1109 H 103.335 2.2626 6.06148 0
M  V30 1110 N 103.467 -1.45747 0.599634 0
M  V30 1111 C 104.697 -2.06369 0.0977132 0
M  V30 1112 C 105.105 -1.44624 -1.21985 0
M  V30 1113 O 104.448 -0.551831 -1.75216 0
M  V30 1114 C 104.51 -3.59284 -0.124673 0
M  V30 1115 C 104.174 -4.43318 1.10987 0
M  V30 1116 C 105.171 -4.78796 2.02609 0
M  V30 1117 C 102.856 -4.84194 1.33647 0
M  V30 1118 C 104.85 -5.53997 3.15224 0
M  V30 1119 C 102.537 -5.5915 2.46565 0
M  V30 1120 C 103.535 -5.93968 3.37182 0
M  V30 1121 O 103.223 -6.67405 4.48136 0
M  V30 1122 H 102.955 -0.673122 0.0623153 0
M  V30 1123 H 105.509 -1.88104 0.824981 0
M  V30 1124 H 103.739 -3.75919 -0.906745 0
M  V30 1125 H 105.428 -4.01775 -0.577201 0
M  V30 1126 H 106.194 -4.47781 1.86325 0
M  V30 1127 H 102.073 -4.56534 0.64016 0
M  V30 1128 H 105.617 -5.81091 3.85978 0
M  V30 1129 H 101.514 -5.89579 2.62805 0
M  V30 1130 H 102.282 -6.85847 4.46717 0
M  V30 1131 N 104.945 -0.338344 -1.53925 0
M  V30 1132 C 106.191 0.260143 -2.01125 0
M  V30 1133 C 106.524 1.50617 -1.22589 0
M  V30 1134 O 105.799 1.91979 -0.312113 0
M  V30 1135 C 106.082 0.579499 -3.55407 0
M  V30 1136 C 105.935 -0.678264 -4.44657 0
M  V30 1137 C 107.254 1.39122 -4.17532 0
M  V30 1138 H 104.373 0.0930772 -0.731099 0
M  V30 1139 H 107.015 -0.457852 -1.84401 0
M  V30 1140 H 105.165 1.19118 -3.69788 0
M  V30 1141 H 106.837 -1.31631 -4.42121 0
M  V30 1142 H 105.08 -1.3042 -4.13731 0
M  V30 1143 H 105.751 -0.410143 -5.50474 0
M  V30 1144 H 108.227 0.874035 -4.06817 0
M  V30 1145 H 107.103 1.58342 -5.25565 0
M  V30 1146 H 107.364 2.39178 -3.71815 0
M  V30 1147 N 106.423 1.57458 -0.0668435 0
M  V30 1148 C 107.353 2.15468 0.899764 0
M  V30 1149 C 108.334 1.08042 1.31381 0
M  V30 1150 O 109.519 1.36054 1.38574 0
M  V30 1151 C 106.649 2.71232 2.16911 0
M  V30 1152 C 105.603 3.83781 1.89463 0
M  V30 1153 C 104.929 4.26127 3.22986 0
M  V30 1154 C 106.229 5.08238 1.20381 0
M  V30 1155 H 107.923 2.96488 0.416529 0
M  V30 1156 H 105.469 1.4262 0.198908 0
M  V30 1157 H 107.422 3.10458 2.84945 0
M  V30 1158 H 106.146 1.87426 2.67468 0
M  V30 1159 H 104.805 3.45051 1.23836 0
M  V30 1160 H 104.453 3.39249 3.71374 0
M  V30 1161 H 104.153 5.01993 3.05413 0
M  V30 1162 H 105.677 4.67966 3.92225 0
M  V30 1163 H 107.091 5.44811 1.78475 0
M  V30 1164 H 105.488 5.89349 1.13083 0
M  V30 1165 H 106.558 4.84558 0.182153 0
M  V30 1166 N 107.901 -0.206675 1.56239 0
M  V30 1167 C 108.849 -1.27571 1.94495 0
M  V30 1168 C 109.843 -1.47737 0.828862 0
M  V30 1169 O 111.049 -1.48735 1.0138 0
M  V30 1170 H 107.424 -0.428029 0.6183 0
M  V30 1171 H 109.395 -0.925961 2.8367 0
M  V30 1172 C 108.144 -2.61568 2.29079 0
M  V30 1173 H 107.467 -2.46863 3.14482 0
M  V30 1174 H 108.907 -3.35144 2.5972 0
M  V30 1175 C 107.366 -3.17695 1.12123 0
M  V30 1176 O 107.896 -3.99801 0.390153 0
M  V30 1177 N 106.102 -2.76276 0.901097 0
M  V30 1178 H 105.649 -2.09613 1.49733 0
M  V30 1179 H 105.607 -3.1417 0.120319 0
M  V30 1180 N 109.379 -1.50304 -0.473955 0
M  V30 1181 C 110.289 -1.7174 -1.5982 0
M  V30 1182 C 111.305 -0.600457 -1.63311 0
M  V30 1183 O 112.481 -0.878441 -1.81233 0
M  V30 1184 C 109.546 -1.80427 -2.96052 0
M  V30 1185 C 108.607 -3.04148 -3.02972 0
M  V30 1186 C 107.84 -3.12411 -4.32706 0
M  V30 1187 O 108.063 -2.27542 -5.23049 0
M  V30 1188 O 106.997 -4.05113 -4.45159 0
M  V30 1189 H 110.823 -2.67035 -1.44657 0
M  V30 1190 H 108.408 -1.34366 -0.653148 0
M  V30 1191 H 110.29 -1.88338 -3.7697 0
M  V30 1192 H 108.965 -0.883156 -3.11419 0
M  V30 1193 H 107.872 -3.0174 -2.21142 0
M  V30 1194 H 109.205 -3.95829 -2.92541 0
M  V30 1195 N 110.857 0.726932 -1.39834 0
M  V30 1196 C 111.767 1.87131 -1.41489 0
M  V30 1197 C 112.783 1.71239 -0.308757 0
M  V30 1198 O 113.959 1.93701 -0.551529 0
M  V30 1199 C 111.024 3.22811 -1.26468 0
M  V30 1200 C 110.085 3.51039 -2.47124 0
M  V30 1201 C 109.318 4.80245 -2.3281 0
M  V30 1202 O 109.541 5.54537 -1.33585 0
M  V30 1203 O 108.475 5.08554 -3.21957 0
M  V30 1204 H 112.301 1.8869 -2.3797 0
M  V30 1205 H 109.886 0.875837 -1.21035 0
M  V30 1206 H 111.768 4.03877 -1.20255 0
M  V30 1207 H 110.443 3.22005 -0.330862 0
M  V30 1208 H 109.35 2.70027 -2.58914 0
M  V30 1209 H 110.683 3.56632 -3.39227 0
M  V30 1210 N 112.336 1.25143 0.95797 0
M  V30 1211 C 113.613 1.00472 1.67823 0
M  V30 1212 C 113.993 -0.470056 2.058 0
M  V30 1213 O 113.341 -1.44663 1.76875 0
M  V30 1214 C 113.551 1.9372 2.90299 0
M  V30 1215 C 114.899 2.21371 3.62326 0
M  V30 1216 O 115.923 1.91451 3.00375 0
M  V30 1217 O 114.782 2.72231 4.7387 0
M  V30 1218 H 111.876 0.380752 0.734137 0
M  V30 1219 H 114.422 1.36283 1.01119 0
M  V30 1220 H 113.194 2.93316 2.59001 0
M  V30 1221 H 112.817 1.58286 3.64735 0
M  V30 1222 N 113.814 -1.1601 1.06675 0
M  V30 1223 C 114.744 -2.22688 0.702307 0
M  V30 1224 C 115.725 -1.67306 -0.307032 0
M  V30 1225 O 116.91 -1.93352 -0.181305 0
M  V30 1226 C 114.04 -3.47178 0.092038 0
M  V30 1227 C 112.994 -4.15477 1.02777 0
M  V30 1228 C 112.32 -5.33963 0.28061 0
M  V30 1229 C 113.62 -4.66019 2.35846 0
M  V30 1230 H 115.314 -2.53429 1.59419 0
M  V30 1231 H 112.86 -1.21813 0.767961 0
M  V30 1232 H 114.813 -4.21037 -0.174814 0
M  V30 1233 H 113.537 -3.15749 -0.834877 0
M  V30 1234 H 112.196 -3.43549 1.27944 0
M  V30 1235 H 111.844 -4.98788 -0.649545 0
M  V30 1236 H 111.544 -5.806 0.904258 0
M  V30 1237 H 113.068 -6.10596 0.021396 0
M  V30 1238 H 114.482 -5.3144 2.15045 0
M  V30 1239 H 112.879 -5.23293 2.93743 0
M  V30 1240 H 113.949 -3.82023 2.98641 0
M  V30 1241 N 115.292 -0.849877 -1.32721 0
M  V30 1242 C 116.224 -0.248332 -2.27851 0
M  V30 1243 C 117.237 0.577218 -1.52224 0
M  V30 1244 O 118.426 0.402489 -1.73903 0
M  V30 1245 C 115.526 0.668107 -3.32249 0
M  V30 1246 C 114.699 -0.120534 -4.37234 0
M  V30 1247 C 113.758 0.720932 -5.21238 0
M  V30 1248 O 112.784 0.156166 -5.68986 0
M  V30 1249 N 113.986 2.03647 -5.43607 0
M  V30 1250 H 116.751 -1.06575 -2.80111 0
M  V30 1251 H 114.312 -0.709395 -1.45531 0
M  V30 1252 H 116.304 1.23627 -3.85355 0
M  V30 1253 H 114.874 1.38621 -2.80184 0
M  V30 1254 H 114.094 -0.870108 -3.84477 0
M  V30 1255 H 115.382 -0.662406 -5.0447 0
M  V30 1256 H 114.78 2.51871 -5.06535 0
M  V30 1257 H 113.337 2.55287 -5.99727 0
M  V30 1258 N 116.77 1.45427 -0.607355 0
M  V30 1259 C 117.717 2.3053 0.111625 0
M  V30 1260 C 118.687 1.4209 0.860216 0
M  V30 1261 O 119.872 1.71019 0.845998 0
M  V30 1262 C 117.012 3.26992 1.10319 0
M  V30 1263 C 116.125 4.30535 0.355493 0
M  V30 1264 C 115.26 5.14105 1.33676 0
M  V30 1265 C 114.299 6.09376 0.576862 0
M  V30 1266 N 113.436 6.85727 1.5074 0
M  V30 1267 H 118.276 2.91477 -0.620093 0
M  V30 1268 H 115.813 1.43631 -0.317594 0
M  V30 1269 H 117.771 3.81385 1.6912 0
M  V30 1270 H 116.401 2.67799 1.80232 0
M  V30 1271 H 115.453 3.78805 -0.348023 0
M  V30 1272 H 116.765 4.98235 -0.237423 0
M  V30 1273 H 115.919 5.72897 1.99684 0
M  V30 1274 H 114.658 4.46423 1.9636 0
M  V30 1275 H 113.663 5.49715 -0.0968519 0
M  V30 1276 H 114.888 6.79085 -0.0449341 0
M  V30 1277 H 112.834 6.20735 2.12189 0
M  V30 1278 H 112.751 7.49778 0.967913 0
M  V30 1279 H 114.019 7.4906 2.15706 0
M  V30 1280 N 118.248 0.346503 1.53744 0
M  V30 1281 C 119.494 -0.249473 2.0126 0
M  V30 1282 C 119.827 -1.49965 1.23386 0
M  V30 1283 O 119.102 -1.91811 0.32229 0
M  V30 1284 C 119.385 -0.560643 3.55709 0
M  V30 1285 C 119.238 0.701836 4.44291 0
M  V30 1286 C 120.557 -1.36905 4.18264 0
M  V30 1287 H 117.676 -0.0891987 0.731582 0
M  V30 1288 H 120.318 0.467624 1.84156 0
M  V30 1289 H 118.468 -1.17156 3.70414 0
M  V30 1290 H 120.14 1.33974 4.41417 0
M  V30 1291 H 118.383 1.32612 4.13033 0
M  V30 1292 H 119.054 0.43933 5.50249 0
M  V30 1293 H 121.53 -0.852448 4.07275 0
M  V30 1294 H 120.406 -1.55553 5.26398 0
M  V30 1295 H 120.667 -2.37203 3.73078 0
M  V30 1296 N 119.726 -1.57421 0.075193 0
M  V30 1297 C 120.689 -2.11791 -0.876203 0
M  V30 1298 C 121.689 -1.04268 -1.22412 0
M  V30 1299 O 122.879 -1.30242 -1.15684 0
M  V30 1300 C 120.011 -2.62207 -2.17854 0
M  V30 1301 H 121.204 -2.9716 -0.40444 0
M  V30 1302 H 118.757 -1.55333 -0.173557 0
M  V30 1303 H 119.492 -1.803 -2.6956 0
M  V30 1304 H 119.277 -3.40802 -1.93897 0
M  V30 1305 H 120.767 -3.04335 -2.85955 0
M  V30 1306 N 121.204 0.198386 -1.56346 0
M  V30 1307 C 122.114 1.2664 -1.97483 0
M  V30 1308 C 123.13 1.49989 -0.882002 0
M  V30 1309 O 124.306 1.62668 -1.18748 0
M  V30 1310 C 121.371 2.59141 -2.30319 0
M  V30 1311 C 120.432 2.43892 -3.53292 0
M  V30 1312 C 119.665 3.70074 -3.84553 0
M  V30 1313 O 119.888 4.74101 -3.1715 0
M  V30 1314 O 118.822 3.658 -4.7799 0
M  V30 1315 H 122.648 0.947304 -2.88548 0
M  V30 1316 H 120.233 0.403123 -1.43859 0
M  V30 1317 H 122.115 3.37352 -2.5253 0
M  V30 1318 H 120.79 2.90684 -1.42423 0
M  V30 1319 H 119.697 1.63803 -3.36332 0
M  V30 1320 H 121.03 2.17282 -4.41644 0
M  V30 1321 N 122.682 1.50554 0.465978 0
M  V30 1322 C 123.912 1.65323 1.23903 0
M  V30 1323 C 124.32 0.338051 1.86155 0
M  V30 1324 O 123.663 -0.690518 1.70228 0
M  V30 1325 C 123.725 2.69048 2.3844 0
M  V30 1326 C 123.389 4.12462 1.96784 0
M  V30 1327 C 124.386 4.98168 1.48745 0
M  V30 1328 C 122.071 4.58407 2.05349 0
M  V30 1329 C 124.065 6.27868 1.0982 0
M  V30 1330 C 121.752 5.88112 1.66035 0
M  V30 1331 C 122.75 6.72668 1.18349 0
M  V30 1332 O 122.438 7.99951 0.795825 0
M  V30 1333 H 122.17 0.558629 0.38067 0
M  V30 1334 H 124.724 1.97561 0.562022 0
M  V30 1335 H 122.954 2.32062 3.09328 0
M  V30 1336 H 124.643 2.72985 3.0039 0
M  V30 1337 H 125.409 4.63885 1.41546 0
M  V30 1338 H 121.288 3.92735 2.41414 0
M  V30 1339 H 124.832 6.93819 0.725293 0
M  V30 1340 H 120.729 6.21914 1.72895 0
M  V30 1341 H 121.497 8.13265 0.924222 0
M  V30 1342 N 124.16 -0.719506 1.40217 0
M  V30 1343 C 125.107 -1.83359 1.40172 0
M  V30 1344 C 126.077 -1.64065 0.259206 0
M  V30 1345 O 127.262 -1.85254 0.456677 0
M  V30 1346 C 124.402 -3.2103 1.26624 0
M  V30 1347 C 123.515 -3.51923 2.50548 0
M  V30 1348 C 122.65 -4.79079 2.29471 0
M  V30 1349 C 121.689 -5.02863 3.48992 0
M  V30 1350 N 120.826 -6.2123 3.27135 0
M  V30 1351 H 125.666 -1.82733 2.35399 0
M  V30 1352 H 123.203 -0.892688 1.16917 0
M  V30 1353 H 125.161 -4.00524 1.16776 0
M  V30 1354 H 123.791 -3.20895 0.350176 0
M  V30 1355 H 122.843 -2.67014 2.70939 0
M  V30 1356 H 124.155 -3.6541 3.39525 0
M  V30 1357 H 123.309 -5.66582 2.16955 0
M  V30 1358 H 122.048 -4.67794 1.37913 0
M  V30 1359 H 121.053 -4.13816 3.6199 0
M  V30 1360 H 122.278 -5.16023 4.41472 0
M  V30 1361 H 120.224 -6.11204 2.38256 0
M  V30 1362 H 120.141 -6.35375 4.09675 0
M  V30 1363 H 121.409 -7.11532 3.18344 0
M  V30 1364 N 125.638 -1.25649 -0.95132 0
M  V30 1365 C 126.866 -1.13343 -1.73092 0
M  V30 1366 C 127.281 0.312434 -1.86197 0
M  V30 1367 O 126.638 1.21465 -1.36207 0
M  V30 1368 C 126.689 -1.78602 -3.14299 0
M  V30 1369 O 126.41 -3.17537 -3.01831 0
M  V30 1370 C 127.911 -1.72119 -4.08522 0
M  V30 1371 H 125.131 -0.395181 -0.542285 0
M  V30 1372 H 127.675 -1.66076 -1.19328 0
M  V30 1373 H 125.83 -1.29832 -3.64996 0
M  V30 1374 H 126.244 -3.49676 -3.90931 0
M  V30 1375 H 127.718 -2.22435 -5.052 0
M  V30 1376 H 128.195 -0.685635 -4.33815 0
M  V30 1377 H 128.801 -2.20393 -3.63741 0
M  V30 1378 N 127.117 1.15442 -1.07289 0
M  V30 1379 C 128.365 1.85845 -0.794096 0
M  V30 1380 C 128.686 1.82692 0.681809 0
M  V30 1381 O 127.956 1.26741 1.49377 0
M  V30 1382 H 126.536 0.688089 -0.290763 0
M  V30 1383 H 129.198 1.39947 -1.3565 0
M  V30 1384 H 128.294 2.91001 -1.12804 0
M  V30 1385 N 128.595 0.856903 1.32268 0
M  V30 1386 C 130.006 0.515711 1.79436 0
M  V30 1387 C 130.357 -0.966586 1.70738 0
M  V30 1388 O 129.482 -1.75409 1.26731 0
M  V30 1389 C 130.077 0.929335 3.25805 0
M  V30 1390 C 128.636 0.640006 3.70919 0
M  V30 1391 C 127.783 1.12784 2.53328 0
M  V30 1392 H 130.734 1.04389 1.19535 0
M  V30 1393 H 130.755 0.246633 3.797 0
M  V30 1394 H 130.267 2.00821 3.32103 0
M  V30 1395 H 128.368 -0.428051 3.70133 0
M  V30 1396 H 128.481 1.20788 4.63624 0
M  V30 1397 H 126.845 0.548033 2.48734 0
M  V30 1398 H 127.628 2.21387 2.62379 0
M  V30 1399 N 130.073 -1.45103 0.615059 0
M  V30 1400 C 131.319 -2.02483 0.113347 0
M  V30 1401 C 131.652 -1.48146 -1.25564 0
M  V30 1402 O 130.927 -0.659104 -1.82992 0
M  V30 1403 C 131.21 -3.60005 0.0825278 0
M  V30 1404 C 131.063 -4.2466 1.48271 0
M  V30 1405 C 132.382 -4.35972 -0.601401 0
M  V30 1406 H 129.501 -0.735764 0.0426632 0
M  V30 1407 H 132.143 -1.72868 0.788461 0
M  V30 1408 H 130.293 -3.85367 -0.492378 0
M  V30 1409 H 131.965 -4.10458 2.10527 0
M  V30 1410 H 130.208 -3.82772 2.04127 0
M  V30 1411 H 130.879 -5.336 1.41332 0
M  V30 1412 H 133.355 -4.15947 -0.112666 0
M  V30 1413 H 132.231 -5.45697 -0.592097 0
M  V30 1414 H 132.492 -4.09391 -1.66887 0
M  V30 1415 N 131.551 -0.354651 -1.53558 0
M  V30 1416 C 132.481 0.489091 -2.2832 0
M  V30 1417 C 133.462 1.09324 -1.30316 0
M  V30 1418 O 134.647 1.11255 -1.59173 0
M  V30 1419 C 131.777 1.63456 -3.0643 0
M  V30 1420 C 130.731 1.1582 -4.12031 0
M  V30 1421 C 130.057 2.39305 -4.7816 0
M  V30 1422 C 131.357 0.250731 -5.21698 0
M  V30 1423 H 133.051 -0.134614 -2.99097 0
M  V30 1424 H 130.597 -0.0661826 -1.43848 0
M  V30 1425 H 132.55 2.23136 -3.57475 0
M  V30 1426 H 131.274 2.28533 -2.33325 0
M  V30 1427 H 129.933 0.584146 -3.61916 0
M  V30 1428 H 129.581 3.02814 -4.01637 0
M  V30 1429 H 129.281 2.08109 -5.49513 0
M  V30 1430 H 130.805 2.99691 -5.31994 0
M  V30 1431 H 132.219 0.754695 -5.68311 0
M  V30 1432 H 130.616 0.0301468 -6.00092 0
M  V30 1433 H 131.686 -0.710125 -4.79672 0
M  V30 1434 N 133.029 1.57378 -0.0835403 0
M  V30 1435 C 133.939 2.16897 0.894021 0
M  V30 1436 C 134.955 1.13528 1.31861 0
M  V30 1437 O 136.131 1.45848 1.3889 0
M  V30 1438 C 133.196 2.72831 2.13925 0
M  V30 1439 C 132.257 3.91115 1.76997 0
M  V30 1440 C 131.49 4.44371 2.95584 0
M  V30 1441 O 131.713 3.96596 4.09961 0
M  V30 1442 O 130.647 5.35549 2.74719 0
M  V30 1443 H 134.473 3.00814 0.417679 0
M  V30 1444 H 132.058 1.48741 0.140181 0
M  V30 1445 H 133.94 3.0863 2.86924 0
M  V30 1446 H 132.615 1.91967 2.60635 0
M  V30 1447 H 131.522 3.60148 1.01214 0
M  V30 1448 H 132.855 4.73307 1.3506 0
M  V30 1449 N 134.507 -0.190092 1.56449 0
M  V30 1450 C 135.457 -1.23977 1.91347 0
M  V30 1451 C 136.441 -1.40747 0.779693 0
M  V30 1452 O 137.633 -1.43033 1.04262 0
M  V30 1453 C 134.762 -2.58347 2.26079 0
M  V30 1454 C 133.848 -2.4535 3.45925 0
M  V30 1455 N 134.239 -2.02039 4.63696 0
M  V30 1456 C 132.537 -2.76229 3.50162 0
M  V30 1457 C 133.238 -2.01053 5.4585 0
M  V30 1458 N 132.214 -2.42747 4.8639 0
M  V30 1459 H 136.016 -0.896318 2.79899 0
M  V30 1460 H 133.53 -0.398496 1.57435 0
M  V30 1461 H 135.527 -3.34173 2.49267 0
M  V30 1462 H 134.187 -2.93512 1.38856 0
M  V30 1463 H 135.198 -1.7267 4.88268 0
M  V30 1464 H 131.875 -3.15556 2.73369 0
M  V30 1465 H 133.265 -1.69426 6.50188 0
M  V30 1466 N 135.985 -1.50799 -0.457987 0
M  V30 1467 C 137.396 -1.55152 -1.0385 0
M  V30 1468 C 137.747 -0.362719 -1.92818 0
M  V30 1469 O 136.872 0.522915 -2.09987 0
M  V30 1470 C 137.467 -2.81173 -1.89017 0
M  V30 1471 C 136.026 -2.88164 -2.42154 0
M  V30 1472 C 135.173 -2.49591 -1.20829 0
M  V30 1473 H 138.124 -1.56874 -0.240068 0
M  V30 1474 H 138.145 -2.63769 -2.74238 0
M  V30 1475 H 137.657 -3.67677 -1.24238 0
M  V30 1476 H 135.758 -2.06042 -3.10447 0
M  V30 1477 H 135.871 -3.91356 -2.76364 0
M  V30 1478 H 134.235 -2.02322 -1.54719 0
M  V30 1479 H 135.018 -3.38418 -0.576927 0
M  V30 1480 N 137.463 0.71206 -1.40597 0
M  V30 1481 C 138.74 1.46536 -1.29563 0
M  V30 1482 C 139.12 2.10931 0.0844217 0
M  V30 1483 O 138.468 2.00418 1.0975 0
M  V30 1484 C 138.678 2.49821 -2.43701 0
M  V30 1485 C 140.026 3.15551 -2.841 0
M  V30 1486 O 141.05 2.60142 -2.4332 0
M  V30 1487 O 139.909 4.15867 -3.54566 0
M  V30 1488 H 137.003 0.651801 -0.509004 0
M  V30 1489 H 139.549 0.743935 -1.52524 0
M  V30 1490 H 138.321 2.00778 -3.35863 0
M  V30 1491 H 137.944 3.29495 -2.22528 0
M  V30 1492 N 138.941 1.26152 0.944643 0
M  V30 1493 C 140.181 1.12708 1.70517 0
M  V30 1494 C 140.545 -0.324727 1.89234 0
M  V30 1495 O 141.746 -0.581211 2.62441 0
M  V30 1496 C 140.017 1.8713 3.04495 0
M  V30 1497 S 141.576 1.89698 3.95677 0
M  V30 1498 H 138.394 0.402665 0.585988 0
M  V30 1499 H 140.996 1.59821 1.12594 0
M  V30 1500 H 139.7 2.91833 2.88551 0
M  V30 1501 H 139.231 1.40444 3.67477 0
M  V30 1502 H 141.246 0.981198 4.86402 0
M  V30 1503 N 140.419 -1.14872 1.07899 0
M  V30 1504 C 141.666 -1.85789 0.805532 0
M  V30 1505 C 141.994 -1.82649 -0.668561 0
M  V30 1506 O 141.249 -1.24858 -1.50695 0
M  V30 1507 C 141.548 -3.34223 1.26609 0
M  V30 1508 C 141.214 -3.57555 2.74709 0
M  V30 1509 C 139.876 -3.63631 3.1516 0
M  V30 1510 C 142.228 -3.66803 3.70277 0
M  V30 1511 C 139.556 -3.76473 4.49983 0
M  V30 1512 C 141.908 -3.8117 5.04869 0
M  V30 1513 C 140.572 -3.85494 5.44932 0
M  V30 1514 H 139.842 -0.679849 0.294765 0
M  V30 1515 H 142.489 -1.3572 1.35101 0
M  V30 1516 H 140.794 -3.86536 0.640103 0
M  V30 1517 H 142.491 -3.87511 1.03132 0
M  V30 1518 H 139.081 -3.5347 2.42398 0
M  V30 1519 H 143.265 -3.61404 3.40149 0
M  V30 1520 H 138.521 -3.7808 4.80484 0
M  V30 1521 H 142.695 -3.87268 5.78789 0
M  V30 1522 H 140.322 -3.95197 6.49403 0
M  V30 1523 N 141.898 -0.863906 -1.31812 0
M  V30 1524 C 143.309 -0.52522 -1.7916 0
M  V30 1525 C 143.66 0.957518 -1.71248 0
M  V30 1526 O 142.785 1.74734 -1.27659 0
M  V30 1527 C 143.38 -0.9466 -3.25307 0
M  V30 1528 C 141.939 -0.659668 -3.70574 0
M  V30 1529 C 141.086 -1.14126 -2.52726 0
M  V30 1530 H 144.037 -1.05022 -1.1898 0
M  V30 1531 H 144.058 -0.266766 -3.79564 0
M  V30 1532 H 143.57 -2.02579 -3.31034 0
M  V30 1533 H 141.671 0.408416 -3.70355 0
M  V30 1534 H 141.784 -1.23245 -4.62977 0
M  V30 1535 H 140.148 -0.561216 -2.4844 0
M  V30 1536 H 140.931 -2.22775 -2.61201 0
M  V30 1537 N 143.376 1.44774 -0.622745 0
M  V30 1538 C 144.616 2.04004 -0.127102 0
M  V30 1539 C 144.98 1.47862 1.22478 0
M  V30 1540 O 146.181 1.98541 1.81204 0
M  V30 1541 C 144.452 3.57247 -0.104429 0
M  V30 1542 S 146.011 4.37574 0.327814 0
M  V30 1543 H 142.829 0.708713 -0.0569776 0
M  V30 1544 H 145.431 1.77275 -0.824253 0
M  V30 1545 H 144.135 3.95616 -1.09159 0
M  V30 1546 H 143.666 3.88575 0.614236 0
M  V30 1547 H 145.681 4.70575 1.57395 0
M  V30 1548 N 144.854 0.36279 1.53368 0
M  V30 1549 C 145.786 -0.519668 2.23231 0
M  V30 1550 C 146.799 -1.04844 1.24546 0
M  V30 1551 O 147.988 -0.955296 1.50786 0
M  V30 1552 C 145.088 -1.72995 2.9142 0
M  V30 1553 C 144.261 -1.33316 4.16588 0
M  V30 1554 C 143.32 -2.40521 4.68013 0
M  V30 1555 O 142.346 -2.03027 5.3176 0
M  V30 1556 N 143.548 -3.72065 4.45587 0
M  V30 1557 H 146.313 0.078751 2.99597 0
M  V30 1558 H 143.874 0.187833 1.60807 0
M  V30 1559 H 145.866 -2.44184 3.22733 0
M  V30 1560 H 144.436 -2.2353 2.18525 0
M  V30 1561 H 143.656 -0.451236 3.91609 0
M  V30 1562 H 144.944 -1.04432 4.97967 0
M  V30 1563 H 144.342 -4.05304 3.94646 0
M  V30 1564 H 142.899 -4.39366 4.81457 0
M  V30 1565 N 146.332 -1.57332 0.0918853 0
M  V30 1566 C 147.609 -1.85691 -0.614668 0
M  V30 1567 C 147.989 -0.988146 -1.86545 0
M  V30 1568 O 147.337 -0.0597055 -2.28422 0
M  V30 1569 C 147.547 -3.36294 -0.933126 0
M  V30 1570 C 148.895 -4.04275 -1.29796 0
M  V30 1571 O 149.919 -3.41157 -1.02424 0
M  V30 1572 O 148.778 -5.1564 -1.81047 0
M  V30 1573 H 145.872 -0.767802 -0.307261 0
M  V30 1574 H 148.418 -1.69244 0.12434 0
M  V30 1575 H 147.19 -3.91273 -0.0456404 0
M  V30 1576 H 146.813 -3.58076 -1.72822 0
M  V30 1577 N 147.81 0.181792 -1.56548 0
M  V30 1578 C 149.05 0.906711 -1.83189 0
M  V30 1579 C 149.414 1.79882 -0.671312 0
M  V30 1580 O 150.615 2.56054 -0.81792 0
M  V30 1581 C 148.886 1.69023 -3.14906 0
M  V30 1582 S 150.445 2.46535 -3.62996 0
M  V30 1583 H 147.263 0.303877 -0.642791 0
M  V30 1584 H 149.865 0.169107 -1.94767 0
M  V30 1585 H 148.569 1.02571 -3.97376 0
M  V30 1586 H 148.1 2.46941 -3.06241 0
M  V30 1587 H 150.115 3.71014 -3.29489 0
M  V30 1588 N 149.288 1.51039 0.449983 0
M  V30 1589 C 150.513 1.6715 1.22783 0
M  V30 1590 C 150.938 0.363081 1.84563 0
M  V30 1591 O 150.296 -0.675433 1.68249 0
M  V30 1592 C 150.344 2.77985 2.29689 0
M  V30 1593 O 149.448 2.40707 3.34864 0
M  V30 1594 H 148.789 0.557746 0.360299 0
M  V30 1595 H 151.319 1.97535 0.533005 0
M  V30 1596 H 151.329 3.01693 2.74673 0
M  V30 1597 H 150.004 3.72935 1.84098 0
M  V30 1598 H 148.581 2.27523 2.95445 0
M  V30 1599 N 150.766 -0.704594 1.40972 0
M  V30 1600 C 151.991 -1.49858 1.43378 0
M  V30 1601 C 152.416 -1.88061 0.038184 0
M  V30 1602 O 151.774 -1.5402 -0.956425 0
M  V30 1603 C 151.822 -2.74333 2.34038 0
M  V30 1604 O 150.926 -3.7147 1.7912 0
M  V30 1605 H 150.267 -0.45139 0.486974 0
M  V30 1606 H 152.797 -0.866832 1.8533 0
M  V30 1607 H 152.807 -3.22741 2.49604 0
M  V30 1608 H 151.482 -2.45863 3.35446 0
M  V30 1609 H 150.059 -3.30363 1.72958 0
M  V30 1610 N 152.244 -1.26651 -0.937939 0
M  V30 1611 C 153.191 -1.0849 -2.03712 0
M  V30 1612 C 154.161 0.011033 -1.66096 0
M  V30 1613 O 155.346 -0.149353 -1.90215 0
M  V30 1614 C 152.486 -0.72735 -3.37348 0
M  V30 1615 C 151.599 -1.89986 -3.87981 0
M  V30 1616 C 150.734 -1.48513 -5.10017 0
M  V30 1617 C 149.773 -2.62575 -5.5292 0
M  V30 1618 N 148.91 -2.21762 -6.66158 0
M  V30 1619 H 153.75 -2.02551 -2.18579 0
M  V30 1620 H 151.287 -1.00844 -1.07093 0
M  V30 1621 H 153.245 -0.50092 -4.14182 0
M  V30 1622 H 151.875 0.176298 -3.22318 0
M  V30 1623 H 150.927 -2.23913 -3.07518 0
M  V30 1624 H 152.239 -2.75586 -4.15757 0
M  V30 1625 H 151.393 -1.21934 -5.94321 0
M  V30 1626 H 150.132 -0.60009 -4.83994 0
M  V30 1627 H 149.137 -2.8988 -4.67172 0
M  V30 1628 H 150.362 -3.51685 -5.80943 0
M  V30 1629 H 148.308 -1.35696 -6.41812 0
M  V30 1630 H 148.225 -3.00903 -6.93537 0
M  V30 1631 H 149.493 -1.98403 -7.53828 0
M  V30 1632 N 153.722 1.14298 -1.08507 0
M  V30 1633 C 154.685 2.17607 -0.719711 0
M  V30 1634 C 155.685 1.58907 0.245997 0
M  V30 1635 O 156.875 1.74181 0.0254081 0
M  V30 1636 C 154.007 3.40842 -0.0627695 0
M  V30 1637 H 155.2 2.51443 -1.63452 0
M  V30 1638 H 152.753 1.28963 -0.88307 0
M  V30 1639 H 153.488 3.12587 0.863716 0
M  V30 1640 H 153.273 3.84713 -0.757504 0
M  V30 1641 H 154.763 4.17221 0.177786 0
M  V30 1642 N 155.201 0.870884 1.31352 0
M  V30 1643 C 156.149 0.316445 2.30437 0
M  V30 1644 C 157.143 -0.568965 1.59559 0
M  V30 1645 O 158.349 -0.454964 1.74155 0
M  V30 1646 H 154.724 0.0836521 0.747333 0
M  V30 1647 H 156.695 1.16606 2.74673 0
M  V30 1648 C 155.444 -0.46635 3.44558 0
M  V30 1649 H 154.767 0.205687 3.99271 0
M  V30 1650 H 156.207 -0.819614 4.16003 0
M  V30 1651 C 154.666 -1.65797 2.9328 0
M  V30 1652 O 155.196 -2.75728 2.92125 0
M  V30 1653 N 153.402 -1.49041 2.4947 0
M  V30 1654 H 152.949 -0.59612 2.50608 0
M  V30 1655 H 152.907 -2.28911 2.15516 0
M  V30 1656 N 156.679 -1.44442 0.630414 0
M  V30 1657 C 157.609 -2.33418 -0.0618083 0
M  V30 1658 C 158.59 -1.48165 -0.835541 0
M  V30 1659 O 159.775 -1.76886 -0.801564 0
M  V30 1660 C 156.905 -3.31222 -1.04449 0
M  V30 1661 C 155.859 -4.26288 -0.382436 0
M  V30 1662 C 155.185 -5.13954 -1.47497 0
M  V30 1663 C 156.485 -5.1744 0.710865 0
M  V30 1664 H 158.179 -2.91548 0.681184 0
M  V30 1665 H 155.725 -1.40191 0.329026 0
M  V30 1666 H 157.678 -3.92351 -1.53748 0
M  V30 1667 H 156.402 -2.71299 -1.81836 0
M  V30 1668 H 155.061 -3.6649 0.0899054 0
M  V30 1669 H 154.709 -4.50385 -2.2397 0
M  V30 1670 H 154.409 -5.7837 -1.03737 0
M  V30 1671 H 155.933 -5.77955 -1.96979 0
M  V30 1672 H 157.347 -5.72509 0.300996 0
M  V30 1673 H 155.744 -5.90455 1.07156 0
M  V30 1674 H 156.814 -4.58496 1.57829 0
M  V30 1675 N 158.157 -0.370918 -1.53173 0
M  V30 1676 C 159.382 0.220293 -2.06227 0
M  V30 1677 C 159.807 1.41243 -1.24225 0
M  V30 1678 O 159.165 1.79387 -0.262645 0
M  V30 1679 C 159.213 0.586663 -3.55796 0
M  V30 1680 O 158.317 1.68317 -3.76488 0
M  V30 1681 H 157.658 0.0308099 -0.663285 0
M  V30 1682 H 160.188 -0.533068 -1.97534 0
M  V30 1683 H 160.198 0.85617 -3.98916 0
M  V30 1684 H 158.873 -0.285013 -4.14922 0
M  V30 1685 H 157.45 1.40881 -3.45264 0
M  V30 1686 N 159.635 1.57281 -0.100228 0
M  V30 1687 C 160.883 1.94153 0.561157 0
M  V30 1688 C 161.204 0.983157 1.68401 0
M  V30 1689 O 160.474 0.0361132 1.95867 0
M  V30 1690 H 159.054 0.716791 0.210283 0
M  V30 1691 H 161.716 1.94202 -0.164765 0
M  V30 1692 H 160.812 2.96709 0.968008 0
M  V30 1693 N 161.113 -0.173488 1.56642 0
M  V30 1694 C 162.361 -0.888706 1.81512 0
M  V30 1695 C 162.682 -1.82875 0.676872 0
M  V30 1696 O 161.952 -1.93536 -0.303414 0
M  V30 1697 H 160.532 -0.331164 0.669582 0
M  V30 1698 H 163.194 -0.173823 1.94123 0
M  V30 1699 H 162.29 -1.46691 2.75478 0
M  V30 1700 N 162.591 -1.51276 -0.441967 0
M  V30 1701 C 163.837 -1.63958 -1.19355 0
M  V30 1702 C 164.17 -0.352543 -1.90973 0
M  V30 1703 O 163.445 0.647627 -1.83401 0
M  V30 1704 C 163.728 -2.83979 -2.21422 0
M  V30 1705 C 163.581 -4.22646 -1.53918 0
M  V30 1706 C 164.9 -2.99521 -3.22451 0
M  V30 1707 H 162.019 -0.596709 -0.432559 0
M  V30 1708 H 164.661 -1.83748 -0.483398 0
M  V30 1709 H 162.811 -2.67237 -2.81987 0
M  V30 1710 H 164.483 -4.51045 -0.967256 0
M  V30 1711 H 162.726 -4.25558 -0.841615 0
M  V30 1712 H 163.397 -5.02609 -2.28229 0
M  V30 1713 H 165.873 -3.14944 -2.71937 0
M  V30 1714 H 164.749 -3.85072 -3.91166 0
M  V30 1715 H 165.01 -2.11391 -3.88287 0
M  V30 1716 N 164.069 0.697108 -1.41344 0
M  V30 1717 C 165.315 1.45796 -1.41828 0
M  V30 1718 C 165.67 1.92382 -0.0261743 0
M  V30 1719 O 164.963 1.66522 0.947688 0
M  V30 1720 C 165.157 2.68553 -2.35826 0
M  V30 1721 C 164.986 2.33975 -3.84039 0
M  V30 1722 C 163.756 2.24414 -4.52732 0
M  V30 1723 C 165.954 1.97048 -4.75054 0
M  V30 1724 N 163.936 1.82705 -5.86082 0
M  V30 1725 C 165.307 1.66086 -5.9734 0
M  V30 1726 C 167.362 1.83845 -4.62715 0
M  V30 1727 C 166.065 1.23246 -7.08663 0
M  V30 1728 C 168.091 1.4241 -5.73998 0
M  V30 1729 C 167.453 1.12357 -6.95381 0
M  V30 1730 H 163.552 0.530859 -0.574206 0
M  V30 1731 H 166.136 0.806674 -1.77203 0
M  V30 1732 H 164.307 3.31404 -2.02549 0
M  V30 1733 H 166.039 3.35015 -2.2704 0
M  V30 1734 H 162.794 2.4276 -4.0665 0
M  V30 1735 H 163.218 1.64337 -6.56751 0
M  V30 1736 H 167.86 2.05734 -3.69369 0
M  V30 1737 H 165.578 1.00102 -8.01876 0
M  V30 1738 H 169.164 1.32746 -5.66454 0
M  V30 1739 H 168.044 0.807795 -7.80028 0
M  V30 1740 N 165.547 1.27147 0.931209 0
M  V30 1741 C 166.494 1.09568 2.03134 0
M  V30 1742 C 167.464 -0.00222433 1.661 0
M  V30 1743 O 168.649 0.159439 1.90133 0
M  V30 1744 C 165.789 0.745231 3.36957 0
M  V30 1745 C 164.902 1.92041 3.86968 0
M  V30 1746 C 164.037 1.51216 5.09222 0
M  V30 1747 C 163.076 2.65504 5.5152 0
M  V30 1748 N 162.213 2.25291 6.64972 0
M  V30 1749 H 167.053 2.03708 2.17502 0
M  V30 1750 H 164.59 1.01411 1.06556 0
M  V30 1751 H 166.548 0.522878 4.1391 0
M  V30 1752 H 165.178 -0.159202 3.22407 0
M  V30 1753 H 164.23 2.25541 3.06326 0
M  V30 1754 H 165.542 2.77787 4.1429 0
M  V30 1755 H 164.696 1.25084 5.93666 0
M  V30 1756 H 163.435 0.625749 4.83669 0
M  V30 1757 H 162.44 2.92354 4.65628 0
M  V30 1758 H 163.665 3.54761 5.7907 0
M  V30 1759 H 161.611 1.39098 6.41083 0
M  V30 1760 H 161.528 3.04577 6.91931 0
M  V30 1761 H 162.796 2.02398 7.52765 0
M  V30 1762 N 167.025 -1.13721 1.09112 0
M  V30 1763 C 168.302 -1.81155 0.737706 0
M  V30 1764 C 168.682 -1.96253 -0.777683 0
M  V30 1765 O 168.03 -1.52807 -1.69889 0
M  V30 1766 C 168.24 -3.16392 1.47299 0
M  V30 1767 C 169.588 -3.91787 1.63671 0
M  V30 1768 O 170.612 -3.26005 1.43524 0
M  V30 1769 O 169.471 -5.0977 1.96969 0
M  V30 1770 H 166.565 -0.783518 0.26463 0
M  V30 1771 H 169.111 -1.20676 1.19312 0
M  V30 1772 H 167.883 -3.0061 2.50498 0
M  V30 1773 H 167.506 -3.8457 1.00953 0
M  V30 1774 N 168.503 -0.877838 -1.30888 0
M  V30 1775 C 169.451 -0.328662 -2.30266 0
M  V30 1776 C 170.445 0.560496 -1.59859 0
M  V30 1777 O 171.651 0.445722 -1.74394 0
M  V30 1778 H 168.026 -0.0876142 -0.746879 0
M  V30 1779 H 169.997 -1.18061 -2.74051 0
M  V30 1780 C 168.746 0.448071 -3.44801 0
M  V30 1781 H 168.069 -0.226859 -3.99156 0
M  V30 1782 H 169.509 0.797541 -4.16432 0
M  V30 1783 C 167.968 1.64239 -2.94155 0
M  V30 1784 O 168.498 2.74175 -2.93583 0
M  V30 1785 N 166.704 1.47716 -2.50256 0
M  V30 1786 H 166.251 0.582821 -2.5092 0
M  V30 1787 H 166.209 2.27765 -2.16727 0
M  V30 1788 N 169.982 1.44106 -0.638065 0
M  V30 1789 C 171.231 2.01194 -0.142744 0
M  V30 1790 C 171.544 1.50835 1.24532 0
M  V30 1791 O 172.75 2.00096 1.83504 0
M  V30 1792 C 171.206 3.59319 -0.20442 0
M  V30 1793 C 170.814 4.18674 -1.59423 0
M  V30 1794 C 172.558 4.23854 0.234079 0
M  V30 1795 C 170.465 5.69045 -1.61065 0
M  V30 1796 H 169.395 0.752367 -0.0495998 0
M  V30 1797 H 172.046 1.65246 -0.797881 0
M  V30 1798 H 170.428 3.92598 0.517946 0
M  V30 1799 H 171.602 3.96921 -2.34074 0
M  V30 1800 H 169.917 3.66453 -1.97741 0
M  V30 1801 H 172.514 5.34155 0.241443 0
M  V30 1802 H 172.857 3.96688 1.2627 0
M  V30 1803 H 173.39 3.95403 -0.436025 0
M  V30 1804 H 170.129 6.00956 -2.61787 0
M  V30 1805 H 169.649 5.929 -0.90718 0
M  V30 1806 H 171.328 6.32809 -1.34766 0
M  V30 1807 N 171.46 0.379036 1.52974 0
M  V30 1808 C 172.408 -0.476033 2.27677 0
M  V30 1809 C 173.402 -1.0719 1.31174 0
M  V30 1810 O 174.608 -1.01355 1.48752 0
M  V30 1811 H 170.983 -0.172255 0.732006 0
M  V30 1812 H 172.954 0.175615 2.97883 0
M  V30 1813 C 171.703 -1.5967 3.0887 0
M  V30 1814 H 171.026 -1.1475 3.82978 0
M  V30 1815 H 172.466 -2.16943 3.64296 0
M  V30 1816 C 170.925 -2.54682 2.20542 0
M  V30 1817 O 171.455 -3.57836 1.82527 0
M  V30 1818 N 169.661 -2.24183 1.84907 0
M  V30 1819 H 169.208 -1.40333 2.1602 0
M  V30 1820 H 169.166 -2.88006 1.26096 0
M  V30 1821 N 172.938 -1.57226 0.108567 0
M  V30 1822 C 173.871 -2.10447 -0.882464 0
M  V30 1823 C 174.849 -1.01829 -1.26766 0
M  V30 1824 O 176.033 -1.29415 -1.37054 0
M  V30 1825 C 173.16 -2.59258 -2.17952 0
M  V30 1826 C 172.206 -3.79662 -1.94318 0
M  V30 1827 S 173.039 -5.22586 -1.16892 0
M  V30 1828 C 174.195 -5.74758 -2.47799 0
M  V30 1829 H 174.428 -2.94178 -0.429745 0
M  V30 1830 H 171.961 -1.54043 -0.105 0
M  V30 1831 H 173.919 -2.88036 -2.92482 0
M  V30 1832 H 172.58 -1.75728 -2.60343 0
M  V30 1833 H 171.773 -4.11928 -2.90399 0
M  V30 1834 H 171.375 -3.51446 -1.27913 0
M  V30 1835 H 173.667 -5.83846 -3.43701 0
M  V30 1836 H 174.61 -6.73027 -2.20093 0
M  V30 1837 H 175.018 -5.02763 -2.56689 0
M  V30 1838 N 174.416 0.165178 -1.56732 0
M  V30 1839 C 175.379 1.18822 -1.95995 0
M  V30 1840 C 176.379 1.3685 -0.84431 0
M  V30 1841 O 177.569 1.34152 -1.11126 0
M  V30 1842 C 174.701 2.5521 -2.26011 0
M  V30 1843 H 175.894 0.851825 -2.87548 0
M  V30 1844 H 173.447 0.407857 -1.50885 0
M  V30 1845 H 174.182 2.93852 -1.37191 0
M  V30 1846 H 173.967 2.43489 -3.07336 0
M  V30 1847 H 175.457 3.28927 -2.57288 0
M  V30 1848 N 175.894 1.51508 0.433938 0
M  V30 1849 C 176.824 1.76016 1.53429 0
M  V30 1850 C 177.805 0.610112 1.58782 0
M  V30 1851 O 178.99 0.853177 1.74455 0
M  V30 1852 C 176.12 1.88831 2.9148 0
M  V30 1853 C 175.074 3.04288 3.00987 0
M  V30 1854 C 174.4 3.0229 4.4105 0
M  V30 1855 C 175.7 4.44193 2.74754 0
M  V30 1856 H 177.394 2.68152 1.33171 0
M  V30 1857 H 174.94 1.29035 0.639214 0
M  V30 1858 H 176.893 2.04559 3.6842 0
M  V30 1859 H 175.617 0.933455 3.12976 0
M  V30 1860 H 174.276 2.8827 2.26486 0
M  V30 1861 H 173.924 2.04576 4.59519 0
M  V30 1862 H 173.624 3.79822 4.4834 0
M  V30 1863 H 175.148 3.20116 5.1996 0
M  V30 1864 H 176.562 4.60544 3.41426 0
M  V30 1865 H 174.959 5.23457 2.9345 0
M  V30 1866 H 176.029 4.53996 1.70339 0
M  V30 1867 N 177.372 -0.689602 1.41712 0
M  V30 1868 C 178.618 -1.45181 1.41599 0
M  V30 1869 C 178.951 -1.94181 0.0270081 0
M  V30 1870 O 178.226 -1.6993 -0.946265 0
M  V30 1871 C 178.509 -2.65945 2.42787 0
M  V30 1872 C 178.362 -2.22672 3.90816 0
M  V30 1873 C 179.681 -3.68149 2.41151 0
M  V30 1874 H 176.8 -0.526576 0.515642 0
M  V30 1875 H 179.442 -0.784947 1.73028 0
M  V30 1876 H 177.592 -3.2284 2.16116 0
M  V30 1877 H 179.264 -1.71058 4.28412 0
M  V30 1878 H 177.507 -1.54394 4.05395 0
M  V30 1879 H 178.178 -3.0935 4.57172 0
M  V30 1880 H 180.654 -3.2094 2.64834 0
M  V30 1881 H 179.53 -4.50248 3.13955 0
M  V30 1882 H 179.791 -4.18259 1.43221 0
M  V30 1883 N 178.85 -1.27639 -0.924453 0
M  V30 1884 C 180.096 -1.14336 -1.67497 0
M  V30 1885 C 180.429 0.309465 -1.91718 0
M  V30 1886 O 179.704 1.22608 -1.50989 0
M  V30 1887 C 179.987 -1.93096 -3.0395 0
M  V30 1888 C 179.84 -3.46381 -2.8695 0
M  V30 1889 C 181.159 -1.73798 -4.0433 0
M  V30 1890 H 178.278 -0.416728 -0.607871 0
M  V30 1891 H 180.92 -1.56832 -1.07256 0
M  V30 1892 H 179.07 -1.56982 -3.55372 0
M  V30 1893 H 180.742 -3.92343 -2.42621 0
M  V30 1894 H 178.985 -3.72557 -2.22225 0
M  V30 1895 H 179.656 -3.96735 -3.83804 0
M  V30 1896 H 182.132 -2.05293 -3.61931 0
M  V30 1897 H 181.008 -2.31294 -4.97789 0
M  V30 1898 H 181.269 -0.686725 -4.36734 0
M  V30 1899 N 180.328 1.1314 -1.09713 0
M  V30 1900 C 181.605 1.80762 -0.747302 0
M  V30 1901 C 181.985 1.96663 0.767265 0
M  V30 1902 O 181.333 1.53706 1.69076 0
M  V30 1903 C 181.543 3.15606 -1.48975 0
M  V30 1904 C 182.891 3.90914 -1.65746 0
M  V30 1905 O 183.915 3.25239 -1.45251 0
M  V30 1906 O 182.774 5.08718 -1.9967 0
M  V30 1907 H 179.868 0.782103 -0.268782 0
M  V30 1908 H 182.414 1.20041 -1.19951 0
M  V30 1909 H 181.186 2.99278 -2.52088 0
M  V30 1910 H 180.809 3.84029 -1.02991 0
M  V30 1911 N 181.806 0.884767 1.30421 0
M  V30 1912 C 183.034 0.518044 2.0031 0
M  V30 1913 C 183.449 -0.893408 1.66324 0
M  V30 1914 O 182.806 -1.5875 0.900262 0
M  V30 1915 C 182.857 0.682997 3.54989 0
M  V30 1916 O 182.578 2.03888 3.87764 0
M  V30 1917 C 184.079 0.31924 4.42149 0
M  V30 1918 H 181.299 0.200265 0.640418 0
M  V30 1919 H 183.843 1.19001 1.6631 0
M  V30 1920 H 181.998 0.0584052 3.87356 0
M  V30 1921 H 182.412 2.05735 4.82466 0
M  V30 1922 H 183.886 0.485555 5.4986 0
M  V30 1923 H 184.363 -0.742717 4.32875 0
M  V30 1924 H 184.969 0.920147 4.15227 0
M  V30 1925 N 183.284 -1.43765 0.645699 0
M  V30 1926 C 184.514 -2.05953 0.163318 0
M  V30 1927 C 184.922 -1.48432 -1.17322 0
M  V30 1928 O 184.265 -0.607295 -1.73371 0
M  V30 1929 C 184.327 -3.59499 -0.0103065 0
M  V30 1930 C 183.991 -4.39563 1.25035 0
M  V30 1931 C 184.988 -4.72108 2.17739 0
M  V30 1932 C 182.673 -4.79697 1.48983 0
M  V30 1933 C 184.667 -5.43688 3.3269 0
M  V30 1934 C 182.354 -5.51023 2.64229 0
M  V30 1935 C 183.352 -5.8294 3.55908 0
M  V30 1936 O 183.04 -6.5281 4.69142 0
M  V30 1937 H 182.772 -0.670798 0.0836986 0
M  V30 1938 H 185.326 -1.85384 0.884407 0
M  V30 1939 H 183.556 -3.78613 -0.78669 0
M  V30 1940 H 185.245 -4.03408 -0.449087 0
M  V30 1941 H 186.011 -4.41627 2.00476 0
M  V30 1942 H 181.89 -4.54266 0.785078 0
M  V30 1943 H 185.434 -5.68517 4.04269 0
M  V30 1944 H 181.331 -5.8092 2.81429 0
M  V30 1945 H 182.099 -6.71288 4.6831 0
M  V30 1946 N 184.763 -0.387143 -1.52771 0
M  V30 1947 C 185.993 0.195585 -2.05672 0
M  V30 1948 C 186.401 1.41241 -1.25887 0
M  V30 1949 O 185.744 1.81265 -0.298081 0
M  V30 1950 C 185.806 0.632327 -3.53895 0
M  V30 1951 C 185.47 -0.470739 -4.54569 0
M  V30 1952 C 186.467 -1.32746 -5.02667 0
M  V30 1953 C 184.152 -0.637151 -4.98243 0
M  V30 1954 C 186.146 -2.33574 -5.93061 0
M  V30 1955 C 183.833 -1.64877 -5.88438 0
M  V30 1956 C 184.831 -2.49649 -6.35739 0
M  V30 1957 O 184.519 -3.49082 -7.24153 0
M  V30 1958 H 184.251 0.033658 -0.675162 0
M  V30 1959 H 186.805 -0.550221 -1.97893 0
M  V30 1960 H 185.035 1.43008 -3.59285 0
M  V30 1961 H 186.724 1.14048 -3.89548 0
M  V30 1962 H 187.49 -1.21019 -4.69659 0
M  V30 1963 H 183.369 0.0129567 -4.60998 0
M  V30 1964 H 186.913 -2.99777 -6.29904 0
M  V30 1965 H 182.81 -1.76643 -6.2086 0
M  V30 1966 H 183.578 -3.45065 -7.42208 0
M  V30 1967 N 186.241 1.57166 -0.116904 0
M  V30 1968 C 187.518 1.86645 0.585049 0
M  V30 1969 C 187.898 1.0177 1.84949 0
M  V30 1970 O 187.246 0.0960379 2.28298 0
M  V30 1971 C 187.456 3.37736 0.879507 0
M  V30 1972 C 188.804 4.06289 1.23348 0
M  V30 1973 O 189.828 3.42743 0.969836 0
M  V30 1974 O 188.687 5.18455 1.7282 0
M  V30 1975 H 185.781 0.772593 0.295007 0
M  V30 1976 H 188.327 1.69025 -0.151249 0
M  V30 1977 H 187.099 3.91296 -0.0166136 0
M  V30 1978 H 186.722 3.6078 1.67103 0
M  V30 1979 N 187.719 -0.156864 1.56817 0
M  V30 1980 C 188.996 -0.899244 1.73704 0
M  V30 1981 C 189.376 -1.99771 0.682254 0
M  V30 1982 O 188.724 -2.26515 -0.300522 0
M  V30 1983 C 188.934 -1.45075 3.17418 0
M  V30 1984 C 190.282 -1.91802 3.7881 0
M  V30 1985 O 191.306 -1.54838 3.20786 0
M  V30 1986 O 190.165 -2.5994 4.80722 0
M  V30 1987 H 187.259 -0.424267 0.709878 0
M  V30 1988 H 189.805 -0.143561 1.69092 0
M  V30 1989 H 188.577 -0.660846 3.85679 0
M  V30 1990 H 188.2 -2.27021 3.26416 0
M  V30 1991 N 189.197 -1.51736 -0.425897 0
M  V30 1992 C 190.129 -1.70083 -1.53638 0
M  V30 1993 C 191.142 -0.581349 -1.52066 0
M  V30 1994 O 192.331 -0.856017 -1.56635 0
M  V30 1995 C 189.431 -1.71078 -2.9255 0
M  V30 1996 C 188.604 -2.99795 -3.185 0
M  V30 1997 C 187.663 -2.92825 -4.37196 0
M  V30 1998 O 186.689 -3.66756 -4.35291 0
M  V30 1999 N 187.891 -2.0946 -5.41393 0
M  V30 2000 H 190.656 -2.65882 -1.383 0
M  V30 2001 H 188.217 -1.49765 -0.614988 0
M  V30 2002 H 190.209 -1.63969 -3.69995 0
M  V30 2003 H 188.779 -0.828242 -3.01428 0
M  V30 2004 H 187.999 -3.20684 -2.2925 0
M  V30 2005 H 189.287 -3.84977 -3.32671 0
M  V30 2006 H 188.685 -1.48792 -5.45781 0
M  V30 2007 H 187.242 -2.08221 -6.17647 0
M  V30 2008 N 190.675 0.682077 -1.42076 0
M  V30 2009 C 191.605 1.80796 -1.47767 0
M  V30 2010 C 192.586 1.6677 -0.334954 0
M  V30 2011 O 193.771 1.863 -0.548264 0
M  V30 2012 C 190.901 3.19038 -1.37229 0
M  V30 2013 C 189.855 3.47789 -2.49453 0
M  V30 2014 C 189.181 4.8553 -2.23975 0
M  V30 2015 C 190.481 3.45411 -3.91776 0
M  V30 2016 H 192.175 1.7629 -2.41997 0
M  V30 2017 H 189.721 0.846721 -1.16476 0
M  V30 2018 H 191.674 3.97528 -1.39821 0
M  V30 2019 H 190.398 3.24204 -0.394907 0
M  V30 2020 H 189.057 2.71657 -2.46166 0
M  V30 2021 H 188.705 4.87337 -1.24547 0
M  V30 2022 H 188.405 5.0573 -2.99184 0
M  V30 2023 H 189.929 5.66312 -2.28304 0
M  V30 2024 H 191.343 4.13882 -3.96705 0
M  V30 2025 H 189.74 3.77145 -4.66778 0
M  V30 2026 H 190.81 2.44122 -4.18966 0
M  V30 2027 N 192.153 1.28127 0.917671 0
M  V30 2028 C 193.402 1.14432 1.66097 0
M  V30 2029 C 193.715 -0.307247 1.93172 0
M  V30 2030 O 194.921 -0.565259 2.65551 0
M  V30 2031 C 193.377 2.00015 2.99202 0
M  V30 2032 C 192.985 3.49889 2.79789 0
M  V30 2033 C 194.729 1.94996 3.77064 0
M  V30 2034 C 192.636 4.27636 4.08511 0
M  V30 2035 H 191.566 0.424662 0.62304 0
M  V30 2036 H 194.217 1.52628 1.01868 0
M  V30 2037 H 192.599 1.54672 3.64544 0
M  V30 2038 H 193.773 4.03162 2.23152 0
M  V30 2039 H 192.088 3.56392 2.15345 0
M  V30 2040 H 194.685 2.50354 4.72469 0
M  V30 2041 H 195.028 0.925819 4.05875 0
M  V30 2042 H 195.561 2.38287 3.18534 0
M  V30 2043 H 192.3 5.30615 3.84874 0
M  V30 2044 H 191.82 3.79137 4.64774 0
M  V30 2045 H 193.499 4.37346 4.76799 0
M  V30 2046 N 193.631 -1.12557 1.10312 0
M  V30 2047 C 194.856 -1.88405 0.867085 0
M  V30 2048 C 195.281 -1.79038 -0.576817 0
M  V30 2049 O 194.639 -1.14439 -1.40618 0
M  V30 2050 C 194.687 -3.3563 1.31851 0
M  V30 2051 O 193.791 -4.09565 0.482734 0
M  V30 2052 H 193.132 -0.585455 0.313271 0
M  V30 2053 H 195.662 -1.42352 1.4696 0
M  V30 2054 H 195.672 -3.86469 1.3079 0
M  V30 2055 H 194.347 -3.41765 2.37001 0
M  V30 2056 H 192.924 -3.68695 0.558448 0
M  V30 2057 N 195.109 -0.891671 -1.2995 0
M  V30 2058 C 196.349 -0.520296 -1.97667 0
M  V30 2059 C 196.713 0.914797 -1.68806 0
M  V30 2060 O 197.914 1.39263 -2.29911 0
M  V30 2061 C 196.185 -0.795222 -3.48441 0
M  V30 2062 S 197.744 -0.526953 -4.35624 0
M  V30 2063 H 194.562 -0.19333 -0.684211 0
M  V30 2064 H 197.164 -1.15238 -1.57926 0
M  V30 2065 H 195.868 -1.83805 -3.66938 0
M  V30 2066 H 195.399 -0.15095 -3.9311 0
M  V30 2067 H 197.414 0.631533 -4.92165 0
M  V30 2068 N 196.587 1.43421 -0.653314 0
M  V30 2069 C 197.835 2.01414 -0.166415 0
M  V30 2070 C 198.156 1.51803 1.22397 0
M  V30 2071 O 197.426 0.730693 1.81763 0
M  V30 2072 H 196.006 0.744703 -0.0585319 0
M  V30 2073 H 198.668 1.75629 -0.845003 0
M  V30 2074 H 197.764 3.11734 -0.151111 0
M  V30 2075 N 198.065 0.39524 1.52563 0
M  V30 2076 C 199.29 -0.187456 2.06551 0
M  V30 2077 C 199.715 -1.39249 1.26457 0
M  V30 2078 O 199.073 -1.78947 0.291151 0
M  V30 2079 C 199.121 -0.529985 3.56684 0
M  V30 2080 O 198.225 -1.62307 3.79118 0
M  V30 2081 H 197.566 -0.0202537 0.663691 0
M  V30 2082 H 200.096 0.564426 1.96661 0
M  V30 2083 H 200.106 -0.792598 4.00227 0
M  V30 2084 H 198.781 0.350987 4.14416 0
M  V30 2085 H 197.358 -1.3537 3.47461 0
M  V30 2086 N 199.544 -1.57102 0.125237 0
M  V30 2087 C 200.79 -1.95697 -0.532035 0
M  V30 2088 C 201.123 -1.009 -1.6593 0
M  V30 2089 O 200.398 -0.047347 -1.94442 0
M  V30 2090 C 200.681 -3.44181 -1.05884 0
M  V30 2091 C 200.534 -4.49752 0.0654392 0
M  V30 2092 C 201.853 -3.94655 -1.9477 0
M  V30 2093 H 198.972 -0.711571 -0.191925 0
M  V30 2094 H 201.614 -1.88923 0.20206 0
M  V30 2095 H 199.764 -3.50085 -1.68442 0
M  V30 2096 H 201.436 -4.55943 0.700982 0
M  V30 2097 H 199.679 -4.27653 0.727709 0
M  V30 2098 H 200.35 -5.50924 -0.344505 0
M  V30 2099 H 202.826 -3.91094 -1.42074 0
M  V30 2100 H 201.702 -4.99057 -2.28546 0
M  V30 2101 H 201.963 -3.35718 -2.87656 0
M  V30 2102 N 201.022 0.148545 -1.56898 0
M  V30 2103 C 201.97 1.20265 -1.99096 0
M  V30 2104 C 202.964 1.44559 -0.883123 0
M  V30 2105 O 204.17 1.4487 -1.0683 0
M  V30 2106 H 200.545 0.404786 -0.63376 0
M  V30 2107 H 202.516 0.82004 -2.86911 0
M  V30 2108 C 201.265 2.52886 -2.3863 0
M  V30 2109 H 200.588 2.35021 -3.23427 0
M  V30 2110 H 202.028 3.25274 -2.7198 0
M  V30 2111 C 200.487 3.13315 -1.23837 0
M  V30 2112 O 201.017 3.98077 -0.538268 0
M  V30 2113 N 199.223 2.72742 -1.00301 0
M  V30 2114 H 198.77 2.03912 -1.5741 0
M  V30 2115 H 198.728 3.13507 -0.236838 0
M  V30 2116 N 202.5 1.5196 0.417844 0
M  V30 2117 C 203.916 1.40569 0.755816 0
M  V30 2118 C 204.116 0.503316 1.95113 0
M  V30 2119 O 203.172 -0.0341925 2.52477 0
M  V30 2120 C 204.485 2.82947 1.01791 0
M  V30 2121 C 206.033 2.92231 1.12116 0
M  V30 2122 C 206.508 4.35559 1.41608 0
M  V30 2123 N 207.999 4.38753 1.48491 0
M  V30 2124 C 208.734 5.46705 1.7292 0
M  V30 2125 N 208.23 6.64788 1.95011 0
M  V30 2126 N 210.023 5.34209 1.74863 0
M  V30 2127 H 202.174 2.09168 -0.369098 0
M  V30 2128 H 204.437 0.942409 -0.102809 0
M  V30 2129 H 204.143 3.5106 0.212081 0
M  V30 2130 H 204.017 3.23462 1.94042 0
M  V30 2131 H 206.404 2.24304 1.9176 0
M  V30 2132 H 206.485 2.55185 0.177225 0
M  V30 2133 H 206.129 5.04042 0.624848 0
M  V30 2134 H 206.059 4.70133 2.37239 0
M  V30 2135 H 208.55 3.5363 1.33244 0
M  V30 2136 H 208.863 7.42845 2.13076 0
M  V30 2137 H 207.208 6.67869 1.92293 0
M  V30 2138 H 210.399 4.40937 1.57137 0
M  V30 2139 H 210.572 6.18415 1.93563 0
M  V30 2140 N 203.978 -0.674533 1.42435 0
M  V30 2141 C 205.226 -1.43175 1.42637 0
M  V30 2142 C 205.547 -1.94951 0.0438992 0
M  V30 2143 O 204.817 -1.7308 -0.917607 0
M  V30 2144 H 203.397 -0.531307 0.525092 0
M  V30 2145 H 206.059 -0.797006 1.77859 0
M  V30 2146 H 205.155 -2.28463 2.12629 0
M  V30 2147 N 205.456 -1.28612 -0.910864 0
M  V30 2148 C 206.684 -1.18792 -1.69399 0
M  V30 2149 C 207.099 0.253039 -1.87097 0
M  V30 2150 O 206.456 1.17071 -1.40003 0
M  V30 2151 C 206.507 -1.88511 -3.08457 0
M  V30 2152 O 206.228 -3.26979 -2.91576 0
M  V30 2153 C 207.729 -1.85029 -4.02839 0
M  V30 2154 H 204.949 -0.412233 -0.529438 0
M  V30 2155 H 207.493 -1.69788 -1.13984 0
M  V30 2156 H 205.648 -1.41379 -3.60681 0
M  V30 2157 H 206.062 -3.61936 -3.79608 0
M  V30 2158 H 207.536 -2.38395 -4.97867 0
M  V30 2159 H 208.013 -0.823303 -4.31414 0
M  V30 2160 H 208.619 -2.31853 -3.56545 0
M  V30 2161 N 206.934 1.1197 -1.10907 0
M  V30 2162 C 208.174 1.85224 -0.864378 0
M  V30 2163 C 208.538 1.82411 0.599178 0
M  V30 2164 O 209.739 2.51057 0.960416 0
M  V30 2165 C 208.01 3.2868 -1.40371 0
M  V30 2166 S 209.569 4.1925 -1.29518 0
M  V30 2167 H 206.387 0.63878 -0.312219 0
M  V30 2168 H 208.989 1.3485 -1.41548 0
M  V30 2169 H 207.693 3.28289 -2.46281 0
M  V30 2170 H 207.224 3.84121 -0.849402 0
M  V30 2171 H 209.239 4.95539 -0.256059 0
M  V30 2172 N 208.412 0.89855 1.29475 0
M  V30 2173 C 209.344 0.332726 2.26772 0
M  V30 2174 C 210.357 -0.520323 1.54261 0
M  V30 2175 O 211.546 -0.337668 1.75277 0
M  V30 2176 C 208.646 -0.544334 3.345 0
M  V30 2177 C 207.819 0.282728 4.36485 0
M  V30 2178 C 206.878 -0.526982 5.23555 0
M  V30 2179 O 205.904 0.0551165 5.69173 0
M  V30 2180 N 207.106 -1.83331 5.5079 0
M  V30 2181 H 209.871 1.16897 2.75962 0
M  V30 2182 H 207.432 0.762919 1.42798 0
M  V30 2183 H 209.424 -1.09239 3.89678 0
M  V30 2184 H 207.994 -1.28127 2.85136 0
M  V30 2185 H 207.214 1.01221 3.80983 0
M  V30 2186 H 208.502 0.84918 5.01664 0
M  V30 2187 H 207.9 -2.32898 5.15534 0
M  V30 2188 H 206.457 -2.32852 6.08788 0
M  V30 2189 N 209.89 -1.43072 0.660911 0
M  V30 2190 C 211.306 -1.56169 0.329173 0
M  V30 2191 C 211.506 -1.64317 -1.16629 0
M  V30 2192 O 210.562 -1.60245 -1.95135 0
M  V30 2193 C 211.875 -2.81873 1.04729 0
M  V30 2194 C 213.423 -2.95627 1.02828 0
M  V30 2195 C 213.898 -4.24174 1.72744 0
M  V30 2196 N 215.389 -4.31055 1.69545 0
M  V30 2197 C 216.124 -5.29304 2.20511 0
M  V30 2198 N 215.62 -6.33786 2.79799 0
M  V30 2199 N 217.413 -5.21008 2.10966 0
M  V30 2200 H 209.564 -1.36027 1.63127 0
M  V30 2201 H 211.827 -0.653823 0.686454 0
M  V30 2202 H 211.533 -2.81942 2.10242 0
M  V30 2203 H 211.407 -3.72338 0.603702 0
M  V30 2204 H 213.794 -2.95094 -0.0184742 0
M  V30 2205 H 213.875 -2.06431 1.51063 0
M  V30 2206 H 213.519 -4.25467 2.7738 0
M  V30 2207 H 213.449 -5.1228 1.2197 0
M  V30 2208 H 215.94 -3.56174 1.26288 0
M  V30 2209 H 216.253 -7.05086 3.16344 0
M  V30 2210 H 214.598 -6.34387 2.83863 0
M  V30 2211 H 217.789 -4.38301 1.64347 0
M  V30 2212 H 217.962 -5.97416 2.50993 0
M  V30 2213 N 211.368 -0.403325 -1.52352 0
M  V30 2214 C 212.318 0.442244 -2.2367 0
M  V30 2215 C 213.302 1.01823 -1.24583 0
M  V30 2216 O 214.494 0.942005 -1.49851 0
M  V30 2217 C 211.623 1.5615 -3.05732 0
M  V30 2218 C 210.709 0.996575 -4.12225 0
M  V30 2219 N 211.1 0.157804 -5.05554 0
M  V30 2220 C 209.398 1.26767 -4.27605 0
M  V30 2221 C 210.099 -0.155853 -5.81491 0
M  V30 2222 N 209.075 0.451775 -5.41719 0
M  V30 2223 H 212.877 -0.204964 -2.93184 0
M  V30 2224 H 210.391 -0.213418 -1.60992 0
M  V30 2225 H 212.388 2.17981 -3.55373 0
M  V30 2226 H 211.048 2.21139 -2.37755 0
M  V30 2227 H 212.059 -0.206049 -5.1749 0
M  V30 2228 H 208.736 1.91757 -3.70858 0
M  V30 2229 H 210.126 -0.836329 -6.66675 0
M  V30 2230 N 212.846 1.57033 -0.133567 0
M  V30 2231 C 214.092 1.95976 0.521649 0
M  V30 2232 C 214.425 1.01779 1.65393 0
M  V30 2233 O 213.7 0.0576581 1.94415 0
M  V30 2234 C 213.983 3.44738 1.04057 0
M  V30 2235 C 213.836 4.49711 -0.0892897 0
M  V30 2236 C 215.155 3.95682 1.92675 0
M  V30 2237 H 212.274 0.712579 0.188149 0
M  V30 2238 H 214.916 1.88813 -0.212076 0
M  V30 2239 H 213.066 3.50973 1.66583 0
M  V30 2240 H 214.738 4.55565 -0.725152 0
M  V30 2241 H 212.981 4.27261 -0.750378 0
M  V30 2242 H 213.652 5.51099 0.315284 0
M  V30 2243 H 216.128 3.91841 1.39998 0
M  V30 2244 H 215.004 5.00262 2.25897 0
M  V30 2245 H 215.265 3.37239 2.85872 0
M  V30 2246 N 214.325 -0.140222 1.56975 0
M  V30 2247 C 215.572 -0.851687 1.83719 0
M  V30 2248 C 215.9 -1.80862 0.715485 0
M  V30 2249 O 215.155 -1.93464 -0.294956 0
M  V30 2250 C 215.454 -1.65386 3.16832 0
M  V30 2251 C 215.12 -0.843112 4.42947 0
M  V30 2252 C 213.782 -0.619464 4.77196 0
M  V30 2253 C 216.134 -0.276582 5.20466 0
M  V30 2254 C 213.462 0.181312 5.8642 0
M  V30 2255 C 215.814 0.51127 6.30531 0
M  V30 2256 C 214.478 0.745432 6.63325 0
M  V30 2257 H 213.748 -0.311654 0.672274 0
M  V30 2258 H 216.395 -0.115006 1.91154 0
M  V30 2259 H 214.7 -2.46084 3.04877 0
M  V30 2260 H 216.397 -2.20793 3.34741 0
M  V30 2261 H 212.987 -1.0275 4.16101 0
M  V30 2262 H 217.171 -0.436632 4.94376 0
M  V30 2263 H 212.427 0.372165 6.10266 0
M  V30 2264 H 216.601 0.957354 6.89788 0
M  V30 2265 H 214.228 1.36778 7.47794 0
M  V30 2266 N 215.803 -1.52179 -0.40978 0
M  V30 2267 C 217.214 -1.58377 -0.988615 0
M  V30 2268 C 217.565 -0.423879 -1.91566 0
M  V30 2269 O 216.69 0.455844 -2.11544 0
M  V30 2270 C 217.285 -2.87044 -1.79976 0
M  V30 2271 C 215.844 -2.95722 -2.32863 0
M  V30 2272 C 214.991 -2.53309 -1.12828 0
M  V30 2273 H 217.942 -1.57558 -0.190039 0
M  V30 2274 H 217.963 -2.7236 -2.65707 0
M  V30 2275 H 217.475 -3.71444 -1.12478 0
M  V30 2276 H 215.576 -2.15814 -3.03735 0
M  V30 2277 H 215.689 -3.99951 -2.63773 0
M  V30 2278 H 214.053 -2.07142 -1.48204 0
M  V30 2279 H 214.836 -3.40082 -0.46897 0
M  V30 2280 N 217.281 0.66697 -1.42791 0
M  V30 2281 C 218.231 1.77313 -1.43332 0
M  V30 2282 C 219.215 1.5801 -0.303586 0
M  V30 2283 O 220.407 1.68356 -0.546385 0
M  V30 2284 C 217.536 3.15822 -1.34578 0
M  V30 2285 C 216.622 3.40721 -2.52528 0
M  V30 2286 N 217.013 3.36162 -3.77927 0
M  V30 2287 C 215.311 3.71387 -2.46956 0
M  V30 2288 C 216.012 3.60762 -4.56318 0
M  V30 2289 N 214.988 3.81908 -3.86843 0
M  V30 2290 H 218.79 1.72193 -2.38174 0
M  V30 2291 H 216.304 0.868114 -1.3725 0
M  V30 2292 H 218.301 3.951 -1.33048 0
M  V30 2293 H 216.961 3.22133 -0.407453 0
M  V30 2294 H 217.972 3.15885 -4.10411 0
M  V30 2295 H 214.649 3.84897 -1.61743 0
M  V30 2296 H 216.039 3.63132 -5.65318 0
M  V30 2297 N 218.759 1.29093 0.90403 0
M  V30 2298 C 219.707 1.13727 2.02901 0
M  V30 2299 C 220.701 0.0539853 1.69314 0
M  V30 2300 O 221.907 0.213469 1.7873 0
M  V30 2301 H 218.282 0.35117 0.664969 0
M  V30 2302 H 220.253 2.08982 2.13001 0
M  V30 2303 C 219.002 0.826066 3.37745 0
M  V30 2304 H 218.325 1.65164 3.64089 0
M  V30 2305 H 219.765 0.758559 4.17159 0
M  V30 2306 C 218.224 -0.470541 3.33598 0
M  V30 2307 O 218.754 -1.49792 3.72727 0
M  V30 2308 N 216.96 -0.474812 2.86695 0
M  V30 2309 H 216.507 0.361692 2.55048 0
M  V30 2310 H 216.465 -1.34236 2.84303 0
M  V30 2311 N 220.237 -1.11381 1.11499 0
M  V30 2312 C 221.187 -2.15555 0.74298 0
M  V30 2313 C 222.171 -1.58894 -0.253276 0
M  V30 2314 O 223.363 -1.76897 -0.0602918 0
M  V30 2315 C 220.492 -3.42782 0.188481 0
M  V30 2316 C 219.578 -4.064 1.21244 0
M  V30 2317 N 219.969 -4.44864 2.40685 0
M  V30 2318 C 218.267 -4.3333 1.05552 0
M  V30 2319 C 218.968 -4.94715 3.05994 0
M  V30 2320 N 217.944 -4.90909 2.33472 0
M  V30 2321 H 221.746 -2.43074 1.65203 0
M  V30 2322 H 219.26 -1.28401 0.994329 0
M  V30 2323 H 221.257 -4.16789 -0.0961693 0
M  V30 2324 H 219.917 -3.16727 -0.715149 0
M  V30 2325 H 220.928 -4.36876 2.78136 0
M  V30 2326 H 217.605 -4.1698 0.208372 0
M  V30 2327 H 218.995 -5.34103 4.07656 0
M  V30 2328 N 221.715 -0.905404 -1.28997 0
M  V30 2329 C 222.943 -0.549846 -1.9946 0
M  V30 2330 C 223.358 0.866834 -1.67724 0
M  V30 2331 O 222.715 1.57298 -0.925404 0
M  V30 2332 C 222.766 -0.739387 -3.53858 0
M  V30 2333 O 222.487 -2.10031 -3.84472 0
M  V30 2334 C 223.988 -0.389541 -4.41585 0
M  V30 2335 H 221.208 -0.210429 -0.637151 0
M  V30 2336 H 223.752 -1.21632 -1.64396 0
M  V30 2337 H 221.907 -0.120023 -3.87214 0
M  V30 2338 H 222.321 -2.13385 -4.79132 0
M  V30 2339 H 223.795 -0.572972 -5.49018 0
M  V30 2340 H 224.272 0.673756 -4.34001 0
M  V30 2341 H 224.878 -0.986089 -4.1371 0
M  V30 2342 N 223.193 1.4272 -0.668489 0
M  V30 2343 C 224.156 2.292 0.00448567 0
M  V30 2344 C 225.156 1.43001 0.735339 0
M  V30 2345 O 226.346 1.64461 0.57429 0
M  V30 2346 C 223.478 3.25375 1.01705 0
M  V30 2347 H 224.671 2.90199 -0.756608 0
M  V30 2348 H 222.224 1.50254 -0.430506 0
M  V30 2349 H 222.959 2.69301 1.80686 0
M  V30 2350 H 222.744 3.88944 0.496463 0
M  V30 2351 H 224.234 3.90245 1.48655 0
M  V30 2352 N 224.671 0.411399 1.52136 0
M  V30 2353 C 225.948 -0.222308 1.94333 0
M  V30 2354 C 226.328 -1.6242 1.34844 0
M  V30 2355 O 225.676 -2.22384 0.525145 0
M  V30 2356 C 225.886 -0.226345 3.48265 0
M  V30 2357 C 227.234 -0.444592 4.22266 0
M  V30 2358 O 228.258 -0.305602 3.54887 0
M  V30 2359 O 227.117 -0.718749 5.41753 0
M  V30 2360 H 224.211 -0.143907 0.814383 0
M  V30 2361 H 226.757 0.467506 1.63133 0
M  V30 2362 H 225.529 0.75475 3.83952 0
M  V30 2363 H 225.152 -0.960163 3.85832 0
M  V30 2364 N 226.149 -1.5696 0.141893 0
M  V30 2365 C 227.398 -1.95135 -0.510427 0
M  V30 2366 C 227.711 -1.02896 -1.66348 0
M  V30 2367 O 228.917 -1.30629 -2.38009 0
M  V30 2368 C 227.373 -3.46876 -0.959427 0
M  V30 2369 C 226.981 -4.47691 0.166419 0
M  V30 2370 C 228.725 -3.93927 -1.58183 0
M  V30 2371 C 226.632 -5.90636 -0.300565 0
M  V30 2372 H 225.562 -0.728494 -0.194454 0
M  V30 2373 H 228.213 -1.8211 0.22542 0
M  V30 2374 H 226.595 -3.55215 -1.75038 0
M  V30 2375 H 227.769 -4.51043 0.94325 0
M  V30 2376 H 226.084 -4.10527 0.696905 0
M  V30 2377 H 228.681 -4.98158 -1.94275 0
M  V30 2378 H 229.024 -3.3519 -2.46888 0
M  V30 2379 H 229.557 -3.88484 -0.855863 0
M  V30 2380 H 226.296 -6.5318 0.550989 0
M  V30 2381 H 225.816 -5.90655 -1.04338 0
M  V30 2382 H 227.495 -6.42588 -0.754265 0
M  V30 2383 N 227.627 0.131896 -1.57047 0
M  V30 2384 C 228.559 1.1878 -1.9602 0
M  V30 2385 C 229.572 1.38363 -0.857875 0
M  V30 2386 O 230.761 1.37666 -1.13623 0
M  V30 2387 C 227.861 2.55008 -2.23213 0
M  V30 2388 C 227.034 2.56201 -3.54513 0
M  V30 2389 C 226.093 3.7408 -3.70069 0
M  V30 2390 O 225.119 3.58258 -4.42312 0
M  V30 2391 N 226.321 4.92137 -3.07866 0
M  V30 2392 H 229.086 0.85639 -2.87204 0
M  V30 2393 H 226.647 0.321309 -1.5868 0
M  V30 2394 H 228.639 3.32404 -2.30846 0
M  V30 2395 H 227.209 2.80382 -1.3822 0
M  V30 2396 H 226.429 1.64613 -3.58185 0
M  V30 2397 H 227.717 2.54043 -4.4084 0
M  V30 2398 H 227.115 5.07895 -2.49116 0
M  V30 2399 H 225.672 5.67254 -3.21039 0
M  V30 2400 N 229.106 1.52395 0.401703 0
M  V30 2401 C 230.331 1.70972 1.17403 0
M  V30 2402 C 230.756 0.421615 1.83314 0
M  V30 2403 O 230.114 -0.621564 1.70312 0
M  V30 2404 C 230.162 2.85151 2.20728 0
M  V30 2405 O 229.266 2.51238 3.27037 0
M  V30 2406 H 228.607 0.568927 0.342372 0
M  V30 2407 H 231.137 1.99131 0.469891 0
M  V30 2408 H 231.147 3.10279 2.64936 0
M  V30 2409 H 229.822 3.78603 1.7214 0
M  V30 2410 H 228.399 2.36808 2.88057 0
M  V30 2411 N 230.584 -0.659388 1.43143 0
M  V30 2412 C 231.494 -1.80167 1.50256 0
M  V30 2413 C 232.51 -1.69571 0.390106 0
M  V30 2414 O 233.686 -1.90849 0.643319 0
M  V30 2415 C 230.751 -3.16409 1.41725 0
M  V30 2416 C 229.812 -3.38848 2.63591 0
M  V30 2417 C 229.045 -4.68591 2.55458 0
M  V30 2418 O 229.268 -5.47532 1.59891 0
M  V30 2419 O 228.202 -4.92614 3.45854 0
M  V30 2420 H 232.028 -1.77121 2.46702 0
M  V30 2421 H 229.613 -0.817092 1.25076 0
M  V30 2422 H 231.495 -3.9768 1.39387 0
M  V30 2423 H 230.17 -3.20059 0.484118 0
M  V30 2424 H 229.077 -2.57366 2.71502 0
M  V30 2425 H 230.41 -3.4004 3.55856 0
M  V30 2426 N 232.062 -1.29571 -0.897171 0
M  V30 2427 C 233.308 -1.17863 -1.65034 0
M  V30 2428 C 233.641 0.268729 -1.92332 0
M  V30 2429 O 232.916 1.19378 -1.53555 0
M  V30 2430 C 233.199 -1.995 -2.99786 0
M  V30 2431 C 233.052 -3.5239 -2.79538 0
M  V30 2432 C 234.371 -1.82335 -4.00552 0
M  V30 2433 H 231.49 -0.429528 -0.598895 0
M  V30 2434 H 234.132 -1.59072 -1.03905 0
M  V30 2435 H 232.282 -1.64485 -3.51962 0
M  V30 2436 H 233.954 -3.97401 -2.34244 0
M  V30 2437 H 232.197 -3.77187 -2.14273 0
M  V30 2438 H 232.868 -4.04787 -3.75302 0
M  V30 2439 H 235.344 -2.12924 -3.57495 0
M  V30 2440 H 234.22 -2.41801 -4.92771 0
M  V30 2441 H 234.481 -0.779209 -4.35179 0
M  V30 2442 N 233.54 1.10788 -1.12088 0
M  V30 2443 C 234.49 2.15158 -0.754401 0
M  V30 2444 C 235.474 1.59026 0.244846 0
M  V30 2445 O 236.666 1.76927 0.0509097 0
M  V30 2446 C 233.795 3.42677 -0.206657 0
M  V30 2447 C 232.881 4.05751 -1.23398 0
M  V30 2448 N 233.272 4.43582 -2.43041 0
M  V30 2449 C 231.57 4.32764 -1.07848 0
M  V30 2450 C 232.271 4.93085 -3.08613 0
M  V30 2451 N 231.247 4.89664 -2.36072 0
M  V30 2452 H 235.049 2.42195 -1.6649 0
M  V30 2453 H 232.563 1.27872 -1.00112 0
M  V30 2454 H 234.56 4.16834 0.0740646 0
M  V30 2455 H 233.22 3.17101 0.698342 0
M  V30 2456 H 234.231 4.35395 -2.80449 0
M  V30 2457 H 230.908 4.16863 -0.230483 0
M  V30 2458 H 232.298 5.31933 -4.10483 0
M  V30 2459 N 235.018 0.912232 1.28515 0
M  V30 2460 C 236.258 0.551677 1.96814 0
M  V30 2461 C 236.622 -0.887825 1.7024 0
M  V30 2462 O 237.823 -1.35588 2.32098 0
M  V30 2463 C 236.094 0.850555 3.47132 0
M  V30 2464 S 237.653 0.59619 4.34731 0
M  V30 2465 H 234.471 0.204191 0.681049 0
M  V30 2466 H 237.073 1.17736 1.56072 0
M  V30 2467 H 235.777 1.8962 3.63968 0
M  V30 2468 H 235.308 0.213471 3.9282 0
M  V30 2469 H 237.323 -0.553154 4.93107 0
M  V30 2470 N 236.496 -1.42363 0.676048 0
M  V30 2471 C 237.745 -2.00745 0.196037 0
M  V30 2472 C 238.058 -1.54083 -1.20489 0
M  V30 2473 O 239.264 -2.04891 -1.78134 0
M  V30 2474 C 237.72 -3.58651 0.299616 0
M  V30 2475 C 237.328 -4.143 1.70468 0
M  V30 2476 C 239.072 -4.24326 -0.121619 0
M  V30 2477 C 236.979 -5.64574 1.76096 0
M  V30 2478 H 235.909 -0.750787 0.0695301 0
M  V30 2479 H 238.56 -1.63072 0.841412 0
M  V30 2480 H 236.942 -3.93833 -0.413673 0
M  V30 2481 H 238.116 -3.90575 2.44515 0
M  V30 2482 H 236.431 -3.61081 2.07387 0
M  V30 2483 H 239.028 -5.34607 -0.0997362 0
M  V30 2484 H 239.371 -3.99897 -1.15708 0
M  V30 2485 H 239.904 -3.94108 0.540706 0
M  V30 2486 H 236.643 -5.93804 2.77628 0
M  V30 2487 H 236.163 -5.90286 1.06406 0
M  V30 2488 H 237.842 -6.29013 1.51496 0
M  V30 2489 N 237.974 -0.419461 -1.51915 0
M  V30 2490 C 239.221 0.152939 -2.01922 0
M  V30 2491 C 239.549 1.4426 -1.30458 0
M  V30 2492 O 238.804 1.91514 -0.402593 0
M  V30 2493 C 239.103 0.437067 -3.54717 0
M  V30 2494 C 238.769 -0.764632 -4.44369 0
M  V30 2495 C 237.431 -1.09423 -4.68594 0
M  V30 2496 C 239.783 -1.56713 -4.97082 0
M  V30 2497 C 237.111 -2.22732 -5.42777 0
M  V30 2498 C 239.463 -2.69107 -5.72507 0
M  V30 2499 C 238.127 -3.02541 -5.95 0
M  V30 2500 H 237.397 0.0559644 -0.738884 0
M  V30 2501 H 240.044 -0.562998 -1.83037 0
M  V30 2502 H 238.349 1.23469 -3.71837 0
M  V30 2503 H 240.046 0.893083 -3.90928 0
M  V30 2504 H 236.636 -0.497775 -4.257 0
M  V30 2505 H 240.82 -1.32571 -4.78266 0
M  V30 2506 H 236.076 -2.48971 -5.58411 0
M  V30 2507 H 240.25 -3.31671 -6.12346 0
M  V30 2508 H 237.877 -3.90457 -6.52264 0
M  V30 2509 N 239.452 1.56882 -0.150215 0
M  V30 2510 C 240.677 2.01027 0.510184 0
M  V30 2511 C 241.102 1.02966 1.57415 0
M  V30 2512 O 240.46 0.00590158 1.81299 0
M  V30 2513 C 240.508 3.43899 1.08472 0
M  V30 2514 O 239.612 3.4885 2.19948 0
M  V30 2515 H 238.953 0.652233 0.124451 0
M  V30 2516 H 241.483 2.03093 -0.247894 0
M  V30 2517 H 241.493 3.82766 1.41259 0
M  V30 2518 H 240.168 4.14776 0.305582 0
M  V30 2519 H 238.745 3.21827 1.88366 0
M  V30 2520 N 240.93 -0.123565 1.57115 0
M  V30 2521 C 242.341 -0.681198 1.73829 0
M  V30 2522 C 242.692 -1.80535 0.768214 0
M  V30 2523 O 241.817 -2.16317 -0.0599103 0
M  V30 2524 C 242.412 -1.24246 3.15196 0
M  V30 2525 C 240.971 -1.74643 3.33432 0
M  V30 2526 C 240.118 -0.644284 2.69711 0
M  V30 2527 H 243.069 0.102315 1.5837 0
M  V30 2528 H 243.09 -2.11216 3.16493 0
M  V30 2529 H 242.602 -0.424062 3.85776 0
M  V30 2530 H 240.703 -2.58974 2.67886 0
M  V30 2531 H 240.816 -1.85902 4.41562 0
M  V30 2532 H 239.18 -1.07676 2.3082 0
M  V30 2533 H 239.963 0.163058 3.42913 0
M  V30 2534 N 242.408 -1.52605 -0.393616 0
M  V30 2535 C 243.34 -1.73303 -1.49995 0
M  V30 2536 C 244.353 -0.613473 -1.50799 0
M  V30 2537 O 245.542 -0.889049 -1.54784 0
M  V30 2538 C 242.642 -1.77245 -2.88855 0
M  V30 2539 C 241.815 -3.06483 -3.12069 0
M  V30 2540 C 240.874 -3.02033 -4.30886 0
M  V30 2541 O 239.9 -3.75907 -4.27414 0
M  V30 2542 N 241.102 -2.20897 -5.36828 0
M  V30 2543 H 243.867 -2.68756 -1.32629 0
M  V30 2544 H 241.428 -1.51036 -0.583083 0
M  V30 2545 H 243.42 -1.7178 -3.66434 0
M  V30 2546 H 241.99 -0.891993 -2.99603 0
M  V30 2547 H 241.21 -3.25474 -2.22396 0
M  V30 2548 H 242.498 -3.91947 -3.2443 0
M  V30 2549 H 241.896 -1.60336 -5.42502 0
M  V30 2550 H 240.453 -2.21275 -6.13091 0
M  V30 2551 N 243.887 0.651787 -1.4349 0
M  V30 2552 C 245.136 1.40754 -1.44469 0
M  V30 2553 C 245.449 1.95463 -0.0731845 0
M  V30 2554 O 246.655 2.71471 0.0395721 0
M  V30 2555 C 245.111 2.54735 -2.5424 0
M  V30 2556 C 244.719 2.06628 -3.97504 0
M  V30 2557 C 246.463 3.32092 -2.64414 0
M  V30 2558 C 244.37 3.17829 -4.98737 0
M  V30 2559 H 243.3 0.528862 -0.53742 0
M  V30 2560 H 245.951 0.703365 -1.69485 0
M  V30 2561 H 244.333 3.2763 -2.22428 0
M  V30 2562 H 245.507 1.40734 -4.38783 0
M  V30 2563 H 243.822 1.42146 -3.91387 0
M  V30 2564 H 246.419 4.14952 -3.37223 0
M  V30 2565 H 246.762 3.80217 -1.69532 0
M  V30 2566 H 247.295 2.66279 -2.95534 0
M  V30 2567 H 244.034 2.74671 -5.95177 0
M  V30 2568 H 243.554 3.82429 -4.62069 0
M  V30 2569 H 245.233 3.82937 -5.21505 0
M  V30 2570 N 245.365 1.30045 0.890287 0
M  V30 2571 C 246.275 1.17885 2.02831 0
M  V30 2572 C 247.291 0.0999609 1.73713 0
M  V30 2573 O 248.467 0.313867 1.98939 0
M  V30 2574 C 245.532 0.866079 3.35708 0
M  V30 2575 C 244.593 2.02979 3.78283 0
M  V30 2576 C 243.826 1.73184 5.0482 0
M  V30 2577 O 244.049 0.657237 5.66601 0
M  V30 2578 O 242.983 2.58267 5.43674 0
M  V30 2579 H 246.809 2.13474 2.16015 0
M  V30 2580 H 244.394 1.09587 1.01543 0
M  V30 2581 H 246.276 0.706623 4.15433 0
M  V30 2582 H 244.951 -0.0599443 3.23644 0
M  V30 2583 H 243.858 2.24454 2.99285 0
M  V30 2584 H 245.191 2.93734 3.94944 0
M  V30 2585 N 246.843 -1.10192 1.12674 0
M  V30 2586 C 247.753 -2.20172 0.810026 0
M  V30 2587 C 248.769 -1.72821 -0.202188 0
M  V30 2588 O 249.945 -2.01369 -0.0351691 0
M  V30 2589 C 247.01 -3.45631 0.272007 0
M  V30 2590 C 246.071 -4.07704 1.34447 0
M  V30 2591 C 245.304 -5.27175 0.832029 0
M  V30 2592 O 245.527 -5.69425 -0.333284 0
M  V30 2593 O 244.461 -5.80168 1.60277 0
M  V30 2594 H 248.287 -2.49701 1.72867 0
M  V30 2595 H 245.872 -1.18977 0.903597 0
M  V30 2596 H 247.754 -4.21394 -0.0230219 0
M  V30 2597 H 246.429 -3.17723 -0.619164 0
M  V30 2598 H 245.336 -3.33614 1.6927 0
M  V30 2599 H 246.669 -4.3982 2.2095 0
M  V30 2600 N 248.321 -0.919034 -1.28029 0
M  V30 2601 C 249.732 -0.600735 -1.76771 0
M  V30 2602 C 250.083 0.884024 -1.75156 0
M  V30 2603 O 249.208 1.69163 -1.34956 0
M  V30 2604 C 249.803 -1.08372 -3.21 0
M  V30 2605 C 248.362 -0.816248 -3.67443 0
M  V30 2606 C 247.509 -1.24742 -2.47658 0
M  V30 2607 H 250.46 -1.09974 -1.14418 0
M  V30 2608 H 250.481 -0.427512 -3.78091 0
M  V30 2609 H 249.993 -2.16437 -3.22144 0
M  V30 2610 H 248.094 0.250968 -3.71754 0
M  V30 2611 H 248.207 -1.4277 -4.57333 0
M  V30 2612 H 246.571 -0.666083 -2.45836 0
M  V30 2613 H 247.354 -2.33653 -2.51518 0
M  V30 2614 N 249.799 1.42003 -0.683588 0
M  V30 2615 C 251.024 2.06265 -0.216647 0
M  V30 2616 C 251.449 1.51059 1.12083 0
M  V30 2617 O 250.807 0.632638 1.69904 0
M  V30 2618 C 250.855 3.60191 -0.171759 0
M  V30 2619 O 249.959 4.03396 0.857069 0
M  V30 2620 H 249.3 0.65502 -0.108834 0
M  V30 2621 H 251.83 1.81982 -0.935077 0
M  V30 2622 H 251.84 4.08 0.0014303 0
M  V30 2623 H 250.515 3.99743 -1.14796 0
M  V30 2624 H 249.092 3.67117 0.654208 0
M  V30 2625 N 251.277 0.427512 1.51691 0
M  V30 2626 C 252.209 -0.424521 2.25234 0
M  V30 2627 C 253.222 -0.994671 1.2888 0
M  V30 2628 O 254.411 -0.890483 1.54702 0
M  V30 2629 C 251.511 -1.60479 2.98496 0
M  V30 2630 C 250.684 -1.15527 4.21868 0
M  V30 2631 C 249.743 -2.20454 4.77793 0
M  V30 2632 O 248.769 -1.8029 5.39893 0
M  V30 2633 N 249.971 -3.52831 4.60967 0
M  V30 2634 H 252.736 0.205749 2.98993 0
M  V30 2635 H 250.297 0.255867 1.59865 0
M  V30 2636 H 252.289 -2.30276 3.32799 0
M  V30 2637 H 250.859 -2.14061 2.27809 0
M  V30 2638 H 250.079 -0.284736 3.9317 0
M  V30 2639 H 251.367 -0.832173 5.01949 0
M  V30 2640 H 250.765 -3.88201 4.11481 0
M  V30 2641 H 249.322 -4.18551 4.99658 0
M  V30 2642 N 252.755 -1.56801 0.158532 0
M  V30 2643 C 253.995 -1.98383 -0.49229 0
M  V30 2644 C 254.359 -1.04184 -1.61275 0
M  V30 2645 O 255.56 -1.34856 -2.32524 0
M  V30 2646 C 253.831 -3.4385 -0.974766 0
M  V30 2647 S 255.39 -4.07459 -1.62857 0
M  V30 2648 H 252.208 -0.693041 -0.158794 0
M  V30 2649 H 254.81 -1.93856 0.252974 0
M  V30 2650 H 253.514 -4.10131 -0.148688 0
M  V30 2651 H 253.045 -3.52115 -1.75438 0
M  V30 2652 H 255.06 -4.01458 -2.91627 0
M  V30 2653 N 254.233 0.115231 -1.57178 0
M  V30 2654 C 255.644 0.67197 -1.74188 0
M  V30 2655 C 255.995 1.80125 -0.777777 0
M  V30 2656 O 255.12 2.16346 0.0484376 0
M  V30 2657 C 255.715 1.22573 -3.1585 0
M  V30 2658 C 254.274 1.72872 -3.34353 0
M  V30 2659 C 253.421 0.629972 -2.70049 0
M  V30 2660 H 256.372 -0.110712 -1.58313 0
M  V30 2661 H 256.393 2.09535 -3.17609 0
M  V30 2662 H 255.905 0.403598 -3.85996 0
M  V30 2663 H 254.006 2.5755 -2.69256 0
M  V30 2664 H 254.119 1.83557 -4.42542 0
M  V30 2665 H 252.483 1.0645 -2.31388 0
M  V30 2666 H 253.266 -0.181241 -3.42821 0
M  V30 2667 N 255.711 1.52812 0.385517 0
M  V30 2668 C 256.988 1.5861 1.14465 0
M  V30 2669 C 257.368 0.381402 2.07626 0
M  V30 2670 O 256.716 -0.629999 2.19643 0
M  V30 2671 C 256.926 2.92664 1.90128 0
M  V30 2672 C 258.274 3.46526 2.45367 0
M  V30 2673 O 259.298 2.94562 2.0028 0
M  V30 2674 O 258.157 4.37323 3.27736 0
M  V30 2675 H 255.251 0.639855 0.523941 0
M  V30 2676 H 257.797 1.65149 0.390389 0
M  V30 2677 H 256.569 3.71788 1.22022 0
M  V30 2678 H 256.192 2.89527 2.72507 0
M  V30 2679 N 257.189 -0.644168 1.43834 0
M  V30 2680 C 258.429 -1.41565 1.47441 0
M  V30 2681 C 258.793 -1.91743 0.0992723 0
M  V30 2682 O 259.994 -2.68798 0.0100192 0
M  V30 2683 C 258.265 -2.55902 2.49498 0
M  V30 2684 S 259.824 -3.44287 2.72051 0
M  V30 2685 H 256.642 -0.483118 0.521649 0
M  V30 2686 H 259.244 -0.747008 1.80666 0
M  V30 2687 H 257.948 -2.17327 3.48134 0
M  V30 2688 H 257.479 -3.27607 2.17801 0
M  V30 2689 H 259.494 -4.52927 2.0266 0
M  V30 2690 N 258.668 -1.30515 -0.883378 0
M  V30 2691 C 259.914 -1.19607 -1.63774 0
M  V30 2692 C 260.247 0.248314 -1.92606 0
M  V30 2693 O 259.522 1.17742 -1.54813 0
M  V30 2694 C 259.805 -2.02669 -2.97653 0
M  V30 2695 C 259.658 -3.55335 -2.75784 0
M  V30 2696 C 260.977 -1.86573 -3.98596 0
M  V30 2697 H 258.096 -0.435856 -0.594305 0
M  V30 2698 H 260.738 -1.60165 -1.02212 0
M  V30 2699 H 258.888 -1.68208 -3.50197 0
M  V30 2700 H 260.56 -3.99863 -2.30016 0
M  V30 2701 H 258.803 -3.79438 -2.1026 0
M  V30 2702 H 259.474 -4.08745 -3.70988 0
M  V30 2703 H 261.95 -2.16703 -3.55217 0
M  V30 2704 H 260.826 -2.47014 -4.90179 0
M  V30 2705 H 261.087 -0.825321 -4.34328 0
M  V30 2706 N 260.146 1.09593 -1.13257 0
M  V30 2707 C 261.392 1.82003 -0.89458 0
M  V30 2708 C 261.725 1.85402 0.577906 0
M  V30 2709 O 261 1.32099 1.42759 0
M  V30 2710 C 261.283 3.28237 -1.48096 0
M  V30 2711 C 261.136 3.3312 -3.02244 0
M  V30 2712 C 262.455 4.24871 -1.14774 0
M  V30 2713 H 259.574 0.66077 -0.326424 0
M  V30 2714 H 262.216 1.28389 -1.40058 0
M  V30 2715 H 260.366 3.74024 -1.05062 0
M  V30 2716 H 262.038 2.95748 -3.54021 0
M  V30 2717 H 260.281 2.72756 -3.37323 0
M  V30 2718 H 260.952 4.3613 -3.38371 0
M  V30 2719 H 263.428 3.87361 -1.51957 0
M  V30 2720 H 262.304 5.25532 -1.58452 0
M  V30 2721 H 262.565 4.42058 -0.0611849 0
M  V30 2722 N 261.624 0.925811 1.2754 0
M  V30 2723 C 262.849 0.580924 1.99098 0
M  V30 2724 C 263.274 -0.833555 1.68622 0
M  V30 2725 O 262.632 -1.55903 0.925422 0
M  V30 2726 C 262.68 0.811186 3.51358 0
M  V30 2727 O 261.784 -0.124129 4.12213 0
M  V30 2728 H 261.125 0.223873 0.625122 0
M  V30 2729 H 263.655 1.24455 1.62395 0
M  V30 2730 H 263.665 0.72601 4.01489 0
M  V30 2731 H 262.34 1.84227 3.72872 0
M  V30 2732 H 260.917 0.0108006 3.72898 0
M  V30 2733 N 263.102 -1.41638 0.69111 0
M  V30 2734 C 264.065 -2.29178 0.0319786 0
M  V30 2735 C 265.065 -1.44153 -0.712496 0
M  V30 2736 O 266.255 -1.65354 -0.548053 0
M  V30 2737 C 263.387 -3.26952 -0.965161 0
M  V30 2738 H 264.58 -2.88959 0.802681 0
M  V30 2739 H 262.133 -1.4955 0.454356 0
M  V30 2740 H 262.868 -2.72142 -1.76378 0
M  V30 2741 H 262.653 -3.89685 -0.434522 0
M  V30 2742 H 264.143 -3.92561 -1.42428 0
M  V30 2743 N 264.58 -0.43555 -1.51462 0
M  V30 2744 C 265.51 0.367376 -2.30592 0
M  V30 2745 C 266.491 1.02263 -1.35928 0
M  V30 2746 O 267.676 1.02661 -1.64847 0
M  V30 2747 C 264.806 1.46983 -3.14664 0
M  V30 2748 C 263.76 0.938161 -4.17591 0
M  V30 2749 C 263.086 2.13622 -4.90173 0
M  V30 2750 C 264.386 -0.0261621 -5.22293 0
M  V30 2751 H 266.08 -0.292969 -2.97963 0
M  V30 2752 H 263.626 -0.14234 -1.43295 0
M  V30 2753 H 265.579 2.03873 -3.688 0
M  V30 2754 H 264.303 2.15843 -2.4511 0
M  V30 2755 H 262.962 0.391481 -3.64504 0
M  V30 2756 H 262.61 2.81098 -4.17124 0
M  V30 2757 H 262.31 1.78688 -5.59772 0
M  V30 2758 H 263.834 2.7107 -5.47132 0
M  V30 2759 H 265.248 0.452384 -5.71512 0
M  V30 2760 H 263.645 -0.287992 -5.99409 0
M  V30 2761 H 264.715 -0.963391 -4.75233 0
M  V30 2762 N 266.058 1.56714 -0.166846 0
M  V30 2763 C 267.306 1.96358 0.478305 0
M  V30 2764 C 267.627 1.0537 1.6408 0
M  V30 2765 O 266.897 0.119154 1.95537 0
M  V30 2766 H 265.477 0.725065 0.179692 0
M  V30 2767 H 268.139 1.93329 -0.246985 0
M  V30 2768 H 267.235 3.00547 0.841292 0
M  V30 2769 N 267.536 -0.106894 1.57237 0
M  V30 2770 C 268.499 -1.11466 2.0027 0
M  V30 2771 C 269.499 -1.33623 0.894519 0
M  V30 2772 O 270.689 -1.29935 1.16028 0
M  V30 2773 C 267.821 -2.46646 2.35327 0
M  V30 2774 H 269.014 -0.744516 2.90512 0
M  V30 2775 H 266.567 -0.351576 1.52295 0
M  V30 2776 H 267.302 -2.88558 1.48003 0
M  V30 2777 H 267.087 -2.31915 3.16161 0
M  V30 2778 H 268.577 -3.19151 2.69318 0
M  V30 2779 N 269.014 -1.53014 -0.377408 0
M  V30 2780 C 269.961 -1.78616 -1.46168 0
M  V30 2781 C 270.931 -0.629917 -1.53692 0
M  V30 2782 O 272.116 -0.870861 -1.69766 0
M  V30 2783 C 269.256 -1.97123 -2.8326 0
M  V30 2784 C 268.369 -3.24831 -2.84796 0
M  V30 2785 C 267.504 -3.33591 -4.13389 0
M  V30 2786 C 266.543 -4.55377 -4.09021 0
M  V30 2787 N 265.68 -4.61355 -5.29241 0
M  V30 2788 H 270.52 -2.71142 -1.23637 0
M  V30 2789 H 268.057 -1.34326 -0.599577 0
M  V30 2790 H 270.015 -2.05839 -3.62886 0
M  V30 2791 H 268.645 -1.07946 -3.04216 0
M  V30 2792 H 267.697 -3.25128 -1.97474 0
M  V30 2793 H 269.009 -4.14523 -2.77439 0
M  V30 2794 H 268.163 -3.41554 -5.01424 0
M  V30 2795 H 266.902 -2.41894 -4.23484 0
M  V30 2796 H 265.907 -4.47527 -3.19373 0
M  V30 2797 H 267.132 -5.48402 -4.00539 0
M  V30 2798 H 265.078 -3.72554 -5.39944 0
M  V30 2799 H 264.995 -5.44935 -5.24006 0
M  V30 2800 H 266.263 -4.73586 -6.19141 0
M  V30 2801 N 270.492 0.636531 -1.44174 0
M  V30 2802 C 271.738 1.39826 -1.4689 0
M  V30 2803 C 272.071 1.93947 -0.0990585 0
M  V30 2804 O 271.346 1.73325 0.882544 0
M  V30 2805 C 271.629 2.56751 -2.5249 0
M  V30 2806 C 271.482 2.08014 -3.98811 0
M  V30 2807 C 272.801 3.58946 -2.54649 0
M  V30 2808 H 269.92 0.507075 -0.53483 0
M  V30 2809 H 272.562 0.720188 -1.75822 0
M  V30 2810 H 270.712 3.14597 -2.2795 0
M  V30 2811 H 272.384 1.5504 -4.34466 0
M  V30 2812 H 270.627 1.39242 -4.10846 0
M  V30 2813 H 271.298 2.92169 -4.68339 0
M  V30 2814 H 273.774 3.1089 -2.76563 0
M  V30 2815 H 272.65 4.38286 -3.3045 0
M  V30 2816 H 272.911 4.12655 -1.58646 0
M  V30 2817 N 271.97 1.30982 0.876444 0
M  V30 2818 C 272.9 1.20668 1.99903 0
M  V30 2819 C 273.881 0.095354 1.69833 0
M  V30 2820 O 275.066 0.27885 1.92188 0
M  V30 2821 C 272.196 0.90655 3.3526 0
M  V30 2822 C 271.15 1.97675 3.79617 0
M  V30 2823 C 270.476 1.52943 5.1236 0
M  V30 2824 C 271.776 3.389 3.97422 0
M  V30 2825 H 273.47 2.14586 2.0879 0
M  V30 2826 H 271.016 1.03308 1.00317 0
M  V30 2827 H 272.969 0.821025 4.13324 0
M  V30 2828 H 271.693 -0.0682969 3.26529 0
M  V30 2829 H 270.352 2.05205 3.03787 0
M  V30 2830 H 270 0.54262 5.00065 0
M  V30 2831 H 269.7 2.24532 5.43009 0
M  V30 2832 H 271.224 1.45786 5.92941 0
M  V30 2833 H 272.638 3.34081 4.659 0
M  V30 2834 H 271.035 4.0865 4.3946 0
M  V30 2835 H 272.105 3.80163 3.01006 0
M  V30 2836 N 273.449 -1.08991 1.13837 0
M  V30 2837 C 274.674 -1.85551 0.926585 0
M  V30 2838 C 275.099 -1.80782 -0.519566 0
M  V30 2839 O 274.457 -1.18855 -1.36906 0
M  V30 2840 C 274.505 -3.31266 1.42462 0
M  V30 2841 O 273.609 -4.07822 0.612789 0
M  V30 2842 H 272.95 -0.575192 0.331738 0
M  V30 2843 H 275.48 -1.37604 1.51414 0
M  V30 2844 H 275.49 -3.82112 1.43019 0
M  V30 2845 H 274.165 -3.34052 2.47754 0
M  V30 2846 H 272.742 -3.66731 0.675463 0
M  V30 2847 N 274.927 -0.932562 -1.27047 0
M  V30 2848 C 276.152 -0.591474 -1.98787 0
M  V30 2849 C 276.577 0.824601 -1.69062 0
M  V30 2850 O 275.935 1.5541 -0.933677 0
M  V30 2851 C 275.983 -0.829808 -3.50922 0
M  V30 2852 O 275.087 0.102266 -4.12273 0
M  V30 2853 H 274.428 -0.227185 -0.623926 0
M  V30 2854 H 276.958 -1.25314 -1.61733 0
M  V30 2855 H 276.968 -0.747292 -4.01098 0
M  V30 2856 H 275.643 -1.86201 -3.7189 0
M  V30 2857 H 274.22 -0.0305761 -3.72887 0
M  V30 2858 N 276.405 1.4127 -0.698611 0
M  V30 2859 C 277.651 2.01478 -0.231207 0
M  V30 2860 C 277.984 1.55215 1.16713 0
M  V30 2861 O 277.259 0.764672 1.78838 0
M  V30 2862 C 277.542 3.58912 -0.292281 0
M  V30 2863 C 277.395 4.15293 -1.72778 0
M  V30 2864 C 278.714 4.38736 0.346194 0
M  V30 2865 H 275.833 0.732025 -0.0854878 0
M  V30 2866 H 278.475 1.67977 -0.887906 0
M  V30 2867 H 276.625 3.87582 0.26686 0
M  V30 2868 H 278.297 3.97486 -2.341 0
M  V30 2869 H 276.54 3.7022 -2.26096 0
M  V30 2870 H 277.211 5.24452 -1.72202 0
M  V30 2871 H 279.687 4.15897 -0.130035 0
M  V30 2872 H 278.563 5.48221 0.272932 0
M  V30 2873 H 278.824 4.18425 1.42734 0
M  V30 2874 N 277.883 0.443576 1.51229 0
M  V30 2875 C 278.83 -0.364716 2.279 0
M  V30 2876 C 279.8 -1.0114 1.31757 0
M  V30 2877 O 280.985 -1.02912 1.60667 0
M  V30 2878 C 278.125 -1.45644 3.12861 0
M  V30 2879 C 277.238 -0.827269 4.24005 0
M  V30 2880 C 276.373 -1.89456 4.96266 0
M  V30 2881 C 275.412 -1.24416 5.99322 0
M  V30 2882 N 274.549 -2.25309 6.64966 0
M  V30 2883 H 279.389 0.295464 2.96532 0
M  V30 2884 H 276.926 0.157554 1.46254 0
M  V30 2885 H 278.884 -2.10076 3.6045 0
M  V30 2886 H 277.514 -2.08616 2.46331 0
M  V30 2887 H 276.566 -0.0710839 3.80334 0
M  V30 2888 H 277.878 -0.312481 4.9782 0
M  V30 2889 H 277.032 -2.61535 5.47434 0
M  V30 2890 H 275.771 -2.4431 4.22095 0
M  V30 2891 H 274.776 -0.508868 5.4744 0
M  V30 2892 H 276.001 -0.702882 6.75453 0
M  V30 2893 H 273.947 -2.79231 5.93604 0
M  V30 2894 H 273.864 -1.78739 7.34567 0
M  V30 2895 H 275.132 -2.96853 7.20763 0
M  V30 2896 N 279.361 -1.56624 0.175154 0
M  V30 2897 C 280.638 -1.88688 -0.515373 0
M  V30 2898 C 281.018 -1.08564 -1.81044 0
M  V30 2899 O 280.366 -0.180703 -2.27784 0
M  V30 2900 C 280.576 -3.40768 -0.753552 0
M  V30 2901 C 281.924 -4.10587 -1.08184 0
M  V30 2902 O 282.948 -3.46106 -0.841961 0
M  V30 2903 O 281.807 -5.24512 -1.53459 0
M  V30 2904 H 278.901 -0.78301 -0.26613 0
M  V30 2905 H 281.447 -1.68347 0.213877 0
M  V30 2906 H 280.219 -3.90965 0.161829 0
M  V30 2907 H 279.842 -3.66733 -1.53598 0
M  V30 2908 N 280.839 0.0985539 -1.57292 0
M  V30 2909 C 282.255 0.45267 -1.53046 0
M  V30 2910 C 282.455 1.80713 -0.891342 0
M  V30 2911 O 281.511 2.4785 -0.482375 0
M  V30 2912 C 282.824 0.418341 -2.97776 0
M  V30 2913 C 284.372 0.500443 -3.08973 0
M  V30 2914 C 284.847 0.496297 -4.55303 0
M  V30 2915 N 286.338 0.557151 -4.59837 0
M  V30 2916 C 287.073 0.575726 -5.70502 0
M  V30 2917 N 286.569 0.550714 -6.90608 0
M  V30 2918 N 288.362 0.620277 -5.58667 0
M  V30 2919 H 280.513 -0.788673 -1.97215 0
M  V30 2920 H 282.776 -0.293188 -0.901524 0
M  V30 2921 H 282.482 -0.509659 -3.47988 0
M  V30 2922 H 282.356 1.2386 -3.56284 0
M  V30 2923 H 284.743 1.41886 -2.58751 0
M  V30 2924 H 284.824 -0.347894 -2.53423 0
M  V30 2925 H 284.468 -0.418162 -5.06176 0
M  V30 2926 H 284.398 1.3618 -5.08687 0
M  V30 2927 H 286.889 0.581816 -3.73394 0
M  V30 2928 H 287.202 0.568075 -7.70709 0
M  V30 2929 H 285.547 0.517816 -6.93068 0
M  V30 2930 H 288.738 0.637322 -4.63741 0
M  V30 2931 H 288.911 0.631283 -6.44918 0
M  V30 2932 N 282.317 1.53212 0.369288 0
M  V30 2933 C 283.564 1.69215 1.11232 0
M  V30 2934 C 283.892 0.442048 1.8941 0
M  V30 2935 O 283.147 -0.575944 1.87033 0
M  V30 2936 C 283.446 2.89101 2.10132 0
M  V30 2937 C 283.112 4.25758 1.48463 0
M  V30 2938 C 281.774 4.6292 1.31372 0
M  V30 2939 C 284.126 5.10757 1.03811 0
M  V30 2940 C 281.454 5.82722 0.68207 0
M  V30 2941 C 283.806 6.31201 0.420487 0
M  V30 2942 C 282.47 6.67079 0.237038 0
M  V30 2943 H 281.74 0.619201 0.407027 0
M  V30 2944 H 284.387 1.87391 0.394552 0
M  V30 2945 H 282.692 2.65421 2.88199 0
M  V30 2946 H 284.389 2.98676 2.6757 0
M  V30 2947 H 280.979 3.96494 1.62758 0
M  V30 2948 H 285.163 4.82599 1.1581 0
M  V30 2949 H 280.419 6.09113 0.528316 0
M  V30 2950 H 284.593 6.96368 0.0662874 0
M  V30 2951 H 282.22 7.59774 -0.254477 0
M  V30 2952 N 283.795 -0.628877 1.44509 0
M  V30 2953 C 285.044 -1.38437 1.4669 0
M  V30 2954 C 285.357 -1.95322 0.104272 0
M  V30 2955 O 286.563 -2.715 0.00362163 0
M  V30 2956 C 285.019 -2.50659 2.5826 0
M  V30 2957 C 284.627 -2.00277 4.0074 0
M  V30 2958 C 286.371 -3.27844 2.69664 0
M  V30 2959 C 284.278 -3.09854 5.0373 0
M  V30 2960 H 283.208 -0.520245 0.545766 0
M  V30 2961 H 285.859 -0.676313 1.70582 0
M  V30 2962 H 284.241 -3.2405 2.27612 0
M  V30 2963 H 285.415 -1.33736 4.40966 0
M  V30 2964 H 283.73 -1.35901 3.93599 0
M  V30 2965 H 286.327 -4.09534 3.43781 0
M  V30 2966 H 286.67 -3.77471 1.75559 0
M  V30 2967 H 287.203 -2.61543 2.99733 0
M  V30 2968 H 283.942 -2.65168 5.99472 0
M  V30 2969 H 283.462 -3.7503 4.68095 0
M  V30 2970 H 285.141 -3.74592 5.27532 0
M  V30 2971 N 285.273 -1.31445 -0.869486 0
M  V30 2972 C 286.221 -1.19067 -1.99814 0
M  V30 2973 C 287.215 -0.0988569 -1.69111 0
M  V30 2974 O 288.421 -0.260781 -1.78101 0
M  V30 2975 H 284.796 -0.368677 -0.655425 0
M  V30 2976 H 286.767 -2.14555 -2.07385 0
M  V30 2977 C 285.516 -0.915323 -3.35436 0
M  V30 2978 H 284.839 -1.74759 -3.59582 0
M  V30 2979 H 286.279 -0.868895 -4.15001 0
M  V30 2980 C 284.738 0.381928 -3.34728 0
M  V30 2981 O 285.268 1.39857 -3.76567 0
M  V30 2982 N 283.474 0.398633 -2.87853 0
M  V30 2983 H 283.021 -0.429186 -2.54 0
M  V30 2984 H 282.979 1.26651 -2.87762 0
M  V30 2985 N 286.751 1.08385 -1.14413 0
M  V30 2986 C 287.998 1.80776 -0.912482 0
M  V30 2987 C 288.326 1.86236 0.560934 0
M  V30 2988 O 287.581 1.33431 1.43159 0
M  V30 2989 C 287.88 3.26273 -1.45879 0
M  V30 2990 C 287.546 3.4093 -2.95089 0
M  V30 2991 C 286.208 3.44638 -3.35824 0
M  V30 2992 C 288.56 3.44591 -3.91033 0
M  V30 2993 C 285.888 3.49597 -4.71167 0
M  V30 2994 C 288.24 3.51086 -5.26233 0
M  V30 2995 C 286.904 3.53067 -5.6648 0
M  V30 2996 H 286.174 0.661507 -0.333901 0
M  V30 2997 H 288.821 1.27613 -1.42784 0
M  V30 2998 H 287.126 3.82146 -0.864376 0
M  V30 2999 H 288.823 3.80839 -1.2555 0
M  V30 3000 H 285.413 3.38736 -2.62594 0
M  V30 3001 H 289.597 3.40957 -3.60641 0
M  V30 3002 H 284.853 3.49424 -5.0171 0
M  V30 3003 H 289.027 3.52864 -6.00383 0
M  V30 3004 H 286.654 3.56662 -6.71339 0
M  V30 3005 N 288.23 0.939286 1.26551 0
M  V30 3006 C 289.477 0.585847 1.9384 0
M  V30 3007 C 289.805 -0.874784 1.73718 0
M  V30 3008 O 289.06 -1.64092 1.06642 0
M  V30 3009 C 289.359 0.872106 3.46596 0
M  V30 3010 C 289.025 2.31632 3.86856 0
M  V30 3011 C 287.687 2.71111 3.97558 0
M  V30 3012 C 290.039 3.25494 4.07066 0
M  V30 3013 C 287.367 4.03553 4.25866 0
M  V30 3014 C 289.719 4.57531 4.36862 0
M  V30 3015 C 288.383 4.96828 4.45778 0
M  V30 3016 H 287.653 0.214377 0.709312 0
M  V30 3017 H 290.3 1.18544 1.50398 0
M  V30 3018 H 288.605 0.18996 3.91339 0
M  V30 3019 H 290.302 0.577442 3.96821 0
M  V30 3020 H 286.892 2.00008 3.79071 0
M  V30 3021 H 291.076 2.9619 3.98227 0
M  V30 3022 H 286.332 4.33665 4.30981 0
M  V30 3023 H 290.506 5.30254 4.51446 0
M  V30 3024 H 288.133 5.99482 4.67468 0
M  V30 3025 N 289.708 -1.40897 0.706093 0
M  V30 3026 C 290.954 -2.01352 0.241889 0
M  V30 3027 C 291.287 -1.55832 -1.15888 0
M  V30 3028 O 290.562 -0.774145 -1.7843 0
M  V30 3029 C 290.845 -3.58752 0.311311 0
M  V30 3030 C 290.698 -4.1437 1.74978 0
M  V30 3031 C 292.017 -4.38914 -0.322922 0
M  V30 3032 H 289.136 -0.731562 0.0893687 0
M  V30 3033 H 291.778 -1.67504 0.896802 0
M  V30 3034 H 289.928 -3.87718 -0.246302 0
M  V30 3035 H 291.6 -3.96239 2.36205 0
M  V30 3036 H 289.843 -3.69016 2.28057 0
M  V30 3037 H 290.514 -5.23532 1.74981 0
M  V30 3038 H 292.99 -4.15822 0.152089 0
M  V30 3039 H 291.866 -5.48358 -0.243855 0
M  V30 3040 H 292.127 -4.19176 -1.40513 0
M  V30 3041 N 291.186 -0.45159 -1.50991 0
M  V30 3042 C 292.434 0.109857 -2.01801 0
M  V30 3043 C 292.755 1.41958 -1.3369 0
M  V30 3044 O 292.025 1.9003 -0.475951 0
M  V30 3045 H 290.605 0.0435884 -0.745727 0
M  V30 3046 H 293.267 -0.597557 -1.85514 0
M  V30 3047 H 292.363 0.275489 -3.10882 0
M  V30 3048 N 292.664 1.56529 -0.183458 0
M  V30 3049 C 293.612 2.19873 0.758845 0
M  V30 3050 C 294.606 1.16638 1.22849 0
M  V30 3051 O 295.812 1.3481 1.19274 0
M  V30 3052 H 292.187 0.7045 0.263029 0
M  V30 3053 H 294.158 2.97724 0.200755 0
M  V30 3054 C 292.907 2.86314 1.9728 0
M  V30 3055 H 292.23 3.65487 1.62047 0
M  V30 3056 H 293.67 3.3409 2.61075 0
M  V30 3057 C 292.129 1.86729 2.80418 0
M  V30 3058 O 292.659 1.36031 3.77966 0
M  V30 3059 N 290.865 1.55216 2.45675 0
M  V30 3060 H 290.412 1.96636 1.66409 0
M  V30 3061 H 290.37 0.888388 3.01588 0
M  V30 3062 N 294.142 -0.090211 1.57342 0
M  V30 3063 C 295.37 -0.806224 1.90546 0
M  V30 3064 C 295.785 -1.72041 0.777644 0
M  V30 3065 O 295.142 -1.80778 -0.250103 0
M  V30 3066 C 295.193 -1.61546 3.23396 0
M  V30 3067 O 294.914 -0.738043 4.31839 0
M  V30 3068 C 296.415 -2.4341 3.70495 0
M  V30 3069 H 293.635 -0.230256 0.630257 0
M  V30 3070 H 296.179 -0.0659843 2.04394 0
M  V30 3071 H 294.334 -2.30816 3.11131 0
M  V30 3072 H 294.748 -1.29901 5.08159 0
M  V30 3073 H 296.222 -2.95676 4.66133 0
M  V30 3074 H 296.699 -3.22098 2.98579 0
M  V30 3075 H 297.305 -1.79331 3.85643 0
M  V30 3076 N 295.62 -1.53406 -0.361157 0
M  V30 3077 C 296.869 -1.69022 -1.10066 0
M  V30 3078 C 297.182 -0.450838 -1.90333 0
M  V30 3079 O 298.388 -0.487617 -2.67085 0
M  V30 3080 C 296.844 -2.98812 -2.00598 0
M  V30 3081 C 296.452 -4.30027 -1.25621 0
M  V30 3082 C 298.196 -3.23795 -2.74513 0
M  V30 3083 C 296.103 -5.50903 -2.1508 0
M  V30 3084 H 295.033 -0.629776 -0.414606 0
M  V30 3085 H 297.684 -1.79907 -0.361348 0
M  V30 3086 H 296.066 -2.8174 -2.78278 0
M  V30 3087 H 297.24 -4.57745 -0.529739 0
M  V30 3088 H 295.555 -4.11522 -0.635496 0
M  V30 3089 H 298.152 -4.11289 -3.41681 0
M  V30 3090 H 298.495 -2.40045 -3.40123 0
M  V30 3091 H 299.028 -3.41561 -2.03914 0
M  V30 3092 H 295.767 -6.37143 -1.54041 0
M  V30 3093 H 295.287 -5.27459 -2.85565 0
M  V30 3094 H 296.966 -5.85865 -2.74538 0
M  V30 3095 N 297.098 0.621204 -1.44841 0
M  V30 3096 C 298.046 1.75385 -1.52784 0
M  V30 3097 C 299.04 1.64639 -0.398779 0
M  V30 3098 O 300.246 1.70598 -0.574137 0
M  V30 3099 H 296.621 0.579193 -0.479625 0
M  V30 3100 H 298.592 1.6581 -2.48092 0
M  V30 3101 C 297.341 3.13742 -1.4987 0
M  V30 3102 H 296.664 3.22663 -2.36069 0
M  V30 3103 H 298.104 3.92861 -1.59487 0
M  V30 3104 C 296.563 3.36175 -0.220973 0
M  V30 3105 O 297.093 3.95469 0.704782 0
M  V30 3106 N 295.299 2.90348 -0.120963 0
M  V30 3107 H 294.846 2.42278 -0.875162 0
M  V30 3108 H 294.804 3.05732 0.733168 0
M  V30 3109 N 298.576 1.31904 0.862503 0
M  V30 3110 C 299.801 1.25135 1.65397 0
M  V30 3111 C 300.226 -0.179 1.87246 0
M  V30 3112 O 299.584 -1.1277 1.4196 0
M  V30 3113 C 299.632 2.00832 2.99498 0
M  V30 3114 O 298.736 1.35075 3.89652 0
M  V30 3115 H 298.077 0.431655 0.504549 0
M  V30 3116 H 300.607 1.74094 1.07483 0
M  V30 3117 H 300.617 2.10709 3.49379 0
M  V30 3118 H 299.292 3.04847 2.82916 0
M  V30 3119 H 297.869 1.33696 3.48109 0
M  V30 3120 N 300.054 -1.07777 1.14986 0
M  V30 3121 C 301.279 -1.84558 0.946213 0
M  V30 3122 C 301.704 -1.81323 -0.500362 0
M  V30 3123 O 301.062 -1.20301 -1.35637 0
M  V30 3124 C 301.11 -3.29736 1.45968 0
M  V30 3125 O 300.214 -4.07149 0.65601 0
M  V30 3126 H 299.555 -0.571641 0.33782 0
M  V30 3127 H 302.085 -1.35991 1.52865 0
M  V30 3128 H 302.095 -3.80574 1.47063 0
M  V30 3129 H 300.77 -3.31406 2.51283 0
M  V30 3130 H 299.347 -3.65994 0.714322 0
M  V30 3131 N 301.532 -0.945985 -1.26051 0
M  V30 3132 C 302.762 -0.612136 -1.97323 0
M  V30 3133 C 303.17 0.818171 -1.70595 0
M  V30 3134 O 302.513 1.55777 -0.973613 0
M  V30 3135 C 302.575 -0.780347 -3.50929 0
M  V30 3136 C 302.239 -2.18619 -4.01317 0
M  V30 3137 C 303.236 -3.16209 -4.12683 0
M  V30 3138 C 300.921 -2.50805 -4.35203 0
M  V30 3139 C 302.915 -4.44085 -4.57238 0
M  V30 3140 C 300.602 -3.78912 -4.79446 0
M  V30 3141 C 301.6 -4.75365 -4.90425 0
M  V30 3142 O 301.288 -6.01191 -5.3369 0
M  V30 3143 H 301.02 -0.229134 -0.635982 0
M  V30 3144 H 303.574 -1.27036 -1.61404 0
M  V30 3145 H 301.804 -0.0649864 -3.86645 0
M  V30 3146 H 303.493 -0.448842 -4.03411 0
M  V30 3147 H 304.259 -2.92668 -3.86744 0
M  V30 3148 H 300.138 -1.76463 -4.2589 0
M  V30 3149 H 303.682 -5.19373 -4.65723 0
M  V30 3150 H 299.579 -4.02265 -5.0483 0
M  V30 3151 H 300.347 -6.04442 -5.51899 0
M  V30 3152 N 303.011 1.40521 -0.713556 0
M  V30 3153 C 304.258 2.00923 -0.25219 0
M  V30 3154 C 304.586 1.56571 1.15395 0
M  V30 3155 O 303.841 0.775874 1.79663 0
M  V30 3156 C 304.14 3.56317 -0.278 0
M  V30 3157 C 303.806 4.20246 -1.63415 0
M  V30 3158 C 302.468 4.37422 -2.00538 0
M  V30 3159 C 304.82 4.55923 -2.52554 0
M  V30 3160 C 302.148 4.87558 -3.2635 0
M  V30 3161 C 304.5 5.07458 -3.77716 0
M  V30 3162 C 303.164 5.22843 -4.14959 0
M  V30 3163 H 302.434 0.735231 -0.0922829 0
M  V30 3164 H 305.081 1.68161 -0.916188 0
M  V30 3165 H 303.386 3.88976 0.469567 0
M  V30 3166 H 305.083 4.00883 0.0967819 0
M  V30 3167 H 301.673 4.07263 -1.33546 0
M  V30 3168 H 305.857 4.42291 -2.25149 0
M  V30 3169 H 301.113 4.97654 -3.55176 0
M  V30 3170 H 305.287 5.34041 -4.4696 0
M  V30 3171 H 302.914 5.61454 -5.12516 0
M  V30 3172 N 304.489 0.459591 1.5075 0
M  V30 3173 C 305.9 0.00171547 1.867 0
M  V30 3174 C 306.251 -1.39934 1.37525 0
M  V30 3175 O 305.376 -2.03523 0.735349 0
M  V30 3176 C 305.971 -0.00366298 3.388 0
M  V30 3177 C 304.53 -0.406026 3.74204 0
M  V30 3178 C 303.677 0.38673 2.7459 0
M  V30 3179 H 306.628 0.674413 1.43657 0
M  V30 3180 H 306.649 -0.808371 3.71814 0
M  V30 3181 H 306.161 1.01617 3.74561 0
M  V30 3182 H 304.262 -1.43063 3.4404 0
M  V30 3183 H 304.375 -0.115362 4.78961 0
M  V30 3184 H 302.739 -0.158019 2.54209 0
M  V30 3185 H 303.522 1.40585 3.13194 0
M  V30 3186 N 305.967 -1.56429 0.191757 0
M  V30 3187 C 307.244 -1.89224 -0.495332 0
M  V30 3188 C 307.624 -1.10478 -1.79883 0
M  V30 3189 O 306.972 -0.204852 -2.2758 0
M  V30 3190 C 307.182 -3.41548 -0.717367 0
M  V30 3191 C 308.53 -4.11711 -1.03823 0
M  V30 3192 O 309.554 -3.4698 -0.805204 0
M  V30 3193 O 308.413 -5.2611 -1.47887 0
M  V30 3194 H 305.507 -0.785788 -0.25781 0
M  V30 3195 H 308.053 -1.68111 0.231721 0
M  V30 3196 H 306.825 -3.90772 0.203287 0
M  V30 3197 H 306.448 -3.68342 -1.497 0
M  V30 3198 N 307.445 0.0818655 -1.57387 0
M  V30 3199 C 308.395 1.10501 -1.99433 0
M  V30 3200 C 309.379 1.35041 -0.874798 0
M  V30 3201 O 310.571 1.35511 -1.13868 0
M  V30 3202 C 307.7 2.42159 -2.43339 0
M  V30 3203 C 306.786 2.20937 -3.62005 0
M  V30 3204 N 307.177 1.69616 -4.76512 0
M  V30 3205 C 305.475 2.51451 -3.68359 0
M  V30 3206 C 306.176 1.62973 -5.58404 0
M  V30 3207 N 305.152 2.08664 -5.01956 0
M  V30 3208 H 308.954 0.701373 -2.85408 0
M  V30 3209 H 306.468 0.289096 -1.59806 0
M  V30 3210 H 308.465 3.16208 -2.71695 0
M  V30 3211 H 307.125 2.83249 -1.58746 0
M  V30 3212 H 308.136 1.38624 -4.99003 0
M  V30 3213 H 304.813 2.95975 -2.94457 0
M  V30 3214 H 306.203 1.24233 -6.60315 0
M  V30 3215 N 308.923 1.53595 0.353017 0
M  V30 3216 C 310.334 1.61937 0.929153 0
M  V30 3217 C 310.685 0.494686 1.89861 0
M  V30 3218 O 309.81 -0.377017 2.1309 0
M  V30 3219 C 310.405 2.93526 1.69199 0
M  V30 3220 C 308.964 3.04161 2.21727 0
M  V30 3221 C 308.111 2.57322 1.03348 0
M  V30 3222 H 311.062 1.58155 0.131431 0
M  V30 3223 H 311.083 2.82034 2.55416 0
M  V30 3224 H 310.595 3.75362 0.986144 0
M  V30 3225 H 308.696 2.26938 2.95516 0
M  V30 3226 H 308.809 4.09465 2.48748 0
M  V30 3227 H 307.173 2.12499 1.40414 0
M  V30 3228 H 307.956 3.41588 0.342428 0
M  V30 3229 N 310.401 -0.613514 1.45168 0
M  V30 3230 C 311.331 -1.7354 1.56225 0
M  V30 3231 C 312.312 -1.64981 0.41414 0
M  V30 3232 O 313.497 -1.83472 0.636526 0
M  V30 3233 C 310.627 -3.12128 1.52295 0
M  V30 3234 C 309.581 -3.35491 2.65762 0
M  V30 3235 C 308.907 -4.74291 2.46885 0
M  V30 3236 C 310.207 -3.26325 4.0781 0
M  V30 3237 H 311.901 -1.64543 2.50132 0
M  V30 3238 H 309.447 -0.790185 1.20383 0
M  V30 3239 H 311.4 -3.90404 1.58628 0
M  V30 3240 H 310.124 -3.2195 0.549139 0
M  V30 3241 H 308.783 -2.59603 2.58847 0
M  V30 3242 H 308.431 -4.80839 1.47657 0
M  V30 3243 H 308.131 -4.9088 3.22972 0
M  V30 3244 H 309.655 -5.54775 2.55063 0
M  V30 3245 H 311.069 -3.94483 4.16 0
M  V30 3246 H 309.466 -3.54445 4.8424 0
M  V30 3247 H 310.536 -2.23855 4.30136 0
M  V30 3248 N 311.879 -1.3236 -0.855495 0
M  V30 3249 C 312.829 -1.17809 -1.95205 0
M  V30 3250 C 313.813 -0.0852319 -1.60674 0
M  V30 3251 O 315.005 -0.311651 -1.74235 0
M  V30 3252 C 312.134 -0.902437 -3.31226 0
M  V30 3253 C 311.22 -2.03695 -3.7198 0
M  V30 3254 N 311.611 -3.28544 -3.84568 0
M  V30 3255 C 309.909 -1.93993 -4.016 0
M  V30 3256 C 310.61 -4.02847 -4.19629 0
M  V30 3257 N 309.586 -3.31138 -4.31102 0
M  V30 3258 H 313.388 -2.12462 -2.0307 0
M  V30 3259 H 310.902 -1.24127 -1.0472 0
M  V30 3260 H 312.899 -0.77915 -4.09554 0
M  V30 3261 H 311.559 0.0357267 -3.2468 0
M  V30 3262 H 312.57 -3.6349 -3.68911 0
M  V30 3263 H 309.247 -1.07733 -4.03361 0
M  V30 3264 H 310.637 -5.10506 -4.36845 0
M  V30 3265 N 313.357 1.07166 -1.15556 0
M  V30 3266 C 314.582 1.84053 -0.955988 0
M  V30 3267 C 315.007 1.81586 0.490739 0
M  V30 3268 O 314.365 1.21018 1.34997 0
M  V30 3269 C 314.413 3.28957 -1.47714 0
M  V30 3270 O 313.517 4.06795 -0.677593 0
M  V30 3271 H 312.858 0.569842 -0.340847 0
M  V30 3272 H 315.388 1.35178 -1.53584 0
M  V30 3273 H 315.398 3.79788 -1.4908 0
M  V30 3274 H 314.073 3.30068 -2.53037 0
M  V30 3275 H 312.65 3.6561 -0.733721 0
M  V30 3276 N 314.835 0.952656 1.25548 0
M  V30 3277 C 316.084 0.602053 1.92505 0
M  V30 3278 C 316.397 -0.864663 1.75451 0
M  V30 3279 O 317.603 -1.32514 2.36965 0
M  V30 3280 C 316.059 1.02607 3.44963 0
M  V30 3281 C 315.667 2.51519 3.70732 0
M  V30 3282 C 317.411 0.747905 4.1786 0
M  V30 3283 C 315.318 2.87732 5.16686 0
M  V30 3284 H 314.248 0.22146 0.720744 0
M  V30 3285 H 316.899 1.15684 1.42441 0
M  V30 3286 H 315.281 0.399712 3.93978 0
M  V30 3287 H 316.455 3.19157 3.32378 0
M  V30 3288 H 314.77 2.76786 3.11092 0
M  V30 3289 H 317.367 0.994647 5.25367 0
M  V30 3290 H 317.71 -0.315629 4.15102 0
M  V30 3291 H 318.243 1.33452 3.74747 0
M  V30 3292 H 314.982 3.93095 5.24554 0
M  V30 3293 H 314.502 2.24765 5.56094 0
M  V30 3294 H 316.181 2.76817 5.84792 0
M  V30 3295 N 316.313 -1.40141 0.720998 0
M  V30 3296 C 317.538 -2.05618 0.271258 0
M  V30 3297 C 317.963 -1.53978 -1.08039 0
M  V30 3298 O 317.321 -0.677463 -1.68167 0
M  V30 3299 C 317.369 -3.59609 0.267197 0
M  V30 3300 O 316.473 -4.05526 -0.749814 0
M  V30 3301 H 315.814 -0.651904 0.126162 0
M  V30 3302 H 318.344 -1.79439 0.982997 0
M  V30 3303 H 318.354 -4.0786 0.106744 0
M  V30 3304 H 317.029 -3.96559 1.25354 0
M  V30 3305 H 315.606 -3.68722 -0.556644 0
M  V30 3306 N 317.792 -0.46758 -1.50504 0
M  V30 3307 C 319.038 0.0887532 -2.02606 0
M  V30 3308 C 319.371 1.39686 -1.34913 0
M  V30 3309 O 318.646 1.88644 -0.473694 0
M  V30 3310 C 318.929 0.276206 -3.59039 0
M  V30 3311 C 318.782 -1.05267 -4.37309 0
M  V30 3312 C 320.101 1.03235 -4.27821 0
M  V30 3313 H 317.22 0.0307814 -0.736357 0
M  V30 3314 H 319.862 -0.612485 -1.79857 0
M  V30 3315 H 318.012 0.8735 -3.78553 0
M  V30 3316 H 319.684 -1.68628 -4.29374 0
M  V30 3317 H 317.927 -1.65015 -4.01189 0
M  V30 3318 H 318.598 -0.875197 -5.45018 0
M  V30 3319 H 321.074 0.526111 -4.12761 0
M  V30 3320 H 319.95 1.1323 -5.37094 0
M  V30 3321 H 320.211 2.06806 -3.90748 0
M  V30 3322 N 319.27 1.56325 -0.20005 0
M  V30 3323 C 320.686 1.58839 0.155716 0
M  V30 3324 C 320.886 1.21636 1.60645 0
M  V30 3325 O 319.942 0.941437 2.34293 0
M  V30 3326 C 321.255 3.0032 -0.151124 0
M  V30 3327 C 322.803 3.12866 -0.0916284 0
M  V30 3328 C 323.278 4.56488 -0.371845 0
M  V30 3329 N 324.769 4.62089 -0.320641 0
M  V30 3330 C 325.504 5.71116 -0.511243 0
M  V30 3331 N 325 6.88592 -0.762461 0
M  V30 3332 N 326.793 5.60335 -0.445157 0
M  V30 3333 H 318.944 1.78788 -1.14668 0
M  V30 3334 H 321.207 0.829996 -0.458051 0
M  V30 3335 H 320.913 3.32117 -1.15721 0
M  V30 3336 H 320.787 3.73257 0.543986 0
M  V30 3337 H 323.174 2.80878 0.905065 0
M  V30 3338 H 323.255 2.42304 -0.81989 0
M  V30 3339 H 322.899 4.89189 -1.36588 0
M  V30 3340 H 322.829 5.25246 0.377362 0
M  V30 3341 H 325.32 3.77665 -0.13329 0
M  V30 3342 H 325.633 7.67581 -0.896576 0
M  V30 3343 H 323.978 6.90387 -0.799412 0
M  V30 3344 H 327.169 4.67436 -0.249278 0
M  V30 3345 H 327.342 6.45243 -0.597116 0
M  V30 3346 N 320.748 -0.0735177 1.57428 0
M  V30 3347 C 322.164 -0.428264 1.53747 0
M  V30 3348 C 322.364 -1.79272 0.91998 0
M  V30 3349 O 321.42 -2.47051 0.521745 0
M  V30 3350 C 322.733 -0.370914 2.98404 0
M  V30 3351 C 324.281 -0.451224 3.0973 0
M  V30 3352 C 324.756 -0.4238 4.56035 0
M  V30 3353 N 326.247 -0.483925 4.60665 0
M  V30 3354 C 326.982 -0.484891 5.71346 0
M  V30 3355 N 326.478 -0.440775 6.91396 0
M  V30 3356 N 328.271 -0.531319 5.59583 0
M  V30 3357 H 320.422 0.819949 1.95935 0
M  V30 3358 H 322.685 0.307493 0.896745 0
M  V30 3359 H 322.391 0.564956 3.47133 0
M  V30 3360 H 322.265 -1.18176 3.5821 0
M  V30 3361 H 324.652 -1.37752 2.60976 0
M  V30 3362 H 324.733 0.388167 2.52838 0
M  V30 3363 H 324.377 0.498638 5.05446 0
M  V30 3364 H 324.307 -1.2807 5.10789 0
M  V30 3365 H 326.798 -0.522338 3.74273 0
M  V30 3366 H 327.111 -0.44539 7.71515 0
M  V30 3367 H 325.456 -0.40749 6.93804 0
M  V30 3368 H 328.647 -0.563464 4.64696 0
M  V30 3369 H 328.82 -0.528603 6.4584 0
M  V30 3370 N 322.226 -1.5378 -0.344866 0
M  V30 3371 C 323.156 -1.84662 -1.42906 0
M  V30 3372 C 324.137 -0.701648 -1.54955 0
M  V30 3373 O 325.322 -0.953438 -1.69184 0
M  V30 3374 C 322.452 -2.05503 -2.79974 0
M  V30 3375 C 321.406 -3.21318 -2.82734 0
M  V30 3376 C 320.732 -3.2749 -4.22675 0
M  V30 3377 C 322.032 -4.59456 -2.48389 0
M  V30 3378 H 323.726 -2.75461 -1.17311 0
M  V30 3379 H 321.272 -1.32542 -0.562896 0
M  V30 3380 H 323.225 -2.25691 -3.55867 0
M  V30 3381 H 321.949 -1.11434 -3.07002 0
M  V30 3382 H 320.608 -3.00984 -2.09294 0
M  V30 3383 H 320.256 -2.31019 -4.4681 0
M  V30 3384 H 319.956 -4.05316 -4.25433 0
M  V30 3385 H 321.48 -3.49887 -5.00412 0
M  V30 3386 H 322.894 -4.79667 -3.13995 0
M  V30 3387 H 321.291 -5.39675 -2.62432 0
M  V30 3388 H 322.361 -4.63155 -1.4358 0
M  V30 3389 N 323.704 0.605807 -1.45491 0
M  V30 3390 C 324.651 1.7164 -1.54299 0
M  V30 3391 C 325.621 1.61486 -0.388761 0
M  V30 3392 O 326.806 1.81039 -0.602445 0
M  V30 3393 C 323.946 3.09953 -1.51734 0
M  V30 3394 C 323.059 3.309 -2.77721 0
M  V30 3395 C 322.194 4.59329 -2.66816 0
M  V30 3396 C 321.233 4.7354 -3.87848 0
M  V30 3397 N 320.37 5.9327 -3.75467 0
M  V30 3398 H 325.21 1.63449 -2.49176 0
M  V30 3399 H 322.747 0.796957 -1.23641 0
M  V30 3400 H 324.705 3.89977 -1.48235 0
M  V30 3401 H 323.335 3.17098 -0.604068 0
M  V30 3402 H 322.387 2.44639 -2.913 0
M  V30 3403 H 323.699 3.37274 -3.67488 0
M  V30 3404 H 322.853 5.4755 -2.61292 0
M  V30 3405 H 321.592 4.55355 -1.74651 0
M  V30 3406 H 320.597 3.83741 -3.93729 0
M  V30 3407 H 321.822 4.79309 -4.81082 0
M  V30 3408 H 319.768 5.90338 -2.86072 0
M  V30 3409 H 319.685 6.00811 -4.5887 0
M  V30 3410 H 320.953 6.83984 -3.73879 0
M  V30 3411 N 325.182 1.32811 0.848464 0
M  V30 3412 C 326.092 1.24278 1.98978 0
M  V30 3413 C 327.108 0.155176 1.73307 0
M  V30 3414 O 328.284 0.376999 1.9784 0
M  V30 3415 C 325.349 0.972444 3.32783 0
M  V30 3416 C 324.41 2.14911 3.71634 0
M  V30 3417 C 323.643 1.89157 4.99054 0
M  V30 3418 O 323.866 0.837165 5.64223 0
M  V30 3419 O 322.8 2.75433 5.35183 0
M  V30 3420 H 326.626 2.20238 2.09115 0
M  V30 3421 H 324.211 1.12762 0.980052 0
M  V30 3422 H 326.093 0.838432 4.12975 0
M  V30 3423 H 324.768 0.043051 3.23671 0
M  V30 3424 H 323.675 2.33862 2.91992 0
M  V30 3425 H 325.008 3.06151 3.85399 0
M  V30 3426 N 326.66 -1.06551 1.16123 0
M  V30 3427 C 327.888 -1.83005 0.965237 0
M  V30 3428 C 328.303 -1.82423 -0.486542 0
M  V30 3429 O 327.66 -1.24152 -1.33763 0
M  V30 3430 C 327.711 -3.29733 1.48183 0
M  V30 3431 O 327.432 -3.30416 2.87674 0
M  V30 3432 C 328.933 -4.22926 1.32848 0
M  V30 3433 H 326.153 -0.577118 0.342309 0
M  V30 3434 H 328.697 -1.3445 1.54089 0
M  V30 3435 H 326.852 -3.75609 0.948517 0
M  V30 3436 H 327.266 -4.22149 3.11272 0
M  V30 3437 H 328.74 -5.23916 1.73827 0
M  V30 3438 H 329.217 -4.38346 0.273692 0
M  V30 3439 H 329.823 -3.82894 1.85127 0
M  V30 3440 N 328.138 -0.959301 -1.25041 0
M  V30 3441 C 329.085 -0.482057 -2.2571 0
M  V30 3442 C 330.055 0.467939 -1.59372 0
M  V30 3443 O 331.24 0.380159 -1.86974 0
M  V30 3444 C 328.38 0.229623 -3.44335 0
M  V30 3445 C 327.493 -0.758156 -4.25295 0
M  V30 3446 C 326.628 -0.0234403 -5.31195 0
M  V30 3447 C 325.667 -1.00184 -6.03846 0
M  V30 3448 N 324.804 -0.29769 -7.01469 0
M  V30 3449 H 329.644 -1.34538 -2.65901 0
M  V30 3450 H 327.181 -0.674592 -1.3072 0
M  V30 3451 H 329.139 0.658856 -4.11965 0
M  V30 3452 H 327.769 1.05696 -3.05005 0
M  V30 3453 H 326.821 -1.30586 -3.57284 0
M  V30 3454 H 328.133 -1.50458 -4.75567 0
M  V30 3455 H 327.287 0.464201 -6.04922 0
M  V30 3456 H 326.026 0.755741 -4.81809 0
M  V30 3457 H 325.031 -1.50044 -5.2893 0
M  V30 3458 H 326.256 -1.78133 -6.55321 0
M  V30 3459 H 324.202 0.462668 -6.54366 0
M  V30 3460 H 324.119 -0.983128 -7.4958 0
M  V30 3461 H 325.387 0.16826 -7.79318 0
M  V30 3462 N 329.616 1.39756 -0.72842 0
M  V30 3463 C 330.893 1.94574 -0.200079 0
M  V30 3464 C 331.273 1.66569 1.29684 0
M  V30 3465 O 330.621 0.990326 2.05924 0
M  V30 3466 C 330.831 3.45004 -0.526608 0
M  V30 3467 C 332.179 4.21965 -0.472318 0
M  V30 3468 O 333.203 3.53173 -0.463413 0
M  V30 3469 O 332.062 5.44552 -0.461075 0
M  V30 3470 H 329.156 0.826289 -0.0342851 0
M  V30 3471 H 331.702 1.49293 -0.806829 0
M  V30 3472 H 330.474 3.58796 -1.56144 0
M  V30 3473 H 330.097 3.97449 0.109449 0
M  V30 3474 N 331.094 0.475555 1.50254 0
M  V30 3475 C 332.342 -0.077738 2.0195 0
M  V30 3476 C 332.663 -1.39813 1.35931 0
M  V30 3477 O 331.933 -1.89249 0.506123 0
M  V30 3478 H 330.513 -0.031719 0.746326 0
M  V30 3479 H 333.175 0.626995 1.84539 0
M  V30 3480 H 332.271 -0.225995 3.11281 0
M  V30 3481 N 332.573 -1.56217 0.208337 0
M  V30 3482 C 333.82 -1.97949 -0.42692 0
M  V30 3483 C 334.148 -1.09562 -1.60706 0
M  V30 3484 O 333.403 -0.137616 -1.95216 0
M  V30 3485 C 333.702 -3.45441 -0.916797 0
M  V30 3486 C 333.368 -4.50646 0.151391 0
M  V30 3487 C 332.03 -4.79139 0.444867 0
M  V30 3488 C 334.382 -5.13811 0.874492 0
M  V30 3489 C 331.71 -5.68084 1.46619 0
M  V30 3490 C 334.062 -6.03861 1.88506 0
M  V30 3491 C 332.726 -6.30704 2.18559 0
M  V30 3492 H 331.996 -0.724345 -0.156221 0
M  V30 3493 H 334.643 -1.89006 0.308084 0
M  V30 3494 H 332.948 -3.51521 -1.73032 0
M  V30 3495 H 334.645 -3.75094 -1.41794 0
M  V30 3496 H 331.235 -4.28511 -0.0875068 0
M  V30 3497 H 335.419 -4.91879 0.660996 0
M  V30 3498 H 330.675 -5.87151 1.7048 0
M  V30 3499 H 334.849 -6.51861 2.45051 0
M  V30 3500 H 332.476 -6.99424 2.97843 0
M  V30 3501 N 334.051 0.0651679 -1.57465 0
M  V30 3502 C 334.984 1.10876 -1.99453 0
M  V30 3503 C 335.962 1.37205 -0.872555 0
M  V30 3504 O 337.146 1.50468 -1.13542 0
M  V30 3505 C 334.273 2.45167 -2.3369 0
M  V30 3506 C 333.319 2.3493 -3.55964 0
M  V30 3507 S 334.152 1.73708 -5.06543 0
M  V30 3508 C 335.308 3.09563 -5.43987 0
M  V30 3509 H 335.541 0.750967 -2.87659 0
M  V30 3510 H 333.074 0.273933 -1.51951 0
M  V30 3511 H 335.032 3.22412 -2.54088 0
M  V30 3512 H 333.693 2.78105 -1.46001 0
M  V30 3513 H 332.886 3.3398 -3.77457 0
M  V30 3514 H 332.488 1.65823 -3.3523 0
M  V30 3515 H 334.78 4.05882 -5.42463 0
M  V30 3516 H 335.723 2.92843 -6.44708 0
M  V30 3517 H 336.131 3.10474 -4.71451 0
M  V30 3518 N 335.529 1.53961 0.336706 0
M  V30 3519 C 336.776 1.71536 1.07618 0
M  V30 3520 C 337.104 0.482125 1.8843 0
M  V30 3521 O 336.359 -0.536142 1.88213 0
M  V30 3522 C 336.658 2.93493 2.03953 0
M  V30 3523 C 336.324 4.28811 1.39399 0
M  V30 3524 C 334.986 4.65602 1.21523 0
M  V30 3525 C 337.338 5.12844 0.929541 0
M  V30 3526 C 334.666 5.84037 0.558312 0
M  V30 3527 C 337.018 6.31951 0.286505 0
M  V30 3528 C 335.682 6.67432 0.0954869 0
M  V30 3529 H 334.952 0.627696 0.393801 0
M  V30 3530 H 337.599 1.88186 0.354715 0
M  V30 3531 H 335.904 2.71475 2.82504 0
M  V30 3532 H 337.601 3.04285 2.61174 0
M  V30 3533 H 334.191 3.99858 1.54311 0
M  V30 3534 H 338.375 4.84947 1.05548 0
M  V30 3535 H 333.631 6.10097 0.398995 0
M  V30 3536 H 337.805 6.96352 -0.0814376 0
M  V30 3537 H 335.432 7.59063 -0.415579 0
M  V30 3538 N 337.007 -0.598083 1.45811 0
M  V30 3539 C 337.937 -1.71873 1.58057 0
M  V30 3540 C 338.918 -1.64533 0.431615 0
M  V30 3541 O 340.103 -1.82787 0.65595 0
M  V30 3542 C 337.233 -3.10495 1.55597 0
M  V30 3543 C 336.187 -3.32654 2.69305 0
M  V30 3544 C 335.513 -4.71646 2.51902 0
M  V30 3545 C 336.813 -3.21981 4.11248 0
M  V30 3546 H 338.507 -1.61881 2.51863 0
M  V30 3547 H 336.053 -0.777372 1.21214 0
M  V30 3548 H 338.006 -3.88699 1.6276 0
M  V30 3549 H 336.73 -3.2135 0.583255 0
M  V30 3550 H 335.389 -2.56843 2.61586 0
M  V30 3551 H 335.037 -4.79246 1.52748 0
M  V30 3552 H 334.737 -4.87426 3.2816 0
M  V30 3553 H 336.261 -5.52038 2.60933 0
M  V30 3554 H 337.675 -3.90049 4.20161 0
M  V30 3555 H 336.072 -3.49289 4.87972 0
M  V30 3556 H 337.142 -2.1928 4.32486 0
M  V30 3557 N 338.485 -1.33259 -0.841409 0
M  V30 3558 C 339.713 -1.27605 -1.62864 0
M  V30 3559 C 340.128 0.153507 -1.88175 0
M  V30 3560 O 339.485 1.09485 -1.46011 0
M  V30 3561 C 339.536 -2.04596 -2.98031 0
M  V30 3562 O 339.257 -3.41975 -2.73834 0
M  V30 3563 C 340.758 -2.06122 -3.92465 0
M  V30 3564 H 337.978 -0.439718 -0.506842 0
M  V30 3565 H 340.522 -1.75591 -1.04824 0
M  V30 3566 H 338.677 -1.60299 -3.5268 0
M  V30 3567 H 339.091 -3.81549 -3.59889 0
M  V30 3568 H 340.565 -2.64451 -4.84531 0
M  V30 3569 H 341.042 -1.05083 -4.26444 0
M  V30 3570 H 341.648 -2.50427 -3.43753 0
M  V30 3571 N 339.963 1.05934 -1.16686 0
M  V30 3572 C 341.24 1.75643 -0.860747 0
M  V30 3573 C 341.62 2.01144 0.640641 0
M  V30 3574 O 340.968 1.64147 1.58959 0
M  V30 3575 C 341.178 3.05493 -1.68745 0
M  V30 3576 C 342.526 3.79581 -1.90271 0
M  V30 3577 O 343.55 3.15344 -1.65641 0
M  V30 3578 O 342.409 4.9499 -2.31618 0
M  V30 3579 H 339.503 0.763426 -0.317977 0
M  V30 3580 H 342.049 1.1217 -1.27342 0
M  V30 3581 H 340.821 2.8264 -2.70611 0
M  V30 3582 H 340.444 3.76702 -1.27206 0
M  V30 3583 N 341.441 0.965919 1.2453 0
M  V30 3584 C 342.373 0.452465 2.2469 0
M  V30 3585 C 343.386 -0.437821 1.56802 0
M  V30 3586 O 344.575 -0.244283 1.76821 0
M  V30 3587 C 341.675 -0.366258 3.36915 0
M  V30 3588 C 340.848 0.513701 4.34373 0
M  V30 3589 C 339.907 -0.248716 5.25612 0
M  V30 3590 O 338.933 0.356745 5.68081 0
M  V30 3591 N 340.135 -1.53877 5.59734 0
M  V30 3592 H 342.9 1.31361 2.69378 0
M  V30 3593 H 340.461 0.837541 1.38553 0
M  V30 3594 H 342.453 -0.884297 3.94921 0
M  V30 3595 H 341.023 -1.12832 2.91526 0
M  V30 3596 H 340.243 1.21273 3.75082 0
M  V30 3597 H 341.531 1.11391 4.96457 0
M  V30 3598 H 340.929 -2.05243 5.27154 0
M  V30 3599 H 339.486 -2.00254 6.20275 0
M  V30 3600 N 342.919 -1.39368 0.735821 0
M  V30 3601 C 344.144 -2.05319 0.293052 0
M  V30 3602 C 344.569 -1.55115 -1.064 0
M  V30 3603 O 343.927 -0.695261 -1.67439 0
M  V30 3604 C 343.975 -3.59305 0.305323 0
M  V30 3605 O 343.079 -4.06299 -0.706761 0
M  V30 3606 H 342.42 -0.650529 0.13307 0
M  V30 3607 H 344.95 -1.78386 1.00197 0
M  V30 3608 H 344.96 -4.07724 0.149997 0
M  V30 3609 H 343.635 -3.95207 1.29553 0
M  V30 3610 H 342.212 -3.69292 -0.517504 0
M  V30 3611 N 344.397 -0.483516 -1.5 0
M  V30 3612 C 345.627 0.0643896 -2.065 0
M  V30 3613 C 346.035 1.32949 -1.34615 0
M  V30 3614 O 345.378 1.79003 -0.412756 0
M  V30 3615 C 345.44 0.405983 -3.572 0
M  V30 3616 C 345.104 -0.758875 -4.50655 0
M  V30 3617 C 346.101 -1.64445 -4.93208 0
M  V30 3618 C 343.786 -0.952725 -4.93182 0
M  V30 3619 C 345.78 -2.70818 -5.77006 0
M  V30 3620 C 343.467 -2.01966 -5.76761 0
M  V30 3621 C 344.465 -2.89574 -6.18576 0
M  V30 3622 O 344.153 -3.94429 -7.00486 0
M  V30 3623 H 343.885 -0.00934786 -0.675935 0
M  V30 3624 H 346.439 -0.674959 -1.93993 0
M  V30 3625 H 344.669 1.19869 -3.67652 0
M  V30 3626 H 346.358 0.890433 -3.96013 0
M  V30 3627 H 347.124 -1.50643 -4.61012 0
M  V30 3628 H 343.003 -0.280247 -4.60147 0
M  V30 3629 H 346.547 -3.3923 -6.09565 0
M  V30 3630 H 342.444 -2.1577 -6.0837 0
M  V30 3631 H 343.212 -3.91568 -7.1876 0
M  V30 3632 N 345.875 1.56104 -0.216619 0
M  V30 3633 C 347.124 1.97348 0.416744 0
M  V30 3634 C 347.437 1.10715 1.6125 0
M  V30 3635 O 348.643 1.41836 2.31506 0
M  V30 3636 C 347.099 3.51059 0.792835 0
M  V30 3637 C 346.707 4.46387 -0.379828 0
M  V30 3638 C 348.451 4.01026 1.39208 0
M  V30 3639 C 346.358 5.91397 0.0184223 0
M  V30 3640 H 345.288 0.736942 0.159475 0
M  V30 3641 H 347.939 1.80827 -0.31205 0
M  V30 3642 H 346.321 3.63162 1.57891 0
M  V30 3643 H 347.495 4.46029 -1.15737 0
M  V30 3644 H 345.81 4.06734 -0.891979 0
M  V30 3645 H 348.407 5.0686 1.70286 0
M  V30 3646 H 348.75 3.46587 2.30614 0
M  V30 3647 H 349.283 3.92125 0.669537 0
M  V30 3648 H 346.022 6.49807 -0.862002 0
M  V30 3649 H 345.542 5.94961 0.760384 0
M  V30 3650 H 347.221 6.45455 0.446818 0
M  V30 3651 N 347.353 -0.0568162 1.57498 0
M  V30 3652 C 348.63 -0.786954 1.79071 0
M  V30 3653 C 349.01 -1.95028 0.80792 0
M  V30 3654 O 348.358 -2.27968 -0.155858 0
M  V30 3655 C 348.568 -1.24594 3.26002 0
M  V30 3656 C 349.916 -1.67323 3.90241 0
M  V30 3657 O 350.94 -1.34124 3.29984 0
M  V30 3658 O 349.799 -2.28842 4.9628 0
M  V30 3659 H 346.893 -0.378262 0.735423 0
M  V30 3660 H 349.439 -0.035734 1.69662 0
M  V30 3661 H 348.211 -0.41423 3.89101 0
M  V30 3662 H 347.834 -2.05803 3.40192 0
M  V30 3663 N 348.832 -1.54138 -0.328536 0
M  V30 3664 C 350.078 -1.7236 -1.06865 0
M  V30 3665 C 350.411 -0.493231 -1.87832 0
M  V30 3666 O 349.686 0.5098 -1.877 0
M  V30 3667 C 349.969 -2.99621 -1.99747 0
M  V30 3668 C 349.822 -4.32899 -1.22143 0
M  V30 3669 C 351.141 -3.22615 -2.99345 0
M  V30 3670 H 348.26 -0.627151 -0.387105 0
M  V30 3671 H 350.902 -1.86827 -0.345767 0
M  V30 3672 H 349.052 -2.87418 -2.61387 0
M  V30 3673 H 350.724 -4.56978 -0.630017 0
M  V30 3674 H 348.967 -4.30628 -0.523628 0
M  V30 3675 H 349.638 -5.18154 -1.90318 0
M  V30 3676 H 352.114 -3.34248 -2.47826 0
M  V30 3677 H 350.99 -4.13027 -3.61524 0
M  V30 3678 H 351.251 -2.3961 -3.71536 0
M  V30 3679 N 350.31 0.590341 -1.46126 0
M  V30 3680 C 351.24 1.71032 -1.58966 0
M  V30 3681 C 352.221 1.64302 -0.440335 0
M  V30 3682 O 353.406 1.82436 -0.665634 0
M  V30 3683 C 350.536 3.09665 -1.57241 0
M  V30 3684 C 349.49 3.31221 -2.71066 0
M  V30 3685 C 348.816 4.70303 -2.54399 0
M  V30 3686 C 350.116 3.19796 -4.1295 0
M  V30 3687 H 351.81 1.60543 -2.52718 0
M  V30 3688 H 349.356 0.770933 -1.21625 0
M  V30 3689 H 351.309 3.87831 -1.64819 0
M  V30 3690 H 350.033 3.21036 -0.600289 0
M  V30 3691 H 348.692 2.55452 -2.62944 0
M  V30 3692 H 348.34 4.78429 -1.55288 0
M  V30 3693 H 348.04 4.85679 -3.30741 0
M  V30 3694 H 349.564 5.50647 -2.63857 0
M  V30 3695 H 350.978 3.87815 -4.22223 0
M  V30 3696 H 349.375 3.46696 -4.89818 0
M  V30 3697 H 350.445 2.16983 -4.33643 0
M  V30 3698 N 351.788 1.33704 0.83433 0
M  V30 3699 C 353.199 1.22813 1.4062 0
M  V30 3700 C 353.55 -0.151107 1.95617 0
M  V30 3701 O 352.675 -1.05092 1.89168 0
M  V30 3702 C 353.27 2.22355 2.55624 0
M  V30 3703 C 351.829 2.1529 3.08751 0
M  V30 3704 C 350.976 2.09589 1.8157 0
M  V30 3705 H 353.927 1.45236 0.639702 0
M  V30 3706 H 353.948 1.83391 3.33389 0
M  V30 3707 H 353.46 3.22728 2.15566 0
M  V30 3708 H 351.561 1.18235 3.53343 0
M  V30 3709 H 351.674 3.06038 3.68616 0
M  V30 3710 H 350.038 1.55134 2.02004 0
M  V30 3711 H 350.821 3.11777 1.43701 0
M  V30 3712 N 353.266 -1.05314 1.17247 0
M  V30 3713 C 354.176 -2.16538 0.90268 0
M  V30 3714 C 355.192 -1.73523 -0.128707 0
M  V30 3715 O 356.368 -2.01337 0.0502701 0
M  V30 3716 C 353.433 -3.44167 0.418356 0
M  V30 3717 C 352.494 -4.01635 1.51618 0
M  V30 3718 C 351.727 -5.23171 1.05487 0
M  V30 3719 O 351.95 -5.70327 -0.0914715 0
M  V30 3720 O 350.884 -5.72848 1.8474 0
M  V30 3721 H 354.71 -2.42145 1.83302 0
M  V30 3722 H 352.295 -1.15037 0.953246 0
M  V30 3723 H 354.177 -4.21112 0.155726 0
M  V30 3724 H 352.852 -3.20063 -0.48385 0
M  V30 3725 H 351.759 -3.26135 1.83268 0
M  V30 3726 H 353.092 -4.30053 2.39405 0
M  V30 3727 N 354.744 -0.972509 -1.24016 0
M  V30 3728 C 355.991 -0.637034 -1.92219 0
M  V30 3729 C 356.319 0.828418 -1.75976 0
M  V30 3730 O 355.574 1.61206 -1.10955 0
M  V30 3731 C 355.873 -0.963694 -3.44162 0
M  V30 3732 C 355.539 -2.41807 -3.80579 0
M  V30 3733 C 354.201 -2.81556 -3.9023 0
M  V30 3734 C 356.553 -3.36172 -3.98293 0
M  V30 3735 C 353.881 -4.14702 -4.15017 0
M  V30 3736 C 356.233 -4.68952 -4.24578 0
M  V30 3737 C 354.897 -5.08472 -4.32449 0
M  V30 3738 H 354.167 -0.233107 -0.703379 0
M  V30 3739 H 356.814 -1.2249 -1.47202 0
M  V30 3740 H 355.119 -0.29365 -3.90698 0
M  V30 3741 H 356.816 -0.682449 -3.9515 0
M  V30 3742 H 353.406 -2.09988 -3.73635 0
M  V30 3743 H 357.59 -3.06644 -3.90234 0
M  V30 3744 H 352.846 -4.4494 -4.19331 0
M  V30 3745 H 357.02 -5.42037 -4.37229 0
M  V30 3746 H 354.647 -6.11665 -4.51409 0
M  V30 3747 N 356.222 1.38976 -0.743202 0
M  V30 3748 C 357.638 1.53984 -0.419664 0
M  V30 3749 C 357.838 1.70837 1.0685 0
M  V30 3750 O 356.894 1.7135 1.8546 0
M  V30 3751 C 358.207 2.75287 -1.20985 0
M  V30 3752 C 359.755 2.89129 -1.19889 0
M  V30 3753 C 360.23 4.13381 -1.97181 0
M  V30 3754 N 361.721 4.20437 -1.94389 0
M  V30 3755 C 362.456 5.15547 -2.50996 0
M  V30 3756 N 361.952 6.16395 -3.16274 0
M  V30 3757 N 363.745 5.07822 -2.40984 0
M  V30 3758 H 355.896 1.26285 -1.7078 0
M  V30 3759 H 358.159 0.612689 -0.723406 0
M  V30 3760 H 357.865 2.69204 -2.26323 0
M  V30 3761 H 357.739 3.68184 -0.819759 0
M  V30 3762 H 360.126 2.947 -0.153606 0
M  V30 3763 H 360.207 1.97272 -1.62841 0
M  V30 3764 H 359.851 4.08572 -3.01714 0
M  V30 3765 H 359.781 5.04298 -1.51629 0
M  V30 3766 H 362.272 3.48205 -1.46839 0
M  V30 3767 H 362.585 6.85443 -3.56915 0
M  V30 3768 H 360.93 6.16758 -3.20367 0
M  V30 3769 H 364.121 4.27973 -1.89622 0
M  V30 3770 H 364.294 5.81767 -2.85397 0
M  V30 3771 N 357.7 0.491464 1.49741 0
M  V30 3772 C 358.977 -0.118984 1.95238 0
M  V30 3773 C 359.357 -1.55044 1.43264 0
M  V30 3774 O 358.705 -2.19287 0.642287 0
M  V30 3775 C 358.915 -0.0414187 3.48975 0
M  V30 3776 C 360.263 -0.220133 4.24029 0
M  V30 3777 O 361.287 -0.117055 3.56008 0
M  V30 3778 O 360.146 -0.430567 5.44801 0
M  V30 3779 H 357.24 -0.100536 0.820866 0
M  V30 3780 H 359.786 0.553322 1.60426 0
M  V30 3781 H 358.558 0.957214 3.79412 0
M  V30 3782 H 358.181 -0.754292 3.9038 0
M  V30 3783 N 359.178 -1.55987 0.224894 0
M  V30 3784 C 360.403 -2.03232 -0.41369 0
M  V30 3785 C 360.828 -1.10359 -1.52323 0
M  V30 3786 O 360.186 -0.092395 -1.81064 0
M  V30 3787 C 360.234 -3.48682 -0.919405 0
M  V30 3788 O 359.338 -3.58947 -2.03054 0
M  V30 3789 H 358.679 -0.657428 -0.0931903 0
M  V30 3790 H 361.209 -2.01679 0.34451 0
M  V30 3791 H 361.219 -3.8907 -1.22835 0
M  V30 3792 H 359.894 -4.15761 -0.107339 0
M  V30 3793 H 358.471 -3.30448 -1.72796 0
M  V30 3794 N 360.656 0.0484629 -1.57525 0
M  V30 3795 C 361.886 0.754326 -1.92337 0
M  V30 3796 C 362.294 1.70443 -0.82132 0
M  V30 3797 O 361.637 1.82466 0.21254 0
M  V30 3798 C 361.699 1.58231 -3.22805 0
M  V30 3799 C 361.363 0.799074 -4.4996 0
M  V30 3800 C 362.36 0.1079 -5.19788 0
M  V30 3801 C 360.045 0.759345 -4.96527 0
M  V30 3802 C 362.039 -0.612516 -6.3445 0
M  V30 3803 C 359.726 0.0351713 -6.1109 0
M  V30 3804 C 360.724 -0.649537 -6.79904 0
M  V30 3805 O 360.412 -1.36199 -7.92278 0
M  V30 3806 H 360.144 0.218257 -0.639797 0
M  V30 3807 H 362.698 0.0159295 -2.05394 0
M  V30 3808 H 360.928 2.36406 -3.06021 0
M  V30 3809 H 362.617 2.16898 -3.43089 0
M  V30 3810 H 363.383 0.129748 -4.84826 0
M  V30 3811 H 359.262 1.28177 -4.42822 0
M  V30 3812 H 362.806 -1.14751 -6.88097 0
M  V30 3813 H 358.703 0.0113314 -6.45499 0
M  V30 3814 H 359.471 -1.27366 -8.0853 0
M  V30 3815 N 362.134 1.5431 0.320358 0
M  V30 3816 C 363.545 1.63872 0.894594 0
M  V30 3817 C 363.896 0.534847 1.88769 0
M  V30 3818 O 363.021 -0.331732 2.13842 0
M  V30 3819 C 363.616 2.97049 1.62934 0
M  V30 3820 C 362.175 3.08796 2.15226 0
M  V30 3821 C 361.322 2.59456 0.978671 0
M  V30 3822 H 364.273 1.58398 0.0978544 0
M  V30 3823 H 364.294 2.87388 2.49376 0
M  V30 3824 H 363.806 3.7737 0.906302 0
M  V30 3825 H 361.907 2.33156 2.90636 0
M  V30 3826 H 362.02 4.14649 2.40006 0
M  V30 3827 H 360.384 2.1543 1.35875 0
M  V30 3828 H 361.167 3.42237 0.269895 0
M  V30 3829 N 363.613 -0.582584 1.46437 0
M  V30 3830 C 364.862 -1.337 1.5102 0
M  V30 3831 C 365.175 -1.94891 0.166359 0
M  V30 3832 O 366.381 -2.71351 0.0899954 0
M  V30 3833 C 364.837 -2.42315 2.66104 0
M  V30 3834 C 364.445 -1.87427 4.06909 0
M  V30 3835 C 366.189 -3.19099 2.79958 0
M  V30 3836 C 364.096 -2.93672 5.13333 0
M  V30 3837 H 363.026 -0.502619 0.562041 0
M  V30 3838 H 365.677 -0.621701 1.72647 0
M  V30 3839 H 364.059 -3.16645 2.37807 0
M  V30 3840 H 365.233 -1.19639 4.44998 0
M  V30 3841 H 363.548 -1.2331 3.97723 0
M  V30 3842 H 366.145 -3.9839 3.56636 0
M  V30 3843 H 366.488 -3.71695 1.87479 0
M  V30 3844 H 367.021 -2.51875 3.07902 0
M  V30 3845 H 363.76 -2.45962 6.07604 0
M  V30 3846 H 363.28 -3.59948 4.79789 0
M  V30 3847 H 364.959 -3.5762 5.39182 0
M  V30 3848 N 365.091 -1.34144 -0.827227 0
M  V30 3849 C 366.038 -1.25364 -1.93785 0
M  V30 3850 C 367.008 -0.129774 -1.65592 0
M  V30 3851 O 368.193 -0.310024 -1.88264 0
M  V30 3852 C 365.333 -1.01064 -3.2997 0
M  V30 3853 C 364.446 -2.22185 -3.70484 0
M  V30 3854 C 363.581 -1.91203 -4.95595 0
M  V30 3855 C 362.62 -3.08491 -5.28677 0
M  V30 3856 N 361.757 -2.77421 -6.44967 0
M  V30 3857 H 366.597 -2.20347 -2.00627 0
M  V30 3858 H 364.134 -1.09558 -0.981608 0
M  V30 3859 H 366.092 -0.850139 -4.08446 0
M  V30 3860 H 364.722 -0.0975026 -3.22653 0
M  V30 3861 H 363.774 -2.4917 -2.87434 0
M  V30 3862 H 365.086 -3.0983 -3.90905 0
M  V30 3863 H 364.24 -1.71864 -5.81848 0
M  V30 3864 H 362.979 -1.00812 -4.77167 0
M  V30 3865 H 361.984 -3.28431 -4.40923 0
M  V30 3866 H 363.209 -3.99655 -5.49047 0
M  V30 3867 H 361.155 -1.89601 -6.28003 0
M  V30 3868 H 361.072 -3.58598 -6.6554 0
M  V30 3869 H 362.34 -2.61577 -7.34301 0
M  V30 3870 N 366.569 1.04691 -1.17803 0
M  V30 3871 C 367.799 1.81183 -0.992788 0
M  V30 3872 C 368.207 1.8347 0.462098 0
M  V30 3873 O 367.55 1.2643 1.33271 0
M  V30 3874 C 367.612 3.28363 -1.46349 0
M  V30 3875 C 367.276 3.49749 -2.94151 0
M  V30 3876 C 368.273 3.41456 -3.92051 0
M  V30 3877 C 365.958 3.76548 -3.32441 0
M  V30 3878 C 367.952 3.59656 -5.26238 0
M  V30 3879 C 365.639 3.94396 -4.66792 0
M  V30 3880 C 366.637 3.8595 -5.635 0
M  V30 3881 O 366.325 4.03294 -6.9542 0
M  V30 3882 H 366.057 0.577622 -0.351182 0
M  V30 3883 H 368.611 1.32876 -1.5663 0
M  V30 3884 H 366.841 3.77609 -0.833574 0
M  V30 3885 H 368.53 3.86395 -1.24313 0
M  V30 3886 H 369.296 3.20723 -3.63815 0
M  V30 3887 H 365.175 3.82224 -2.57732 0
M  V30 3888 H 368.719 3.52979 -6.01707 0
M  V30 3889 H 364.616 4.14622 -4.94731 0
M  V30 3890 H 365.384 4.2049 -7.02232 0
M  V30 3891 N 368.047 0.979072 1.23499 0
M  V30 3892 C 369.293 0.648178 1.92163 0
M  V30 3893 C 369.626 -0.816049 1.76222 0
M  V30 3894 O 368.901 -1.58849 1.12237 0
M  V30 3895 C 369.184 1.03773 3.44824 0
M  V30 3896 C 369.037 2.55948 3.69879 0
M  V30 3897 C 370.356 0.580653 4.36253 0
M  V30 3898 H 367.475 0.236952 0.69787 0
M  V30 3899 H 370.117 1.22012 1.45647 0
M  V30 3900 H 368.267 0.551058 3.84572 0
M  V30 3901 H 369.939 3.12179 3.3962 0
M  V30 3902 H 368.182 2.98641 3.14636 0
M  V30 3903 H 368.853 2.78255 4.76737 0
M  V30 3904 H 371.329 0.998465 4.03943 0
M  V30 3905 H 370.205 0.881663 5.41773 0
M  V30 3906 H 370.466 -0.519052 4.39042 0
M  V30 3907 N 369.525 -1.3858 0.750561 0
M  V30 3908 C 370.475 -2.27795 0.0965949 0
M  V30 3909 C 371.459 -1.45048 -0.696411 0
M  V30 3910 O 372.651 -1.67812 -0.562863 0
M  V30 3911 C 369.78 -3.33894 -0.798085 0
M  V30 3912 C 368.866 -4.241 0.0016067 0
M  V30 3913 N 369.257 -4.95067 1.03647 0
M  V30 3914 C 367.555 -4.45429 -0.225674 0
M  V30 3915 C 368.256 -5.61489 1.52004 0
M  V30 3916 N 367.232 -5.37135 0.835874 0
M  V30 3917 H 371.034 -2.80125 0.889228 0
M  V30 3918 H 368.548 -1.51446 0.586323 0
M  V30 3919 H 370.545 -3.96693 -1.28219 0
M  V30 3920 H 369.205 -2.83123 -1.5897 0
M  V30 3921 H 370.216 -4.98104 1.41819 0
M  V30 3922 H 366.893 -4.05571 -0.990872 0
M  V30 3923 H 368.283 -6.28264 2.38188 0
M  V30 3924 N 371.003 -0.499398 -1.49478 0
M  V30 3925 C 371.966 0.268838 -2.27618 0
M  V30 3926 C 372.966 0.895383 -1.33565 0
M  V30 3927 O 374.156 0.760164 -1.56739 0
M  V30 3928 C 371.288 1.38559 -3.11471 0
M  V30 3929 H 372.481 -0.416812 -2.96989 0
M  V30 3930 H 370.034 -0.254313 -1.54217 0
M  V30 3931 H 370.769 2.10544 -2.46661 0
M  V30 3932 H 370.554 0.941797 -3.80621 0
M  V30 3933 H 372.044 1.92678 -3.70493 0
M  V30 3934 N 372.481 1.55866 -0.233164 0
M  V30 3935 C 373.728 1.98603 0.395374 0
M  V30 3936 C 374.056 1.12105 1.58942 0
M  V30 3937 O 373.311 0.168656 1.94972 0
M  V30 3938 C 373.61 3.46856 0.861724 0
M  V30 3939 C 373.276 4.50348 -0.223066 0
M  V30 3940 C 371.938 4.78371 -0.521038 0
M  V30 3941 C 374.29 5.12355 -0.956124 0
M  V30 3942 C 371.618 5.6568 -1.55638 0
M  V30 3943 C 373.97 6.00786 -1.98089 0
M  V30 3944 C 372.634 6.27148 -2.28565 0
M  V30 3945 H 371.904 0.726739 0.144677 0
M  V30 3946 H 374.551 1.88491 -0.338114 0
M  V30 3947 H 372.856 3.5423 1.67418 0
M  V30 3948 H 374.553 3.77302 1.35809 0
M  V30 3949 H 371.143 4.28596 0.0193234 0
M  V30 3950 H 375.327 4.90765 -0.739166 0
M  V30 3951 H 370.583 5.84365 -1.798 0
M  V30 3952 H 374.757 6.4788 -2.55391 0
M  V30 3953 H 372.384 6.94597 -3.08932 0
M  V30 3954 N 373.959 -0.0401083 1.57549 0
M  V30 3955 C 374.869 -1.06133 2.0922 0
M  V30 3956 C 375.885 -1.40356 1.0284 0
M  V30 3957 O 377.061 -1.49897 1.34509 0
M  V30 3958 C 374.126 -2.34658 2.55218 0
M  V30 3959 C 373.187 -2.07117 3.76033 0
M  V30 3960 C 372.42 -3.29514 4.19829 0
M  V30 3961 O 372.643 -4.39794 3.63232 0
M  V30 3962 O 371.577 -3.15863 5.12362 0
M  V30 3963 H 375.403 -0.652244 2.96613 0
M  V30 3964 H 372.988 -0.256368 1.47184 0
M  V30 3965 H 374.87 -3.10239 2.85184 0
M  V30 3966 H 373.545 -2.74883 1.70941 0
M  V30 3967 H 372.452 -1.29139 3.51104 0
M  V30 3968 H 373.785 -1.71754 4.61261 0
M  V30 3969 N 375.437 -1.54477 -0.31217 0
M  V30 3970 C 376.662 -1.77526 -1.07235 0
M  V30 3971 C 377.087 -0.527775 -1.80544 0
M  V30 3972 O 376.445 0.52121 -1.73646 0
M  V30 3973 C 376.493 -2.97535 -2.03728 0
M  V30 3974 O 375.597 -2.69878 -3.11833 0
M  V30 3975 H 374.938 -0.58792 -0.30862 0
M  V30 3976 H 377.468 -2.01532 -0.352993 0
M  V30 3977 H 377.478 -3.25198 -2.46395 0
M  V30 3978 H 376.153 -3.87996 -1.49774 0
M  V30 3979 H 374.73 -2.53199 -2.7376 0
M  V30 3980 N 376.915 0.57481 -1.46744 0
M  V30 3981 C 377.863 1.70435 -1.58286 0
M  V30 3982 C 378.857 1.63287 -0.450956 0
M  V30 3983 O 380.063 1.68685 -0.628121 0
M  V30 3984 H 376.438 0.56364 -0.497809 0
M  V30 3985 H 378.409 1.57833 -2.53242 0
M  V30 3986 C 377.158 3.08815 -1.59776 0
M  V30 3987 H 376.481 3.1499 -2.46214 0
M  V30 3988 H 377.921 3.87588 -1.71905 0
M  V30 3989 C 376.38 3.35301 -0.327812 0
M  V30 3990 O 376.91 3.97511 0.57861 0
M  V30 3991 N 375.116 2.89816 -0.213274 0
M  V30 3992 H 374.663 2.39371 -0.951798 0
M  V30 3993 H 374.621 3.0791 0.63553 0
M  V30 3994 N 378.394 1.34581 0.820102 0
M  V30 3995 C 379.342 1.26401 1.95258 0
M  V30 3996 C 380.336 0.161553 1.68628 0
M  V30 3997 O 381.542 0.326703 1.7701 0
M  V30 3998 H 377.917 0.392749 0.64129 0
M  V30 3999 H 379.888 2.22105 1.99279 0
M  V30 4000 C 378.637 1.03919 3.31807 0
M  V30 4001 H 377.96 1.87984 3.52848 0
M  V30 4002 H 379.4 1.02232 4.11491 0
M  V30 4003 C 377.859 -0.257433 3.35915 0
M  V30 4004 O 378.389 -1.25784 3.81499 0
M  V30 4005 N 376.595 -0.291524 2.89134 0
M  V30 4006 H 376.142 0.523161 2.52232 0
M  V30 4007 H 376.1 -1.15883 2.92264 0
M  V30 4008 N 379.872 -1.04064 1.18357 0
M  V30 4009 C 381.119 -1.77265 0.978947 0
M  V30 4010 C 381.447 -1.88189 -0.491428 0
M  V30 4011 O 380.702 -1.38653 -1.38108 0
M  V30 4012 C 381.001 -3.20634 1.57888 0
M  V30 4013 C 380.667 -3.29743 3.07539 0
M  V30 4014 C 379.329 -3.31937 3.48384 0
M  V30 4015 C 381.681 -3.29841 4.03552 0
M  V30 4016 C 379.009 -3.3187 4.83818 0
M  V30 4017 C 381.361 -3.31313 5.38901 0
M  V30 4018 C 380.025 -3.31799 5.79194 0
M  V30 4019 H 379.295 -0.648659 0.358222 0
M  V30 4020 H 381.942 -1.22225 1.47422 0
M  V30 4021 H 380.247 -3.78675 1.00561 0
M  V30 4022 H 381.944 -3.75917 1.39598 0
M  V30 4023 H 378.534 -3.28757 2.74986 0
M  V30 4024 H 382.718 -3.27337 3.73047 0
M  V30 4025 H 377.974 -3.30562 5.14333 0
M  V30 4026 H 382.148 -3.30338 6.13066 0
M  V30 4027 H 379.775 -3.315 6.84114 0
M  V30 4028 N 381.35 -0.985608 -1.22978 0
M  V30 4029 C 382.599 -0.652881 -1.90841 0
M  V30 4030 C 382.912 0.817842 -1.77681 0
M  V30 4031 O 384.118 1.26185 -2.40395 0
M  V30 4032 C 382.574 -1.11717 -3.42122 0
M  V30 4033 C 382.182 -2.6126 -3.63933 0
M  V30 4034 C 383.926 -0.85843 -4.1573 0
M  V30 4035 C 381.833 -3.0133 -5.08876 0
M  V30 4036 H 380.763 -0.240491 -0.714619 0
M  V30 4037 H 383.414 -1.1942 -1.39324 0
M  V30 4038 H 381.796 -0.504027 -3.92779 0
M  V30 4039 H 382.97 -3.27858 -3.23799 0
M  V30 4040 H 381.285 -2.84937 -3.03644 0
M  V30 4041 H 383.882 -1.13359 -5.22546 0
M  V30 4042 H 384.225 0.205461 -4.15793 0
M  V30 4043 H 384.758 -1.43341 -3.71077 0
M  V30 4044 H 381.497 -4.06864 -5.13947 0
M  V30 4045 H 381.017 -2.3943 -5.49939 0
M  V30 4046 H 382.696 -2.92224 -5.77247 0
M  V30 4047 N 382.828 1.3818 -0.7579 0
M  V30 4048 C 384.058 2.04004 -0.326463 0
M  V30 4049 C 384.466 1.57286 1.05156 0
M  V30 4050 O 383.809 0.743144 1.67997 0
M  V30 4051 C 383.871 3.58444 -0.275402 0
M  V30 4052 C 383.535 4.28237 -1.59569 0
M  V30 4053 C 384.532 4.53312 -2.54566 0
M  V30 4054 C 382.217 4.66341 -1.86631 0
M  V30 4055 C 384.211 5.15531 -3.74842 0
M  V30 4056 C 381.898 5.28283 -3.0718 0
M  V30 4057 C 382.896 5.52814 -4.01106 0
M  V30 4058 O 382.584 6.13465 -5.19534 0
M  V30 4059 H 382.316 0.662026 -0.136739 0
M  V30 4060 H 384.87 1.7777 -1.02893 0
M  V30 4061 H 383.1 3.83667 0.483337 0
M  V30 4062 H 384.789 4.05701 0.127099 0
M  V30 4063 H 385.555 4.24299 -2.34936 0
M  V30 4064 H 381.434 4.46591 -1.14358 0
M  V30 4065 H 384.978 5.34594 -4.48168 0
M  V30 4066 H 380.875 5.56719 -3.26702 0
M  V30 4067 H 381.643 6.31951 -5.20173 0
M  V30 4068 N 384.306 0.507319 1.49211 0
M  V30 4069 C 385.553 -0.0349529 2.0247 0
M  V30 4070 C 385.881 -1.36409 1.38647 0
M  V30 4071 O 385.136 -1.88841 0.513566 0
M  V30 4072 C 385.435 -0.229513 3.56662 0
M  V30 4073 C 385.101 1.02241 4.39156 0
M  V30 4074 C 383.763 1.36557 4.61417 0
M  V30 4075 C 386.115 1.85428 4.871 0
M  V30 4076 C 383.443 2.53999 5.28868 0
M  V30 4077 C 385.795 3.02028 5.55843 0
M  V30 4078 C 384.459 3.36717 5.76349 0
M  V30 4079 H 383.729 -0.0127902 0.74089 0
M  V30 4080 H 386.376 0.668756 1.79443 0
M  V30 4081 H 384.681 -1.0158 3.78403 0
M  V30 4082 H 386.378 -0.663641 3.9547 0
M  V30 4083 H 382.968 0.745124 4.22073 0
M  V30 4084 H 387.152 1.6023 4.69723 0
M  V30 4085 H 382.408 2.81105 5.42946 0
M  V30 4086 H 386.582 3.66808 5.91967 0
M  V30 4087 H 384.209 4.27821 6.28389 0
M  V30 4088 N 385.784 -1.5574 0.241426 0
M  V30 4089 C 386.714 -2.24133 -0.654722 0
M  V30 4090 C 387.695 -1.21974 -1.1856 0
M  V30 4091 O 388.88 -1.50612 -1.22595 0
M  V30 4092 C 386.01 -2.93659 -1.85423 0
M  V30 4093 C 384.964 -4.0246 -1.45636 0
M  V30 4094 C 384.29 -4.59383 -2.73626 0
M  V30 4095 C 385.59 -5.18468 -0.631506 0
M  V30 4096 H 387.284 -2.99281 -0.0844353 0
M  V30 4097 H 384.83 -1.43947 -0.0391707 0
M  V30 4098 H 386.783 -3.40203 -2.48676 0
M  V30 4099 H 385.507 -2.15991 -2.44981 0
M  V30 4100 H 384.166 -3.56676 -0.847202 0
M  V30 4101 H 383.814 -3.78422 -3.3137 0
M  V30 4102 H 383.514 -5.32826 -2.4773 0
M  V30 4103 H 385.038 -5.08658 -3.37786 0
M  V30 4104 H 386.452 -5.61272 -1.1682 0
M  V30 4105 H 384.849 -5.98266 -0.468831 0
M  V30 4106 H 385.919 -4.8358 0.357506 0
M  V30 4107 N 387.262 0.0317525 -1.57568 0
M  V30 4108 C 388.49 0.734949 -1.93407 0
M  V30 4109 C 388.905 1.69036 -0.84096 0
M  V30 4110 O 388.262 1.81582 0.182836 0
M  V30 4111 C 388.313 1.49432 -3.29169 0
M  V30 4112 O 388.034 0.577261 -4.3428 0
M  V30 4113 C 389.535 2.29492 -3.79273 0
M  V30 4114 H 386.755 0.206706 -0.638368 0
M  V30 4115 H 389.299 -0.00992046 -2.04498 0
M  V30 4116 H 387.454 2.1911 -3.19483 0
M  V30 4117 H 387.868 1.10952 -5.1263 0
M  V30 4118 H 389.342 2.78172 -4.76785 0
M  V30 4119 H 389.819 3.10794 -3.10328 0
M  V30 4120 H 390.425 1.64894 -3.92033 0
M  V30 4121 N 388.74 1.54641 0.303973 0
M  V30 4122 C 389.986 1.74038 1.04109 0
M  V30 4123 C 390.319 0.523051 1.87024 0
M  V30 4124 O 389.594 -0.479874 1.88487 0
M  V30 4125 C 389.877 3.02761 1.94955 0
M  V30 4126 C 389.73 4.34787 1.1524 0
M  V30 4127 C 391.049 3.27336 2.94175 0
M  V30 4128 H 388.168 0.63323 0.377079 0
M  V30 4129 H 390.81 1.87354 0.316001 0
M  V30 4130 H 388.96 2.9154 2.56782 0
M  V30 4131 H 390.632 4.57922 0.557236 0
M  V30 4132 H 388.875 4.31407 0.455053 0
M  V30 4133 H 389.546 5.21116 1.8205 0
M  V30 4134 H 392.022 3.38148 2.42477 0
M  V30 4135 H 390.898 4.18726 3.54908 0
M  V30 4136 H 391.159 2.45491 3.67677 0
M  V30 4137 N 390.218 -0.567019 1.47046 0
M  V30 4138 C 391.15 -1.68985 1.54844 0
M  V30 4139 C 392.163 -1.56869 0.435431 0
M  V30 4140 O 393.352 -1.64006 0.70457 0
M  V30 4141 C 390.452 -3.07373 1.42742 0
M  V30 4142 C 389.625 -3.45339 2.6844 0
M  V30 4143 C 388.684 -4.62849 2.50314 0
M  V30 4144 O 387.71 -4.67922 3.24095 0
M  V30 4145 N 388.912 -5.58726 1.57499 0
M  V30 4146 H 391.677 -1.62745 2.51663 0
M  V30 4147 H 389.238 -0.753411 1.43302 0
M  V30 4148 H 391.23 -3.83803 1.28365 0
M  V30 4149 H 389.8 -3.07893 0.540445 0
M  V30 4150 H 389.02 -2.58455 2.97648 0
M  V30 4151 H 390.308 -3.67476 3.51907 0
M  V30 4152 H 389.706 -5.57376 0.966876 0
M  V30 4153 H 388.263 -6.34523 1.49078 0
M  V30 4154 N 391.696 -1.35014 -0.812953 0
M  V30 4155 C 393.112 -1.14914 -1.10757 0
M  V30 4156 C 393.312 0.0426818 -2.01455 0
M  V30 4157 O 392.368 0.715212 -2.42159 0
M  V30 4158 C 393.681 -2.44911 -1.74468 0
M  V30 4159 C 395.229 -2.5106 -1.86917 0
M  V30 4160 C 395.704 -3.81085 -2.54044 0
M  V30 4161 N 397.195 -3.82301 -2.61535 0
M  V30 4162 C 397.93 -4.79634 -3.14227 0
M  V30 4163 N 397.426 -5.87353 -3.67407 0
M  V30 4164 N 399.219 -4.67078 -3.12721 0
M  V30 4165 H 391.37 -2.1136 -0.20989 0
M  V30 4166 H 393.633 -0.935128 -0.155692 0
M  V30 4167 H 393.339 -3.32267 -1.15289 0
M  V30 4168 H 393.213 -2.58989 -2.74234 0
M  V30 4169 H 395.6 -1.64137 -2.45241 0
M  V30 4170 H 395.681 -2.40901 -0.860242 0
M  V30 4171 H 395.325 -4.68402 -1.96372 0
M  V30 4172 H 395.255 -3.88529 -3.55461 0
M  V30 4173 H 397.746 -3.04465 -2.23851 0
M  V30 4174 H 398.059 -6.57624 -4.05894 0
M  V30 4175 H 396.404 -5.91054 -3.65623 0
M  V30 4176 H 399.595 -3.82067 -2.70449 0
M  V30 4177 H 399.768 -5.43098 -3.53481 0
M  V30 4178 N 393.175 1.03435 -1.18907 0
M  V30 4179 C 394.085 2.15075 -0.937015 0
M  V30 4180 C 395.101 1.73706 0.101085 0
M  V30 4181 O 396.277 2.01232 -0.0822948 0
M  V30 4182 C 393.342 3.43458 -0.473057 0
M  V30 4183 C 392.403 3.99172 -1.57989 0
M  V30 4184 C 391.636 5.21427 -1.13797 0
M  V30 4185 O 391.859 5.704 0.000725941 0
M  V30 4186 O 390.793 5.69837 -1.9383 0
M  V30 4187 H 394.619 2.39198 -1.87131 0
M  V30 4188 H 392.204 1.13506 -0.971427 0
M  V30 4189 H 394.086 4.20811 -0.222702 0
M  V30 4190 H 392.761 3.20793 0.432869 0
M  V30 4191 H 391.668 3.23178 -1.88433 0
M  V30 4192 H 393.001 4.2619 -2.46217 0
M  V30 4193 N 394.653 0.992116 1.22453 0
M  V30 4194 C 395.881 0.685944 1.95198 0
M  V30 4195 C 396.296 -0.749233 1.73297 0
M  V30 4196 O 395.653 -1.50549 1.03156 0
M  V30 4197 C 395.704 0.981395 3.47924 0
M  V30 4198 O 395.425 2.36018 3.6909 0
M  V30 4199 C 396.926 0.692815 4.37853 0
M  V30 4200 H 394.146 0.253821 0.621141 0
M  V30 4201 H 396.69 1.32668 1.55626 0
M  V30 4202 H 394.845 0.386481 3.85467 0
M  V30 4203 H 395.259 2.45884 4.63294 0
M  V30 4204 H 396.733 0.949818 5.43767 0
M  V30 4205 H 397.21 -0.373181 4.37612 0
M  V30 4206 H 397.816 1.26874 4.05935 0
M  V30 4207 N 396.131 -1.37776 0.765217 0
M  V30 4208 C 397.061 -2.32945 0.160953 0
M  V30 4209 C 398.042 -1.55454 -0.690516 0
M  V30 4210 O 399.227 -1.83721 -0.629318 0
M  V30 4211 C 396.357 -3.39669 -0.724031 0
M  V30 4212 C 395.311 -4.27992 0.0256173 0
M  V30 4213 C 394.637 -5.25673 -0.978383 0
M  V30 4214 C 395.937 -5.08309 1.20082 0
M  V30 4215 H 397.631 -2.83728 0.955969 0
M  V30 4216 H 395.177 -1.36416 0.461149 0
M  V30 4217 H 397.13 -4.05219 -1.15652 0
M  V30 4218 H 395.854 -2.87396 -1.5515 0
M  V30 4219 H 394.513 -3.63964 0.438812 0
M  V30 4220 H 394.161 -4.69682 -1.80022 0
M  V30 4221 H 393.861 -5.85625 -0.481378 0
M  V30 4222 H 395.385 -5.94098 -1.40995 0
M  V30 4223 H 396.799 -5.67034 0.845307 0
M  V30 4224 H 395.196 -5.77554 1.62947 0
M  V30 4225 H 396.266 -4.41365 2.00811 0
M  V30 4226 N 397.609 -0.515225 -1.4894 0
M  V30 4227 C 398.886 0.0879088 -1.95402 0
M  V30 4228 C 399.266 1.52745 -1.45712 0
M  V30 4229 O 398.614 2.18238 -0.677093 0
M  V30 4230 C 398.824 -0.0141055 -3.48997 0
M  V30 4231 C 400.172 0.152646 -4.24326 0
M  V30 4232 O 401.196 0.0604025 -3.56149 0
M  V30 4233 O 400.055 0.34384 -5.45417 0
M  V30 4234 H 397.149 0.0874636 -0.822362 0
M  V30 4235 H 399.695 -0.578775 -1.59525 0
M  V30 4236 H 398.467 -1.01745 -3.77841 0
M  V30 4237 H 398.09 0.692091 -3.9153 0
M  V30 4238 N 399.087 1.5561 -0.249682 0
M  V30 4239 C 400.05 2.20217 0.635394 0
M  V30 4240 C 401.05 1.17227 1.10066 0
M  V30 4241 O 402.24 1.42292 1.00492 0
M  V30 4242 C 399.372 2.84794 1.87363 0
M  V30 4243 H 400.565 2.99814 0.0716752 0
M  V30 4244 H 398.118 1.563 -0.000153234 0
M  V30 4245 H 398.853 2.09142 2.47851 0
M  V30 4246 H 398.638 3.60241 1.5482 0
M  V30 4247 H 400.128 3.3423 2.5036 0
M  V30 4248 N 400.565 -0.0233959 1.57583 0
M  V30 4249 C 401.497 -1.04994 2.03737 0
M  V30 4250 C 402.51 -1.32125 0.951152 0
M  V30 4251 O 403.699 -1.29512 1.22837 0
M  V30 4252 C 400.799 -2.39026 2.40249 0
M  V30 4253 C 399.972 -2.31171 3.7132 0
M  V30 4254 C 399.031 -3.47698 3.94959 0
M  V30 4255 O 398.057 -3.26937 4.65941 0
M  V30 4256 N 399.259 -4.6976 3.41037 0
M  V30 4257 H 402.024 -0.656507 2.92421 0
M  V30 4258 H 399.585 -0.211235 1.60516 0
M  V30 4259 H 401.577 -3.15712 2.53196 0
M  V30 4260 H 400.147 -2.70194 1.57207 0
M  V30 4261 H 399.367 -1.39547 3.68674 0
M  V30 4262 H 400.655 -2.23071 4.57293 0
M  V30 4263 H 400.053 -4.89528 2.83512 0
M  V30 4264 H 398.61 -5.43791 3.59353 0
M  V30 4265 N 402.043 -1.548 -0.295768 0
M  V30 4266 C 403.271 -1.78327 -1.04914 0
M  V30 4267 C 403.686 -0.545316 -1.80753 0
M  V30 4268 O 403.043 0.485013 -1.75937 0
M  V30 4269 C 403.094 -2.99418 -2.02561 0
M  V30 4270 O 402.815 -4.18431 -1.29798 0
M  V30 4271 C 404.316 -3.35375 -2.89895 0
M  V30 4272 H 401.536 -0.594618 -0.310918 0
M  V30 4273 H 404.08 -2.01763 -0.333454 0
M  V30 4274 H 402.235 -2.78175 -2.69624 0
M  V30 4275 H 402.649 -4.86736 -1.95419 0
M  V30 4276 H 404.123 -4.23332 -3.54251 0
M  V30 4277 H 404.6 -2.53761 -3.58472 0
M  V30 4278 H 405.206 -3.58796 -2.28355 0
M  V30 4279 N 403.521 0.559213 -1.47345 0
M  V30 4280 C 404.768 1.31648 -1.53867 0
M  V30 4281 C 405.096 1.93468 -0.200104 0
M  V30 4282 O 404.351 1.78295 0.806799 0
M  V30 4283 C 404.65 2.44853 -2.6035 0
M  V30 4284 C 404.316 2.00876 -4.03683 0
M  V30 4285 C 402.978 1.88599 -4.42701 0
M  V30 4286 C 405.33 1.67279 -4.93626 0
M  V30 4287 C 402.658 1.41017 -5.69501 0
M  V30 4288 C 405.01 1.21169 -6.20887 0
M  V30 4289 C 403.674 1.07487 -6.58789 0
M  V30 4290 H 402.944 0.481734 -0.56304 0
M  V30 4291 H 405.591 0.627301 -1.80934 0
M  V30 4292 H 403.896 3.19318 -2.27032 0
M  V30 4293 H 405.593 3.03039 -2.62619 0
M  V30 4294 H 402.183 2.11374 -3.72853 0
M  V30 4295 H 406.367 1.75638 -4.64182 0
M  V30 4296 H 401.623 1.29086 -5.97618 0
M  V30 4297 H 405.797 0.942345 -6.89995 0
M  V30 4298 H 403.424 0.703946 -7.56934 0
M  V30 4299 N 404.999 1.35443 0.805782 0
M  V30 4300 C 405.949 1.24972 1.90699 0
M  V30 4301 C 406.933 0.144806 1.60247 0
M  V30 4302 O 408.125 0.376102 1.72958 0
M  V30 4303 C 405.254 1.02475 3.27649 0
M  V30 4304 C 404.34 2.17361 3.64164 0
M  V30 4305 N 404.731 3.42591 3.72109 0
M  V30 4306 C 403.029 2.08765 3.94123 0
M  V30 4307 C 403.73 4.18144 4.04389 0
M  V30 4308 N 402.706 3.4691 4.18515 0
M  V30 4309 H 406.508 2.19852 1.95044 0
M  V30 4310 H 404.022 1.27928 1.00041 0
M  V30 4311 H 406.019 0.930617 4.06381 0
M  V30 4312 H 404.679 0.0848009 3.24589 0
M  V30 4313 H 405.69 3.76932 3.55166 0
M  V30 4314 H 402.367 1.22629 3.99084 0
M  V30 4315 H 403.757 5.26367 4.17597 0
M  V30 4316 N 406.477 -1.02803 1.19454 0
M  V30 4317 C 407.705 -1.79841 1.02297 0
M  V30 4318 C 408.12 -1.83879 -0.428259 0
M  V30 4319 O 407.477 -1.28345 -1.29745 0
M  V30 4320 C 407.528 -3.24852 1.58598 0
M  V30 4321 O 407.249 -3.21097 2.98041 0
M  V30 4322 C 408.75 -4.18485 1.46236 0
M  V30 4323 H 405.97 -0.565936 0.360496 0
M  V30 4324 H 408.514 -1.2948 1.58288 0
M  V30 4325 H 406.669 -3.72401 1.06753 0
M  V30 4326 H 407.083 -4.12033 3.24545 0
M  V30 4327 H 408.557 -5.18121 1.90407 0
M  V30 4328 H 409.034 -4.37254 0.41301 0
M  V30 4329 H 409.64 -3.76811 1.97215 0
M  V30 4330 N 407.956 -0.998596 -1.21925 0
M  V30 4331 C 409.372 -0.710303 -1.42923 0
M  V30 4332 C 409.572 0.716933 -1.88314 0
M  V30 4333 O 408.628 1.48712 -2.04062 0
M  V30 4334 C 409.941 -1.72072 -2.466 0
M  V30 4335 C 411.489 -1.73681 -2.60392 0
M  V30 4336 C 411.964 -2.73601 -3.67296 0
M  V30 4337 N 413.455 -2.7223 -3.7476 0
M  V30 4338 C 414.19 -3.46206 -4.57087 0
M  V30 4339 N 413.686 -4.29802 -5.43362 0
M  V30 4340 N 415.479 -3.34886 -4.51451 0
M  V30 4341 H 407.63 -1.92028 -0.9077 0
M  V30 4342 H 409.893 -0.828487 -0.460775 0
M  V30 4343 H 409.599 -2.74231 -2.20206 0
M  V30 4344 H 409.473 -1.51818 -3.45299 0
M  V30 4345 H 411.86 -0.722173 -2.86127 0
M  V30 4346 H 411.941 -1.98005 -1.61949 0
M  V30 4347 H 411.585 -3.75217 -3.42307 0
M  V30 4348 H 411.515 -2.46545 -4.65321 0
M  V30 4349 H 414.006 -2.11576 -3.1312 0
M  V30 4350 H 414.319 -4.83061 -6.03218 0
M  V30 4351 H 412.664 -4.33887 -5.42925 0
M  V30 4352 H 415.855 -2.69015 -3.83078 0
M  V30 4353 H 416.028 -3.92796 -5.15379 0
M  V30 4354 N 409.434 1.37368 -0.772513 0
M  V30 4355 C 410.683 1.98918 -0.333861 0
M  V30 4356 C 410.996 1.62017 1.09589 0
M  V30 4357 O 412.202 2.16676 1.63596 0
M  V30 4358 C 410.658 3.55735 -0.545971 0
M  V30 4359 C 410.266 4.01573 -1.98603 0
M  V30 4360 C 412.01 4.24156 -0.170979 0
M  V30 4361 C 409.917 5.51102 -2.1457 0
M  V30 4362 H 408.847 0.744214 -0.121085 0
M  V30 4363 H 411.498 1.56888 -0.95175 0
M  V30 4364 H 409.88 3.95748 0.141387 0
M  V30 4365 H 411.054 3.72803 -2.7084 0
M  V30 4366 H 409.369 3.45937 -2.31769 0
M  V30 4367 H 411.966 5.34024 -0.26878 0
M  V30 4368 H 412.309 4.06917 0.878855 0
M  V30 4369 H 412.842 3.89447 -0.810914 0
M  V30 4370 H 409.581 5.73268 -3.17875 0
M  V30 4371 H 409.101 5.81554 -1.46817 0
M  V30 4372 H 410.78 6.17083 -1.94468 0
M  V30 4373 N 410.912 0.523116 1.48665 0
M  V30 4374 C 412.161 -0.01544 2.01694 0
M  V30 4375 C 412.474 -1.35975 1.40606 0
M  V30 4376 O 413.68 -1.98627 1.85093 0
M  V30 4377 C 412.136 -0.0779303 3.59816 0
M  V30 4378 C 411.744 1.26107 4.29885 0
M  V30 4379 C 413.488 -0.565678 4.20714 0
M  V30 4380 C 411.395 1.15954 5.79921 0
M  V30 4381 H 410.325 -0.00954163 0.75394 0
M  V30 4382 H 412.976 0.665865 1.70993 0
M  V30 4383 H 411.358 -0.824165 3.87329 0
M  V30 4384 H 412.532 2.02233 4.14051 0
M  V30 4385 H 410.847 1.68401 3.80828 0
M  V30 4386 H 413.444 -0.6595 5.30617 0
M  V30 4387 H 413.787 -1.56984 3.85567 0
M  V30 4388 H 414.32 0.12467 3.97605 0
M  V30 4389 H 411.059 2.13864 6.19631 0
M  V30 4390 H 410.579 0.439529 5.98187 0
M  V30 4391 H 412.258 0.847361 6.41427 0
M  V30 4392 N 412.39 -1.55475 0.257931 0
M  V30 4393 C 413.806 -1.59307 -0.0966563 0
M  V30 4394 C 414.006 -1.27514 -1.5602 0
M  V30 4395 O 413.062 -1.02774 -2.30637 0
M  V30 4396 C 414.375 -2.99552 0.262481 0
M  V30 4397 C 415.923 -3.1231 0.207683 0
M  V30 4398 C 416.398 -4.54793 0.541012 0
M  V30 4399 N 417.889 -4.6058 0.491921 0
M  V30 4400 C 418.624 -5.68825 0.722857 0
M  V30 4401 N 418.12 -6.85287 1.0175 0
M  V30 4402 N 419.913 -5.58296 0.652815 0
M  V30 4403 H 412.064 -1.74409 1.21224 0
M  V30 4404 H 414.327 -0.812424 0.48854 0
M  V30 4405 H 414.033 -3.27593 1.27967 0
M  V30 4406 H 413.907 -3.75019 -0.40508 0
M  V30 4407 H 416.294 -2.84044 -0.800195 0
M  V30 4408 H 416.375 -2.39095 0.909255 0
M  V30 4409 H 416.019 -4.83783 1.5465 0
M  V30 4410 H 415.949 -5.26285 -0.18216 0
M  V30 4411 H 418.44 -3.7691 0.273366 0
M  V30 4412 H 418.753 -7.63725 1.18084 0
M  V30 4413 H 417.098 -6.86945 1.05509 0
M  V30 4414 H 420.289 -4.66189 0.422592 0
M  V30 4415 H 420.462 -6.42582 0.836182 0
M  V30 4416 N 413.868 0.0150385 -1.57593 0
M  V30 4417 C 415.115 0.703001 -1.89906 0
M  V30 4418 C 415.443 1.74604 -0.856944 0
M  V30 4419 O 414.698 1.95197 0.140287 0
M  V30 4420 C 414.997 1.39686 -3.28972 0
M  V30 4421 C 414.663 0.488457 -4.48246 0
M  V30 4422 C 413.325 0.2383 -4.8061 0
M  V30 4423 C 415.677 -0.137881 -5.21018 0
M  V30 4424 C 413.005 -0.646738 -5.83125 0
M  V30 4425 C 415.357 -1.0107 -6.24474 0
M  V30 4426 C 414.021 -1.27019 -6.55303 0
M  V30 4427 H 413.291 0.257246 -0.694914 0
M  V30 4428 H 415.938 -0.037259 -1.91464 0
M  V30 4429 H 414.243 2.21079 -3.23468 0
M  V30 4430 H 415.94 1.93495 -3.51227 0
M  V30 4431 H 412.53 0.693593 -4.22951 0
M  V30 4432 H 416.714 0.0423953 -4.96282 0
M  V30 4433 H 411.97 -0.855937 -6.05379 0
M  V30 4434 H 416.144 -1.50247 -6.79999 0
M  V30 4435 H 413.771 -1.95769 -7.3456 0
M  V30 4436 N 415.346 1.54954 0.287554 0
M  V30 4437 C 416.586 1.76617 1.02887 0
M  V30 4438 C 416.95 0.547759 1.84021 0
M  V30 4439 O 418.151 0.642365 2.61012 0
M  V30 4440 C 416.422 3.02717 1.89993 0
M  V30 4441 S 417.981 3.45438 2.70588 0
M  V30 4442 H 414.799 0.6207 0.346775 0
M  V30 4443 H 417.401 1.93172 0.30082 0
M  V30 4444 H 416.105 3.89503 1.29287 0
M  V30 4445 H 415.636 2.88787 2.67144 0
M  V30 4446 H 417.651 3.03566 3.92508 0
M  V30 4447 N 416.824 -0.551391 1.4764 0
M  V30 4448 C 418.049 -1.33837 1.58437 0
M  V30 4449 C 418.474 -1.866 0.237063 0
M  V30 4450 O 417.832 -1.6328 -0.787994 0
M  V30 4451 C 417.88 -2.48014 2.61766 0
M  V30 4452 O 416.984 -3.50419 2.1744 0
M  V30 4453 H 416.325 -0.397299 0.532024 0
M  V30 4454 H 418.855 -0.665759 1.93465 0
M  V30 4455 H 418.865 -2.94503 2.82369 0
M  V30 4456 H 417.54 -2.08969 3.5959 0
M  V30 4457 H 416.117 -3.10196 2.06961 0
M  V30 4458 N 418.302 -1.35869 -0.798587 0
M  V30 4459 C 419.551 -1.28921 -1.5512 0
M  V30 4460 C 419.864 0.13208 -1.95154 0
M  V30 4461 O 421.07 0.323879 -2.69561 0
M  V30 4462 C 419.526 -2.26141 -2.79979 0
M  V30 4463 C 419.134 -3.73658 -2.47151 0
M  V30 4464 C 420.878 -2.28152 -3.57976 0
M  V30 4465 C 418.785 -4.62679 -3.6835 0
M  V30 4466 H 417.715 -0.479031 -0.582276 0
M  V30 4467 H 420.366 -1.61179 -0.877125 0
M  V30 4468 H 418.748 -1.86865 -3.49138 0
M  V30 4469 H 419.922 -4.21616 -1.85947 0
M  V30 4470 H 418.237 -3.74333 -1.82383 0
M  V30 4471 H 420.834 -2.91875 -4.4801 0
M  V30 4472 H 421.177 -1.28748 -3.95891 0
M  V30 4473 H 421.71 -2.65998 -2.95787 0
M  V30 4474 H 418.449 -5.63111 -3.35538 0
M  V30 4475 H 417.969 -4.19442 -4.28752 0
M  V30 4476 H 419.648 -4.78498 -4.35487 0
M  V30 4477 N 419.78 1.02168 -1.19998 0
M  V30 4478 C 420.728 2.12717 -0.940967 0
M  V30 4479 C 421.722 1.69069 0.105841 0
M  V30 4480 O 422.928 1.79946 -0.0440583 0
M  V30 4481 H 419.303 0.695108 -0.28693 0
M  V30 4482 H 421.274 2.3175 -1.87975 0
M  V30 4483 C 420.023 3.44027 -0.504049 0
M  V30 4484 H 419.346 3.78036 -1.30112 0
M  V30 4485 H 420.786 4.22452 -0.361991 0
M  V30 4486 C 419.245 3.27678 0.782878 0
M  V30 4487 O 419.775 3.56949 1.84256 0
M  V30 4488 N 417.981 2.80943 0.742921 0
M  V30 4489 H 417.528 2.57322 -0.119687 0
M  V30 4490 H 417.486 2.70385 1.60435 0
M  V30 4491 N 421.258 1.00505 1.21394 0
M  V30 4492 C 422.483 0.706367 1.95001 0
M  V30 4493 C 422.908 -0.72463 1.73582 0
M  V30 4494 O 422.266 -1.49702 1.0227 0
M  V30 4495 C 422.314 1.03299 3.45487 0
M  V30 4496 O 421.418 0.138275 4.12168 0
M  V30 4497 H 420.759 0.263175 0.609619 0
M  V30 4498 H 423.289 1.34531 1.54151 0
M  V30 4499 H 423.299 0.979872 3.96059 0
M  V30 4500 H 421.974 2.07567 3.60401 0
M  V30 4501 H 420.551 0.247928 3.72075 0
M  V30 4502 N 422.737 -1.36956 0.779787 0
M  V30 4503 C 423.985 -1.99097 0.347079 0
M  V30 4504 C 424.306 -1.62206 -1.08232 0
M  V30 4505 O 423.576 -0.891373 -1.74446 0
M  V30 4506 H 422.156 -0.736409 0.125342 0
M  V30 4507 H 424.818 -1.67308 0.999696 0
M  V30 4508 H 423.914 -3.09107 0.431162 0
M  V30 4509 N 424.215 -0.530993 -1.48385 0
M  V30 4510 C 425.145 0.219985 -2.32461 0
M  V30 4511 C 426.126 0.934111 -1.42156 0
M  V30 4512 O 427.311 0.919694 -1.71042 0
M  V30 4513 C 424.441 1.26674 -3.23375 0
M  V30 4514 C 423.395 0.67069 -4.22712 0
M  V30 4515 C 422.721 1.82017 -5.02766 0
M  V30 4516 C 424.021 -0.358268 -5.2107 0
M  V30 4517 H 425.715 -0.48187 -2.95497 0
M  V30 4518 H 423.261 -0.233182 -1.42099 0
M  V30 4519 H 425.214 1.80006 -3.81019 0
M  V30 4520 H 423.938 1.99818 -2.58341 0
M  V30 4521 H 422.597 0.158878 -3.66256 0
M  V30 4522 H 422.245 2.54002 -4.34157 0
M  V30 4523 H 421.945 1.42727 -5.70003 0
M  V30 4524 H 423.469 2.35725 -5.63264 0
M  V30 4525 H 424.883 0.0880081 -5.73232 0
M  V30 4526 H 423.28 -0.66861 -5.96364 0
M  V30 4527 H 424.35 -1.26367 -4.68145 0
M  V30 4528 N 425.693 1.55336 -0.266172 0
M  V30 4529 C 426.643 2.18848 0.639497 0
M  V30 4530 C 427.627 1.1503 1.12503 0
M  V30 4531 O 428.819 1.40875 1.0716 0
M  V30 4532 C 425.948 2.90626 1.82733 0
M  V30 4533 C 425.034 4.01723 1.35939 0
M  V30 4534 N 425.425 5.02145 0.606988 0
M  V30 4535 C 423.723 4.1463 1.6431 0
M  V30 4536 C 424.424 5.80572 0.362138 0
M  V30 4537 N 423.4 5.35551 0.931971 0
M  V30 4538 H 427.202 2.93845 0.0567057 0
M  V30 4539 H 424.716 1.62252 -0.0693312 0
M  V30 4540 H 426.713 3.34569 2.48735 0
M  V30 4541 H 425.373 2.17137 2.41416 0
M  V30 4542 H 426.384 5.17271 0.255198 0
M  V30 4543 H 423.061 3.52326 2.23993 0
M  V30 4544 H 424.451 6.71472 -0.239848 0
M  V30 4545 N 427.171 -0.0066808 1.57599 0
M  V30 4546 C 428.396 -0.707738 1.94951 0
M  V30 4547 C 428.821 -1.66882 0.867868 0
M  V30 4548 O 428.179 -1.80457 -0.17458 0
M  V30 4549 C 428.227 -1.42162 3.31394 0
M  V30 4550 O 427.331 -2.53578 3.25226 0
M  V30 4551 H 426.672 -0.188752 0.636607 0
M  V30 4552 H 429.202 0.0445193 2.04552 0
M  V30 4553 H 429.212 -1.78655 3.66806 0
M  V30 4554 H 427.887 -0.716903 4.09675 0
M  V30 4555 H 426.464 -2.19463 3.01481 0
M  V30 4556 N 428.649 -1.55105 -0.279332 0
M  V30 4557 C 429.879 -1.7917 -1.02867 0
M  V30 4558 C 430.287 -0.56204 -1.80659 0
M  V30 4559 O 429.63 0.478266 -1.77365 0
M  V30 4560 C 429.692 -2.96061 -2.03932 0
M  V30 4561 C 429.356 -4.33341 -1.45137 0
M  V30 4562 C 430.353 -5.12565 -0.870266 0
M  V30 4563 C 428.038 -4.79987 -1.48048 0
M  V30 4564 C 430.032 -6.36565 -0.326097 0
M  V30 4565 C 427.719 -6.03944 -0.932443 0
M  V30 4566 C 428.717 -6.8207 -0.356247 0
M  V30 4567 O 428.405 -8.03691 0.183412 0
M  V30 4568 H 428.137 -0.600796 -0.309872 0
M  V30 4569 H 430.691 -2.02932 -0.317468 0
M  V30 4570 H 428.921 -2.67975 -2.78794 0
M  V30 4571 H 430.61 -3.07506 -2.64943 0
M  V30 4572 H 431.376 -4.77661 -0.840521 0
M  V30 4573 H 427.255 -4.1919 -1.91835 0
M  V30 4574 H 430.799 -6.97489 0.124286 0
M  V30 4575 H 426.696 -6.3833 -0.959407 0
M  V30 4576 H 427.464 -8.18468 0.0721681 0
M  V30 4577 N 430.127 0.543554 -1.4793 0
M  V30 4578 C 431.06 1.66556 -1.55995 0
M  V30 4579 C 432.038 1.57315 -0.411205 0
M  V30 4580 O 433.222 1.7798 -0.620922 0
M  V30 4581 C 430.349 3.04883 -1.47527 0
M  V30 4582 C 429.395 3.32526 -2.67074 0
M  V30 4583 S 430.228 3.20282 -4.29162 0
M  V30 4584 C 431.384 4.61079 -4.23269 0
M  V30 4585 H 431.617 1.59462 -2.50917 0
M  V30 4586 H 429.15 0.725456 -1.36296 0
M  V30 4587 H 431.108 3.84665 -1.43328 0
M  V30 4588 H 429.769 3.09429 -0.539665 0
M  V30 4589 H 428.962 4.33403 -2.5725 0
M  V30 4590 H 428.564 2.60389 -2.68466 0
M  V30 4591 H 430.856 5.52318 -3.92365 0
M  V30 4592 H 431.799 4.75959 -5.24279 0
M  V30 4593 H 432.207 4.39766 -3.5393 0
M  V30 4594 N 431.605 1.3629 0.791371 0
M  V30 4595 C 432.515 1.32606 1.93527 0
M  V30 4596 C 433.531 0.228541 1.72493 0
M  V30 4597 O 434.707 0.460571 1.96063 0
M  V30 4598 C 431.772 1.11271 3.28359 0
M  V30 4599 C 430.833 2.3048 3.62185 0
M  V30 4600 C 430.066 2.10154 4.90583 0
M  V30 4601 O 430.289 1.07572 5.60165 0
M  V30 4602 O 429.223 2.97884 5.23019 0
M  V30 4603 H 433.049 2.28909 1.99585 0
M  V30 4604 H 430.634 1.16818 0.931344 0
M  V30 4605 H 432.516 1.01283 4.09047 0
M  V30 4606 H 431.191 0.180292 3.23198 0
M  V30 4607 H 430.098 2.46036 2.81811 0
M  V30 4608 H 431.431 3.22221 3.72068 0
M  V30 4609 N 433.083 -1.0153 1.20538 0
M  V30 4610 C 434.016 -2.09759 0.898695 0
M  V30 4611 C 434.994 -1.61909 -0.149733 0
M  V30 4612 O 436.178 -1.88486 -0.0230293 0
M  V30 4613 C 433.305 -3.36913 0.347512 0
M  V30 4614 C 432.351 -4.03655 1.37713 0
M  V30 4615 S 433.184 -4.47402 2.94265 0
M  V30 4616 C 434.34 -5.77756 2.40726 0
M  V30 4617 H 434.573 -2.3545 1.81523 0
M  V30 4618 H 432.106 -1.14665 1.03399 0
M  V30 4619 H 434.064 -4.10484 0.0360518 0
M  V30 4620 H 432.725 -3.09291 -0.547546 0
M  V30 4621 H 431.918 -4.9514 0.940872 0
M  V30 4622 H 431.52 -3.36313 1.63614 0
M  V30 4623 H 433.812 -6.52994 1.80569 0
M  V30 4624 H 434.755 -6.2618 3.30612 0
M  V30 4625 H 435.163 -5.34081 1.82806 0
M  V30 4626 N 434.561 -1.01147 -1.20859 0
M  V30 4627 C 435.972 -0.730205 -1.71828 0
M  V30 4628 C 436.323 0.751662 -1.8123 0
M  V30 4629 O 435.448 1.58686 -1.47132 0
M  V30 4630 C 436.043 -1.31885 -3.12077 0
M  V30 4631 C 434.602 -1.08656 -3.60376 0
M  V30 4632 C 433.749 -1.42769 -2.37723 0
M  V30 4633 H 436.7 -1.18158 -1.05945 0
M  V30 4634 H 436.721 -0.706793 -3.73878 0
M  V30 4635 H 436.233 -2.39737 -3.05201 0
M  V30 4636 H 434.334 -0.0254814 -3.72591 0
M  V30 4637 H 434.447 -1.76301 -4.45483 0
M  V30 4638 H 432.811 -0.846603 -2.40218 0
M  V30 4639 H 433.594 -2.51666 -2.33493 0
M  V30 4640 N 436.039 1.36541 -0.78704 0
M  V30 4641 C 436.969 2.32659 -0.197992 0
M  V30 4642 C 437.95 1.56533 0.665697 0
M  V30 4643 O 439.135 1.84698 0.60001 0
M  V30 4644 C 436.265 3.40778 0.669901 0
M  V30 4645 C 435.219 4.27897 -0.0937039 0
M  V30 4646 C 434.545 5.27163 0.894629 0
M  V30 4647 C 435.845 5.06334 -1.28154 0
M  V30 4648 H 437.539 2.82171 -1.00099 0
M  V30 4649 H 435.085 1.35665 -0.482793 0
M  V30 4650 H 437.038 4.07008 1.09191 0
M  V30 4651 H 435.762 2.89827 1.50558 0
M  V30 4652 H 434.421 3.6322 -0.49666 0
M  V30 4653 H 434.069 4.72486 1.72527 0
M  V30 4654 H 433.769 5.86317 0.388149 0
M  V30 4655 H 435.293 5.96266 1.31525 0
M  V30 4656 H 436.707 5.65617 -0.93541 0
M  V30 4657 H 435.104 5.74888 -1.72115 0
M  V30 4658 H 436.174 4.38114 -2.07807 0
M  V30 4659 N 437.518 0.538854 1.48102 0
M  V30 4660 C 438.428 -0.222648 2.33541 0
M  V30 4661 C 439.444 -0.930225 1.47047 0
M  V30 4662 O 440.62 -0.903211 1.80011 0
M  V30 4663 C 437.685 -1.25064 3.23357 0
M  V30 4664 C 436.746 -0.552469 4.2573 0
M  V30 4665 C 435.979 -1.53149 5.11254 0
M  V30 4666 O 436.202 -2.76487 4.9891 0
M  V30 4667 O 435.136 -1.06602 5.92385 0
M  V30 4668 H 438.962 0.477707 2.99919 0
M  V30 4669 H 436.547 0.299669 1.46364 0
M  V30 4670 H 438.429 -1.8445 3.78888 0
M  V30 4671 H 437.104 -1.93325 2.59629 0
M  V30 4672 H 436.011 0.082114 3.7401 0
M  V30 4673 H 437.344 0.0883526 4.92121 0
M  V30 4674 N 438.996 -1.55193 0.274407 0
M  V30 4675 C 440.236 -2.01488 -0.343778 0
M  V30 4676 C 440.6 -1.1586 -1.53103 0
M  V30 4677 O 441.801 -1.51732 -2.2188 0
M  V30 4678 C 440.072 -3.50134 -0.717021 0
M  V30 4679 S 441.631 -4.18417 -1.32184 0
M  V30 4680 H 438.449 -0.70291 -0.106948 0
M  V30 4681 H 441.051 -1.91446 0.396075 0
M  V30 4682 H 439.755 -4.10104 0.155947 0
M  V30 4683 H 439.286 -3.64159 -1.48835 0
M  V30 4684 H 441.301 -4.21984 -2.61044 0
M  V30 4685 N 440.474 -0.00167713 -1.576 0
M  V30 4686 C 441.723 0.682021 -1.89819 0
M  V30 4687 C 442.036 1.74844 -0.876871 0
M  V30 4688 O 443.242 2.48688 -1.08934 0
M  V30 4689 C 441.698 1.26425 -3.36964 0
M  V30 4690 C 441.306 0.232568 -4.47396 0
M  V30 4691 C 443.05 1.92604 -3.78291 0
M  V30 4692 C 440.957 0.824882 -5.85619 0
M  V30 4693 H 439.887 0.258499 -0.708304 0
M  V30 4694 H 442.538 -0.0624957 -1.83394 0
M  V30 4695 H 440.92 2.05949 -3.38232 0
M  V30 4696 H 442.094 -0.5382 -4.57646 0
M  V30 4697 H 440.409 -0.32888 -4.15099 0
M  V30 4698 H 443.006 2.37827 -4.78897 0
M  V30 4699 H 443.349 2.75732 -3.11894 0
M  V30 4700 H 443.882 1.19812 -3.79328 0
M  V30 4701 H 440.621 0.0323542 -6.55492 0
M  V30 4702 H 440.141 1.56477 -5.79029 0
M  V30 4703 H 441.82 1.32301 -6.33329 0
M  V30 4704 N 441.952 1.55251 0.271103 0
M  V30 4705 C 442.882 1.9127 1.33933 0
M  V30 4706 C 443.863 0.77478 1.5143 0
M  V30 4707 O 445.048 1.03307 1.64442 0
M  V30 4708 C 442.178 2.18627 2.69851 0
M  V30 4709 C 441.132 3.34442 2.67081 0
M  V30 4710 C 440.458 3.47284 4.06569 0
M  V30 4711 C 441.758 4.70784 2.26185 0
M  V30 4712 H 443.452 2.80744 1.04035 0
M  V30 4713 H 440.998 1.35077 0.499017 0
M  V30 4714 H 442.951 2.42413 3.44694 0
M  V30 4715 H 441.675 1.25955 3.01335 0
M  V30 4716 H 440.334 3.10627 1.94695 0
M  V30 4717 H 439.982 2.52074 4.35279 0
M  V30 4718 H 439.682 4.25152 4.0561 0
M  V30 4719 H 441.206 3.73363 4.83148 0
M  V30 4720 H 442.62 4.94102 2.90751 0
M  V30 4721 H 441.017 5.51582 2.36384 0
M  V30 4722 H 442.087 4.69478 1.21319 0
M  V30 4723 N 443.43 -0.535701 1.48216 0
M  V30 4724 C 444.658 -1.31671 1.59594 0
M  V30 4725 C 445.073 -1.87083 0.254056 0
M  V30 4726 O 444.43 -1.66112 -0.755854 0
M  V30 4727 C 444.481 -2.47158 2.63809 0
M  V30 4728 O 444.202 -1.94032 3.92789 0
M  V30 4729 C 445.703 -3.39062 2.85573 0
M  V30 4730 H 442.923 -0.400623 0.538277 0
M  V30 4731 H 445.467 -0.646827 1.94001 0
M  V30 4732 H 443.622 -3.10043 2.32276 0
M  V30 4733 H 444.036 -2.69585 4.49916 0
M  V30 4734 H 445.51 -4.16459 3.62306 0
M  V30 4735 H 445.987 -3.93941 1.94184 0
M  V30 4736 H 446.593 -2.81975 3.18387 0
M  V30 4737 N 444.908 -1.36708 -0.784132 0
M  V30 4738 C 445.818 -1.3363 -1.92822 0
M  V30 4739 C 446.834 -0.237686 -1.72369 0
M  V30 4740 O 448.01 -0.470962 -1.95816 0
M  V30 4741 C 445.075 -1.13011 -3.27764 0
M  V30 4742 C 444.136 -2.32397 -3.60957 0
M  V30 4743 C 443.369 -2.12752 -4.89461 0
M  V30 4744 O 443.592 -1.10541 -5.59586 0
M  V30 4745 O 442.526 -3.00653 -5.21432 0
M  V30 4746 H 446.352 -2.29964 -1.98369 0
M  V30 4747 H 443.937 -1.1731 -0.925136 0
M  V30 4748 H 445.819 -1.03451 -4.08504 0
M  V30 4749 H 444.494 -0.19743 -3.23097 0
M  V30 4750 H 443.401 -2.47527 -2.80502 0
M  V30 4751 H 444.734 -3.2419 -3.70354 0
M  V30 4752 N 446.386 1.0089 -1.21074 0
M  V30 4753 C 447.333 2.09588 -0.966512 0
M  V30 4754 C 448.303 1.65761 0.106089 0
M  V30 4755 O 449.488 1.90758 -0.0402287 0
M  V30 4756 C 446.628 3.40958 -0.533058 0
M  V30 4757 C 445.741 3.9822 -1.67467 0
M  V30 4758 C 444.876 5.17682 -1.19076 0
M  V30 4759 C 443.915 5.67043 -2.30496 0
M  V30 4760 N 443.052 6.77759 -1.83267 0
M  V30 4761 H 447.892 2.29815 -1.89708 0
M  V30 4762 H 445.429 1.12689 -0.945489 0
M  V30 4763 H 447.387 4.1637 -0.263019 0
M  V30 4764 H 446.017 3.20781 0.360505 0
M  V30 4765 H 445.069 3.1983 -2.05944 0
M  V30 4766 H 446.381 4.3085 -2.51336 0
M  V30 4767 H 445.535 6.00326 -0.877151 0
M  V30 4768 H 444.274 4.86635 -0.322066 0
M  V30 4769 H 443.279 4.82999 -2.62664 0
M  V30 4770 H 444.504 6.00121 -3.17855 0
M  V30 4771 H 442.45 6.48527 -0.987356 0
M  V30 4772 H 442.367 7.09624 -2.60711 0
M  V30 4773 H 443.635 7.63949 -1.54928 0
M  V30 4774 N 447.864 1.01787 1.20321 0
M  V30 4775 C 449.28 0.732951 1.41774 0
M  V30 4776 C 449.48 -0.686883 1.89431 0
M  V30 4777 O 448.536 -1.45446 2.06402 0
M  V30 4778 C 449.849 1.75973 2.43832 0
M  V30 4779 C 451.397 1.77802 2.57596 0
M  V30 4780 C 451.872 2.7941 3.62897 0
M  V30 4781 N 453.363 2.78157 3.70382 0
M  V30 4782 C 454.098 3.53434 4.51521 0
M  V30 4783 N 453.594 4.38392 5.36455 0
M  V30 4784 N 455.387 3.42026 4.46066 0
M  V30 4785 H 447.538 1.93447 0.877035 0
M  V30 4786 H 449.801 0.835712 0.447536 0
M  V30 4787 H 449.507 2.77699 2.15815 0
M  V30 4788 H 449.381 1.57292 3.4284 0
M  V30 4789 H 451.768 0.767602 2.84942 0
M  V30 4790 H 451.849 2.00557 1.58779 0
M  V30 4791 H 451.493 3.80616 3.36295 0
M  V30 4792 H 451.423 2.53916 4.61339 0
M  V30 4793 H 453.914 2.16531 3.09714 0
M  V30 4794 H 454.227 4.92596 5.95457 0
M  V30 4795 H 452.572 4.4247 5.35953 0
M  V30 4796 H 455.763 2.75075 3.78749 0
M  V30 4797 H 455.936 4.00946 5.09064 0
M  V30 4798 N 449.342 -1.36122 0.79427 0
M  V30 4799 C 450.289 -2.29982 0.194101 0
M  V30 4800 C 451.259 -1.52214 -0.664833 0
M  V30 4801 O 452.444 -1.80702 -0.612498 0
M  V30 4802 C 449.584 -3.38706 -0.661244 0
M  V30 4803 C 448.697 -4.31456 0.216766 0
M  V30 4804 C 447.832 -5.27265 -0.645411 0
M  V30 4805 C 446.871 -6.11653 0.233756 0
M  V30 4806 N 446.008 -6.99636 -0.587682 0
M  V30 4807 H 450.848 -2.80722 0.999965 0
M  V30 4808 H 448.385 -1.38172 0.504677 0
M  V30 4809 H 450.343 -4.00394 -1.17219 0
M  V30 4810 H 448.973 -2.89274 -1.43249 0
M  V30 4811 H 448.025 -3.7088 0.845724 0
M  V30 4812 H 449.337 -4.90724 0.893973 0
M  V30 4813 H 448.491 -5.94266 -1.22198 0
M  V30 4814 H 447.23 -4.68463 -1.35623 0
M  V30 4815 H 446.235 -5.4361 0.82269 0
M  V30 4816 H 447.46 -6.72531 0.942247 0
M  V30 4817 H 445.406 -6.43337 -1.2827 0
M  V30 4818 H 445.323 -7.55993 0.0317402 0
M  V30 4819 H 446.591 -7.71001 -1.14792 0
M  V30 4820 N 450.82 -0.546701 -1.47814 0
M  V30 4821 C 451.767 0.206854 -2.29871 0
M  V30 4822 C 452.737 0.918235 -1.38411 0
M  V30 4823 O 453.922 0.915991 -1.67375 0
M  V30 4824 C 451.062 1.23746 -3.22151 0
M  V30 4825 C 450.175 0.533216 -4.28697 0
M  V30 4826 C 449.31 1.5482 -5.08138 0
M  V30 4827 C 448.349 0.828347 -6.06469 0
M  V30 4828 N 447.486 1.78966 -6.78908 0
M  V30 4829 H 452.326 -0.499037 -2.93792 0
M  V30 4830 H 449.863 -0.25793 -1.44821 0
M  V30 4831 H 451.821 1.84746 -3.74065 0
M  V30 4832 H 450.451 1.91151 -2.60117 0
M  V30 4833 H 449.503 -0.191089 -3.7992 0
M  V30 4834 H 450.815 -0.0311987 -4.9879 0
M  V30 4835 H 449.969 2.23202 -5.6415 0
M  V30 4836 H 448.708 2.14652 -4.37922 0
M  V30 4837 H 447.713 0.130539 -5.49645 0
M  V30 4838 H 448.938 0.235907 -6.7869 0
M  V30 4839 H 446.884 2.37675 -6.1143 0
M  V30 4840 H 446.801 1.27712 -7.45135 0
M  V30 4841 H 448.069 2.46496 -7.395 0
M  V30 4842 N 452.299 1.55045 -0.282633 0
M  V30 4843 C 453.715 1.59441 0.0712997 0
M  V30 4844 C 453.915 1.2998 1.53972 0
M  V30 4845 O 452.971 1.06431 2.28973 0
M  V30 4846 C 454.284 2.99097 -0.310104 0
M  V30 4847 C 455.832 3.1194 -0.257343 0
M  V30 4848 C 456.307 4.53875 -0.613297 0
M  V30 4849 N 457.798 4.5974 -0.565134 0
M  V30 4850 C 458.533 5.67603 -0.81326 0
M  V30 4851 N 458.029 6.83582 -1.1264 0
M  V30 4852 N 459.822 5.57187 -0.741553 0
M  V30 4853 H 451.973 1.72458 -1.23984 0
M  V30 4854 H 454.236 0.804549 -0.501403 0
M  V30 4855 H 453.942 3.25516 -1.33163 0
M  V30 4856 H 453.816 3.75616 0.345366 0
M  V30 4857 H 456.203 2.85281 0.754905 0
M  V30 4858 H 456.284 2.37618 -0.947178 0
M  V30 4859 H 455.928 4.81261 -1.62327 0
M  V30 4860 H 455.858 5.26508 0.09841 0
M  V30 4861 H 458.349 3.76427 -0.333294 0
M  V30 4862 H 458.662 7.6175 -1.30219 0
M  V30 4863 H 457.007 6.85179 -1.16425 0
M  V30 4864 H 460.198 4.65457 -0.496705 0
M  V30 4865 H 460.371 6.41171 -0.938306 0
M  V30 4866 N 453.777 0.010035 1.57597 0
M  V30 4867 C 455.002 -0.687021 1.95691 0
M  V30 4868 C 455.427 -1.65952 0.885519 0
M  V30 4869 O 454.785 -1.80633 -0.15543 0
M  V30 4870 C 454.833 -1.3864 3.32884 0
M  V30 4871 O 453.937 -2.50115 3.27897 0
M  V30 4872 H 453.278 -0.181989 0.638573 0
M  V30 4873 H 455.808 0.0662122 2.04493 0
M  V30 4874 H 455.818 -1.74754 3.6868 0
M  V30 4875 H 454.493 -0.673411 4.10412 0
M  V30 4876 H 453.07 -2.16253 3.03791 0
M  V30 4877 N 455.255 -1.55392 -0.262866 0
M  V30 4878 C 456.483 -1.80513 -1.01108 0
M  V30 4879 C 456.898 -0.583533 -1.79556 0
M  V30 4880 O 456.255 0.447585 -1.76926 0
M  V30 4881 C 456.306 -3.03648 -1.96164 0
M  V30 4882 O 456.027 -4.2109 -1.20893 0
M  V30 4883 C 457.528 -3.41448 -2.82715 0
M  V30 4884 H 454.748 -0.601079 -0.298236 0
M  V30 4885 H 457.292 -2.02425 -0.290582 0
M  V30 4886 H 455.447 -2.83832 -2.63663 0
M  V30 4887 H 455.861 -4.90771 -1.85051 0
M  V30 4888 H 457.335 -4.30751 -3.45192 0
M  V30 4889 H 457.812 -2.61308 -3.53008 0
M  V30 4890 H 458.418 -3.63559 -2.20693 0
M  V30 4891 N 456.733 0.527833 -1.48498 0
M  V30 4892 C 457.68 1.6322 -1.6318 0
M  V30 4893 C 458.65 1.59199 -0.473815 0
M  V30 4894 O 459.835 1.77591 -0.697563 0
M  V30 4895 C 456.975 3.01474 -1.67951 0
M  V30 4896 C 456.088 3.15713 -2.94871 0
M  V30 4897 C 455.223 4.44539 -2.90789 0
M  V30 4898 C 454.262 4.52315 -4.12404 0
M  V30 4899 N 453.399 5.72533 -4.06387 0
M  V30 4900 H 458.239 1.50011 -2.57489 0
M  V30 4901 H 455.776 0.730298 -1.27691 0
M  V30 4902 H 457.734 3.81572 -1.68698 0
M  V30 4903 H 456.364 3.1345 -0.771306 0
M  V30 4904 H 455.416 2.28854 -3.03859 0
M  V30 4905 H 456.728 3.1732 -3.8485 0
M  V30 4906 H 455.882 5.3293 -2.89949 0
M  V30 4907 H 454.621 4.45457 -1.98542 0
M  V30 4908 H 453.626 3.62331 -4.13517 0
M  V30 4909 H 454.851 4.53134 -5.05812 0
M  V30 4910 H 452.797 5.74344 -3.16962 0
M  V30 4911 H 452.714 5.75643 -4.90073 0
M  V30 4912 H 453.982 6.63204 -4.0961 0
M  V30 4913 N 458.211 1.37122 0.776871 0
M  V30 4914 C 459.158 1.3247 1.88998 0
M  V30 4915 C 460.128 0.191143 1.64997 0
M  V30 4916 O 461.313 0.379683 1.86984 0
M  V30 4917 C 458.453 1.13241 3.25992 0
M  V30 4918 C 457.566 2.35782 3.61982 0
M  V30 4919 C 456.701 2.09465 4.88158 0
M  V30 4920 C 455.74 3.279 5.16864 0
M  V30 4921 N 454.877 3.01167 6.34226 0
M  V30 4922 H 459.717 2.27642 1.9231 0
M  V30 4923 H 457.254 1.13125 0.94027 0
M  V30 4924 H 459.212 1.00115 4.0501 0
M  V30 4925 H 457.842 0.217186 3.22069 0
M  V30 4926 H 456.894 2.59666 2.77989 0
M  V30 4927 H 458.206 3.24125 3.79137 0
M  V30 4928 H 457.36 1.93341 5.75069 0
M  V30 4929 H 456.099 1.18452 4.73097 0
M  V30 4930 H 455.104 3.44569 4.2843 0
M  V30 4931 H 456.329 4.19757 5.33836 0
M  V30 4932 H 454.275 2.12779 6.20533 0
M  V30 4933 H 454.192 3.83052 6.51772 0
M  V30 4934 H 455.46 2.88649 7.24087 0
M  V30 4935 N 459.689 -1.00246 1.21608 0
M  V30 4936 C 460.599 -2.12515 0.993709 0
M  V30 4937 C 461.615 -1.73913 -0.0549939 0
M  V30 4938 O 462.791 -2.00943 0.135619 0
M  V30 4939 C 459.856 -3.42083 0.563953 0
M  V30 4940 C 458.917 -3.94843 1.68516 0
M  V30 4941 C 458.15 -5.18226 1.27582 0
M  V30 4942 O 458.373 -5.70201 0.150506 0
M  V30 4943 O 457.307 -5.64497 2.0887 0
M  V30 4944 H 461.133 -2.34152 1.93407 0
M  V30 4945 H 458.718 -1.10891 1.00118 0
M  V30 4946 H 460.6 -4.20073 0.334194 0
M  V30 4947 H 459.275 -3.21828 -0.347665 0
M  V30 4948 H 458.182 -3.18068 1.96935 0
M  V30 4949 H 459.515 -4.19512 2.5743 0
M  V30 4950 N 461.167 -1.02423 -1.1978 0
M  V30 4951 C 462.413 -0.719051 -1.89625 0
M  V30 4952 C 462.746 0.750083 -1.7913 0
M  V30 4953 O 462.021 1.54574 -1.18056 0
M  V30 4954 C 462.304 -1.16499 -3.40735 0
M  V30 4955 C 462.157 -2.695 -3.60125 0
M  V30 4956 C 463.476 -0.742166 -4.33797 0
M  V30 4957 H 460.595 -0.26269 -0.688595 0
M  V30 4958 H 463.237 -1.27333 -1.41018 0
M  V30 4959 H 461.387 -0.69341 -3.82262 0
M  V30 4960 H 463.059 -3.24569 -3.278 0
M  V30 4961 H 461.302 -3.10113 -3.03336 0
M  V30 4962 H 461.973 -2.95757 -4.66081 0
M  V30 4963 H 464.449 -1.1477 -3.99959 0
M  V30 4964 H 463.325 -1.08213 -5.38127 0
M  V30 4965 H 463.586 0.355747 -4.40666 0
M  V30 4966 N 462.645 1.35699 -0.801477 0
M  V30 4967 C 463.892 1.98913 -0.379459 0
M  V30 4968 C 464.22 1.63592 1.05204 0
M  V30 4969 O 463.475 0.888563 1.74365 0
M  V30 4970 C 463.774 3.53828 -0.504041 0
M  V30 4971 C 463.44 4.09002 -1.8981 0
M  V30 4972 C 462.102 4.23783 -2.27951 0
M  V30 4973 C 464.454 4.38939 -2.81038 0
M  V30 4974 C 461.782 4.65816 -3.56696 0
M  V30 4975 C 464.134 4.82409 -4.09224 0
M  V30 4976 C 462.798 4.95395 -4.4737 0
M  V30 4977 H 462.068 0.727874 -0.138854 0
M  V30 4978 H 464.715 1.61994 -1.02128 0
M  V30 4979 H 463.02 3.91175 0.221242 0
M  V30 4980 H 464.717 4.00687 -0.158361 0
M  V30 4981 H 461.307 3.97946 -1.59176 0
M  V30 4982 H 465.491 4.27077 -2.52821 0
M  V30 4983 H 460.747 4.74059 -3.86106 0
M  V30 4984 H 464.921 5.04535 -4.80018 0
M  V30 4985 H 462.548 5.27724 -5.47185 0
M  V30 4986 N 464.123 0.554532 1.47522 0
M  V30 4987 C 465.071 -0.207765 2.3167 0
M  V30 4988 C 466.065 -0.911914 1.4276 0
M  V30 4989 O 467.271 -0.833504 1.59539 0
M  V30 4990 H 463.646 -0.0858726 0.747081 0
M  V30 4991 H 465.617 0.521178 2.93813 0
M  V30 4992 C 464.366 -1.2263 3.25357 0
M  V30 4993 H 463.689 -0.693887 3.93732 0
M  V30 4994 H 465.129 -1.73062 3.87073 0
M  V30 4995 C 463.588 -2.27278 2.4869 0
M  V30 4996 O 464.118 -3.34156 2.22941 0
M  V30 4997 N 462.324 -2.01134 2.09746 0
M  V30 4998 H 461.871 -1.14232 2.30887 0
M  V30 4999 H 461.829 -2.71369 1.58765 0
M  V30 5000 N 465.601 -1.54893 0.290851 0
M  V30 5001 C 466.85 -1.99111 -0.322113 0
M  V30 5002 C 467.163 -1.18283 -1.55784 0
M  V30 5003 O 468.369 -1.5272 -2.24475 0
M  V30 5004 C 466.825 -3.54442 -0.624438 0
M  V30 5005 C 466.433 -4.44066 0.592373 0
M  V30 5006 C 468.177 -4.07211 -1.19916 0
M  V30 5007 C 466.084 -5.90812 0.263762 0
M  V30 5008 H 465.014 -0.743712 -0.124133 0
M  V30 5009 H 467.665 -1.79132 0.39797 0
M  V30 5010 H 466.047 -3.70281 -1.40384 0
M  V30 5011 H 467.221 -4.39999 1.36886 0
M  V30 5012 H 465.536 -4.02015 1.08502 0
M  V30 5013 H 468.133 -5.14407 -1.45909 0
M  V30 5014 H 468.476 -3.57196 -2.13815 0
M  V30 5015 H 469.009 -3.94873 -0.481687 0
M  V30 5016 H 465.748 -6.44955 1.17105 0
M  V30 5017 H 465.268 -5.97911 -0.475655 0
M  V30 5018 H 466.947 -6.46852 -0.138354 0
M  V30 5019 N 467.08 -0.0183926 -1.57589 0
M  V30 5020 C 468.01 0.965596 -2.12599 0
M  V30 5021 C 468.991 1.34641 -1.0395 0
M  V30 5022 O 470.176 1.42693 -1.31729 0
M  V30 5023 C 467.306 2.25149 -2.64434 0
M  V30 5024 C 466.26 2.01175 -3.77773 0
M  V30 5025 C 465.586 3.35937 -4.15994 0
M  V30 5026 C 466.886 1.35953 -5.04296 0
M  V30 5027 H 468.58 0.507504 -2.95067 0
M  V30 5028 H 466.126 0.242671 -1.41941 0
M  V30 5029 H 468.079 2.94357 -3.01549 0
M  V30 5030 H 466.803 2.73105 -1.79112 0
M  V30 5031 H 465.462 1.34388 -3.4108 0
M  V30 5032 H 465.11 3.81631 -3.27669 0
M  V30 5033 H 464.81 3.20705 -4.92364 0
M  V30 5034 H 466.334 4.0643 -4.55683 0
M  V30 5035 H 467.748 1.95144 -5.39065 0
M  V30 5036 H 466.145 1.31152 -5.85593 0
M  V30 5037 H 467.215 0.331071 -4.83768 0
M  V30 5038 N 468.558 1.5553 0.254621 0
M  V30 5039 C 469.49 1.86104 1.33783 0
M  V30 5040 C 470.503 0.746752 1.44663 0
M  V30 5041 O 471.692 1.0248 1.46151 0
M  V30 5042 C 468.792 2.02532 2.71724 0
M  V30 5043 C 467.965 3.33335 2.83208 0
M  V30 5044 C 467.024 3.396 4.01943 0
M  V30 5045 O 466.05 4.12862 3.91834 0
M  V30 5046 N 467.252 2.68332 5.1476 0
M  V30 5047 H 470.017 2.79605 1.07893 0
M  V30 5048 H 467.578 1.55672 0.444732 0
M  V30 5049 H 469.57 2.04074 3.4948 0
M  V30 5050 H 468.14 1.15811 2.90356 0
M  V30 5051 H 467.36 3.44176 1.92189 0
M  V30 5052 H 468.648 4.19565 2.87824 0
M  V30 5053 H 468.046 2.08528 5.25864 0
M  V30 5054 H 466.603 2.75575 5.90679 0
M  V30 5055 N 470.036 -0.519951 1.48776 0
M  V30 5056 C 470.999 -1.60574 1.6355 0
M  V30 5057 C 471.999 -1.52557 0.508234 0
M  V30 5058 O 473.189 -1.56047 0.774262 0
M  V30 5059 C 470.321 -3.00211 1.61512 0
M  V30 5060 H 471.514 -1.4881 2.60376 0
M  V30 5061 H 469.067 -0.742772 1.37523 0
M  V30 5062 H 469.802 -3.17471 0.662009 0
M  V30 5063 H 469.587 -3.07439 2.43359 0
M  V30 5064 H 471.077 -3.79134 1.75064 0
M  V30 5065 N 471.514 -1.37532 -0.769588 0
M  V30 5066 C 472.477 -1.33292 -1.86456 0
M  V30 5067 C 473.477 -0.236537 -1.59051 0
M  V30 5068 O 474.667 -0.492511 -1.67093 0
M  V30 5069 C 471.799 -1.07118 -3.23633 0
M  V30 5070 H 472.992 -2.30692 -1.91628 0
M  V30 5071 H 470.545 -1.22593 -0.969572 0
M  V30 5072 H 471.28 -0.102578 -3.24138 0
M  V30 5073 H 471.065 -1.86479 -3.44917 0
M  V30 5074 H 472.555 -1.06806 -4.03711 0
M  V30 5075 N 472.992 0.995999 -1.22138 0
M  V30 5076 C 474.222 1.76809 -1.06874 0
M  V30 5077 C 474.63 1.85265 0.383866 0
M  V30 5078 O 473.973 1.31969 1.27789 0
M  V30 5079 C 474.035 3.2186 -1.60144 0
M  V30 5080 C 473.699 3.36958 -3.0872 0
M  V30 5081 C 474.696 3.2452 -4.0618 0
M  V30 5082 C 472.381 3.62109 -3.48112 0
M  V30 5083 C 474.375 3.37013 -5.41019 0
M  V30 5084 C 472.062 3.74243 -4.831 0
M  V30 5085 C 473.06 3.61702 -5.79362 0
M  V30 5086 O 472.748 3.73436 -7.119 0
M  V30 5087 H 472.48 0.562207 -0.375365 0
M  V30 5088 H 475.034 1.26113 -1.62125 0
M  V30 5089 H 473.264 3.73734 -0.992981 0
M  V30 5090 H 474.953 3.80775 -1.40589 0
M  V30 5091 H 475.719 3.05004 -3.77091 0
M  V30 5092 H 471.598 3.70949 -2.73712 0
M  V30 5093 H 475.142 3.27141 -6.16137 0
M  V30 5094 H 471.039 3.93266 -5.11872 0
M  V30 5095 H 471.807 3.90328 -7.19435 0
M  V30 5096 N 474.47 1.03057 1.19235 0
M  V30 5097 C 475.716 0.729098 1.89241 0
M  V30 5098 C 476.049 -0.740573 1.79525 0
M  V30 5099 O 475.324 -1.53946 1.18874 0
M  V30 5100 C 475.607 1.18304 3.40112 0
M  V30 5101 C 475.46 2.71406 3.5869 0
M  V30 5102 C 476.779 0.765161 4.33397 0
M  V30 5103 H 473.898 0.266338 0.687192 0
M  V30 5104 H 476.54 1.28079 1.40341 0
M  V30 5105 H 474.69 0.713672 3.81889 0
M  V30 5106 H 476.362 3.26303 3.26074 0
M  V30 5107 H 474.605 3.11717 3.01687 0
M  V30 5108 H 475.276 2.98225 4.64506 0
M  V30 5109 H 477.752 1.16889 3.99345 0
M  V30 5110 H 476.628 1.11065 5.37546 0
M  V30 5111 H 476.889 -0.332372 4.40849 0
M  V30 5112 N 475.948 -1.35272 0.808662 0
M  V30 5113 C 477.173 -2.03477 0.401475 0
M  V30 5114 C 477.598 -1.60537 -0.980279 0
M  V30 5115 O 476.956 -0.78304 -1.63518 0
M  V30 5116 C 477.004 -3.57181 0.495354 0
M  V30 5117 O 476.108 -4.09474 -0.490397 0
M  V30 5118 H 475.449 -0.642561 0.167366 0
M  V30 5119 H 477.979 -1.72824 1.09512 0
M  V30 5120 H 477.989 -4.06356 0.365912 0
M  V30 5121 H 476.664 -3.87784 1.5032 0
M  V30 5122 H 475.241 -3.71516 -0.321023 0
M  V30 5123 N 477.426 -0.562348 -1.47226 0
M  V30 5124 C 478.373 0.182461 -2.30078 0
M  V30 5125 C 479.343 0.903503 -1.39377 0
M  V30 5126 O 480.528 0.898188 -1.68337 0
M  V30 5127 C 477.668 1.20322 -3.23445 0
M  V30 5128 C 476.781 0.487717 -4.29238 0
M  V30 5129 C 475.916 1.49422 -5.09752 0
M  V30 5130 C 474.955 0.763976 -6.07314 0
M  V30 5131 N 474.092 1.71755 -6.80768 0
M  V30 5132 H 478.932 -0.530169 -2.93246 0
M  V30 5133 H 476.469 -0.273276 -1.44539 0
M  V30 5134 H 478.427 1.80768 -3.76004 0
M  V30 5135 H 477.057 1.88382 -2.6213 0
M  V30 5136 H 476.109 -0.231374 -3.79696 0
M  V30 5137 H 477.421 -0.0841003 -4.98729 0
M  V30 5138 H 476.575 2.17206 -5.66486 0
M  V30 5139 H 475.314 2.09995 -4.40174 0
M  V30 5140 H 474.319 0.0722344 -5.49753 0
M  V30 5141 H 475.544 0.16391 -6.78902 0
M  V30 5142 H 473.49 2.31177 -6.13916 0
M  V30 5143 H 473.407 1.19802 -7.46447 0
M  V30 5144 H 474.675 2.38638 -7.42073 0
M  V30 5145 N 478.904 1.54736 -0.299062 0
M  V30 5146 C 480.315 1.8569 0.193971 0
M  V30 5147 C 480.666 1.22101 1.53577 0
M  V30 5148 O 479.791 0.51799 2.10109 0
M  V30 5149 C 480.386 3.36895 0.358733 0
M  V30 5150 C 478.945 3.67887 0.795986 0
M  V30 5151 C 478.092 2.77131 -0.096807 0
M  V30 5152 H 481.043 1.49934 -0.520134 0
M  V30 5153 H 481.064 3.61294 1.19361 0
M  V30 5154 H 480.576 3.83148 -0.617998 0
M  V30 5155 H 478.677 3.27151 1.78334 0
M  V30 5156 H 478.79 4.75114 0.616718 0
M  V30 5157 H 477.154 2.51153 0.423581 0
M  V30 5158 H 477.937 3.26204 -1.06986 0
M  V30 5159 N 480.382 0.0267497 1.57577 0
M  V30 5160 C 481.63 -0.651116 1.91324 0
M  V30 5161 C 481.951 -1.72804 0.90353 0
M  V30 5162 O 481.221 -1.95822 -0.0552946 0
M  V30 5163 H 479.801 -0.243491 0.706202 0
M  V30 5164 H 482.463 0.0739935 1.94759 0
M  V30 5165 H 481.559 -1.10536 2.9187 0
M  V30 5166 N 481.861 -1.55662 -0.24637 0
M  V30 5167 C 482.824 -1.89558 -1.28842 0
M  V30 5168 C 483.824 -0.772082 -1.41052 0
M  V30 5169 O 485.014 -1.04007 -1.39743 0
M  V30 5170 C 482.146 -2.12449 -2.66605 0
M  V30 5171 H 483.339 -2.82735 -1.00004 0
M  V30 5172 H 480.892 -1.48562 -0.485684 0
M  V30 5173 H 481.627 -1.21742 -3.00582 0
M  V30 5174 H 481.412 -2.94273 -2.59125 0
M  V30 5175 H 482.902 -2.39854 -3.41847 0
M  V30 5176 N 483.339 0.512053 -1.4905 0
M  V30 5177 C 484.271 1.63121 -1.6101 0
M  V30 5178 C 485.284 1.55145 -0.493352 0
M  V30 5179 O 486.473 1.61278 -0.764955 0
M  V30 5180 C 483.573 3.01863 -1.54052 0
M  V30 5181 C 482.746 3.35138 -2.81072 0
M  V30 5182 C 481.805 4.5324 -2.67319 0
M  V30 5183 O 480.831 4.55571 -3.41238 0
M  V30 5184 N 482.033 5.52495 -1.78127 0
M  V30 5185 H 484.798 1.53292 -2.5753 0
M  V30 5186 H 482.359 0.699706 -1.45999 0
M  V30 5187 H 484.351 3.78774 -1.42521 0
M  V30 5188 H 482.921 3.05675 -0.654345 0
M  V30 5189 H 482.141 2.4723 -3.07036 0
M  V30 5190 H 483.429 3.54162 -3.65304 0
M  V30 5191 H 482.827 5.53403 -1.17308 0
M  V30 5192 H 481.384 6.28553 -1.72525 0
M  V30 5193 N 484.817 1.37938 0.762283 0
M  V30 5194 C 485.747 1.37176 1.88958 0
M  V30 5195 C 486.728 0.238945 1.68413 0
M  V30 5196 O 487.913 0.440726 1.89133 0
M  V30 5197 C 485.043 1.18742 3.2637 0
M  V30 5198 C 483.997 2.29136 3.61498 0
M  V30 5199 C 483.323 1.95816 4.97554 0
M  V30 5200 C 484.623 3.71363 3.6727 0
M  V30 5201 H 486.317 2.31509 1.89853 0
M  V30 5202 H 483.863 1.11438 0.912005 0
M  V30 5203 H 485.816 1.16837 4.04879 0
M  V30 5204 H 484.54 0.208683 3.25933 0
M  V30 5205 H 483.199 2.30213 2.85303 0
M  V30 5206 H 482.847 0.964475 4.93667 0
M  V30 5207 H 482.547 2.69745 5.22026 0
M  V30 5208 H 484.071 1.95513 5.78452 0
M  V30 5209 H 485.485 3.72364 4.35911 0
M  V30 5210 H 483.882 4.44425 4.03245 0
M  V30 5211 H 484.952 4.04305 2.67704 0
M  V30 5212 N 486.295 -0.989507 1.22664 0
M  V30 5213 C 487.258 -2.06183 1.00106 0
M  V30 5214 C 488.258 -1.60765 -0.0337726 0
M  V30 5215 O 489.448 -1.72989 0.205072 0
M  V30 5216 C 486.58 -3.37021 0.51279 0
M  V30 5217 H 487.773 -2.27629 1.95256 0
M  V30 5218 H 485.326 -1.16158 1.0458 0
M  V30 5219 H 486.061 -3.21261 -0.442917 0
M  V30 5220 H 485.846 -3.71323 1.25942 0
M  V30 5221 H 487.336 -4.1591 0.375315 0
M  V30 5222 N 487.773 -1.03688 -1.18687 0
M  V30 5223 C 489.189 -0.755413 -1.4059 0
M  V30 5224 C 489.389 0.656659 -1.905 0
M  V30 5225 O 488.445 1.42144 -2.08689 0
M  V30 5226 C 489.758 -1.7983 -2.41001 0
M  V30 5227 C 491.306 -1.81877 -2.54735 0
M  V30 5228 C 491.781 -2.85148 -3.58406 0
M  V30 5229 N 493.272 -2.84015 -3.6591 0
M  V30 5230 C 494.007 -3.60573 -4.45841 0
M  V30 5231 N 493.503 -4.46871 -5.29413 0
M  V30 5232 N 495.296 -3.49079 -4.40568 0
M  V30 5233 H 487.447 -1.94818 -0.846148 0
M  V30 5234 H 489.71 -0.842727 -0.434184 0
M  V30 5235 H 489.416 -2.81097 -2.1137 0
M  V30 5236 H 489.29 -1.62727 -3.40294 0
M  V30 5237 H 491.677 -0.812836 -2.83685 0
M  V30 5238 H 491.758 -2.03057 -1.55568 0
M  V30 5239 H 491.402 -3.85918 -3.30197 0
M  V30 5240 H 491.332 -2.61224 -4.57241 0
M  V30 5241 H 493.823 -2.21431 -3.0623 0
M  V30 5242 H 494.136 -5.02007 -5.87545 0
M  V30 5243 H 492.481 -4.5094 -5.28846 0
M  V30 5244 H 495.672 -2.81066 -3.74325 0
M  V30 5245 H 495.845 -4.08994 -5.02621 0
M  V30 5246 N 489.251 1.34841 -0.815825 0
M  V30 5247 C 490.183 2.28409 -0.190265 0
M  V30 5248 C 491.196 1.50705 0.615771 0
M  V30 5249 O 492.385 1.72822 0.446616 0
M  V30 5250 C 489.485 3.30441 0.752446 0
M  V30 5251 C 488.658 4.37399 -0.00922152 0
M  V30 5252 C 487.717 5.19234 0.853351 0
M  V30 5253 O 486.743 5.68404 0.300919 0
M  V30 5254 N 487.945 5.38248 2.17416 0
M  V30 5255 H 490.71 2.82732 -0.994114 0
M  V30 5256 H 488.271 1.47289 -0.672129 0
M  V30 5257 H 490.263 3.82084 1.33394 0
M  V30 5258 H 488.833 2.76565 1.45707 0
M  V30 5259 H 488.053 3.86567 -0.771979 0
M  V30 5260 H 489.341 5.05992 -0.533807 0
M  V30 5261 H 488.739 4.99961 2.6468 0
M  V30 5262 H 487.296 5.93035 2.70467 0
M  V30 5263 N 490.729 0.570148 1.46925 0
M  V30 5264 C 491.978 0.0487352 2.01641 0
M  V30 5265 C 492.291 -1.31433 1.44861 0
M  V30 5266 O 493.497 -1.92638 1.91318 0
M  V30 5267 C 491.953 0.0365817 3.59881 0
M  V30 5268 C 491.561 1.39719 4.25655 0
M  V30 5269 C 493.305 -0.431545 4.22301 0
M  V30 5270 C 491.212 1.34345 5.75939 0
M  V30 5271 H 490.142 0.0144492 0.753862 0
M  V30 5272 H 492.793 0.719928 1.68788 0
M  V30 5273 H 491.175 -0.700522 3.89755 0
M  V30 5274 H 492.349 2.15303 4.07408 0
M  V30 5275 H 490.664 1.80431 3.75278 0
M  V30 5276 H 493.261 -0.490354 5.32447 0
M  V30 5277 H 493.604 -1.44638 3.90366 0
M  V30 5278 H 494.137 0.251102 3.97007 0
M  V30 5279 H 490.876 2.33469 6.12513 0
M  V30 5280 H 490.396 0.629615 5.96486 0
M  V30 5281 H 492.075 1.051 6.38407 0
M  V30 5282 N 492.207 -1.54576 0.307264 0
M  V30 5283 C 493.455 -1.99867 -0.299574 0
M  V30 5284 C 493.776 -1.19714 -1.53927 0
M  V30 5285 O 493.046 -0.29472 -1.9367 0
M  V30 5286 H 491.626 -0.738299 -0.113683 0
M  V30 5287 H 494.288 -1.9032 0.420042 0
M  V30 5288 H 493.384 -3.06901 -0.567283 0
M  V30 5289 N 493.685 -0.035106 -1.57561 0
M  V30 5290 C 494.648 0.929819 -2.09492 0
M  V30 5291 C 495.648 1.25026 -1.01119 0
M  V30 5292 O 496.838 1.18961 -1.27255 0
M  V30 5293 C 493.97 2.24457 -2.56577 0
M  V30 5294 H 495.163 0.479935 -2.96035 0
M  V30 5295 H 492.716 0.213033 -1.54841 0
M  V30 5296 H 493.451 2.74061 -1.73382 0
M  V30 5297 H 493.236 2.02508 -3.35757 0
M  V30 5298 H 494.726 2.93607 -2.96959 0
M  V30 5299 N 495.163 1.55791 0.238111 0
M  V30 5300 C 496.388 1.8244 0.986432 0
M  V30 5301 C 496.813 0.613314 1.7782 0
M  V30 5302 O 496.171 -0.437767 1.75935 0
M  V30 5303 C 496.219 3.06917 1.893 0
M  V30 5304 O 495.323 2.84449 2.98601 0
M  V30 5305 H 494.664 0.601975 0.280218 0
M  V30 5306 H 497.194 2.02987 0.256437 0
M  V30 5307 H 497.204 3.36583 2.30598 0
M  V30 5308 H 495.879 3.947 1.31091 0
M  V30 5309 H 494.456 2.65972 2.61368 0
M  V30 5310 N 496.642 -0.504142 1.49319 0
M  V30 5311 C 497.572 -1.61473 1.68667 0
M  V30 5312 C 498.553 -1.61455 0.535378 0
M  V30 5313 O 499.738 -1.78245 0.770868 0
M  V30 5314 C 496.868 -2.99971 1.75028 0
M  V30 5315 C 495.822 -3.14854 2.89916 0
M  V30 5316 C 495.148 -4.54671 2.81387 0
M  V30 5317 C 496.448 -2.95176 4.30893 0
M  V30 5318 H 498.142 -1.45535 2.61648 0
M  V30 5319 H 495.688 -0.698711 1.25913 0
M  V30 5320 H 497.641 -3.77562 1.8715 0
M  V30 5321 H 496.365 -3.1699 0.786441 0
M  V30 5322 H 495.024 -2.39687 2.77391 0
M  V30 5323 H 494.672 -4.68562 1.82917 0
M  V30 5324 H 494.372 -4.6557 3.58494 0
M  V30 5325 H 495.896 -5.34327 2.95512 0
M  V30 5326 H 497.31 -3.62538 4.44116 0
M  V30 5327 H 495.707 -3.17549 5.09198 0
M  V30 5328 H 496.777 -1.91332 4.45556 0
M  V30 5329 N 498.12 -1.38341 -0.754957 0
M  V30 5330 C 499.068 -1.35573 -1.89005 0
M  V30 5331 C 500.062 -0.241824 -1.67665 0
M  V30 5332 O 501.268 -0.410785 -1.7525 0
M  V30 5333 H 497.643 -0.422898 -0.621821 0
M  V30 5334 H 499.614 -2.31359 -1.88455 0
M  V30 5335 C 498.363 -1.19631 -3.26471 0
M  V30 5336 H 497.686 -2.04605 -3.43477 0
M  V30 5337 H 499.126 -1.21748 -4.06144 0
M  V30 5338 C 497.585 0.0968705 -3.36761 0
M  V30 5339 O 498.115 1.07439 -3.87066 0
M  V30 5340 N 496.321 0.153242 -2.90196 0
M  V30 5341 H 495.868 -0.642908 -2.49448 0
M  V30 5342 H 495.826 1.01807 -2.9746 0
M  V30 5343 N 499.598 0.982988 -1.23187 0
M  V30 5344 C 500.875 1.69814 -0.970707 0
M  V30 5345 C 501.255 2.04811 0.511424 0
M  V30 5346 O 500.603 1.73924 1.48198 0
M  V30 5347 C 500.813 2.94143 -1.87831 0
M  V30 5348 C 502.161 3.66712 -2.14026 0
M  V30 5349 O 503.185 3.04171 -1.8536 0
M  V30 5350 O 502.044 4.79258 -2.62629 0
M  V30 5351 H 499.138 0.741659 -0.365884 0
M  V30 5352 H 501.684 1.03844 -1.34218 0
M  V30 5353 H 500.456 2.64858 -2.88038 0
M  V30 5354 H 500.079 3.6785 -1.50905 0
M  V30 5355 N 501.076 1.04316 1.18135 0
M  V30 5356 C 502.353 0.662166 1.84051 0
M  V30 5357 C 502.733 -0.858169 1.9287 0
M  V30 5358 O 502.081 -1.76062 1.45652 0
M  V30 5359 C 502.291 1.3409 3.22212 0
M  V30 5360 C 503.639 1.4733 3.9822 0
M  V30 5361 O 504.663 1.29921 3.31661 0
M  V30 5362 O 503.522 1.75722 5.17479 0
M  V30 5363 H 500.616 0.232005 0.79379 0
M  V30 5364 H 503.162 1.1422 1.25506 0
M  V30 5365 H 501.934 2.37853 3.10711 0
M  V30 5366 H 501.557 0.849649 3.88416 0
M  V30 5367 N 502.554 -1.34406 0.822964 0
M  V30 5368 C 503.803 -1.97542 0.407458 0
M  V30 5369 C 504.116 -1.65973 -1.035 0
M  V30 5370 O 505.322 -2.22598 -1.55442 0
M  V30 5371 C 503.778 -3.53463 0.677623 0
M  V30 5372 C 503.386 -3.93925 2.1337 0
M  V30 5373 C 505.13 -4.23229 0.328284 0
M  V30 5374 C 503.037 -5.42759 2.34876 0
M  V30 5375 H 501.967 -0.739207 0.148623 0
M  V30 5376 H 504.618 -1.53248 1.00932 0
M  V30 5377 H 503 -3.96 0.00558965 0
M  V30 5378 H 504.174 -3.62494 2.8449 0
M  V30 5379 H 502.489 -3.37097 2.44448 0
M  V30 5380 H 505.086 -5.32659 0.466794 0
M  V30 5381 H 505.429 -4.09899 -0.727224 0
M  V30 5382 H 505.962 -3.86169 0.954896 0
M  V30 5383 H 502.701 -5.61075 3.38932 0
M  V30 5384 H 502.221 -5.75704 1.68299 0
M  V30 5385 H 503.9 -6.0944 2.17236 0
M  V30 5386 N 504.032 -0.577932 -1.46621 0
M  V30 5387 C 504.962 0.145917 -2.33044 0
M  V30 5388 C 505.943 0.888412 -1.45056 0
M  V30 5389 O 507.128 0.864812 -1.73881 0
M  V30 5390 C 504.258 1.16322 -3.27241 0
M  V30 5391 C 503.212 0.535868 -4.24632 0
M  V30 5392 C 502.538 1.65929 -5.08303 0
M  V30 5393 C 503.838 -0.523861 -5.19666 0
M  V30 5394 H 505.532 -0.575636 -2.93814 0
M  V30 5395 H 503.078 -0.278272 -1.41286 0
M  V30 5396 H 505.031 1.67793 -3.86553 0
M  V30 5397 H 503.755 1.91498 -2.64567 0
M  V30 5398 H 502.414 0.0422759 -3.66576 0
M  V30 5399 H 502.062 2.40061 -4.42018 0
M  V30 5400 H 501.762 1.2452 -5.74255 0
M  V30 5401 H 503.286 2.17686 -5.70478 0
M  V30 5402 H 504.7 -0.0944059 -5.73222 0
M  V30 5403 H 503.097 -0.858 -5.93935 0
M  V30 5404 H 504.167 -1.41197 -4.63887 0
M  V30 5405 N 505.51 1.54411 -0.315457 0
M  V30 5406 C 506.757 2.00419 0.289543 0
M  V30 5407 C 507.085 1.20373 1.52776 0
M  V30 5408 O 506.34 0.271769 1.93804 0
M  V30 5409 C 506.639 3.50936 0.676652 0
M  V30 5410 C 506.305 4.48532 -0.461472 0
M  V30 5411 C 504.967 4.74936 -0.773879 0
M  V30 5412 C 507.319 5.06567 -1.22637 0
M  V30 5413 C 504.647 5.56634 -1.85405 0
M  V30 5414 C 506.999 5.89441 -2.29657 0
M  V30 5415 C 505.663 6.1415 -2.61488 0
M  V30 5416 H 504.933 0.733386 0.105951 0
M  V30 5417 H 507.58 1.86434 -0.437554 0
M  V30 5418 H 505.885 3.62606 1.48405 0
M  V30 5419 H 507.582 3.83971 1.15618 0
M  V30 5420 H 504.172 4.28096 -0.207893 0
M  V30 5421 H 508.356 4.86157 -0.998271 0
M  V30 5422 H 503.612 5.74012 -2.10523 0
M  V30 5423 H 507.786 6.33432 -2.89374 0
M  V30 5424 H 505.413 6.77245 -3.45317 0
M  V30 5425 N 506.988 0.0434614 1.5754 0
M  V30 5426 C 508.236 -0.630786 1.92004 0
M  V30 5427 C 508.557 -1.71836 0.921807 0
M  V30 5428 O 507.827 -1.9587 -0.034522 0
M  V30 5429 H 506.407 -0.235988 0.708745 0
M  V30 5430 H 509.069 0.0946462 1.9467 0
M  V30 5431 H 508.165 -1.07434 2.93026 0
M  V30 5432 N 508.466 -1.55915 -0.229846 0
M  V30 5433 C 509.712 -1.78807 -0.956868 0
M  V30 5434 C 510.045 -0.611687 -1.84315 0
M  V30 5435 O 509.32 0.389398 -1.90562 0
M  V30 5436 C 509.603 -3.11718 -1.80288 0
M  V30 5437 C 509.456 -4.3979 -0.943649 0
M  V30 5438 C 510.775 -3.40999 -2.78222 0
M  V30 5439 H 507.894 -0.6505 -0.346437 0
M  V30 5440 H 510.536 -1.88648 -0.226252 0
M  V30 5441 H 508.686 -3.03459 -2.42579 0
M  V30 5442 H 510.358 -4.60059 -0.338121 0
M  V30 5443 H 508.601 -4.33086 -0.248705 0
M  V30 5444 H 509.272 -5.29208 -1.5698 0
M  V30 5445 H 511.748 -3.49332 -2.26067 0
M  V30 5446 H 510.624 -4.35183 -3.34526 0
M  V30 5447 H 510.885 -2.62754 -3.55546 0
M  V30 5448 N 509.944 0.496216 -1.49584 0
M  V30 5449 C 511.191 1.25003 -1.59312 0
M  V30 5450 C 511.519 1.92445 -0.28198 0
M  V30 5451 O 510.774 1.81557 0.730452 0
M  V30 5452 C 511.073 2.3359 -2.705 0
M  V30 5453 C 510.739 1.83574 -4.11839 0
M  V30 5454 C 509.401 1.69653 -4.50302 0
M  V30 5455 C 511.753 1.46193 -5.00277 0
M  V30 5456 C 509.081 1.16736 -5.74969 0
M  V30 5457 C 511.433 0.947265 -6.25468 0
M  V30 5458 C 510.097 0.794485 -6.62755 0
M  V30 5459 H 509.367 0.45742 -0.582965 0
M  V30 5460 H 512.014 0.549996 -1.83432 0
M  V30 5461 H 510.319 3.09401 -2.40371 0
M  V30 5462 H 512.016 2.91627 -2.75235 0
M  V30 5463 H 508.606 1.9537 -3.81482 0
M  V30 5464 H 512.79 1.55793 -4.71214 0
M  V30 5465 H 508.046 1.03623 -6.02555 0
M  V30 5466 H 512.22 0.648846 -6.93371 0
M  V30 5467 H 509.847 0.382271 -7.59238 0
M  V30 5468 N 511.423 1.38739 0.74761 0
M  V30 5469 C 512.386 1.36241 1.84312 0
M  V30 5470 C 513.386 0.261811 1.58654 0
M  V30 5471 O 514.576 0.519031 1.66288 0
M  V30 5472 C 511.708 1.12253 3.21888 0
M  V30 5473 H 512.901 2.33712 1.87933 0
M  V30 5474 H 510.454 1.2412 0.949946 0
M  V30 5475 H 511.189 0.154133 3.23934 0
M  V30 5476 H 510.974 1.91943 3.41907 0
M  V30 5477 H 512.464 1.13215 4.0196 0
M  V30 5478 N 512.901 -0.976442 1.23707 0
M  V30 5479 C 513.833 -2.07212 0.979574 0
M  V30 5480 C 514.846 -1.6273 -0.0478528 0
M  V30 5481 O 516.035 -1.77506 0.18815 0
M  V30 5482 C 513.135 -3.35835 0.45479 0
M  V30 5483 C 512.308 -4.09268 1.54331 0
M  V30 5484 C 511.367 -5.16166 1.02271 0
M  V30 5485 O 510.393 -5.42827 1.71254 0
M  V30 5486 N 511.595 -5.80313 -0.147419 0
M  V30 5487 H 514.36 -2.29878 1.92292 0
M  V30 5488 H 511.921 -1.14343 1.14618 0
M  V30 5489 H 513.913 -4.04597 0.0914631 0
M  V30 5490 H 512.483 -3.10106 -0.394068 0
M  V30 5491 H 511.703 -3.34906 2.07923 0
M  V30 5492 H 512.991 -4.55095 2.27522 0
M  V30 5493 H 512.389 -5.61043 -0.724353 0
M  V30 5494 H 510.946 -6.50231 -0.451972 0
M  V30 5495 N 514.379 -1.04941 -1.1758 0
M  V30 5496 C 515.604 -0.778253 -1.92245 0
M  V30 5497 C 516.029 0.659707 -1.76152 0
M  V30 5498 O 515.387 1.45803 -1.07755 0
M  V30 5499 C 515.435 -1.16051 -3.41416 0
M  V30 5500 O 514.539 -0.291153 -4.11371 0
M  V30 5501 H 513.88 -0.285619 -0.599431 0
M  V30 5502 H 516.41 -1.40159 -1.49052 0
M  V30 5503 H 516.42 -1.12619 -3.92149 0
M  V30 5504 H 515.095 -2.208 -3.52449 0
M  V30 5505 H 513.672 -0.385851 -3.70898 0
M  V30 5506 N 515.857 1.33968 -0.830081 0
M  V30 5507 C 516.804 2.29387 -0.255008 0
M  V30 5508 C 517.774 1.53923 0.624243 0
M  V30 5509 O 518.959 1.82262 0.564372 0
M  V30 5510 C 516.099 3.4034 0.571209 0
M  V30 5511 C 515.212 4.30729 -0.331083 0
M  V30 5512 C 514.347 5.2879 0.505389 0
M  V30 5513 C 513.386 6.10819 -0.395843 0
M  V30 5514 N 512.523 7.00948 0.401979 0
M  V30 5515 H 517.363 2.77972 -1.07404 0
M  V30 5516 H 514.9 1.36785 -0.541133 0
M  V30 5517 H 516.858 4.03361 1.06562 0
M  V30 5518 H 515.488 2.9297 1.35529 0
M  V30 5519 H 514.54 3.68507 -0.943759 0
M  V30 5520 H 515.852 4.88181 -1.02377 0
M  V30 5521 H 515.006 5.97297 1.06399 0
M  V30 5522 H 513.745 4.71894 1.23155 0
M  V30 5523 H 512.75 5.41238 -0.966529 0
M  V30 5524 H 513.975 6.69797 -1.12023 0
M  V30 5525 H 511.921 6.46512 1.11168 0
M  V30 5526 H 511.838 7.55643 -0.232167 0
M  V30 5527 H 513.106 7.73774 0.943102 0
M  V30 5528 N 517.335 0.585699 1.46312 0
M  V30 5529 C 518.746 0.159938 1.86014 0
M  V30 5530 C 519.097 -1.27775 1.48889 0
M  V30 5531 O 518.222 -1.96559 0.90519 0
M  V30 5532 C 518.817 0.283485 3.37612 0
M  V30 5533 C 517.376 -0.0874256 3.76298 0
M  V30 5534 C 516.523 0.618055 2.70325 0
M  V30 5535 H 519.474 0.793737 1.37425 0
M  V30 5536 H 519.495 -0.490348 3.77327 0
M  V30 5537 H 519.007 1.32995 3.64601 0
M  V30 5538 H 517.108 -1.13391 3.54927 0
M  V30 5539 H 517.221 0.290975 4.78216 0
M  V30 5540 H 515.585 0.057993 2.54634 0
M  V30 5541 H 516.368 1.66623 3.00153 0
M  V30 5542 N 518.813 -1.54241 0.323641 0
M  V30 5543 C 520.09 -1.92741 -0.333181 0
M  V30 5544 C 520.47 -1.25326 -1.69872 0
M  V30 5545 O 519.818 -0.396991 -2.25025 0
M  V30 5546 C 520.028 -3.46399 -0.425322 0
M  V30 5547 C 521.376 -4.19029 -0.68557 0
M  V30 5548 O 522.4 -3.52555 -0.50824 0
M  V30 5549 O 521.259 -5.36751 -1.02767 0
M  V30 5550 H 518.353 -0.804811 -0.190286 0
M  V30 5551 H 520.899 -1.65542 0.373361 0
M  V30 5552 H 519.671 -3.87643 0.533737 0
M  V30 5553 H 519.294 -3.79704 -1.17944 0
M  V30 5554 N 520.291 -0.0518155 -1.57515 0
M  V30 5555 C 521.516 0.634896 -1.97443 0
M  V30 5556 C 521.941 1.63546 -0.929207 0
M  V30 5557 O 521.299 1.80981 0.107484 0
M  V30 5558 C 521.347 1.29765 -3.36442 0
M  V30 5559 O 520.451 2.41333 -3.34413 0
M  V30 5560 H 519.792 0.164994 -0.643174 0
M  V30 5561 H 522.322 -0.120407 -2.04245 0
M  V30 5562 H 522.332 1.64918 -3.73184 0
M  V30 5563 H 521.007 0.564361 -4.12053 0
M  V30 5564 H 519.584 2.08122 -3.09418 0
M  V30 5565 N 521.769 1.56035 0.221574 0
M  V30 5566 C 522.732 1.91584 1.2581 0
M  V30 5567 C 523.732 0.794425 1.39805 0
M  V30 5568 O 524.922 1.06217 1.38071 0
M  V30 5569 C 522.054 2.16663 2.63192 0
M  V30 5570 H 523.247 2.8429 0.954935 0
M  V30 5571 H 520.8 1.49316 0.461988 0
M  V30 5572 H 521.535 1.26508 2.98607 0
M  V30 5573 H 521.32 2.98358 2.5441 0
M  V30 5574 H 522.81 2.45262 3.37988 0
M  V30 5575 N 523.247 -0.488276 1.49845 0
M  V30 5576 C 524.157 -1.61451 1.70207 0
M  V30 5577 C 525.173 -1.63877 0.584846 0
M  V30 5578 O 526.349 -1.82063 0.861107 0
M  V30 5579 C 523.414 -2.9776 1.77594 0
M  V30 5580 C 522.475 -3.05861 3.01243 0
M  V30 5581 C 521.708 -4.35668 3.08268 0
M  V30 5582 O 521.931 -5.25197 2.22541 0
M  V30 5583 O 520.865 -4.49005 4.00847 0
M  V30 5584 H 524.691 -1.47199 2.65643 0
M  V30 5585 H 522.276 -0.665939 1.33737 0
M  V30 5586 H 524.158 -3.7875 1.84732 0
M  V30 5587 H 522.833 -3.12248 0.8534 0
M  V30 5588 H 521.74 -2.24012 2.99616 0
M  V30 5589 H 523.073 -2.96304 3.9302 0
M  V30 5590 N 524.725 -1.39134 -0.740242 0
M  V30 5591 C 526.136 -1.32208 -1.31825 0
M  V30 5592 C 526.487 0.0159919 -1.96193 0
M  V30 5593 O 525.612 0.918111 -1.95958 0
M  V30 5594 C 526.207 -2.39436 -2.39699 0
M  V30 5595 C 524.766 -2.36048 -2.93187 0
M  V30 5596 C 523.913 -2.21599 -1.66701 0
M  V30 5597 H 526.864 -1.49298 -0.538133 0
M  V30 5598 H 526.885 -2.05922 -3.19963 0
M  V30 5599 H 526.397 -3.36811 -1.92821 0
M  V30 5600 H 524.498 -1.42295 -3.44359 0
M  V30 5601 H 524.611 -3.30704 -3.46658 0
M  V30 5602 H 522.975 -1.68681 -1.90837 0
M  V30 5603 H 523.758 -3.20936 -1.21882 0
M  V30 5604 N 526.204 0.969867 -1.24223 0
M  V30 5605 C 527.137 2.06279 -0.975926 0
M  V30 5606 C 528.115 1.62353 0.0895385 0
M  V30 5607 O 529.299 1.88442 -0.0469418 0
M  V30 5608 C 526.426 3.35391 -0.472315 0
M  V30 5609 C 525.472 3.98266 -1.526 0
M  V30 5610 S 526.305 4.36172 -3.10667 0
M  V30 5611 C 527.461 5.68423 -2.62003 0
M  V30 5612 H 527.694 2.28551 -1.90137 0
M  V30 5613 H 525.227 1.10748 -1.07584 0
M  V30 5614 H 527.185 4.10068 -0.188376 0
M  V30 5615 H 525.846 3.1111 0.432378 0
M  V30 5616 H 525.039 4.91307 -1.12399 0
M  V30 5617 H 524.641 3.30009 -1.75983 0
M  V30 5618 H 526.933 6.45842 -2.0468 0
M  V30 5619 H 527.876 6.13478 -3.53625 0
M  V30 5620 H 528.284 5.26928 -2.02502 0
M  V30 5621 N 527.682 1.05563 1.17022 0
M  V30 5622 C 528.959 0.68165 1.83338 0
M  V30 5623 C 529.339 -0.837665 1.93769 0
M  V30 5624 O 528.687 -1.74507 1.47511 0
M  V30 5625 C 528.897 1.375 3.20772 0
M  V30 5626 C 530.245 1.51545 3.96635 0
M  V30 5627 O 531.269 1.33431 3.30264 0
M  V30 5628 O 530.128 1.812 5.15586 0
M  V30 5629 H 527.222 0.240412 0.791285 0
M  V30 5630 H 529.768 1.15545 1.24288 0
M  V30 5631 H 528.54 2.41135 3.08171 0
M  V30 5632 H 528.163 0.890798 3.87493 0
M  V30 5633 N 529.16 -1.33526 0.837174 0
M  V30 5634 C 530.576 -1.50727 0.524743 0
M  V30 5635 C 530.776 -1.77792 -0.948279 0
M  V30 5636 O 529.832 -1.83719 -1.73216 0
M  V30 5637 C 531.145 -2.66299 1.39661 0
M  V30 5638 C 532.693 -2.80183 1.39521 0
M  V30 5639 C 533.168 -3.98815 2.25189 0
M  V30 5640 N 534.659 -4.06047 2.2289 0
M  V30 5641 C 535.394 -4.97032 2.85915 0
M  V30 5642 N 534.89 -5.93143 3.57985 0
M  V30 5643 N 536.683 -4.90015 2.75394 0
M  V30 5644 H 528.834 -1.1422 1.79074 0
M  V30 5645 H 531.097 -0.561399 0.763894 0
M  V30 5646 H 530.803 -2.52974 2.4433 0
M  V30 5647 H 530.677 -3.61663 1.07145 0
M  V30 5648 H 533.064 -2.92942 0.356253 0
M  V30 5649 H 533.145 -1.85586 1.76044 0
M  V30 5650 H 532.789 -3.86817 3.29143 0
M  V30 5651 H 532.719 -4.92654 1.86009 0
M  V30 5652 H 535.21 -3.37262 1.70478 0
M  V30 5653 H 535.523 -6.59227 4.03286 0
M  V30 5654 H 533.868 -5.93223 3.62093 0
M  V30 5655 H 537.059 -4.13894 2.18654 0
M  V30 5656 H 537.232 -5.60724 3.24796 0
M  V30 5657 N 530.638 -0.59345 -1.46 0
M  V30 5658 C 531.863 -0.0872365 -2.07216 0
M  V30 5659 C 532.288 1.2131 -1.43755 0
M  V30 5660 O 531.646 1.73528 -0.525152 0
M  V30 5661 C 531.694 0.0538197 -3.6056 0
M  V30 5662 O 530.798 1.10765 -3.97247 0
M  V30 5663 H 530.139 -0.0676598 -0.660544 0
M  V30 5664 H 532.669 -0.819445 -1.87473 0
M  V30 5665 H 532.679 0.256567 -4.07193 0
M  V30 5666 H 531.354 -0.895739 -4.0614 0
M  V30 5667 H 529.931 0.882501 -3.62307 0
M  V30 5668 N 532.116 1.54067 -0.331816 0
M  V30 5669 C 533.079 2.23275 0.517768 0
M  V30 5670 C 534.079 1.22897 1.03697 0
M  V30 5671 O 535.269 1.47419 0.928084 0
M  V30 5672 C 532.401 2.94326 1.72004 0
M  V30 5673 H 533.594 2.99773 -0.0873507 0
M  V30 5674 H 531.147 1.56079 -0.0830042 0
M  V30 5675 H 531.882 2.21986 2.36417 0
M  V30 5676 H 531.667 3.67941 1.35507 0
M  V30 5677 H 533.157 3.47031 2.32291 0
M  V30 5678 N 533.594 0.0601682 1.57485 0
M  V30 5679 C 534.527 -0.94676 2.07634 0
M  V30 5680 C 535.505 -1.29837 0.978826 0
M  V30 5681 O 536.689 -1.40969 1.2514 0
M  V30 5682 C 533.816 -2.25822 2.52433 0
M  V30 5683 C 532.862 -2.05901 3.73507 0
M  V30 5684 S 533.695 -1.32907 5.18745 0
M  V30 5685 C 534.851 -2.65356 5.66866 0
M  V30 5686 H 535.084 -0.520003 2.92717 0
M  V30 5687 H 532.617 -0.152319 1.53647 0
M  V30 5688 H 534.575 -3.01201 2.78905 0
M  V30 5689 H 533.236 -2.65624 1.67639 0
M  V30 5690 H 532.429 -3.02929 4.02803 0
M  V30 5691 H 532.031 -1.38659 3.47347 0
M  V30 5692 H 534.323 -3.61492 5.73001 0
M  V30 5693 H 535.266 -2.40685 6.6594 0
M  V30 5694 H 535.674 -2.72028 4.94632 0
M  V30 5695 N 535.072 -1.5615 -0.213296 0
M  V30 5696 C 536.312 -1.81325 -0.943435 0
M  V30 5697 C 536.676 -0.634934 -1.81198 0
M  V30 5698 O 537.877 -0.766166 -2.5765 0
M  V30 5699 C 536.148 -3.11437 -1.75334 0
M  V30 5700 S 537.707 -3.57955 -2.53799 0
M  V30 5701 H 534.525 -0.636538 -0.316766 0
M  V30 5702 H 537.127 -1.94387 -0.208313 0
M  V30 5703 H 535.831 -3.95228 -1.10556 0
M  V30 5704 H 535.362 -3.01204 -2.53061 0
M  V30 5705 H 537.377 -3.21947 -3.77577 0
M  V30 5706 N 536.55 0.480323 -1.50102 0
M  V30 5707 C 537.513 1.56181 -1.6775 0
M  V30 5708 C 538.513 1.51156 -0.548503 0
M  V30 5709 O 539.703 1.5394 -0.815363 0
M  V30 5710 C 536.835 2.95823 -1.69415 0
M  V30 5711 H 538.028 1.41855 -2.6423 0
M  V30 5712 H 535.581 0.70605 -1.39444 0
M  V30 5713 H 536.316 3.15604 -0.745948 0
M  V30 5714 H 536.101 3.00878 -2.51425 0
M  V30 5715 H 537.591 3.74359 -1.85054 0
M  V30 5716 N 538.028 1.39524 0.732853 0
M  V30 5717 C 539.275 1.36865 1.49246 0
M  V30 5718 C 539.603 -0.0347118 1.94469 0
M  V30 5719 O 538.858 -1.01596 1.67262 0
M  V30 5720 C 539.157 2.28916 2.74468 0
M  V30 5721 C 538.823 3.76506 2.481 0
M  V30 5722 C 537.485 4.16721 2.40619 0
M  V30 5723 C 539.837 4.69846 2.25598 0
M  V30 5724 C 537.165 5.48334 2.08679 0
M  V30 5725 C 539.517 6.01739 1.95174 0
M  V30 5726 C 538.181 6.41015 1.86163 0
M  V30 5727 H 537.451 0.500824 0.546129 0
M  V30 5728 H 540.098 1.72047 0.840958 0
M  V30 5729 H 538.403 1.86859 3.4437 0
M  V30 5730 H 540.1 2.2415 3.32502 0
M  V30 5731 H 536.69 3.44635 2.54803 0
M  V30 5732 H 540.874 4.39608 2.30344 0
M  V30 5733 H 536.13 5.77685 2.00226 0
M  V30 5734 H 540.304 6.73591 1.76771 0
M  V30 5735 H 537.931 7.42917 1.61179 0
M  V30 5736 N 539.506 -0.963266 1.24736 0
M  V30 5737 C 540.917 -1.52145 1.08207 0
M  V30 5738 C 541.268 -1.93142 -0.345061 0
M  V30 5739 O 540.393 -1.77769 -1.23399 0
M  V30 5740 C 540.988 -2.76486 1.95808 0
M  V30 5741 C 539.547 -3.28646 1.8349 0
M  V30 5742 C 538.694 -2.01529 1.90476 0
M  V30 5743 H 541.645 -0.781083 1.38148 0
M  V30 5744 H 541.666 -3.49986 1.49297 0
M  V30 5745 H 541.178 -2.46617 2.99669 0
M  V30 5746 H 539.279 -3.63357 0.824787 0
M  V30 5747 H 539.392 -3.97246 2.67829 0
M  V30 5748 H 537.756 -2.16442 1.34258 0
M  V30 5749 H 538.539 -1.7402 2.95926 0
M  V30 5750 N 540.985 -1.06182 -1.16461 0
M  V30 5751 C 542.234 -0.772927 -1.86303 0
M  V30 5752 C 542.547 0.703187 -1.82523 0
M  V30 5753 O 543.753 1.10641 -2.47933 0
M  V30 5754 C 542.209 -1.33249 -3.34324 0
M  V30 5755 C 541.817 -2.83876 -3.46581 0
M  V30 5756 C 543.561 -1.12108 -4.09429 0
M  V30 5757 C 541.468 -3.33082 -4.88682 0
M  V30 5758 H 540.398 -0.285452 -0.697878 0
M  V30 5759 H 543.049 -1.28039 -1.31447 0
M  V30 5760 H 541.431 -0.7528 -3.88779 0
M  V30 5761 H 542.605 -3.47786 -3.02293 0
M  V30 5762 H 540.92 -3.03671 -2.84909 0
M  V30 5763 H 543.517 -1.46361 -5.14279 0
M  V30 5764 H 543.86 -0.0593832 -4.16258 0
M  V30 5765 H 544.393 -1.6665 -3.6121 0
M  V30 5766 H 541.132 -4.38726 -4.87032 0
M  V30 5767 H 540.652 -2.73919 -5.33599 0
M  V30 5768 H 542.331 -3.28344 -5.57494 0
M  V30 5769 N 542.463 1.3308 -0.844243 0
M  V30 5770 C 543.41 2.29104 -0.279323 0
M  V30 5771 C 544.38 1.54577 0.607882 0
M  V30 5772 O 545.565 1.8285 0.545009 0
M  V30 5773 C 542.705 3.40927 0.53508 0
M  V30 5774 C 541.818 4.30354 -0.376749 0
M  V30 5775 C 540.953 5.29297 0.449276 0
M  V30 5776 C 539.992 6.10365 -0.460606 0
M  V30 5777 N 539.129 7.01335 0.327612 0
M  V30 5778 H 543.969 2.76817 -1.10346 0
M  V30 5779 H 541.506 1.36203 -0.555611 0
M  V30 5780 H 543.464 4.04469 1.02278 0
M  V30 5781 H 542.094 2.94391 1.32414 0
M  V30 5782 H 541.146 3.67485 -0.982791 0
M  V30 5783 H 542.458 4.87067 -1.07549 0
M  V30 5784 H 541.612 5.98392 1.00058 0
M  V30 5785 H 540.351 4.73174 1.18143 0
M  V30 5786 H 539.356 5.40182 -1.02388 0
M  V30 5787 H 540.581 6.68571 -1.1912 0
M  V30 5788 H 538.527 6.47655 1.04305 0
M  V30 5789 H 538.444 7.55355 -0.3123 0
M  V30 5790 H 539.712 7.74731 0.86098 0
M  V30 5791 N 543.941 0.601185 1.45683 0
M  V30 5792 C 545.171 0.0999093 2.06358 0
M  V30 5793 C 545.579 -1.21831 1.44754 0
M  V30 5794 O 544.922 -1.75157 0.553695 0
M  V30 5795 C 544.984 -0.12085 3.59297 0
M  V30 5796 C 544.648 1.11459 4.432 0
M  V30 5797 C 545.645 2.03118 4.7858 0
M  V30 5798 C 543.33 1.34162 4.84051 0
M  V30 5799 C 545.324 3.15814 5.53661 0
M  V30 5800 C 543.011 2.4716 5.58888 0
M  V30 5801 C 544.009 3.37814 5.93608 0
M  V30 5802 O 543.697 4.48846 6.66928 0
M  V30 5803 H 543.429 0.0630316 0.673055 0
M  V30 5804 H 545.983 0.826982 1.88016 0
M  V30 5805 H 544.213 -0.902744 3.76015 0
M  V30 5806 H 545.902 -0.572925 4.01836 0
M  V30 5807 H 546.668 1.86801 4.47583 0
M  V30 5808 H 542.547 0.645018 4.56465 0
M  V30 5809 H 546.091 3.86596 5.8068 0
M  V30 5810 H 541.988 2.63432 5.89299 0
M  V30 5811 H 542.756 4.47446 6.85371 0
M  V30 5812 N 545.419 -1.53889 0.339982 0
M  V30 5813 C 546.665 -2.01152 -0.258003 0
M  V30 5814 C 546.998 -1.22749 -1.50487 0
M  V30 5815 O 546.273 -0.314156 -1.91946 0
M  V30 5816 C 546.556 -3.55468 -0.575717 0
M  V30 5817 C 546.409 -4.44584 0.682996 0
M  V30 5818 C 547.728 -4.1768 -1.38677 0
M  V30 5819 H 544.847 -0.731198 -0.0922992 0
M  V30 5820 H 547.489 -1.84352 0.459814 0
M  V30 5821 H 545.639 -3.69914 -1.18725 0
M  V30 5822 H 547.311 -4.41981 1.32102 0
M  V30 5823 H 545.554 -4.13592 1.3086 0
M  V30 5824 H 546.225 -5.5043 0.416001 0
M  V30 5825 H 548.701 -4.0691 -0.869705 0
M  V30 5826 H 547.577 -5.25734 -1.57783 0
M  V30 5827 H 547.838 -3.72069 -2.38782 0
M  V30 5828 N 546.897 -0.0685191 -1.57451 0
M  V30 5829 C 547.845 0.917577 -2.13736 0
M  V30 5830 C 548.839 1.31049 -1.07344 0
M  V30 5831 O 550.045 1.28811 -1.25728 0
M  V30 5832 H 546.42 0.313835 -0.683382 0
M  V30 5833 H 548.391 0.417903 -2.95459 0
M  V30 5834 C 547.14 2.17686 -2.71123 0
M  V30 5835 H 546.463 1.88336 -3.52661 0
M  V30 5836 H 547.903 2.84803 -3.14107 0
M  V30 5837 C 546.362 2.9332 -1.65726 0
M  V30 5838 O 546.892 3.86901 -1.08031 0
M  V30 5839 N 545.098 2.56367 -1.36837 0
M  V30 5840 H 544.645 1.80341 -1.83943 0
M  V30 5841 H 544.603 3.07276 -0.665501 0
M  V30 5842 N 548.375 1.56261 0.205012 0
M  V30 5843 C 549.652 1.70856 0.952233 0
M  V30 5844 C 550.032 0.620501 2.01775 0
M  V30 5845 O 549.38 -0.370035 2.25484 0
M  V30 5846 C 549.59 3.12807 1.54767 0
M  V30 5847 C 550.938 3.72733 2.0336 0
M  V30 5848 O 551.962 3.15873 1.64629 0
M  V30 5849 O 550.821 4.72501 2.746 0
M  V30 5850 H 547.915 0.696496 0.445895 0
M  V30 5851 H 550.461 1.6857 0.195489 0
M  V30 5852 H 549.233 3.83465 0.779132 0
M  V30 5853 H 548.856 3.1928 2.36951 0
M  V30 5854 N 549.853 -0.472356 1.50355 0
M  V30 5855 C 551.1 -1.22453 1.61281 0
M  V30 5856 C 551.428 -1.91972 0.31256 0
M  V30 5857 O 550.683 -1.82696 -0.701475 0
M  V30 5858 C 550.982 -2.29257 2.74182 0
M  V30 5859 C 550.648 -1.76999 4.14708 0
M  V30 5860 C 549.31 -1.62467 4.52944 0
M  V30 5861 C 551.662 -1.38215 5.0254 0
M  V30 5862 C 548.99 -1.07574 5.76754 0
M  V30 5863 C 551.342 -0.847638 6.26895 0
M  V30 5864 C 550.006 -0.688946 6.63935 0
M  V30 5865 H 549.276 -0.448087 0.590168 0
M  V30 5866 H 551.923 -0.520744 1.84284 0
M  V30 5867 H 550.228 -3.05538 2.45263 0
M  V30 5868 H 551.925 -2.87212 2.7984 0
M  V30 5869 H 548.515 -1.89276 3.84542 0
M  V30 5870 H 552.699 -1.48276 4.73633 0
M  V30 5871 H 547.955 -0.940237 6.04127 0
M  V30 5872 H 552.129 -0.538455 6.94315 0
M  V30 5873 H 549.756 -0.261435 7.5975 0
M  V30 5874 N 551.331 -1.39911 -0.725443 0
M  V30 5875 C 552.578 -1.37654 -1.48518 0
M  V30 5876 C 552.906 0.0243982 -1.94485 0
M  V30 5877 O 552.161 1.00708 -1.67799 0
M  V30 5878 C 552.46 -2.30368 -2.7325 0
M  V30 5879 C 552.126 -3.77817 -2.461 0
M  V30 5880 C 550.788 -4.17991 -2.38405 0
M  V30 5881 C 553.14 -4.71036 -2.23103 0
M  V30 5882 C 550.468 -5.49433 -2.05768 0
M  V30 5883 C 552.82 -6.02766 -1.9198 0
M  V30 5884 C 551.484 -6.41993 -1.82761 0
M  V30 5885 H 550.754 -0.503713 -0.543465 0
M  V30 5886 H 553.401 -1.7249 -0.831822 0
M  V30 5887 H 551.706 -1.88683 -3.43375 0
M  V30 5888 H 553.403 -2.2591 -3.31309 0
M  V30 5889 H 549.993 -3.45982 -2.52972 0
M  V30 5890 H 554.177 -4.40823 -2.2801 0
M  V30 5891 H 549.433 -5.78738 -1.9716 0
M  V30 5892 H 553.607 -6.74519 -1.73197 0
M  V30 5893 H 551.234 -7.43761 -1.57237 0
M  V30 5894 N 552.809 0.956637 -1.25245 0
M  V30 5895 C 553.757 2.0743 -1.0524 0
M  V30 5896 C 554.751 1.69392 0.0160725 0
M  V30 5897 O 555.957 1.7946 -0.139382 0
M  V30 5898 H 552.332 0.678921 -0.323373 0
M  V30 5899 H 554.303 2.2146 -1.99995 0
M  V30 5900 C 553.052 3.40872 -0.685702 0
M  V30 5901 H 552.375 3.70607 -1.49968 0
M  V30 5902 H 553.815 4.19939 -0.585415 0
M  V30 5903 C 552.274 3.31367 0.608082 0
M  V30 5904 O 552.804 3.66214 1.65076 0
M  V30 5905 N 551.01 2.84486 0.592955 0
M  V30 5906 H 550.557 2.56326 -0.25592 0
M  V30 5907 H 550.515 2.78509 1.45877 0
M  V30 5908 N 554.287 1.06798 1.15896 0
M  V30 5909 C 555.234 0.683314 2.20453 0
M  V30 5910 C 556.204 -0.32255 1.62938 0
M  V30 5911 O 557.389 -0.210276 1.89638 0
M  V30 5912 C 554.529 0.0813266 3.45004 0
M  V30 5913 C 553.642 1.13799 4.16742 0
M  V30 5914 C 552.777 0.501598 5.28826 0
M  V30 5915 C 551.816 1.54144 5.92373 0
M  V30 5916 N 550.953 0.928038 6.9594 0
M  V30 5917 H 555.793 1.57932 2.52708 0
M  V30 5918 H 553.33 0.789544 1.24115 0
M  V30 5919 H 555.288 -0.285274 4.16224 0
M  V30 5920 H 553.918 -0.77806 3.13283 0
M  V30 5921 H 552.97 1.62223 3.44075 0
M  V30 5922 H 554.282 1.92664 4.60089 0
M  V30 5923 H 553.436 0.0823162 6.06644 0
M  V30 5924 H 552.175 -0.318883 4.86656 0
M  V30 5925 H 551.18 1.97056 5.13273 0
M  V30 5926 H 552.405 2.3641 6.36621 0
M  V30 5927 H 550.351 0.12836 6.55874 0
M  V30 5928 H 550.268 1.65401 7.37685 0
M  V30 5929 H 551.536 0.534071 7.77668 0
M  V30 5930 N 555.766 -1.3263 0.851289 0
M  V30 5931 C 557.015 -1.96633 0.449267 0
M  V30 5932 C 557.328 -1.68131 -0.999562 0
M  V30 5933 O 558.534 -2.25845 -1.50685 0
M  V30 5934 C 556.99 -3.51946 0.752446 0
M  V30 5935 C 556.598 -3.89311 2.21678 0
M  V30 5936 C 558.342 -4.22437 0.417983 0
M  V30 5937 C 556.249 -5.37655 2.46336 0
M  V30 5938 H 555.179 -0.735888 0.164269 0
M  V30 5939 H 557.83 -1.51073 1.0416 0
M  V30 5940 H 556.212 -3.95899 0.0895858 0
M  V30 5941 H 557.386 -3.56378 2.92115 0
M  V30 5942 H 555.701 -3.31836 2.51543 0
M  V30 5943 H 558.298 -5.31549 0.579674 0
M  V30 5944 H 558.641 -4.11349 -0.640115 0
M  V30 5945 H 559.174 -3.84057 1.03659 0
M  V30 5946 H 555.913 -5.5376 3.50757 0
M  V30 5947 H 555.433 -5.72005 1.80473 0
M  V30 5948 H 557.112 -6.04695 2.30115 0
M  V30 5949 N 557.244 -0.608902 -1.45362 0
M  V30 5950 C 558.49 -0.104762 -2.02529 0
M  V30 5951 C 558.823 1.26191 -1.47613 0
M  V30 5952 O 558.098 1.8327 -0.65134 0
M  V30 5953 C 558.381 -0.0672661 -3.60037 0
M  V30 5954 C 558.234 -1.4647 -4.25284 0
M  V30 5955 C 559.553 0.619877 -4.35713 0
M  V30 5956 H 556.672 -0.0395438 -0.735938 0
M  V30 5957 H 559.314 -0.781126 -1.73201 0
M  V30 5958 H 557.464 0.50871 -3.85155 0
M  V30 5959 H 559.136 -2.08785 -4.11347 0
M  V30 5960 H 557.379 -2.02502 -3.83634 0
M  V30 5961 H 558.05 -1.39069 -5.34195 0
M  V30 5962 H 560.526 0.130297 -4.15896 0
M  V30 5963 H 559.402 0.615224 -5.45441 0
M  V30 5964 H 559.663 1.68621 -4.0868 0
M  V30 5965 N 558.722 1.53707 -0.348139 0
M  V30 5966 C 559.67 2.26671 0.521808 0
M  V30 5967 C 560.664 1.28988 1.09811 0
M  V30 5968 O 561.87 1.4668 1.04332 0
M  V30 5969 H 558.245 0.728387 0.186968 0
M  V30 5970 H 560.216 2.98176 -0.115563 0
M  V30 5971 C 558.965 3.05591 1.6586 0
M  V30 5972 H 558.288 3.80589 1.22443 0
M  V30 5973 H 559.728 3.59851 2.24239 0
M  V30 5974 C 558.187 2.15366 2.59073 0
M  V30 5975 O 558.717 1.7528 3.61441 0
M  V30 5976 N 556.923 1.80352 2.27863 0
M  V30 5977 H 556.47 2.13149 1.44656 0
M  V30 5978 H 556.428 1.20268 2.90488 0
M  V30 5979 N 560.2 0.0768682 1.57412 0
M  V30 5980 C 561.147 -0.888577 2.13009 0
M  V30 5981 C 562.117 -1.29198 1.0439 0
M  V30 5982 O 563.302 -1.37694 1.3208 0
M  V30 5983 C 560.442 -2.14899 2.70023 0
M  V30 5984 C 559.555 -1.79777 3.92816 0
M  V30 5985 C 558.69 -3.00467 4.38056 0
M  V30 5986 C 557.729 -2.61385 5.53484 0
M  V30 5987 N 556.866 -3.74851 5.93659 0
M  V30 5988 H 561.706 -0.407593 2.95199 0
M  V30 5989 H 559.243 -0.189534 1.45874 0
M  V30 5990 H 561.201 -2.88688 3.0119 0
M  V30 5991 H 559.831 -2.60529 1.9059 0
M  V30 5992 H 558.883 -0.960301 3.68079 0
M  V30 5993 H 560.195 -1.47027 4.76639 0
M  V30 5994 H 559.349 -3.82529 4.7091 0
M  V30 5995 H 558.088 -3.36413 3.53097 0
M  V30 5996 H 557.093 -1.77746 5.20275 0
M  V30 5997 H 558.318 -2.26603 6.40178 0
M  V30 5998 H 556.264 -4.1055 5.11649 0
M  V30 5999 H 556.181 -3.45887 6.72234 0
M  V30 6000 H 557.449 -4.57477 6.31138 0
M  V30 6001 N 561.678 -1.56367 -0.196722 0
M  V30 6002 C 562.626 -1.95304 -1.2633 0
M  V30 6003 C 563.62 -0.838252 -1.47206 0
M  V30 6004 O 564.826 -1.02325 -1.48087 0
M  V30 6005 H 561.201 -0.621013 -0.424083 0
M  V30 6006 H 563.172 -2.84254 -0.907879 0
M  V30 6007 C 561.921 -2.3074 -2.60104 0
M  V30 6008 H 561.244 -3.16047 -2.44856 0
M  V30 6009 H 562.684 -2.61849 -3.33484 0
M  V30 6010 C 561.143 -1.14143 -3.16975 0
M  V30 6011 O 561.673 -0.415602 -3.99544 0
M  V30 6012 N 559.879 -0.91867 -2.75697 0
M  V30 6013 H 559.426 -1.51065 -2.08656 0
M  V30 6014 H 559.384 -0.140321 -3.14087 0
M  V30 6015 N 563.156 0.464375 -1.50603 0
M  V30 6016 C 564.104 1.58224 -1.70493 0
M  V30 6017 C 565.098 1.59492 -0.570836 0
M  V30 6018 O 566.304 1.63561 -0.751517 0
M  V30 6019 H 562.679 0.525161 -0.538247 0
M  V30 6020 H 564.65 1.38613 -2.64252 0
M  V30 6021 C 563.399 2.96113 -1.82243 0
M  V30 6022 H 562.722 2.95858 -2.68901 0
M  V30 6023 H 564.162 3.73769 -2.00182 0
M  V30 6024 C 562.621 3.31946 -0.575628 0
M  V30 6025 O 563.151 4.00708 0.282152 0
M  V30 6026 N 561.357 2.87436 -0.427665 0
M  V30 6027 H 560.904 2.31652 -1.12674 0
M  V30 6028 H 560.862 3.11776 0.405379 0
M  V30 6029 N 564.634 1.40294 0.718013 0
M  V30 6030 C 565.88 1.38645 1.48005 0
M  V30 6031 C 566.213 -0.0121202 1.94196 0
M  V30 6032 O 565.488 -0.980309 1.67989 0
M  V30 6033 C 565.771 2.37379 2.70782 0
M  V30 6034 C 565.624 3.8625 2.30501 0
M  V30 6035 C 566.943 2.33685 3.72933 0
M  V30 6036 H 564.062 0.504928 0.536858 0
M  V30 6037 H 566.704 1.71411 0.819649 0
M  V30 6038 H 564.854 2.09568 3.27129 0
M  V30 6039 H 566.526 4.24879 1.79655 0
M  V30 6040 H 564.769 4.02202 1.6253 0
M  V30 6041 H 565.44 4.50847 3.18498 0
M  V30 6042 H 567.916 2.58314 3.2621 0
M  V30 6043 H 566.792 3.0482 4.56482 0
M  V30 6044 H 567.053 1.34765 4.21059 0
M  V30 6045 N 566.112 -0.949982 1.2575 0
M  V30 6046 C 567.528 -1.22191 1.02672 0
M  V30 6047 C 567.728 -1.99898 -0.253588 0
M  V30 6048 O 566.784 -2.33329 -0.965076 0
M  V30 6049 C 568.097 -1.99175 2.25277 0
M  V30 6050 C 569.645 -2.12201 2.30087 0
M  V30 6051 C 570.12 -2.92586 3.5236 0
M  V30 6052 N 571.611 -3.00163 3.52784 0
M  V30 6053 C 572.346 -3.62766 4.44059 0
M  V30 6054 N 571.842 -4.26943 5.45611 0
M  V30 6055 N 573.635 -3.59953 4.3173 0
M  V30 6056 H 565.786 -0.430258 2.07996 0
M  V30 6057 H 568.049 -0.252844 0.91366 0
M  V30 6058 H 567.755 -1.49479 3.18354 0
M  V30 6059 H 567.629 -2.99868 2.28821 0
M  V30 6060 H 570.016 -2.61093 1.3753 0
M  V30 6061 H 570.097 -1.10799 2.30559 0
M  V30 6062 H 569.741 -2.44383 4.45241 0
M  V30 6063 H 569.671 -3.94224 3.49134 0
M  V30 6064 H 572.162 -2.54529 2.79327 0
M  V30 6065 H 572.475 -4.72583 6.11461 0
M  V30 6066 H 570.82 -4.25557 5.49478 0
M  V30 6067 H 574.011 -3.09003 3.51617 0
M  V30 6068 H 574.184 -4.08455 5.03059 0
M  V30 6069 N 567.59 -1.07411 -1.15328 0
M  V30 6070 C 568.83 -0.807011 -1.87794 0
M  V30 6071 C 569.194 0.654987 -1.80482 0
M  V30 6072 O 570.395 1.03716 -2.47985 0
M  V30 6073 C 568.666 -1.30198 -3.32841 0
M  V30 6074 S 570.225 -1.16564 -4.23034 0
M  V30 6075 H 567.043 -0.292429 -0.648079 0
M  V30 6076 H 569.645 -1.37334 -1.39139 0
M  V30 6077 H 568.349 -2.3607 -3.35707 0
M  V30 6078 H 567.88 -0.730881 -3.86551 0
M  V30 6079 H 569.895 -0.103557 -4.96092 0
M  V30 6080 N 569.068 1.32177 -0.85831 0
M  V30 6081 C 569.998 2.31282 -0.321041 0
M  V30 6082 C 570.979 1.59841 0.581786 0
M  V30 6083 O 572.164 1.87619 0.501262 0
M  V30 6084 C 569.294 3.4385 0.48832 0
M  V30 6085 C 568.248 4.26799 -0.320391 0
M  V30 6086 C 567.574 5.31164 0.613934 0
M  V30 6087 C 568.874 4.98829 -1.54813 0
M  V30 6088 H 570.568 2.76469 -1.14915 0
M  V30 6089 H 568.114 1.32916 -0.554028 0
M  V30 6090 H 570.067 4.12224 0.874626 0
M  V30 6091 H 568.791 2.97401 1.34983 0
M  V30 6092 H 567.45 3.60077 -0.688497 0
M  V30 6093 H 567.098 4.80967 1.47239 0
M  V30 6094 H 566.798 5.8755 0.0768097 0
M  V30 6095 H 568.322 6.024 0.997336 0
M  V30 6096 H 569.736 5.59864 -1.23392 0
M  V30 6097 H 568.133 5.64957 -2.02346 0
M  V30 6098 H 569.203 4.26483 -2.30739 0
M  V30 6099 N 570.547 0.616602 1.45037 0
M  V30 6100 C 571.479 -0.135186 2.28801 0
M  V30 6101 C 572.492 -0.82303 1.40464 0
M  V30 6102 O 573.681 -0.686909 1.64754 0
M  V30 6103 C 570.781 -1.21292 3.16451 0
M  V30 6104 C 569.954 -0.61043 4.3312 0
M  V30 6105 C 569.013 -1.58022 5.01912 0
M  V30 6106 O 568.039 -1.10301 5.58411 0
M  V30 6107 N 569.241 -2.91464 5.02025 0
M  V30 6108 H 572.006 0.583612 2.93963 0
M  V30 6109 H 569.567 0.456723 1.55324 0
M  V30 6110 H 571.559 -1.86169 3.59337 0
M  V30 6111 H 570.129 -1.83412 2.53138 0
M  V30 6112 H 569.349 0.216638 3.93604 0
M  V30 6113 H 570.637 -0.188293 5.08451 0
M  V30 6114 H 570.035 -3.32829 4.57429 0
M  V30 6115 H 568.592 -3.51741 5.48745 0
M  V30 6116 N 572.025 -1.5352 0.356285 0
M  V30 6117 C 572.975 -2.22204 -0.510815 0
M  V30 6118 C 573.959 -1.21393 -1.05605 0
M  V30 6119 O 575.151 -1.46883 -0.987639 0
M  V30 6120 C 572.28 -3.00786 -1.65478 0
M  V30 6121 C 571.366 -4.08965 -1.12287 0
M  V30 6122 N 571.757 -5.04829 -0.313191 0
M  V30 6123 C 570.055 -4.23505 -1.39856 0
M  V30 6124 C 570.756 -5.81695 -0.0230322 0
M  V30 6125 N 569.732 -5.40074 -0.618144 0
M  V30 6126 H 573.534 -2.93676 0.114711 0
M  V30 6127 H 571.048 -1.61572 0.163811 0
M  V30 6128 H 573.045 -3.48502 -2.28806 0
M  V30 6129 H 571.705 -2.30843 -2.28345 0
M  V30 6130 H 572.716 -5.17879 0.0468202 0
M  V30 6131 H 569.393 -3.64786 -2.0307 0
M  V30 6132 H 570.783 -6.68931 0.630927 0
M  V30 6133 N 573.503 -0.0852151 -1.57369 0
M  V30 6134 C 574.75 0.580806 -1.93992 0
M  V30 6135 C 575.078 1.68801 -0.966252 0
M  V30 6136 O 574.333 1.95694 0.0158649 0
M  V30 6137 C 574.632 1.18482 -3.3719 0
M  V30 6138 C 574.298 0.2024 -4.50446 0
M  V30 6139 C 572.96 -0.0678318 -4.81152 0
M  V30 6140 C 575.312 -0.46895 -5.19086 0
M  V30 6141 C 572.64 -1.01627 -5.77831 0
M  V30 6142 C 574.992 -1.4058 -6.16782 0
M  V30 6143 C 573.656 -1.68436 -6.45899 0
M  V30 6144 H 572.926 0.212532 -0.709867 0
M  V30 6145 H 575.573 -0.158947 -1.90839 0
M  V30 6146 H 573.878 2.0006 -3.36873 0
M  V30 6147 H 575.575 1.70767 -3.62822 0
M  V30 6148 H 572.165 0.423208 -4.26505 0
M  V30 6149 H 576.349 -0.273307 -4.95547 0
M  V30 6150 H 571.605 -1.2392 -5.9871 0
M  V30 6151 H 575.779 -1.93188 -6.69068 0
M  V30 6152 H 573.406 -2.42088 -7.20623 0
M  V30 6153 N 574.981 1.5647 0.188427 0
M  V30 6154 C 576.211 1.84863 0.922463 0
M  V30 6155 C 576.619 0.666413 1.77075 0
M  V30 6156 O 575.962 -0.374044 1.79852 0
M  V30 6157 C 576.024 3.07447 1.86324 0
M  V30 6158 C 575.688 4.41066 1.19625 0
M  V30 6159 C 576.685 5.16767 0.569946 0
M  V30 6160 C 574.37 4.87802 1.19811 0
M  V30 6161 C 576.364 6.37384 -0.045594 0
M  V30 6162 C 574.051 6.08353 0.57874 0
M  V30 6163 C 575.049 6.82987 -0.0420259 0
M  V30 6164 O 574.737 8.01254 -0.651675 0
M  V30 6165 H 574.469 0.61784 0.274316 0
M  V30 6166 H 577.023 2.04437 0.198613 0
M  V30 6167 H 575.253 2.83774 2.62696 0
M  V30 6168 H 576.942 3.2243 2.46564 0
M  V30 6169 H 577.708 4.81749 0.560601 0
M  V30 6170 H 573.587 4.29662 1.67069 0
M  V30 6171 H 577.131 6.95578 -0.530731 0
M  V30 6172 H 573.028 6.42838 0.58561 0
M  V30 6173 H 573.796 8.16655 -0.549236 0
M  V30 6174 N 576.459 -0.456382 1.50847 0
M  V30 6175 C 577.707 -1.20497 1.62249 0
M  V30 6176 C 578.028 -1.92156 0.331839 0
M  V30 6177 O 577.298 -1.84751 -0.651443 0
M  V30 6178 H 575.878 -0.447775 0.597918 0
M  V30 6179 H 578.54 -0.525099 1.87693 0
M  V30 6180 H 577.636 -1.94492 2.44089 0
M  V30 6181 N 577.937 -1.40673 -0.710563 0
M  V30 6182 C 579.348 -1.34975 -1.28991 0
M  V30 6183 C 579.699 -0.0256272 -1.96183 0
M  V30 6184 O 578.824 0.876339 -1.97862 0
M  V30 6185 C 579.419 -2.44467 -2.34567 0
M  V30 6186 C 577.978 -2.42213 -2.88114 0
M  V30 6187 C 577.125 -2.25085 -1.61963 0
M  V30 6188 H 580.076 -1.50406 -0.506343 0
M  V30 6189 H 580.097 -2.12663 -3.15523 0
M  V30 6190 H 579.609 -3.40825 -1.85634 0
M  V30 6191 H 577.71 -1.49568 -3.41263 0
M  V30 6192 H 577.823 -3.37983 -3.39565 0
M  V30 6193 H 576.187 -1.72691 -1.87216 0
M  V30 6194 H 576.97 -3.23449 -1.15047 0
M  V30 6195 N 579.415 0.9433 -1.26252 0
M  V30 6196 C 580.363 2.06302 -1.07434 0
M  V30 6197 C 581.357 1.694 -0.00189471 0
M  V30 6198 O 582.563 1.79302 -0.158408 0
M  V30 6199 H 578.938 0.675453 -0.330556 0
M  V30 6200 H 580.909 2.19326 -2.02333 0
M  V30 6201 C 579.658 3.40125 -0.721817 0
M  V30 6202 H 578.981 3.68996 -1.5389 0
M  V30 6203 H 580.421 4.19295 -0.629922 0
M  V30 6204 C 578.88 3.31993 0.572902 0
M  V30 6205 O 579.41 3.67945 1.61182 0
M  V30 6206 N 577.616 2.85099 0.562748 0
M  V30 6207 H 577.163 2.5604 -0.283092 0
M  V30 6208 H 577.121 2.80041 1.42915 0
M  V30 6209 N 580.893 1.08022 1.14757 0
M  V30 6210 C 581.843 0.676345 2.17737 0
M  V30 6211 C 582.827 -0.302018 1.5804 0
M  V30 6212 O 584.019 -0.11466 1.76628 0
M  V30 6213 C 581.148 0.082984 3.432 0
M  V30 6214 C 580.234 1.0869 4.09936 0
M  V30 6215 N 580.625 2.26891 4.52055 0
M  V30 6216 C 578.923 0.921768 4.36371 0
M  V30 6217 C 579.624 2.90636 5.0389 0
M  V30 6218 N 578.6 2.18266 4.97856 0
M  V30 6219 H 582.402 1.5765 2.4804 0
M  V30 6220 H 579.916 0.954374 1.31398 0
M  V30 6221 H 581.913 -0.224289 4.16296 0
M  V30 6222 H 580.573 -0.812206 3.14378 0
M  V30 6223 H 581.584 2.6457 4.45223 0
M  V30 6224 H 578.261 0.0800499 4.17423 0
M  V30 6225 H 579.651 3.9104 5.46386 0
M  V30 6226 N 582.371 -1.3172 0.865308 0
M  V30 6227 C 583.281 -2.32394 0.320935 0
M  V30 6228 C 584.297 -1.64511 -0.566746 0
M  V30 6229 O 585.473 -1.95969 -0.464575 0
M  V30 6230 C 582.538 -3.43462 -0.472701 0
M  V30 6231 C 581.599 -4.27015 0.442385 0
M  V30 6232 C 580.832 -5.32779 -0.313469 0
M  V30 6233 O 581.055 -5.49158 -1.54214 0
M  V30 6234 O 579.989 -6.01015 0.326257 0
M  V30 6235 H 583.815 -2.80868 1.15528 0
M  V30 6236 H 581.4 -1.35535 0.628545 0
M  V30 6237 H 583.282 -4.11172 -0.922781 0
M  V30 6238 H 581.957 -2.97159 -1.28367 0
M  V30 6239 H 580.864 -3.62075 0.940866 0
M  V30 6240 H 582.197 -4.76871 1.21882 0
M  V30 6241 N 583.85 -0.624285 -1.44708 0
M  V30 6242 C 584.8 0.106466 -2.27751 0
M  V30 6243 C 585.784 0.822703 -1.38277 0
M  V30 6244 O 586.976 0.709939 -1.62138 0
M  V30 6245 C 584.105 1.092 -3.25469 0
M  V30 6246 C 583.191 0.375737 -4.22432 0
M  V30 6247 N 583.582 -0.591881 -5.02325 0
M  V30 6248 C 581.88 0.621093 -4.41654 0
M  V30 6249 C 582.581 -1.01443 -5.72786 0
M  V30 6250 N 581.557 -0.354651 -5.42442 0
M  V30 6251 H 585.359 -0.636464 -2.86926 0
M  V30 6252 H 582.873 -0.44925 -1.56062 0
M  V30 6253 H 584.87 1.63006 -3.83712 0
M  V30 6254 H 583.529 1.8353 -2.67856 0
M  V30 6255 H 584.541 -0.969389 -5.08747 0
M  V30 6256 H 581.218 1.34779 -3.95147 0
M  V30 6257 H 582.608 -1.81345 -6.46965 0
M  V30 6258 N 585.328 1.53329 -0.364422 0
M  V30 6259 C 586.568 2.0315 0.22572 0
M  V30 6260 C 586.932 1.24589 1.46087 0
M  V30 6261 O 588.133 1.64411 2.12656 0
M  V30 6262 C 586.404 3.53718 0.511663 0
M  V30 6263 S 587.963 4.25412 1.07564 0
M  V30 6264 H 584.781 0.70795 0.0657843 0
M  V30 6265 H 587.383 1.88811 -0.507019 0
M  V30 6266 H 586.087 4.08497 -0.394784 0
M  V30 6267 H 585.618 3.72217 1.27351 0
M  V30 6268 H 587.633 4.36486 2.35997 0
M  V30 6269 N 586.806 0.0935595 1.57322 0
M  V30 6270 C 588.053 -0.570509 1.94297 0
M  V30 6271 C 588.381 -1.68286 0.97519 0
M  V30 6272 O 587.636 -1.95699 -0.00548655 0
M  V30 6273 C 587.935 -1.16692 3.37813 0
M  V30 6274 C 587.601 -0.178509 4.50547 0
M  V30 6275 C 586.263 0.0933475 4.81109 0
M  V30 6276 C 588.615 0.496472 5.1883 0
M  V30 6277 C 585.943 1.0469 5.77284 0
M  V30 6278 C 588.295 1.43849 6.16028 0
M  V30 6279 C 586.959 1.71859 6.44997 0
M  V30 6280 H 586.229 -0.208764 0.710984 0
M  V30 6281 H 588.876 0.169066 1.90752 0
M  V30 6282 H 587.181 -1.98271 3.37929 0
M  V30 6283 H 588.878 -1.6884 3.63722 0
M  V30 6284 H 585.468 -0.400584 4.26724 0
M  V30 6285 H 589.652 0.299584 4.95395 0
M  V30 6286 H 584.908 1.27094 5.98044 0
M  V30 6287 H 589.082 1.96734 6.68034 0
M  V30 6288 H 586.709 2.45906 7.19329 0
M  V30 6289 N 588.284 -1.56567 -0.180126 0
M  V30 6290 C 589.232 -1.96632 -1.24251 0
M  V30 6291 C 590.226 -0.853818 -1.46309 0
M  V30 6292 O 591.432 -1.0389 -1.46993 0
M  V30 6293 H 587.807 -0.625476 -0.417473 0
M  V30 6294 H 589.778 -2.85201 -0.877679 0
M  V30 6295 C 588.527 -2.33486 -2.57642 0
M  V30 6296 H 587.85 -3.18626 -2.4149 0
M  V30 6297 H 589.29 -2.65371 -3.30688 0
M  V30 6298 C 587.749 -1.17499 -3.15746 0
M  V30 6299 O 588.279 -0.457956 -3.99081 0
M  V30 6300 N 586.485 -0.94786 -2.74707 0
M  V30 6301 H 586.032 -1.53269 -2.07042 0
M  V30 6302 H 585.99 -0.173626 -3.1392 0
M  V30 6303 N 589.762 0.448376 -1.51087 0
M  V30 6304 C 591.178 0.783984 -1.39017 0
M  V30 6305 C 591.378 1.96087 -0.463904 0
M  V30 6306 O 590.434 2.52357 0.0850534 0
M  V30 6307 C 591.747 1.07471 -2.80839 0
M  V30 6308 C 593.295 1.17981 -2.89913 0
M  V30 6309 C 593.77 1.50354 -4.32617 0
M  V30 6310 N 595.261 1.57301 -4.35673 0
M  V30 6311 C 595.996 1.839 -5.4311 0
M  V30 6312 N 595.492 2.08365 -6.60724 0
M  V30 6313 N 597.285 1.8559 -5.30578 0
M  V30 6314 H 589.436 -0.326881 -2.0987 0
M  V30 6315 H 591.699 -0.0838006 -0.944289 0
M  V30 6316 H 591.405 0.282768 -3.50561 0
M  V30 6317 H 591.279 2.00519 -3.19487 0
M  V30 6318 H 593.666 1.9624 -2.20395 0
M  V30 6319 H 593.747 0.228603 -2.54776 0
M  V30 6320 H 593.391 0.726273 -5.0268 0
M  V30 6321 H 593.321 2.46663 -4.65258 0
M  V30 6322 H 595.812 1.40342 -3.50874 0
M  V30 6323 H 596.125 2.27999 -7.38401 0
M  V30 6324 H 594.47 2.0571 -6.63859 0
M  V30 6325 H 597.661 1.65989 -4.37682 0
M  V30 6326 H 597.834 2.05983 -6.1439 0
M  V30 6327 N 591.24 1.41047 0.703093 0
M  V30 6328 C 592.468 1.4334 1.49202 0
M  V30 6329 C 592.883 0.0365596 1.88765 0
M  V30 6330 O 592.24 -0.942419 1.56284 0
M  V30 6331 C 592.291 2.33538 2.75939 0
M  V30 6332 O 592.012 3.67786 2.38045 0
M  V30 6333 C 593.513 2.44555 3.6974 0
M  V30 6334 H 590.733 0.488472 0.460039 0
M  V30 6335 H 593.277 1.85245 0.86629 0
M  V30 6336 H 591.432 1.94962 3.34766 0
M  V30 6337 H 591.846 4.15816 3.19683 0
M  V30 6338 H 593.32 3.11849 4.55471 0
M  V30 6339 H 593.797 1.47447 4.1371 0
M  V30 6340 H 594.403 2.83735 3.16819 0
M  V30 6341 N 592.718 -0.936591 1.26751 0
M  V30 6342 C 593.648 -2.05315 1.11212 0
M  V30 6343 C 594.629 -1.70092 0.0160262 0
M  V30 6344 O 595.814 -1.93279 0.188894 0
M  V30 6345 C 592.944 -3.39123 0.749171 0
M  V30 6346 C 591.898 -3.88425 1.79751 0
M  V30 6347 C 591.224 -5.18936 1.28876 0
M  V30 6348 C 592.524 -4.12798 3.19992 0
M  V30 6349 H 594.218 -2.18573 2.04613 0
M  V30 6350 H 591.764 -1.05027 0.985159 0
M  V30 6351 H 593.717 -4.16704 0.627323 0
M  V30 6352 H 592.441 -3.25855 -0.220543 0
M  V30 6353 H 591.1 -3.13028 1.90811 0
M  V30 6354 H 590.748 -5.02051 0.308757 0
M  V30 6355 H 590.448 -5.52892 1.98958 0
M  V30 6356 H 591.972 -5.99096 1.17967 0
M  V30 6357 H 593.386 -4.80977 3.11983 0
M  V30 6358 H 591.783 -4.58044 3.87705 0
M  V30 6359 H 592.853 -3.18412 3.65707 0
M  V30 6360 N 594.196 -1.08629 -1.14182 0
M  V30 6361 C 595.126 -0.740003 -2.21464 0
M  V30 6362 C 596.107 0.278591 -1.67803 0
M  V30 6363 O 597.292 0.148461 -1.93632 0
M  V30 6364 C 594.422 -0.150952 -3.46972 0
M  V30 6365 C 593.376 -1.09815 -4.13672 0
M  V30 6366 C 592.702 -0.3712 -5.3341 0
M  V30 6367 C 594.002 -2.43722 -4.61949 0
M  V30 6368 H 595.696 -1.63697 -2.50686 0
M  V30 6369 H 593.242 -0.788526 -1.20492 0
M  V30 6370 H 595.195 0.103325 -4.21273 0
M  V30 6371 H 593.919 0.781164 -3.1712 0
M  V30 6372 H 592.578 -1.33756 -3.41328 0
M  V30 6373 H 592.226 0.564792 -4.99819 0
M  V30 6374 H 591.926 -1.00267 -5.78982 0
M  V30 6375 H 593.45 -0.12503 -6.10472 0
M  V30 6376 H 594.864 -2.24034 -5.27714 0
M  V30 6377 H 593.261 -3.02582 -5.18232 0
M  V30 6378 H 594.331 -3.05082 -3.76899 0
M  V30 6379 N 595.674 1.31259 -0.872281 0
M  V30 6380 C 597.09 1.49283 -0.564521 0
M  V30 6381 C 597.29 1.80243 0.900807 0
M  V30 6382 O 596.346 1.88246 1.68284 0
M  V30 6383 C 597.659 2.62503 -1.46673 0
M  V30 6384 C 599.207 2.76386 -1.46901 0
M  V30 6385 C 599.682 3.92705 -2.35684 0
M  V30 6386 N 601.173 3.99995 -2.33577 0
M  V30 6387 C 601.908 4.89276 -2.98992 0
M  V30 6388 N 601.404 5.83443 -3.73585 0
M  V30 6389 N 603.197 4.82541 -2.88289 0
M  V30 6390 H 595.348 1.09432 -1.82039 0
M  V30 6391 H 597.611 0.540949 -0.77851 0
M  V30 6392 H 597.317 2.46407 -2.50951 0
M  V30 6393 H 597.191 3.58695 -1.16696 0
M  V30 6394 H 599.578 2.91894 -0.433796 0
M  V30 6395 H 599.659 1.80853 -1.80903 0
M  V30 6396 H 599.303 3.77954 -3.39283 0
M  V30 6397 H 599.233 4.87549 -1.99006 0
M  V30 6398 H 601.724 3.32624 -1.7936 0
M  V30 6399 H 602.037 6.48303 -4.20622 0
M  V30 6400 H 600.382 5.83415 -3.77694 0
M  V30 6401 H 603.573 4.07951 -2.2955 0
M  V30 6402 H 603.746 5.51916 -3.39549 0
M  V30 6403 N 597.152 0.631951 1.44375 0
M  V30 6404 C 598.1 -0.0846693 2.32446 0
M  V30 6405 C 599.094 -0.834957 1.47393 0
M  V30 6406 O 600.3 -0.747764 1.63733 0
M  V30 6407 H 596.675 -0.0461508 0.750583 0
M  V30 6408 H 598.646 0.67619 2.90638 0
M  V30 6409 C 597.395 -1.05211 3.314 0
M  V30 6410 H 596.718 -0.484203 3.96857 0
M  V30 6411 H 598.158 -1.523 3.95703 0
M  V30 6412 C 596.617 -2.13776 2.60387 0
M  V30 6413 O 597.147 -3.21869 2.4034 0
M  V30 6414 N 595.353 -1.89733 2.20113 0
M  V30 6415 H 594.9 -1.01833 2.36618 0
M  V30 6416 H 594.858 -2.62572 1.72926 0
M  V30 6417 N 598.631 -1.53133 0.372548 0
M  V30 6418 C 599.856 -2.0625 -0.218098 0
M  V30 6419 C 600.281 -1.24375 -1.41111 0
M  V30 6420 O 599.639 -0.264554 -1.79359 0
M  V30 6421 C 599.687 -3.55858 -0.582876 0
M  V30 6422 O 598.791 -3.76667 -1.67917 0
M  V30 6423 H 598.132 -0.663317 -0.030104 0
M  V30 6424 H 600.662 -1.97477 0.535169 0
M  V30 6425 H 600.672 -3.99007 -0.851925 0
M  V30 6426 H 599.347 -4.14892 0.289428 0
M  V30 6427 H 597.924 -3.45413 -1.40513 0
M  V30 6428 N 600.109 -0.101901 -1.5727 0
M  V30 6429 C 601.334 0.571759 -1.99363 0
M  V30 6430 C 601.759 1.60507 -0.980768 0
M  V30 6431 O 601.117 1.81231 0.0498517 0
M  V30 6432 C 601.165 1.18996 -3.404 0
M  V30 6433 O 600.269 2.30572 -3.41922 0
M  V30 6434 H 599.61 0.144449 -0.648098 0
M  V30 6435 H 602.14 -0.185325 -2.03759 0
M  V30 6436 H 602.15 1.52962 -3.78241 0
M  V30 6437 H 600.825 0.432984 -4.1364 0
M  V30 6438 H 599.402 1.98173 -3.15883 0
M  V30 6439 N 601.587 1.56661 0.17182 0
M  V30 6440 C 602.835 1.81606 0.886774 0
M  V30 6441 C 603.156 0.678818 1.82803 0
M  V30 6442 O 602.426 -0.301354 1.93568 0
M  V30 6443 H 601.006 0.669934 0.330451 0
M  V30 6444 H 603.668 1.94142 0.171757 0
M  V30 6445 H 602.764 2.75634 1.46398 0
M  V30 6446 N 603.065 -0.440357 1.51323 0
M  V30 6447 C 604.305 -1.19956 1.65499 0
M  V30 6448 C 604.669 -1.88559 0.361878 0
M  V30 6449 O 605.87 -2.66109 0.379383 0
M  V30 6450 C 604.141 -2.1918 2.82303 0
M  V30 6451 S 605.7 -3.03627 3.1679 0
M  V30 6452 H 602.518 -0.406833 0.583102 0
M  V30 6453 H 605.12 -0.491596 1.89218 0
M  V30 6454 H 603.824 -1.67414 3.74701 0
M  V30 6455 H 603.355 -2.94561 2.60763 0
M  V30 6456 H 605.37 -4.20773 2.62991 0
M  V30 6457 N 604.543 -1.41418 -0.695603 0
M  V30 6458 C 605.453 -1.45622 -1.83933 0
M  V30 6459 C 606.469 -0.346825 -1.70508 0
M  V30 6460 O 607.645 -0.59454 -1.92424 0
M  V30 6461 C 604.71 -1.33627 -3.19914 0
M  V30 6462 C 603.771 -2.54882 -3.45447 0
M  V30 6463 C 603.004 -2.43449 -4.7494 0
M  V30 6464 O 603.227 -1.45905 -5.51424 0
M  V30 6465 O 602.161 -3.33206 -5.01256 0
M  V30 6466 H 605.987 -2.42114 -1.83342 0
M  V30 6467 H 603.572 -1.22956 -0.848658 0
M  V30 6468 H 605.454 -1.29221 -4.01098 0
M  V30 6469 H 604.129 -0.402508 -3.21188 0
M  V30 6470 H 603.036 -2.64865 -2.64192 0
M  V30 6471 H 604.369 -3.47087 -3.48987 0
M  V30 6472 N 606.021 0.929856 -1.27246 0
M  V30 6473 C 606.984 2.01172 -1.09829 0
M  V30 6474 C 607.984 1.60743 -0.0429687 0
M  V30 6475 O 609.174 1.71813 -0.287373 0
M  V30 6476 C 606.306 3.34191 -0.673003 0
M  V30 6477 H 607.499 2.18054 -2.05895 0
M  V30 6478 H 605.052 1.11036 -1.10003 0
M  V30 6479 H 605.787 3.23009 0.289134 0
M  V30 6480 H 605.572 3.64892 -1.43515 0
M  V30 6481 H 607.062 4.13646 -0.573323 0
M  V30 6482 N 607.499 1.09233 1.13605 0
M  V30 6483 C 608.915 0.82163 1.36826 0
M  V30 6484 C 609.115 -0.565021 1.93416 0
M  V30 6485 O 608.171 -1.32026 2.15234 0
M  V30 6486 C 609.484 1.91124 2.32147 0
M  V30 6487 C 611.032 1.93824 2.45767 0
M  V30 6488 C 611.507 3.01923 3.44393 0
M  V30 6489 N 612.998 3.01149 3.51942 0
M  V30 6490 C 613.733 3.81434 4.2813 0
M  V30 6491 N 613.229 4.71621 5.07489 0
M  V30 6492 N 615.022 3.69702 4.23411 0
M  V30 6493 H 607.173 1.98633 0.752234 0
M  V30 6494 H 609.436 0.862482 0.393482 0
M  V30 6495 H 609.142 2.90862 1.97717 0
M  V30 6496 H 609.016 1.78777 3.32142 0
M  V30 6497 H 611.403 0.94726 2.79483 0
M  V30 6498 H 611.484 2.10248 1.45703 0
M  V30 6499 H 611.128 4.01232 3.11408 0
M  V30 6500 H 611.058 2.82742 4.44257 0
M  V30 6501 H 613.549 2.35789 2.95317 0
M  V30 6502 H 613.862 5.29468 5.62924 0
M  V30 6503 H 612.207 4.75658 5.06729 0
M  V30 6504 H 615.398 2.98606 3.60489 0
M  V30 6505 H 615.571 4.32509 4.82535 0
M  V30 6506 N 608.977 -1.30795 0.87923 0
M  V30 6507 C 610.393 -1.48981 0.57243 0
M  V30 6508 C 610.593 -1.80719 -0.891236 0
M  V30 6509 O 609.649 -1.89136 -1.67283 0
M  V30 6510 C 610.962 -2.61721 1.48063 0
M  V30 6511 C 612.51 -2.75603 1.48365 0
M  V30 6512 C 612.985 -3.91449 2.37763 0
M  V30 6513 N 614.476 -3.98751 2.35695 0
M  V30 6514 C 615.211 -4.87684 3.01583 0
M  V30 6515 N 614.707 -5.81454 3.76674 0
M  V30 6516 N 616.5 -4.81005 2.90844 0
M  V30 6517 H 608.651 -1.08465 1.82617 0
M  V30 6518 H 610.914 -0.536813 0.781368 0
M  V30 6519 H 610.62 -2.45073 2.52254 0
M  V30 6520 H 610.494 -3.58071 1.18596 0
M  V30 6521 H 612.881 -2.9166 0.44927 0
M  V30 6522 H 612.962 -1.79891 1.81859 0
M  V30 6523 H 612.606 -3.76149 3.41283 0
M  V30 6524 H 612.536 -4.86487 2.01589 0
M  V30 6525 H 615.027 -3.31668 1.81121 0
M  V30 6526 H 615.34 -6.46063 4.24054 0
M  V30 6527 H 613.685 -5.81403 3.80782 0
M  V30 6528 H 616.876 -4.06728 2.31711 0
M  V30 6529 H 617.049 -5.50107 3.42471 0
M  V30 6530 N 610.455 -0.639598 -1.44038 0
M  V30 6531 C 611.732 -0.078012 -1.95444 0
M  V30 6532 C 612.112 1.39847 -1.58133 0
M  V30 6533 O 611.46 2.11714 -0.859614 0
M  V30 6534 C 611.67 -0.309832 -3.47622 0
M  V30 6535 C 613.018 -0.207521 -4.24093 0
M  V30 6536 O 614.042 -0.241653 -3.55379 0
M  V30 6537 O 612.901 -0.119641 -5.46369 0
M  V30 6538 H 609.995 0.0174534 -0.826816 0
M  V30 6539 H 612.541 -0.711891 -1.54046 0
M  V30 6540 H 611.313 -1.33401 -3.67858 0
M  V30 6541 H 610.936 0.357777 -3.95987 0
M  V30 6542 N 611.933 1.52934 -0.380664 0
M  V30 6543 C 612.843 2.29921 0.466192 0
M  V30 6544 C 613.859 1.36488 1.07922 0
M  V30 6545 O 615.035 1.69553 1.0869 0
M  V30 6546 C 612.1 3.08468 1.58266 0
M  V30 6547 C 611.161 4.17595 0.995627 0
M  V30 6548 C 610.394 4.92387 2.05889 0
M  V30 6549 O 610.617 4.67184 3.27254 0
M  V30 6550 O 609.551 5.77949 1.68102 0
M  V30 6551 H 613.377 3.03274 -0.160735 0
M  V30 6552 H 610.962 1.48698 -0.144617 0
M  V30 6553 H 612.844 3.57469 2.23145 0
M  V30 6554 H 611.519 2.37937 2.19471 0
M  V30 6555 H 610.426 3.72811 0.310332 0
M  V30 6556 H 611.759 4.90336 0.427918 0
M  V30 6557 N 613.412 0.11024 1.57214 0
M  V30 6558 C 614.642 -0.557025 1.98949 0
M  V30 6559 C 615.05 -1.61317 0.988606 0
M  V30 6560 O 614.393 -1.83679 -0.0279159 0
M  V30 6561 C 614.455 -1.24956 3.37085 0
M  V30 6562 C 614.119 -0.342398 4.55716 0
M  V30 6563 C 615.116 0.415511 5.18237 0
M  V30 6564 C 612.801 -0.256029 5.01647 0
M  V30 6565 C 614.795 1.24761 6.25071 0
M  V30 6566 C 612.482 0.579713 6.08344 0
M  V30 6567 C 613.48 1.33017 6.69922 0
M  V30 6568 O 613.168 2.15205 7.74559 0
M  V30 6569 H 612.9 -0.152792 0.658506 0
M  V30 6570 H 615.454 0.19076 2.04512 0
M  V30 6571 H 613.684 -2.04424 3.2825 0
M  V30 6572 H 615.373 -1.81286 3.63167 0
M  V30 6573 H 616.139 0.358605 4.83672 0
M  V30 6574 H 612.018 -0.829831 4.5347 0
M  V30 6575 H 615.562 1.83386 6.73064 0
M  V30 6576 H 611.459 0.638044 6.42339 0
M  V30 6577 H 612.227 2.08052 7.91617 0
M  V30 6578 N 614.89 -1.56749 -0.16351 0
M  V30 6579 C 616.306 -1.51043 -0.515567 0
M  V30 6580 C 616.506 -0.815855 -1.84245 0
M  V30 6581 O 615.562 -0.379477 -2.49632 0
M  V30 6582 C 616.875 -2.95791 -0.541114 0
M  V30 6583 C 618.423 -3.0664 -0.627776 0
M  V30 6584 C 618.898 -4.52861 -0.684141 0
M  V30 6585 N 620.389 -4.5714 -0.746818 0
M  V30 6586 C 621.124 -5.67634 -0.811137 0
M  V30 6587 N 620.62 -6.8774 -0.835811 0
M  V30 6588 N 622.413 -5.55624 -0.850756 0
M  V30 6589 H 614.564 -2.00307 0.70645 0
M  V30 6590 H 616.827 -0.912876 0.255659 0
M  V30 6591 H 616.533 -3.49797 0.365329 0
M  V30 6592 H 616.407 -3.50858 -1.38487 0
M  V30 6593 H 618.794 -2.52663 -1.52464 0
M  V30 6594 H 618.875 -2.54645 0.242805 0
M  V30 6595 H 618.519 -5.07472 0.2085 0
M  V30 6596 H 618.449 -5.02621 -1.57098 0
M  V30 6597 H 620.94 -3.70669 -0.735717 0
M  V30 6598 H 621.253 -7.67701 -0.886279 0
M  V30 6599 H 619.598 -6.90334 -0.803958 0
M  V30 6600 H 622.789 -4.60709 -0.828535 0
M  V30 6601 H 622.962 -6.41756 -0.897418 0
M  V30 6602 N 616.368 0.432326 -1.51554 0
M  V30 6603 C 617.596 1.20364 -1.68286 0
M  V30 6604 C 618.011 1.84888 -0.38233 0
M  V30 6605 O 617.368 1.70924 0.639627 0
M  V30 6606 C 617.419 2.28398 -2.80208 0
M  V30 6607 O 617.14 1.66512 -4.05223 0
M  V30 6608 C 618.641 3.18584 -3.08251 0
M  V30 6609 H 615.861 0.36259 -0.564596 0
M  V30 6610 H 618.405 0.511647 -1.97996 0
M  V30 6611 H 616.56 2.93305 -2.53083 0
M  V30 6612 H 616.974 2.37951 -4.67418 0
M  V30 6613 H 618.448 3.90511 -3.90135 0
M  V30 6614 H 618.925 3.79628 -2.2086 0
M  V30 6615 H 619.531 2.59372 -3.37055 0
M  V30 6616 N 617.846 1.41785 0.688094 0
M  V30 6617 C 618.756 1.46596 1.83158 0
M  V30 6618 C 619.772 0.355862 1.70322 0
M  V30 6619 O 620.948 0.604737 1.92106 0
M  V30 6620 C 618.013 1.35322 3.192 0
M  V30 6621 C 617.074 2.56711 3.4409 0
M  V30 6622 C 616.307 2.45965 4.73642 0
M  V30 6623 O 616.53 1.48827 5.50642 0
M  V30 6624 O 615.464 3.35859 4.99482 0
M  V30 6625 H 619.29 2.43083 1.82056 0
M  V30 6626 H 616.875 1.23404 0.842126 0
M  V30 6627 H 618.757 1.31347 4.00407 0
M  V30 6628 H 617.432 0.419536 3.2097 0
M  V30 6629 H 616.339 2.66262 2.62784 0
M  V30 6630 H 617.672 3.48933 3.47141 0
M  V30 6631 N 619.324 -0.923095 1.27737 0
M  V30 6632 C 620.571 -1.67127 1.14345 0
M  V30 6633 C 620.899 -1.92017 -0.30982 0
M  V30 6634 O 620.154 -1.51185 -1.24264 0
M  V30 6635 C 620.453 -3.04125 1.8773 0
M  V30 6636 C 620.119 -2.98929 3.37568 0
M  V30 6637 C 618.781 -2.9722 3.78436 0
M  V30 6638 C 621.133 -2.89875 4.33154 0
M  V30 6639 C 618.461 -2.84244 5.13247 0
M  V30 6640 C 620.813 -2.7844 5.68026 0
M  V30 6641 C 619.477 -2.75083 6.08182 0
M  V30 6642 H 618.747 -0.611562 0.418417 0
M  V30 6643 H 621.394 -1.07618 1.584 0
M  V30 6644 H 619.699 -3.67366 1.36196 0
M  V30 6645 H 621.396 -3.609 1.74792 0
M  V30 6646 H 617.986 -3.0105 3.05069 0
M  V30 6647 H 622.17 -2.9029 4.02548 0
M  V30 6648 H 617.426 -2.80034 5.43499 0
M  V30 6649 H 621.6 -2.70401 6.4176 0
M  V30 6650 H 619.227 -2.64786 7.12596 0
M  V30 6651 N 620.802 -1.09834 -1.13024 0
M  V30 6652 C 622.03 -0.858902 -1.8823 0
M  V30 6653 C 622.445 0.590164 -1.79339 0
M  V30 6654 O 621.802 1.4065 -1.16292 0
M  V30 6655 C 621.853 -1.29066 -3.37675 0
M  V30 6656 O 621.574 -2.6829 -3.46341 0
M  V30 6657 C 623.075 -1.08421 -4.29837 0
M  V30 6658 H 620.295 -0.308713 -0.595766 0
M  V30 6659 H 622.839 -1.4614 -1.4305 0
M  V30 6660 H 620.994 -0.731961 -3.80422 0
M  V30 6661 H 621.408 -2.86598 -4.39274 0
M  V30 6662 H 622.882 -1.43553 -5.33007 0
M  V30 6663 H 623.359 -0.0223315 -4.39194 0
M  V30 6664 H 623.965 -1.62907 -3.92863 0
M  V30 6665 N 622.28 1.30327 -0.886154 0
M  V30 6666 C 623.508 2.00254 -0.520176 0
M  V30 6667 C 623.923 1.66419 0.891637 0
M  V30 6668 O 623.28 0.901951 1.58654 0
M  V30 6669 C 623.331 3.54916 -0.686775 0
M  V30 6670 O 623.052 3.87547 -2.04301 0
M  V30 6671 C 624.553 4.42115 -0.323945 0
M  V30 6672 H 621.773 0.640204 -0.200947 0
M  V30 6673 H 624.317 1.66183 -1.19178 0
M  V30 6674 H 622.472 3.8735 -0.0625273 0
M  V30 6675 H 622.886 4.82247 -2.06249 0
M  V30 6676 H 624.36 5.49808 -0.491407 0
M  V30 6677 H 624.837 4.32953 0.73811 0
M  V30 6678 H 625.443 4.15129 -0.924565 0
M  V30 6679 N 623.758 0.647228 1.43697 0
M  V30 6680 C 624.721 -0.0385101 2.29168 0
M  V30 6681 C 625.721 -0.756487 1.41894 0
M  V30 6682 O 626.911 -0.598641 1.63591 0
M  V30 6683 C 624.043 -1.06524 3.23829 0
M  V30 6684 H 625.236 0.713445 2.9129 0
M  V30 6685 H 622.789 0.408153 1.50877 0
M  V30 6686 H 623.524 -1.84664 2.66589 0
M  V30 6687 H 623.309 -0.554147 3.88164 0
M  V30 6688 H 624.799 -1.54432 3.87996 0
M  V30 6689 N 625.236 -1.5273 0.388769 0
M  V30 6690 C 626.166 -2.29353 -0.438111 0
M  V30 6691 C 627.147 -1.32719 -1.06394 0
M  V30 6692 O 628.332 -1.61612 -1.07681 0
M  V30 6693 C 625.462 -3.09995 -1.56589 0
M  V30 6694 C 624.416 -4.14509 -1.06613 0
M  V30 6695 C 623.742 -4.83372 -2.28594 0
M  V30 6696 C 625.042 -5.22127 -0.134459 0
M  V30 6697 H 626.736 -2.98723 0.201206 0
M  V30 6698 H 624.282 -1.43665 0.0982089 0
M  V30 6699 H 626.235 -3.62357 -2.15118 0
M  V30 6700 H 624.959 -2.38357 -2.23279 0
M  V30 6701 H 623.618 -3.63128 -0.503383 0
M  V30 6702 H 623.266 -4.08283 -2.93792 0
M  V30 6703 H 622.966 -5.54012 -1.95817 0
M  V30 6704 H 624.49 -5.38538 -2.87766 0
M  V30 6705 H 625.904 -5.69851 -0.627914 0
M  V30 6706 H 624.301 -6.00011 0.103534 0
M  V30 6707 H 625.371 -4.77971 0.816798 0
M  V30 6708 N 626.714 -0.118576 -1.57153 0
M  V30 6709 C 627.646 0.862247 -2.12363 0
M  V30 6710 C 628.659 1.23025 -1.06625 0
M  V30 6711 O 629.848 1.17927 -1.33998 0
M  V30 6712 C 626.948 2.16425 -2.60794 0
M  V30 6713 C 626.121 1.96801 -3.90626 0
M  V30 6714 C 625.18 3.10726 -4.2466 0
M  V30 6715 O 624.206 2.83659 -4.93484 0
M  V30 6716 N 625.408 4.37147 -3.81946 0
M  V30 6717 H 628.173 0.390564 -2.97144 0
M  V30 6718 H 625.734 0.0658591 -1.61766 0
M  V30 6719 H 627.726 2.91633 -2.80593 0
M  V30 6720 H 626.296 2.54943 -1.80895 0
M  V30 6721 H 625.516 1.05787 -3.7974 0
M  V30 6722 H 626.804 1.80993 -4.7552 0
M  V30 6723 H 626.202 4.62014 -3.26435 0
M  V30 6724 H 624.759 5.09229 -4.06853 0
M  V30 6725 N 628.193 1.56834 0.155195 0
M  V30 6726 C 629.609 1.51315 0.50755 0
M  V30 6727 C 629.809 0.825614 1.83809 0
M  V30 6728 O 628.865 0.39271 2.49427 0
M  V30 6729 C 630.178 2.96074 0.52542 0
M  V30 6730 C 631.726 3.06968 0.611505 0
M  V30 6731 C 632.201 4.53218 0.660115 0
M  V30 6732 N 633.692 4.5753 0.722564 0
M  V30 6733 C 634.427 5.68056 0.781023 0
M  V30 6734 N 633.923 6.88173 0.799327 0
M  V30 6735 N 635.716 5.56068 0.821278 0
M  V30 6736 H 627.867 1.9993 -0.717063 0
M  V30 6737 H 630.13 0.911507 -0.260496 0
M  V30 6738 H 629.836 3.49599 -0.383875 0
M  V30 6739 H 629.71 3.51587 1.36624 0
M  V30 6740 H 632.097 2.53468 1.51122 0
M  V30 6741 H 632.178 2.54513 -0.256306 0
M  V30 6742 H 631.822 5.07354 -0.23541 0
M  V30 6743 H 631.752 5.03447 1.5443 0
M  V30 6744 H 634.243 3.71054 0.716049 0
M  V30 6745 H 634.556 7.6816 0.845553 0
M  V30 6746 H 632.901 6.90751 0.767337 0
M  V30 6747 H 636.092 4.61142 0.804091 0
M  V30 6748 H 636.265 6.42223 0.863372 0
M  V30 6749 N 629.671 -0.424282 1.51781 0
M  V30 6750 C 630.917 -1.17434 1.6534 0
M  V30 6751 C 631.25 -1.90549 0.374806 0
M  V30 6752 O 630.525 -1.84145 -0.626179 0
M  V30 6753 C 630.808 -2.18093 2.86544 0
M  V30 6754 C 630.661 -1.48975 4.24413 0
M  V30 6755 C 631.98 -3.18934 3.03264 0
M  V30 6756 H 629.099 -0.425566 0.601716 0
M  V30 6757 H 631.741 -0.461921 1.84299 0
M  V30 6758 H 629.891 -2.78849 2.7051 0
M  V30 6759 H 631.563 -0.914551 4.52143 0
M  V30 6760 H 629.806 -0.791893 4.26511 0
M  V30 6761 H 630.477 -2.22347 5.05238 0
M  V30 6762 H 632.953 -2.68243 3.18096 0
M  V30 6763 H 631.829 -3.86645 3.89611 0
M  V30 6764 H 632.09 -3.85793 2.15908 0
M  V30 6765 N 631.149 -1.42148 -0.680565 0
M  V30 6766 C 632.426 -1.32795 -1.43614 0
M  V30 6767 C 632.806 0.037415 -2.11067 0
M  V30 6768 O 632.154 1.05258 -2.02813 0
M  V30 6769 C 632.364 -2.49206 -2.44331 0
M  V30 6770 C 633.712 -2.91059 -3.09144 0
M  V30 6771 O 634.736 -2.49054 -2.54657 0
M  V30 6772 O 633.595 -3.63741 -4.07866 0
M  V30 6773 H 630.689 -0.523397 -0.640301 0
M  V30 6774 H 633.235 -1.54144 -0.709775 0
M  V30 6775 H 632.007 -3.40252 -1.93247 0
M  V30 6776 H 631.63 -2.29813 -3.24456 0
M  V30 6777 N 632.627 0.916307 -1.28225 0
M  V30 6778 C 633.557 2.0352 -1.14464 0
M  V30 6779 C 634.538 1.70045 -0.0430844 0
M  V30 6780 O 635.723 1.92954 -0.219619 0
M  V30 6781 C 632.853 3.37889 -0.803027 0
M  V30 6782 C 631.807 3.85516 -1.85908 0
M  V30 6783 C 631.133 5.1682 -1.37116 0
M  V30 6784 C 632.433 4.07655 -3.26519 0
M  V30 6785 H 634.127 2.1529 -2.08064 0
M  V30 6786 H 631.673 1.03446 -1.00174 0
M  V30 6787 H 633.626 4.15654 -0.693537 0
M  V30 6788 H 632.35 3.26164 0.168674 0
M  V30 6789 H 631.009 3.09953 -1.95767 0
M  V30 6790 H 630.657 5.01497 -0.38859 0
M  V30 6791 H 630.357 5.49657 -2.07728 0
M  V30 6792 H 631.881 5.97143 -1.27484 0
M  V30 6793 H 633.295 4.75953 -3.19596 0
M  V30 6794 H 631.692 4.51818 -3.94943 0
M  V30 6795 H 632.762 3.12553 -3.70727 0
M  V30 6796 N 634.105 1.10431 1.1244 0
M  V30 6797 C 635.352 0.846717 1.83948 0
M  V30 6798 C 635.68 -0.627709 1.84093 0
M  V30 6799 O 634.935 -1.47876 1.28184 0
M  V30 6800 C 635.234 1.34022 3.3132 0
M  V30 6801 C 634.9 2.82606 3.51347 0
M  V30 6802 C 633.562 3.23182 3.56521 0
M  V30 6803 C 635.914 3.78356 3.58464 0
M  V30 6804 C 633.242 4.58258 3.66356 0
M  V30 6805 C 635.594 5.13234 3.69829 0
M  V30 6806 C 634.258 5.53384 3.73259 0
M  V30 6807 H 633.528 0.309836 0.673114 0
M  V30 6808 H 636.175 1.38091 1.32677 0
M  V30 6809 H 634.48 0.726047 3.85014 0
M  V30 6810 H 636.177 1.11739 3.85118 0
M  V30 6811 H 632.767 2.50212 3.47983 0
M  V30 6812 H 636.951 3.48115 3.53737 0
M  V30 6813 H 632.207 4.88787 3.67284 0
M  V30 6814 H 636.381 5.87272 3.74279 0
M  V30 6815 H 634.008 6.58045 3.80633 0
M  V30 6816 N 635.583 -1.29855 0.893053 0
M  V30 6817 C 636.516 -2.26079 0.3104 0
M  V30 6818 C 637.494 -1.52145 -0.573644 0
M  V30 6819 O 638.678 -1.8113 -0.521937 0
M  V30 6820 C 635.805 -3.34069 -0.558179 0
M  V30 6821 C 634.851 -4.25721 0.257638 0
M  V30 6822 S 635.684 -5.09409 1.65114 0
M  V30 6823 C 636.84 -6.20903 0.789307 0
M  V30 6824 H 637.073 -2.75151 1.12602 0
M  V30 6825 H 634.606 -1.37975 0.692978 0
M  V30 6826 H 636.564 -3.9675 -1.05355 0
M  V30 6827 H 635.225 -2.83705 -1.34797 0
M  V30 6828 H 634.418 -5.02366 -0.405562 0
M  V30 6829 H 634.02 -3.67656 0.685917 0
M  V30 6830 H 636.312 -6.77499 0.00978451 0
M  V30 6831 H 637.255 -6.91426 1.52762 0
M  V30 6832 H 637.663 -5.63435 0.346634 0
M  V30 6833 N 637.061 -0.65484 -1.43351 0
M  V30 6834 C 638.309 -0.168559 -2.01396 0
M  V30 6835 C 638.63 1.22235 -1.51933 0
M  V30 6836 O 637.9 1.81685 -0.732627 0
M  V30 6837 H 636.48 -0.0593244 -0.744641 0
M  V30 6838 H 639.142 -0.846871 -1.75539 0
M  V30 6839 H 638.238 -0.154428 -3.11718 0
M  V30 6840 N 638.539 1.52521 -0.396863 0
M  V30 6841 C 639.471 2.24333 0.469814 0
M  V30 6842 C 640.484 1.2685 1.02043 0
M  V30 6843 O 641.673 1.52876 0.92147 0
M  V30 6844 C 638.773 2.95202 1.66461 0
M  V30 6845 C 637.946 4.19454 1.24003 0
M  V30 6846 C 637.005 4.73255 2.30036 0
M  V30 6847 O 636.031 5.36151 1.91131 0
M  V30 6848 N 637.233 4.53765 3.62047 0
M  V30 6849 H 639.998 2.99347 -0.145468 0
M  V30 6850 H 637.559 1.60348 -0.223606 0
M  V30 6851 H 639.551 3.28092 2.36934 0
M  V30 6852 H 638.121 2.2345 2.18607 0
M  V30 6853 H 637.341 3.92517 0.363892 0
M  V30 6854 H 638.629 5.0017 0.933135 0
M  V30 6855 H 638.027 4.03576 3.96412 0
M  V30 6856 H 636.584 4.91124 4.28533 0
M  V30 6857 N 640.017 0.126909 1.57088 0
M  V30 6858 C 641.264 -0.529168 1.95464 0
M  V30 6859 C 641.592 -1.6618 1.01067 0
M  V30 6860 O 640.847 -1.95667 0.0360254 0
M  V30 6861 C 641.146 -1.095 3.40212 0
M  V30 6862 C 640.812 -0.0829015 4.50824 0
M  V30 6863 C 639.474 0.195377 4.80803 0
M  V30 6864 C 641.826 0.606411 5.1766 0
M  V30 6865 C 639.154 1.16912 5.74933 0
M  V30 6866 C 641.506 1.56884 6.12838 0
M  V30 6867 C 640.17 1.85502 6.41206 0
M  V30 6868 H 639.44 -0.193636 0.715252 0
M  V30 6869 H 642.087 0.209489 1.90351 0
M  V30 6870 H 640.392 -1.91058 3.42059 0
M  V30 6871 H 642.089 -1.61087 3.67222 0
M  V30 6872 H 638.679 -0.309979 4.27478 0
M  V30 6873 H 642.863 0.404597 4.94648 0
M  V30 6874 H 638.119 1.3975 5.95214 0
M  V30 6875 H 642.293 2.10859 6.6371 0
M  V30 6876 H 639.92 2.61109 7.13951 0
M  V30 6877 N 641.495 -1.56914 -0.146875 0
M  V30 6878 C 642.72 -1.87881 -0.878386 0
M  V30 6879 C 643.145 -0.715945 -1.73942 0
M  V30 6880 O 642.503 0.334447 -1.78189 0
M  V30 6881 C 642.551 -3.17431 -1.71084 0
M  V30 6882 O 641.655 -3.01374 -2.81509 0
M  V30 6883 H 640.996 -0.617289 -0.244644 0
M  V30 6884 H 643.526 -2.04136 -0.137654 0
M  V30 6885 H 643.536 -3.49455 -2.10582 0
M  V30 6886 H 642.211 -4.01671 -1.07856 0
M  V30 6887 H 640.788 -2.80758 -2.45416 0
M  V30 6888 N 642.974 0.416227 -1.52004 0
M  V30 6889 C 643.884 1.53147 -1.77717 0
M  V30 6890 C 644.9 1.609 -0.662368 0
M  V30 6891 O 646.076 1.77747 -0.946991 0
M  V30 6892 C 643.141 2.88948 -1.91598 0
M  V30 6893 C 642.202 2.9114 -3.15493 0
M  V30 6894 C 641.435 4.20464 -3.28703 0
M  V30 6895 O 641.658 5.13981 -2.47345 0
M  V30 6896 O 640.592 4.29368 -4.21813 0
M  V30 6897 H 644.418 1.34357 -2.72363 0
M  V30 6898 H 642.003 0.601373 -1.36762 0
M  V30 6899 H 643.885 3.69505 -2.02593 0
M  V30 6900 H 642.56 3.07821 -1.00141 0
M  V30 6901 H 641.467 2.09461 -3.09962 0
M  V30 6902 H 642.8 2.77216 -4.06709 0
M  V30 6903 N 644.452 1.42507 0.673017 0
M  V30 6904 C 645.698 1.43284 1.43519 0
M  V30 6905 C 646.031 0.049668 1.94136 0
M  V30 6906 O 645.306 -0.926369 1.71022 0
M  V30 6907 C 645.589 2.45874 2.63093 0
M  V30 6908 C 645.442 3.93388 2.18096 0
M  V30 6909 C 646.761 2.45431 3.6531 0
M  V30 6910 H 643.88 0.521752 0.520522 0
M  V30 6911 H 646.522 1.73932 0.764701 0
M  V30 6912 H 644.672 2.19869 3.20296 0
M  V30 6913 H 646.344 4.30379 1.66046 0
M  V30 6914 H 644.587 4.07169 1.49652 0
M  V30 6915 H 645.258 4.60752 3.03993 0
M  V30 6916 H 647.734 2.68561 3.17827 0
M  V30 6917 H 646.61 3.19189 4.46553 0
M  V30 6918 H 646.871 1.48092 4.16559 0
M  V30 6919 N 645.93 -0.909495 1.28709 0
M  V30 6920 C 646.86 -2.0291 1.15542 0
M  V30 6921 C 647.841 -1.7002 0.0521017 0
M  V30 6922 O 649.026 -1.92835 0.229849 0
M  V30 6923 C 646.156 -3.37458 0.820935 0
M  V30 6924 C 645.11 -3.84524 1.87949 0
M  V30 6925 C 644.436 -5.16086 1.39854 0
M  V30 6926 C 645.736 -4.05918 3.28676 0
M  V30 6927 H 647.43 -2.14183 2.09203 0
M  V30 6928 H 644.976 -1.02913 1.00722 0
M  V30 6929 H 646.929 -4.1528 0.715571 0
M  V30 6930 H 645.653 -3.26249 -0.151374 0
M  V30 6931 H 644.312 -3.08911 1.97408 0
M  V30 6932 H 643.96 -5.01284 0.41518 0
M  V30 6933 H 643.66 -5.48547 2.1064 0
M  V30 6934 H 645.184 -5.96459 1.30649 0
M  V30 6935 H 646.598 -4.74252 3.22115 0
M  V30 6936 H 644.995 -4.49717 3.97334 0
M  V30 6937 H 646.065 -3.10583 3.72379 0
M  V30 6938 N 647.408 -1.11026 -1.11852 0
M  V30 6939 C 648.338 -0.786812 -2.19844 0
M  V30 6940 C 649.319 0.242935 -1.68356 0
M  V30 6941 O 650.504 0.107355 -1.93903 0
M  V30 6942 C 647.634 -0.224516 -3.46574 0
M  V30 6943 C 646.588 -1.18564 -4.1125 0
M  V30 6944 C 645.914 -0.484261 -5.32503 0
M  V30 6945 C 647.214 -2.53465 -4.56676 0
M  V30 6946 H 648.908 -1.68978 -2.47158 0
M  V30 6947 H 646.454 -0.813906 -1.18792 0
M  V30 6948 H 648.407 0.0139435 -4.21398 0
M  V30 6949 H 647.131 0.713722 -3.18706 0
M  V30 6950 H 645.79 -1.40966 -3.38414 0
M  V30 6951 H 645.438 0.458646 -5.00905 0
M  V30 6952 H 645.138 -1.12526 -5.76725 0
M  V30 6953 H 646.662 -0.254492 -6.10069 0
M  V30 6954 H 648.076 -2.35177 -5.22843 0
M  V30 6955 H 646.473 -3.13507 -5.11697 0
M  V30 6956 H 647.543 -3.13008 -3.70343 0
M  V30 6957 N 648.886 1.2938 -0.899927 0
M  V30 6958 C 650.114 1.99691 -0.541386 0
M  V30 6959 C 650.529 1.67355 0.873936 0
M  V30 6960 O 649.886 0.918728 1.57688 0
M  V30 6961 C 649.937 3.54168 -0.72438 0
M  V30 6962 O 649.658 3.85359 -2.08399 0
M  V30 6963 C 651.159 4.41746 -0.370819 0
M  V30 6964 H 648.379 0.638037 -0.207726 0
M  V30 6965 H 650.923 1.6491 -1.20934 0
M  V30 6966 H 649.078 3.87261 -0.103607 0
M  V30 6967 H 649.492 4.80032 -2.11352 0
M  V30 6968 H 650.966 5.49256 -0.549693 0
M  V30 6969 H 651.443 4.33712 0.692148 0
M  V30 6970 H 652.049 4.14125 -0.968543 0
M  V30 6971 N 650.364 0.662433 1.43002 0
M  V30 6972 C 651.589 0.186003 2.06564 0
M  V30 6973 C 652.014 -1.14314 1.49379 0
M  V30 6974 O 651.372 -1.70824 0.607346 0
M  V30 6975 C 651.42 0.118269 3.60406 0
M  V30 6976 O 650.524 -0.916859 4.02079 0
M  V30 6977 H 649.865 0.0990981 0.656563 0
M  V30 6978 H 652.395 0.907958 1.8335 0
M  V30 6979 H 652.405 -0.0619981 4.07953 0
M  V30 6980 H 651.08 1.08849 4.01403 0
M  V30 6981 H 649.657 -0.708635 3.66105 0
M  V30 6982 N 651.842 -1.52309 0.404946 0
M  V30 6983 C 653.091 -2.00952 -0.173529 0
M  V30 6984 C 653.404 -1.29512 -1.46581 0
M  V30 6985 O 654.61 -1.6895 -2.12528 0
M  V30 6986 C 653.066 -3.58097 -0.359801 0
M  V30 6987 C 652.674 -4.38449 0.920138 0
M  V30 6988 C 654.418 -4.14984 -0.893794 0
M  V30 6989 C 652.325 -5.87227 0.701285 0
M  V30 6990 H 651.255 -0.750871 -0.0686244 0
M  V30 6991 H 653.906 -1.75687 0.529749 0
M  V30 6992 H 652.288 -3.79675 -1.12531 0
M  V30 6993 H 653.462 -4.28633 1.69147 0
M  V30 6994 H 651.777 -3.92859 1.38024 0
M  V30 6995 H 654.374 -5.23813 -1.0735 0
M  V30 6996 H 654.717 -3.72072 -1.8673 0
M  V30 6997 H 655.25 -3.97358 -0.187453 0
M  V30 6998 H 651.989 -6.34491 1.64624 0
M  V30 6999 H 651.509 -5.99792 -0.0308288 0
M  V30 7000 H 653.188 -6.46096 0.341846 0
M  V30 7001 N 653.32 -0.135238 -1.57019 0
M  V30 7002 C 654.545 0.529343 -2.00531 0
M  V30 7003 C 654.97 1.58391 -1.01459 0
M  V30 7004 O 654.328 1.81296 0.0113986 0
M  V30 7005 C 654.376 1.11748 -3.42848 0
M  V30 7006 O 653.48 2.23267 -3.46736 0
M  V30 7007 H 652.821 0.130669 -0.651016 0
M  V30 7008 H 655.351 -0.228503 -2.0332 0
M  V30 7009 H 655.361 1.44905 -3.81401 0
M  V30 7010 H 654.036 0.345147 -4.14465 0
M  V30 7011 H 652.613 1.91428 -3.20015 0
M  V30 7012 N 654.798 1.5699 0.138552 0
M  V30 7013 C 656.026 1.87976 0.864437 0
M  V30 7014 C 656.441 0.724372 1.74351 0
M  V30 7015 O 655.798 -0.305575 1.79924 0
M  V30 7016 C 655.849 3.18276 1.71414 0
M  V30 7017 O 655.57 4.29365 0.870487 0
M  V30 7018 C 657.071 3.62834 2.54688 0
M  V30 7019 H 654.291 0.622878 0.249528 0
M  V30 7020 H 656.835 2.04094 0.128805 0
M  V30 7021 H 654.99 3.03886 2.40274 0
M  V30 7022 H 655.404 5.03924 1.45466 0
M  V30 7023 H 656.878 4.5682 3.0987 0
M  V30 7024 H 657.355 2.88533 3.31127 0
M  V30 7025 H 657.961 3.79946 1.91105 0
M  V30 7026 N 656.276 -0.40816 1.52223 0
M  V30 7027 C 657.523 -1.15502 1.66329 0
M  V30 7028 C 657.851 -1.90474 0.393701 0
M  V30 7029 O 657.106 -1.85507 -0.623356 0
M  V30 7030 C 657.405 -2.17422 2.83659 0
M  V30 7031 C 657.071 -1.5925 4.21841 0
M  V30 7032 C 655.733 -1.4311 4.59427 0
M  V30 7033 C 658.085 -1.16776 5.0795 0
M  V30 7034 C 655.413 -0.830148 5.80797 0
M  V30 7035 C 657.765 -0.580988 6.29926 0
M  V30 7036 C 656.429 -0.406729 6.6626 0
M  V30 7037 H 655.699 -0.422653 0.608642 0
M  V30 7038 H 658.346 -0.442114 1.86327 0
M  V30 7039 H 656.651 -2.94861 2.58001 0
M  V30 7040 H 658.348 -2.75084 2.9177 0
M  V30 7041 H 654.938 -1.72796 3.92224 0
M  V30 7042 H 659.122 -1.28055 4.79495 0
M  V30 7043 H 654.378 -0.68316 6.07571 0
M  V30 7044 H 658.552 -0.243488 6.95974 0
M  V30 7045 H 656.179 0.0610366 7.60175 0
M  V30 7046 N 657.755 -1.42862 -0.66545 0
M  V30 7047 C 659.004 -1.43119 -1.42126 0
M  V30 7048 C 659.317 -0.0545297 -1.95524 0
M  V30 7049 O 660.523 0.0654747 -2.71421 0
M  V30 7050 C 658.979 -2.51797 -2.5715 0
M  V30 7051 C 658.587 -3.95514 -2.10411 0
M  V30 7052 C 660.331 -2.61233 -3.346 0
M  V30 7053 C 658.238 -4.95682 -3.22573 0
M  V30 7054 H 657.168 -0.532349 -0.533966 0
M  V30 7055 H 659.819 -1.68806 -0.719506 0
M  V30 7056 H 658.201 -2.19292 -3.29738 0
M  V30 7057 H 659.375 -4.3742 -1.44915 0
M  V30 7058 H 657.69 -3.90012 -1.45874 0
M  V30 7059 H 660.287 -3.33248 -4.18151 0
M  V30 7060 H 660.63 -1.65896 -3.81817 0
M  V30 7061 H 661.163 -2.9298 -2.69087 0
M  V30 7062 H 657.902 -5.92529 -2.80338 0
M  V30 7063 H 657.422 -4.58399 -3.86821 0
M  V30 7064 H 659.101 -5.17828 -3.87896 0
M  V30 7065 N 659.233 0.902656 -1.29189 0
M  V30 7066 C 660.18 2.00643 -1.14066 0
M  V30 7067 C 661.15 1.66064 -0.0347756 0
M  V30 7068 O 662.335 1.8973 -0.201752 0
M  V30 7069 C 659.475 3.35214 -0.820104 0
M  V30 7070 C 658.588 3.82594 -2.00614 0
M  V30 7071 C 657.723 5.05727 -1.62522 0
M  V30 7072 C 656.762 5.45469 -2.77724 0
M  V30 7073 N 655.899 6.59789 -2.40048 0
M  V30 7074 H 660.739 2.1291 -2.08502 0
M  V30 7075 H 658.276 1.04271 -1.03759 0
M  V30 7076 H 660.234 4.12643 -0.614949 0
M  V30 7077 H 658.864 3.22682 0.0873452 0
M  V30 7078 H 657.916 3.01226 -2.32308 0
M  V30 7079 H 659.228 4.07999 -2.86946 0
M  V30 7080 H 658.382 5.90732 -1.38277 0
M  V30 7081 H 657.121 4.82155 -0.733333 0
M  V30 7082 H 656.126 4.59 -3.02653 0
M  V30 7083 H 657.351 5.71024 -3.67572 0
M  V30 7084 H 655.297 6.37826 -1.53343 0
M  V30 7085 H 655.214 6.84975 -3.19914 0
M  V30 7086 H 656.482 7.4807 -2.19116 0
M  V30 7087 N 660.711 1.11618 1.11262 0
M  V30 7088 C 661.959 0.864469 1.82678 0
M  V30 7089 C 662.28 -0.611564 1.85162 0
M  V30 7090 O 661.55 -1.44429 1.32352 0
M  V30 7091 H 660.13 0.316821 0.676486 0
M  V30 7092 H 662.792 1.40894 1.34666 0
M  V30 7093 H 661.888 1.23832 2.86482 0
M  V30 7094 N 662.189 -1.289 0.906776 0
M  V30 7095 C 663.466 -1.90221 0.455537 0
M  V30 7096 C 663.846 -1.82251 -1.06527 0
M  V30 7097 O 663.194 -1.25385 -1.91026 0
M  V30 7098 C 663.404 -3.35015 0.97806 0
M  V30 7099 C 664.752 -4.12018 1.02598 0
M  V30 7100 O 665.776 -3.43947 0.926218 0
M  V30 7101 O 664.635 -5.33677 1.17689 0
M  V30 7102 H 661.729 -0.814505 0.143214 0
M  V30 7103 H 664.275 -1.37317 0.997104 0
M  V30 7104 H 663.047 -3.35006 2.02204 0
M  V30 7105 H 662.67 -3.95408 0.416914 0
M  V30 7106 N 663.667 -0.670007 -1.42649 0
M  V30 7107 C 664.597 -0.00258501 -2.335 0
M  V30 7108 C 665.578 0.794364 -1.50412 0
M  V30 7109 O 666.763 0.75248 -1.79029 0
M  V30 7110 C 663.893 0.952748 -3.33976 0
M  V30 7111 C 662.847 0.264733 -4.2718 0
M  V30 7112 C 662.173 1.33267 -5.17826 0
M  V30 7113 C 663.473 -0.853289 -5.15283 0
M  V30 7114 H 665.167 -0.761326 -2.89559 0
M  V30 7115 H 662.713 -0.367561 -1.3923 0
M  V30 7116 H 664.666 1.4287 -3.96442 0
M  V30 7117 H 663.39 1.74285 -2.7621 0
M  V30 7118 H 662.049 -0.190938 -3.66102 0
M  V30 7119 H 661.697 2.11464 -4.5639 0
M  V30 7120 H 661.397 0.877476 -5.81011 0
M  V30 7121 H 662.921 1.80965 -5.83167 0
M  V30 7122 H 664.335 -0.458763 -5.71462 0
M  V30 7123 H 662.732 -1.23398 -5.87276 0
M  V30 7124 H 663.802 -1.70412 -4.53969 0
M  V30 7125 N 665.145 1.52092 -0.413018 0
M  V30 7126 C 666.373 2.06274 0.160881 0
M  V30 7127 C 666.788 1.28273 1.38533 0
M  V30 7128 O 666.145 0.33563 1.79387 0
M  V30 7129 C 666.196 3.57921 0.507443 0
M  V30 7130 O 665.917 4.32971 -0.668388 0
M  V30 7131 C 667.418 4.28533 1.13465 0
M  V30 7132 H 664.638 0.67074 0.0186759 0
M  V30 7133 H 667.182 1.95951 -0.585092 0
M  V30 7134 H 665.337 3.68238 1.20331 0
M  V30 7135 H 665.751 5.23135 -0.378169 0
M  V30 7136 H 667.225 5.35804 1.32732 0
M  V30 7137 H 667.702 3.85258 2.10886 0
M  V30 7138 H 668.308 4.22595 0.478876 0
M  V30 7139 N 666.623 0.143563 1.56945 0
M  V30 7140 C 667.872 -0.50835 1.95189 0
M  V30 7141 C 668.185 -1.66239 1.03073 0
M  V30 7142 O 669.391 -2.3787 1.30882 0
M  V30 7143 C 667.847 -0.955735 3.46978 0
M  V30 7144 C 667.455 0.171183 4.47673 0
M  V30 7145 C 669.199 -1.57763 3.94095 0
M  V30 7146 C 667.106 -0.294279 5.90667 0
M  V30 7147 H 666.036 -0.193679 0.728701 0
M  V30 7148 H 668.687 0.227357 1.82086 0
M  V30 7149 H 667.069 -1.7466 3.55401 0
M  V30 7150 H 668.243 0.948049 4.50942 0
M  V30 7151 H 666.558 0.701273 4.10452 0
M  V30 7152 H 669.155 -1.93745 4.98364 0
M  V30 7153 H 669.498 -2.46531 3.35452 0
M  V30 7154 H 670.031 -0.851728 3.88575 0
M  V30 7155 H 666.77 0.557939 6.53121 0
M  V30 7156 H 666.29 -1.0371 5.90766 0
M  V30 7157 H 667.969 -0.747426 6.42668 0
M  V30 7158 N 668.101 -1.57061 -0.130224 0
M  V30 7159 C 669.064 -1.98593 -1.14426 0
M  V30 7160 C 670.064 -0.874584 -1.34936 0
M  V30 7161 O 671.254 -1.14086 -1.31643 0
M  V30 7162 C 668.386 -2.31639 -2.50112 0
M  V30 7163 H 669.579 -2.89374 -0.787561 0
M  V30 7164 H 667.132 -1.51756 -0.374146 0
M  V30 7165 H 667.867 -1.43703 -2.90723 0
M  V30 7166 H 667.652 -3.12684 -2.36583 0
M  V30 7167 H 669.142 -2.64551 -3.23114 0
M  V30 7168 N 669.579 0.400081 -1.52437 0
M  V30 7169 C 670.527 1.50851 -1.7705 0
M  V30 7170 C 671.521 1.56928 -0.637969 0
M  V30 7171 O 672.727 1.60226 -0.820212 0
M  V30 7172 H 669.102 0.50186 -0.560036 0
M  V30 7173 H 671.073 1.27281 -2.69893 0
M  V30 7174 C 669.822 2.88117 -1.94638 0
M  V30 7175 H 669.145 2.84187 -2.81208 0
M  V30 7176 H 670.585 3.64942 -2.15855 0
M  V30 7177 C 669.044 3.29206 -0.715899 0
M  V30 7178 O 669.574 4.01544 0.111944 0
M  V30 7179 N 667.78 2.85363 -0.549191 0
M  V30 7180 H 667.327 2.26664 -1.22397 0
M  V30 7181 H 667.285 3.13214 0.27278 0
M  V30 7182 N 671.057 1.43213 0.657864 0
M  V30 7183 C 671.987 1.50815 1.78262 0
M  V30 7184 C 672.968 0.363211 1.66177 0
M  V30 7185 O 674.153 0.579806 1.85343 0
M  V30 7186 C 671.283 1.42625 3.16663 0
M  V30 7187 C 670.237 2.5532 3.43505 0
M  V30 7188 C 669.563 2.32184 4.81658 0
M  V30 7189 C 670.863 3.97583 3.38711 0
M  V30 7190 H 672.557 2.44954 1.72157 0
M  V30 7191 H 670.103 1.17896 0.82683 0
M  V30 7192 H 672.056 1.46548 3.95097 0
M  V30 7193 H 670.78 0.449877 3.23487 0
M  V30 7194 H 669.439 2.50742 2.6744 0
M  V30 7195 H 669.087 1.32801 4.85153 0
M  V30 7196 H 668.787 3.07724 5.00579 0
M  V30 7197 H 670.311 2.37883 5.62356 0
M  V30 7198 H 671.725 4.03673 4.07089 0
M  V30 7199 H 670.122 4.73112 3.69168 0
M  V30 7200 H 671.192 4.23049 2.36976 0
M  V30 7201 N 672.536 -0.895792 1.29666 0
M  V30 7202 C 673.784 -1.64339 1.17631 0
M  V30 7203 C 674.105 -1.93099 -0.271643 0
M  V30 7204 O 673.375 -1.55981 -1.18518 0
M  V30 7205 H 671.955 -0.609162 0.432354 0
M  V30 7206 H 674.617 -1.07389 1.62646 0
M  V30 7207 H 673.713 -2.59815 1.72924 0
M  V30 7208 N 674.014 -1.12206 -1.10668 0
M  V30 7209 C 675.242 -0.898635 -1.86366 0
M  V30 7210 C 675.657 0.551991 -1.80551 0
M  V30 7211 O 675.014 1.38152 -1.19249 0
M  V30 7212 C 675.065 -1.36199 -3.34861 0
M  V30 7213 O 674.786 -2.75576 -3.40573 0
M  V30 7214 C 676.287 -1.17515 -4.2744 0
M  V30 7215 H 673.507 -0.321281 -0.589084 0
M  V30 7216 H 676.051 -1.49142 -1.39918 0
M  V30 7217 H 674.206 -0.81249 -3.78784 0
M  V30 7218 H 674.62 -2.95851 -4.33096 0
M  V30 7219 H 676.094 -1.54827 -5.29842 0
M  V30 7220 H 676.571 -0.115486 -4.39048 0
M  V30 7221 H 677.177 -1.71203 -3.89319 0
M  V30 7222 N 675.492 1.28418 -0.913599 0
M  V30 7223 C 676.717 1.99643 -0.561899 0
M  V30 7224 C 677.142 1.67819 0.849608 0
M  V30 7225 O 676.5 0.910503 1.56779 0
M  V30 7226 C 676.548 3.52116 -0.777622 0
M  V30 7227 O 675.652 4.12076 0.163457 0
M  V30 7228 H 674.993 0.627229 -0.217898 0
M  V30 7229 H 677.523 1.63575 -1.229 0
M  V30 7230 H 677.533 4.02163 -0.687666 0
M  V30 7231 H 676.208 3.74613 -1.8066 0
M  V30 7232 H 674.785 3.72892 0.0247827 0
M  V30 7233 N 676.97 0.677563 1.42291 0
M  V30 7234 C 677.88 0.000962654 2.346 0
M  V30 7235 C 678.896 -0.785833 1.55244 0
M  V30 7236 O 680.072 -0.727523 1.87801 0
M  V30 7237 C 677.137 -0.936746 3.33805 0
M  V30 7238 C 676.198 -0.144173 4.29058 0
M  V30 7239 C 675.431 -1.03722 5.23524 0
M  V30 7240 O 675.654 -2.27675 5.22992 0
M  V30 7241 O 674.588 -0.496542 5.99848 0
M  V30 7242 H 678.414 0.761397 2.94001 0
M  V30 7243 H 675.999 0.43781 1.42841 0
M  V30 7244 H 677.881 -1.47497 3.94744 0
M  V30 7245 H 676.556 -1.67698 2.76874 0
M  V30 7246 H 675.463 0.438224 3.71524 0
M  V30 7247 H 676.796 0.55701 4.89038 0
M  V30 7248 N 678.448 -1.51871 0.421078 0
M  V30 7249 C 679.696 -2.01539 -0.150492 0
M  V30 7250 C 680.017 -1.30803 -1.44623 0
M  V30 7251 O 679.287 -0.437568 -1.90951 0
M  V30 7252 H 677.867 -0.744698 -0.0586041 0
M  V30 7253 H 680.529 -1.8668 0.560059 0
M  V30 7254 H 679.625 -3.10264 -0.338068 0
M  V30 7255 N 679.926 -0.151884 -1.56866 0
M  V30 7256 C 681.342 0.204486 -1.58285 0
M  V30 7257 C 681.542 1.6431 -1.16639 0
M  V30 7258 O 680.598 2.37077 -0.868946 0
M  V30 7259 C 681.911 -0.0587019 -3.00643 0
M  V30 7260 C 683.459 0.00462303 -3.13 0
M  V30 7261 C 683.934 -0.231297 -4.57416 0
M  V30 7262 N 685.425 -0.178394 -4.62856 0
M  V30 7263 C 686.16 -0.335379 -5.72418 0
M  V30 7264 N 685.656 -0.550355 -6.90611 0
M  V30 7265 N 687.449 -0.272641 -5.61438 0
M  V30 7266 H 679.6 -1.09116 -1.82229 0
M  V30 7267 H 681.863 -0.432311 -0.843689 0
M  V30 7268 H 681.569 -1.05453 -3.35518 0
M  V30 7269 H 681.443 0.658508 -3.71407 0
M  V30 7270 H 683.83 0.991009 -2.77962 0
M  V30 7271 H 683.911 -0.744992 -2.44711 0
M  V30 7272 H 683.555 -1.2148 -4.93158 0
M  V30 7273 H 683.485 0.5387 -5.23837 0
M  V30 7274 H 685.976 -0.0170923 -3.77896 0
M  V30 7275 H 686.289 -0.660116 -7.69976 0
M  V30 7276 H 684.634 -0.586736 -6.92519 0
M  V30 7277 H 687.825 -0.105421 -4.67981 0
M  V30 7278 H 687.998 -0.398418 -6.46774 0
M  V30 7279 N 681.404 1.57128 0.121893 0
M  V30 7280 C 682.651 1.847 0.830188 0
M  V30 7281 C 682.979 0.736543 1.80015 0
M  V30 7282 O 682.234 -0.272358 1.93796 0
M  V30 7283 C 682.533 3.1874 1.61677 0
M  V30 7284 C 682.199 4.43901 0.791361 0
M  V30 7285 C 680.861 4.77887 0.563731 0
M  V30 7286 C 683.213 5.20753 0.215823 0
M  V30 7287 C 680.541 5.86168 -0.249737 0
M  V30 7288 C 682.893 6.29891 -0.584821 0
M  V30 7289 C 681.557 6.6241 -0.822794 0
M  V30 7290 H 680.827 0.675866 0.303787 0
M  V30 7291 H 683.474 1.91276 0.0926894 0
M  V30 7292 H 681.779 3.07728 2.42509 0
M  V30 7293 H 683.476 3.37295 2.16872 0
M  V30 7294 H 680.066 4.17272 0.978867 0
M  V30 7295 H 684.25 4.94851 0.378907 0
M  V30 7296 H 679.506 6.0979 -0.44336 0
M  V30 7297 H 683.68 6.88624 -1.03779 0
M  V30 7298 H 681.307 7.46147 -1.45496 0
M  V30 7299 N 682.882 -0.391992 1.52647 0
M  V30 7300 C 683.815 -1.50019 1.71958 0
M  V30 7301 C 684.793 -1.5238 0.567365 0
M  V30 7302 O 685.977 -1.70831 0.796806 0
M  V30 7303 C 683.104 -2.88496 1.77447 0
M  V30 7304 C 682.15 -3.03974 2.99169 0
M  V30 7305 S 682.983 -2.75487 4.59203 0
M  V30 7306 C 684.139 -4.16163 4.67503 0
M  V30 7307 H 684.372 -1.33413 2.65685 0
M  V30 7308 H 681.905 -0.584674 1.42902 0
M  V30 7309 H 683.863 -3.68296 1.81296 0
M  V30 7310 H 682.524 -3.02431 0.848188 0
M  V30 7311 H 681.717 -4.05328 2.99542 0
M  V30 7312 H 681.319 -2.32062 2.93297 0
M  V30 7313 H 683.611 -5.10048 4.45934 0
M  V30 7314 H 684.554 -4.20806 5.69498 0
M  V30 7315 H 684.962 -4.01933 3.96371 0
M  V30 7316 N 684.36 -1.4356 -0.65026 0
M  V30 7317 C 685.292 -1.44918 -1.77571 0
M  V30 7318 C 686.305 -0.344925 -1.59104 0
M  V30 7319 O 687.494 -0.609537 -1.6777 0
M  V30 7320 C 684.594 -1.24914 -3.15039 0
M  V30 7321 C 683.767 -2.48232 -3.60138 0
M  V30 7322 C 682.826 -2.23409 -4.76419 0
M  V30 7323 O 681.852 -2.9678 -4.85706 0
M  V30 7324 N 683.054 -1.25259 -5.66825 0
M  V30 7325 H 685.819 -2.41935 -1.76883 0
M  V30 7326 H 683.38 -1.38754 -0.834202 0
M  V30 7327 H 685.372 -1.06185 -3.90521 0
M  V30 7328 H 683.942 -0.363319 -3.10481 0
M  V30 7329 H 683.162 -2.82366 -2.75069 0
M  V30 7330 H 684.45 -3.30296 -3.87017 0
M  V30 7331 H 683.848 -0.646246 -5.61997 0
M  V30 7332 H 682.405 -1.12513 -6.42016 0
M  V30 7333 N 685.838 0.888903 -1.30139 0
M  V30 7334 C 687.084 1.6428 -1.18912 0
M  V30 7335 C 687.417 1.92499 0.256477 0
M  V30 7336 O 686.692 1.54312 1.18397 0
M  V30 7337 C 686.975 2.9851 -2.01405 0
M  V30 7338 C 686.828 2.77288 -3.54163 0
M  V30 7339 C 688.147 3.99383 -1.84882 0
M  V30 7340 H 685.266 0.596148 -0.433333 0
M  V30 7341 H 687.908 1.0289 -1.5973 0
M  V30 7342 H 686.058 3.50907 -1.66722 0
M  V30 7343 H 687.73 2.31709 -3.98884 0
M  V30 7344 H 685.973 2.11867 -3.78543 0
M  V30 7345 H 686.644 3.72717 -4.07168 0
M  V30 7346 H 689.12 3.56132 -2.15196 0
M  V30 7347 H 687.996 4.91222 -2.44934 0
M  V30 7348 H 688.257 4.34674 -0.806902 0
M  V30 7349 N 687.317 1.12792 1.10072 0
M  V30 7350 C 688.563 0.886857 1.82381 0
M  V30 7351 C 688.896 -0.58576 1.85155 0
M  V30 7352 O 688.171 -1.43317 1.31493 0
M  V30 7353 C 688.454 1.46703 3.28862 0
M  V30 7354 C 688.307 3.00829 3.34398 0
M  V30 7355 C 689.626 1.12971 4.25353 0
M  V30 7356 H 686.745 0.32362 0.662148 0
M  V30 7357 H 689.387 1.39513 1.28982 0
M  V30 7358 H 687.537 1.03476 3.74466 0
M  V30 7359 H 689.209 3.52764 2.97247 0
M  V30 7360 H 687.452 3.36164 2.74183 0
M  V30 7361 H 688.123 3.36519 4.3756 0
M  V30 7362 H 690.599 1.50313 3.88001 0
M  V30 7363 H 689.475 1.56223 5.26199 0
M  V30 7364 H 689.736 0.0424452 4.4208 0
M  V30 7365 N 688.795 -1.27931 0.920396 0
M  V30 7366 C 690.041 -1.94977 0.557832 0
M  V30 7367 C 690.374 -1.72224 -0.897365 0
M  V30 7368 O 689.649 -1.04705 -1.63912 0
M  V30 7369 C 689.932 -3.49289 0.875741 0
M  V30 7370 C 689.785 -3.81416 2.38416 0
M  V30 7371 C 691.104 -4.38486 0.376517 0
M  V30 7372 H 688.223 -0.708164 0.20414 0
M  V30 7373 H 690.865 -1.5118 1.15085 0
M  V30 7374 H 689.015 -3.86724 0.371062 0
M  V30 7375 H 690.687 -3.53813 2.95997 0
M  V30 7376 H 688.93 -3.28225 2.83639 0
M  V30 7377 H 689.601 -4.89198 2.55713 0
M  V30 7378 H 692.077 -4.08161 0.808945 0
M  V30 7379 H 690.953 -5.45296 0.627976 0
M  V30 7380 H 691.214 -4.36143 -0.723293 0
M  V30 7381 N 690.273 -0.685099 -1.4193 0
M  V30 7382 C 691.498 -0.218842 -2.06242 0
M  V30 7383 C 691.923 1.11923 -1.51178 0
M  V30 7384 O 691.281 1.69837 -0.634446 0
M  V30 7385 C 691.329 -0.175592 -3.60172 0
M  V30 7386 O 690.433 0.852776 -4.03487 0
M  V30 7387 H 689.774 -0.109531 -0.654904 0
M  V30 7388 H 692.304 -0.937013 -1.81882 0
M  V30 7389 H 692.314 -0.00291151 -4.08 0
M  V30 7390 H 690.989 -1.15222 -3.99621 0
M  V30 7391 H 689.566 0.650301 -3.67186 0
M  V30 7392 N 691.751 1.51645 -0.429126 0
M  V30 7393 C 693.167 1.59394 -0.080994 0
M  V30 7394 C 693.367 1.44064 1.40882 0
M  V30 7395 O 692.423 1.27771 2.17786 0
M  V30 7396 C 693.736 2.94779 -0.593773 0
M  V30 7397 C 695.284 3.08067 -0.553494 0
M  V30 7398 C 695.759 4.45963 -1.04311 0
M  V30 7399 N 697.25 4.5226 -1.00076 0
M  V30 7400 C 697.985 5.57268 -1.35056 0
M  V30 7401 N 697.481 6.69734 -1.77282 0
M  V30 7402 N 699.274 5.47582 -1.26925 0
M  V30 7403 H 691.425 1.59856 -1.39857 0
M  V30 7404 H 693.688 0.753095 -0.575805 0
M  V30 7405 H 693.394 3.11342 -1.63583 0
M  V30 7406 H 693.268 3.77197 -0.0142202 0
M  V30 7407 H 695.655 2.91177 0.479556 0
M  V30 7408 H 695.736 2.27508 -1.16935 0
M  V30 7409 H 695.38 4.63598 -2.07459 0
M  V30 7410 H 695.31 5.25049 -0.403873 0
M  V30 7411 H 697.801 3.71537 -0.690564 0
M  V30 7412 H 698.114 7.4587 -2.02232 0
M  V30 7413 H 696.459 6.70963 -1.81202 0
M  V30 7414 H 699.65 4.58604 -0.93809 0
M  V30 7415 H 699.823 6.29308 -1.54516 0
M  V30 7416 N 693.229 0.160201 1.56784 0
M  V30 7417 C 694.454 -0.497373 2.01348 0
M  V30 7418 C 694.879 -1.56757 1.03966 0
M  V30 7419 O 694.237 -1.81292 0.0174455 0
M  V30 7420 C 694.285 -1.0628 3.44582 0
M  V30 7421 O 693.389 -2.17723 3.50244 0
M  V30 7422 H 692.73 -0.120295 0.653012 0
M  V30 7423 H 695.26 0.260821 2.02931 0
M  V30 7424 H 695.27 -1.38819 3.83658 0
M  V30 7425 H 693.945 -0.279166 4.14962 0
M  V30 7426 H 692.522 -1.86313 3.2302 0
M  V30 7427 N 694.707 -1.5719 -0.113559 0
M  V30 7428 C 695.955 -1.84772 -0.818761 0
M  V30 7429 C 696.276 -0.746196 -1.80158 0
M  V30 7430 O 695.546 0.229305 -1.94553 0
M  V30 7431 H 694.126 -0.681737 -0.305359 0
M  V30 7432 H 696.788 -1.94645 -0.0995845 0
M  V30 7433 H 695.884 -2.80878 -1.36067 0
M  V30 7434 N 696.185 0.383891 -1.52853 0
M  V30 7435 C 697.596 0.961591 -1.60032 0
M  V30 7436 C 697.947 1.90819 -0.456333 0
M  V30 7437 O 697.072 2.12288 0.419873 0
M  V30 7438 C 697.667 1.75078 -2.90057 0
M  V30 7439 C 696.226 2.2781 -2.99632 0
M  V30 7440 C 695.373 1.08512 -2.55187 0
M  V30 7441 H 698.324 0.163269 -1.57858 0
M  V30 7442 H 698.345 2.61046 -2.7683 0
M  V30 7443 H 697.857 1.06157 -3.73299 0
M  V30 7444 H 695.958 3.00028 -2.20939 0
M  V30 7445 H 696.071 2.56947 -4.0437 0
M  V30 7446 H 694.435 1.44667 -2.09627 0
M  V30 7447 H 695.218 0.41118 -3.40829 0
M  V30 7448 N 697.663 1.43903 0.642637 0
M  V30 7449 C 698.888 1.49758 1.43483 0
M  V30 7450 C 699.313 0.119911 1.87717 0
M  V30 7451 O 698.671 -0.888558 1.58033 0
M  V30 7452 C 698.719 2.45744 2.63898 0
M  V30 7453 O 697.823 1.95101 3.63331 0
M  V30 7454 H 697.164 0.506138 0.429791 0
M  V30 7455 H 699.694 1.88923 0.785438 0
M  V30 7456 H 699.704 2.63399 3.11584 0
M  V30 7457 H 698.379 3.45818 2.31046 0
M  V30 7458 H 696.956 1.87158 3.22531 0
M  V30 7459 N 699.141 -0.881989 1.30609 0
M  V30 7460 C 700.369 -1.66711 1.22536 0
M  V30 7461 C 700.784 -1.87614 -0.2113 0
M  V30 7462 O 700.141 -1.42576 -1.13923 0
M  V30 7463 C 700.192 -3.04182 1.95335 0
M  V30 7464 O 699.913 -2.8422 3.33393 0
M  V30 7465 C 701.414 -3.98617 1.93956 0
M  V30 7466 H 698.634 -0.520124 0.423925 0
M  V30 7467 H 701.178 -1.10174 1.72285 0
M  V30 7468 H 699.333 -3.57442 1.49378 0
M  V30 7469 H 699.747 -3.71452 3.70302 0
M  V30 7470 H 701.221 -4.92433 2.49426 0
M  V30 7471 H 701.698 -4.29473 0.919198 0
M  V30 7472 H 702.304 -3.51292 2.39738 0
M  V30 7473 N 700.619 -1.13374 -1.09472 0
M  V30 7474 C 702.03 -0.90801 -1.63132 0
M  V30 7475 C 702.381 0.555576 -1.8817 0
M  V30 7476 O 701.506 1.42218 -1.63104 0
M  V30 7477 C 702.101 -1.64182 -2.96361 0
M  V30 7478 C 700.66 -1.46197 -3.46848 0
M  V30 7479 C 699.807 -1.67134 -2.21273 0
M  V30 7480 H 702.758 -1.2871 -0.928411 0
M  V30 7481 H 702.779 -1.09863 -3.64294 0
M  V30 7482 H 702.291 -2.707 -2.78106 0
M  V30 7483 H 700.392 -0.419788 -3.70228 0
M  V30 7484 H 700.505 -2.22472 -4.24315 0
M  V30 7485 H 698.869 -1.09616 -2.29905 0
M  V30 7486 H 699.652 -2.74971 -2.05538 0
M  V30 7487 N 702.098 1.27442 -0.927168 0
M  V30 7488 C 703.048 2.24519 -0.396878 0
M  V30 7489 C 704.032 1.52981 0.498555 0
M  V30 7490 O 705.224 1.7378 0.336087 0
M  V30 7491 C 702.353 3.41514 0.349694 0
M  V30 7492 C 701.439 4.20357 -0.562226 0
M  V30 7493 N 701.83 4.7702 -1.68182 0
M  V30 7494 C 700.128 4.44503 -0.365135 0
M  V30 7495 C 700.829 5.36467 -2.24895 0
M  V30 7496 N 699.805 5.21371 -1.5386 0
M  V30 7497 H 703.607 2.65911 -1.25173 0
M  V30 7498 H 701.121 1.42366 -0.78138 0
M  V30 7499 H 703.118 4.10161 0.746536 0
M  V30 7500 H 701.778 3.01653 1.20148 0
M  V30 7501 H 702.789 4.74985 -2.06421 0
M  V30 7502 H 699.466 4.15111 0.446037 0
M  V30 7503 H 700.856 5.91264 -3.1915 0
M  V30 7504 N 703.576 0.692616 1.41565 0
M  V30 7505 C 704.822 0.222664 2.01574 0
M  V30 7506 C 705.155 -1.1737 1.54719 0
M  V30 7507 O 704.43 -1.79161 0.757084 0
M  V30 7508 C 704.713 0.277064 3.59033 0
M  V30 7509 C 704.566 1.71016 4.16021 0
M  V30 7510 C 705.885 -0.36479 4.38586 0
M  V30 7511 H 703.004 0.0823839 0.732381 0
M  V30 7512 H 705.646 0.880778 1.68352 0
M  V30 7513 H 703.796 -0.283288 3.87466 0
M  V30 7514 H 705.468 2.32413 3.98475 0
M  V30 7515 H 703.711 2.24525 3.71175 0
M  V30 7516 H 704.382 1.69978 5.25178 0
M  V30 7517 H 706.858 0.112404 4.15948 0
M  V30 7518 H 705.734 -0.296169 5.481 0
M  V30 7519 H 705.995 -1.44506 4.17816 0
M  V30 7520 N 705.054 -1.51416 0.437162 0
M  V30 7521 C 706.002 -2.29328 -0.388765 0
M  V30 7522 C 706.996 -1.35171 -1.02104 0
M  V30 7523 O 708.202 -1.52513 -0.956024 0
M  V30 7524 H 704.577 -0.738048 -0.144183 0
M  V30 7525 H 706.548 -2.96995 0.289212 0
M  V30 7526 C 705.297 -3.14741 -1.47761 0
M  V30 7527 H 704.62 -3.8708 -1.00045 0
M  V30 7528 H 706.06 -3.72313 -2.02877 0
M  V30 7529 C 704.519 -2.30105 -2.46076 0
M  V30 7530 O 705.049 -1.96055 -3.50607 0
M  V30 7531 N 703.255 -1.93331 -2.1696 0
M  V30 7532 H 702.802 -2.2122 -1.31983 0
M  V30 7533 H 702.76 -1.36999 -2.82982 0
M  V30 7534 N 706.532 -0.168513 -1.56696 0
M  V30 7535 C 707.779 0.477158 -1.96798 0
M  V30 7536 C 708.107 1.63442 -1.05437 0
M  V30 7537 O 707.362 1.95503 -0.0878903 0
M  V30 7538 C 707.661 1.00441 -3.42996 0
M  V30 7539 C 707.327 -0.0366556 -4.50885 0
M  V30 7540 C 705.989 -0.322785 -4.80116 0
M  V30 7541 C 708.341 -0.743447 -5.1587 0
M  V30 7542 C 705.669 -1.32114 -5.71632 0
M  V30 7543 C 708.021 -1.73077 -6.08463 0
M  V30 7544 C 706.685 -2.02437 -6.36062 0
M  V30 7545 H 705.955 0.174604 -0.720135 0
M  V30 7546 H 708.602 -0.259884 -1.89728 0
M  V30 7547 H 706.907 1.81922 -3.47004 0
M  V30 7548 H 708.604 1.51294 -3.71364 0
M  V30 7549 H 705.194 0.196532 -4.28149 0
M  V30 7550 H 709.378 -0.535602 -4.93401 0
M  V30 7551 H 704.634 -1.55482 -5.913 0
M  V30 7552 H 708.808 -2.28382 -6.57886 0
M  V30 7553 H 706.435 -2.79946 -7.06777 0
M  V30 7554 N 708.01 1.57248 0.105221 0
M  V30 7555 C 708.94 2.04374 1.12931 0
M  V30 7556 C 709.921 0.93074 1.42377 0
M  V30 7557 O 711.106 1.20136 1.52581 0
M  V30 7558 C 708.236 2.45967 2.45189 0
M  V30 7559 C 707.19 3.60838 2.30174 0
M  V30 7560 C 706.516 3.88374 3.67518 0
M  V30 7561 C 707.816 4.92084 1.75073 0
M  V30 7562 H 709.51 2.9018 0.737287 0
M  V30 7563 H 707.056 1.39601 0.353211 0
M  V30 7564 H 709.009 2.77542 3.17094 0
M  V30 7565 H 707.733 1.57148 2.86308 0
M  V30 7566 H 706.392 3.29493 1.60716 0
M  V30 7567 H 706.04 2.96739 4.06147 0
M  V30 7568 H 705.74 4.65703 3.58321 0
M  V30 7569 H 707.264 4.22415 4.40906 0
M  V30 7570 H 708.678 5.22106 2.36809 0
M  V30 7571 H 707.075 5.73507 1.76662 0
M  V30 7572 H 708.145 4.79684 0.709347 0
M  V30 7573 N 709.488 -0.375779 1.53054 0
M  V30 7574 C 710.418 -1.46598 1.81745 0
M  V30 7575 C 711.399 -1.56337 0.670286 0
M  V30 7576 O 712.584 -1.71071 0.919158 0
M  V30 7577 C 709.714 -2.84058 1.99821 0
M  V30 7578 C 708.668 -2.8915 3.15557 0
M  V30 7579 C 707.994 -4.29187 3.18908 0
M  V30 7580 C 709.294 -2.57595 4.54359 0
M  V30 7581 H 710.988 -1.22837 2.73041 0
M  V30 7582 H 708.534 -0.589485 1.31381 0
M  V30 7583 H 710.487 -3.60342 2.18475 0
M  V30 7584 H 709.211 -3.09184 1.05226 0
M  V30 7585 H 707.87 -2.15316 2.96706 0
M  V30 7586 H 707.518 -4.51374 2.2197 0
M  V30 7587 H 707.218 -4.33512 3.96662 0
M  V30 7588 H 708.742 -5.07359 3.39734 0
M  V30 7589 H 710.156 -3.23595 4.73243 0
M  V30 7590 H 708.553 -2.73252 5.34279 0
M  V30 7591 H 709.623 -1.52882 4.60169 0
M  V30 7592 N 710.966 -1.44241 -0.634997 0
M  V30 7593 C 712.243 -1.37296 -1.39317 0
M  V30 7594 C 712.623 -0.0297532 -2.11079 0
M  V30 7595 O 711.971 0.987524 -2.06059 0
M  V30 7596 C 712.181 -2.56853 -2.36279 0
M  V30 7597 C 713.529 -3.00747 -2.99728 0
M  V30 7598 O 714.553 -2.5703 -2.46605 0
M  V30 7599 O 713.412 -3.76533 -3.96087 0
M  V30 7600 H 710.506 -0.543503 -0.623325 0
M  V30 7601 H 713.052 -1.56324 -0.660376 0
M  V30 7602 H 711.824 -3.46228 -1.82324 0
M  V30 7603 H 711.447 -2.40019 -3.16981 0
M  V30 7604 N 712.444 0.87505 -1.31075 0
M  V30 7605 C 713.669 1.66583 -1.23551 0
M  V30 7606 C 714.094 1.87067 0.19686 0
M  V30 7607 O 713.452 1.40877 1.1412 0
M  V30 7608 C 713.5 3.01401 -1.97965 0
M  V30 7609 O 712.604 3.90923 -1.31351 0
M  V30 7610 H 711.945 0.508645 -0.426821 0
M  V30 7611 H 714.475 1.09139 -1.7306 0
M  V30 7612 H 714.485 3.51374 -2.07366 0
M  V30 7613 H 713.16 2.85812 -3.02133 0
M  V30 7614 H 711.737 3.49369 -1.30368 0
M  V30 7615 N 713.922 1.13953 1.08869 0
M  V30 7616 C 714.872 0.790812 2.13846 0
M  V30 7617 C 715.856 -0.217819 1.59419 0
M  V30 7618 O 717.048 -0.0208723 1.76988 0
M  V30 7619 C 714.177 0.26479 3.42277 0
M  V30 7620 C 713.263 1.30267 4.03598 0
M  V30 7621 N 713.654 2.50535 4.39393 0
M  V30 7622 C 711.952 1.15178 4.30871 0
M  V30 7623 C 712.653 3.16938 4.87776 0
M  V30 7624 N 711.629 2.44349 4.85587 0
M  V30 7625 H 715.431 1.70577 2.39334 0
M  V30 7626 H 712.945 1.02268 1.26154 0
M  V30 7627 H 714.942 -0.00330398 4.169 0
M  V30 7628 H 713.602 -0.644419 3.18241 0
M  V30 7629 H 714.613 2.87798 4.30572 0
M  V30 7630 H 711.29 0.301204 4.16412 0
M  V30 7631 H 712.68 4.19453 5.2489 0
M  V30 7632 N 715.4 -1.26948 0.933913 0
M  V30 7633 C 716.811 -1.76058 0.621324 0
M  V30 7634 C 717.162 -1.76175 -0.863522 0
M  V30 7635 O 716.287 -1.36921 -1.67576 0
M  V30 7636 C 716.882 -3.19713 1.12111 0
M  V30 7637 C 715.441 -3.66465 0.859074 0
M  V30 7638 C 714.588 -2.46186 1.27624 0
M  V30 7639 H 717.539 -1.13127 1.11301 0
M  V30 7640 H 717.56 -3.77566 0.471608 0
M  V30 7641 H 717.072 -3.19596 2.20182 0
M  V30 7642 H 715.173 -3.72021 -0.207566 0
M  V30 7643 H 715.286 -4.55636 1.48098 0
M  V30 7644 H 713.65 -2.45042 0.694727 0
M  V30 7645 H 714.433 -2.48774 2.36572 0
M  V30 7646 N 716.879 -0.700114 -1.41195 0
M  V30 7647 C 718.125 -0.233351 -2.01453 0
M  V30 7648 C 718.458 1.16548 -1.55339 0
M  V30 7649 O 717.733 1.78756 -0.766575 0
M  V30 7650 C 718.016 -0.2961 -3.58881 0
M  V30 7651 C 717.869 -1.7322 -4.15108 0
M  V30 7652 C 719.188 0.341525 -4.38773 0
M  V30 7653 H 716.307 -0.0862667 -0.731934 0
M  V30 7654 H 718.949 -0.889693 -1.67882 0
M  V30 7655 H 717.099 0.262736 -3.87611 0
M  V30 7656 H 718.771 -2.34523 -3.97236 0
M  V30 7657 H 717.014 -2.2649 -3.69979 0
M  V30 7658 H 717.685 -1.7276 -5.24269 0
M  V30 7659 H 720.161 -0.134461 -4.15883 0
M  V30 7660 H 719.037 0.267098 -5.4825 0
M  V30 7661 H 719.298 1.42289 -4.18577 0
M  V30 7662 N 718.357 1.51182 -0.445186 0
M  V30 7663 C 719.582 2.07056 0.119445 0
M  V30 7664 C 720.007 1.30966 1.35016 0
M  V30 7665 O 719.365 0.349827 1.77893 0
M  V30 7666 C 719.413 3.58234 0.412428 0
M  V30 7667 O 718.517 3.84249 1.49754 0
M  V30 7668 H 717.858 0.663998 -0.00157797 0
M  V30 7669 H 720.388 1.94699 -0.628779 0
M  V30 7670 H 720.398 4.02617 0.660583 0
M  V30 7671 H 719.073 4.13038 -0.487049 0
M  V30 7672 H 717.65 3.51724 1.23873 0
M  V30 7673 N 719.835 0.176821 1.56605 0
M  V30 7674 C 721.246 -0.338963 1.83597 0
M  V30 7675 C 721.597 -1.62677 1.09684 0
M  V30 7676 O 720.722 -2.13524 0.351661 0
M  V30 7677 C 721.317 -0.62177 3.33046 0
M  V30 7678 C 719.876 -1.08198 3.60514 0
M  V30 7679 C 719.023 -0.120774 2.77037 0
M  V30 7680 H 721.974 0.400978 1.53551 0
M  V30 7681 H 721.995 -1.47321 3.50823 0
M  V30 7682 H 721.507 0.315692 3.86814 0
M  V30 7683 H 719.608 -2.03435 3.12162 0
M  V30 7684 H 719.721 -0.987329 4.68816 0
M  V30 7685 H 718.085 -0.619192 2.47059 0
M  V30 7686 H 718.868 0.810806 3.33588 0
M  V30 7687 N 721.313 -1.57302 -0.09688 0
M  V30 7688 C 722.223 -2.05258 -1.13606 0
M  V30 7689 C 723.239 -0.977137 -1.43972 0
M  V30 7690 O 724.415 -1.29018 -1.54649 0
M  V30 7691 C 721.48 -2.46593 -2.43706 0
M  V30 7692 C 720.541 -3.68322 -2.20538 0
M  V30 7693 C 719.774 -4.07676 -3.44435 0
M  V30 7694 O 719.997 -3.47141 -4.52603 0
M  V30 7695 O 718.931 -5.00641 -3.34129 0
M  V30 7696 H 722.757 -2.94069 -0.758752 0
M  V30 7697 H 720.342 -1.46164 -0.309263 0
M  V30 7698 H 722.224 -2.73814 -3.20318 0
M  V30 7699 H 720.899 -1.6092 -2.80867 0
M  V30 7700 H 719.806 -3.4622 -1.41713 0
M  V30 7701 H 721.139 -4.54769 -1.88271 0
M  V30 7702 N 722.791 0.367657 -1.53252 0
M  V30 7703 C 724.037 1.11216 -1.69584 0
M  V30 7704 C 724.37 1.89026 -0.445269 0
M  V30 7705 O 723.645 1.86342 0.557404 0
M  V30 7706 C 723.928 2.07308 -2.94441 0
M  V30 7707 C 723.781 1.3312 -4.2965 0
M  V30 7708 C 725.1 3.07459 -3.14892 0
M  V30 7709 H 722.219 0.40294 -0.617096 0
M  V30 7710 H 724.861 0.393201 -1.85887 0
M  V30 7711 H 723.011 2.68617 -2.80673 0
M  V30 7712 H 724.683 0.746111 -4.55226 0
M  V30 7713 H 722.926 0.633051 -4.29156 0
M  V30 7714 H 723.597 2.03443 -5.13142 0
M  V30 7715 H 726.073 2.56252 -3.27832 0
M  V30 7716 H 724.949 3.71919 -4.03693 0
M  V30 7717 H 725.21 3.77514 -2.30077 0
M  V30 7718 N 724.269 1.44576 0.627338 0
M  V30 7719 C 725.518 1.46837 1.38281 0
M  V30 7720 C 725.831 0.10635 1.95311 0
M  V30 7721 O 727.037 0.00651084 2.71499 0
M  V30 7722 C 725.493 2.58527 2.50384 0
M  V30 7723 C 725.101 4.00953 1.99851 0
M  V30 7724 C 726.845 2.70013 3.27557 0
M  V30 7725 C 724.752 5.0406 3.09318 0
M  V30 7726 H 723.682 0.546319 0.519664 0
M  V30 7727 H 726.333 1.70654 0.674497 0
M  V30 7728 H 724.715 2.27957 3.23808 0
M  V30 7729 H 725.889 4.41108 1.33267 0
M  V30 7730 H 724.204 3.93743 1.35482 0
M  V30 7731 H 726.801 3.44217 4.09168 0
M  V30 7732 H 727.144 1.75961 3.77284 0
M  V30 7733 H 727.677 3.00011 2.61224 0
M  V30 7734 H 724.416 5.99753 2.6453 0
M  V30 7735 H 723.936 4.68493 3.74532 0
M  V30 7736 H 725.615 5.2793 3.74031 0
M  V30 7737 N 725.747 -0.868086 1.31537 0
M  V30 7738 C 726.993 -1.62367 1.2151 0
M  V30 7739 C 727.326 -1.92883 -0.225819 0
M  V30 7740 O 726.601 -1.56176 -1.15927 0
M  V30 7741 C 726.884 -2.95268 2.06129 0
M  V30 7742 C 726.737 -2.71619 3.58529 0
M  V30 7743 C 728.056 -3.96391 1.91212 0
M  V30 7744 H 725.175 -0.589178 0.442762 0
M  V30 7745 H 727.817 -1.00336 1.61347 0
M  V30 7746 H 725.967 -3.4821 1.72284 0
M  V30 7747 H 727.639 -2.25334 4.0252 0
M  V30 7748 H 725.882 -2.05817 3.81866 0
M  V30 7749 H 726.553 -3.66192 4.13047 0
M  V30 7750 H 729.029 -3.52663 2.20834 0
M  V30 7751 H 727.905 -4.87263 2.52718 0
M  V30 7752 H 728.166 -4.33335 0.875953 0
M  V30 7753 N 727.225 -1.14528 -1.08264 0
M  V30 7754 C 728.135 -0.84728 -2.18765 0
M  V30 7755 C 729.151 0.172826 -1.7314 0
M  V30 7756 O 730.327 0.000985336 -2.014 0
M  V30 7757 C 727.392 -0.330633 -3.4512 0
M  V30 7758 C 726.453 -1.41348 -4.05363 0
M  V30 7759 C 725.686 -0.921387 -5.25686 0
M  V30 7760 O 725.909 0.236587 -5.69909 0
M  V30 7761 O 724.843 -1.70101 -5.77364 0
M  V30 7762 H 728.669 -1.7708 -2.46731 0
M  V30 7763 H 726.254 -0.923661 -1.17426 0
M  V30 7764 H 728.136 -0.0485053 -4.21372 0
M  V30 7765 H 726.811 0.565147 -3.18728 0
M  V30 7766 H 725.718 -1.74908 -3.30693 0
M  V30 7767 H 727.051 -2.28383 -4.36007 0
M  V30 7768 N 728.703 1.26451 -0.940633 0
M  V30 7769 C 729.653 2.24086 -0.420669 0
M  V30 7770 C 730.637 1.53501 0.482301 0
M  V30 7771 O 731.829 1.74127 0.317636 0
M  V30 7772 C 728.958 3.41866 0.313452 0
M  V30 7773 C 728.044 4.19737 -0.606779 0
M  V30 7774 N 728.435 4.7521 -1.73232 0
M  V30 7775 C 726.733 4.44091 -0.41226 0
M  V30 7776 C 727.434 5.34052 -2.30572 0
M  V30 7777 N 726.41 5.1971 -1.59381 0
M  V30 7778 H 730.212 2.64569 -1.27986 0
M  V30 7779 H 727.726 1.4153 -0.796436 0
M  V30 7780 H 729.723 4.1093 0.702991 0
M  V30 7781 H 728.383 3.0291 1.16942 0
M  V30 7782 H 729.394 4.72769 -2.11447 0
M  V30 7783 H 726.071 4.1556 0.401984 0
M  V30 7784 H 727.461 5.87845 -3.25404 0
M  V30 7785 N 730.181 0.707592 1.40822 0
M  V30 7786 C 731.409 0.253073 2.05346 0
M  V30 7787 C 731.824 -1.10218 1.53289 0
M  V30 7788 O 731.181 -1.69112 0.686105 0
M  V30 7789 C 731.232 0.215411 3.60858 0
M  V30 7790 O 730.953 1.51714 4.10992 0
M  V30 7791 C 732.454 -0.258636 4.42545 0
M  V30 7792 H 729.674 0.115256 0.661027 0
M  V30 7793 H 732.218 0.963555 1.80377 0
M  V30 7794 H 730.373 -0.445978 3.84824 0
M  V30 7795 H 730.787 1.41226 5.05129 0
M  V30 7796 H 732.261 -0.233849 5.51504 0
M  V30 7797 H 732.738 -1.2995 4.19535 0
M  V30 7798 H 733.344 0.372186 4.23668 0
M  V30 7799 N 731.66 -1.50943 0.453197 0
M  V30 7800 C 732.59 -2.31005 -0.34044 0
M  V30 7801 C 733.571 -1.37112 -1.00669 0
M  V30 7802 O 734.756 -1.66033 -1.0073 0
M  V30 7803 C 731.886 -3.16358 -1.433 0
M  V30 7804 C 730.84 -4.18658 -0.889363 0
M  V30 7805 C 730.166 -4.92633 -2.07887 0
M  V30 7806 C 731.466 -5.22227 0.0871142 0
M  V30 7807 H 733.16 -2.97601 0.327723 0
M  V30 7808 H 730.706 -1.43119 0.159054 0
M  V30 7809 H 732.659 -3.71155 -1.99555 0
M  V30 7810 H 731.383 -2.47613 -2.12968 0
M  V30 7811 H 730.042 -3.64936 -0.348915 0
M  V30 7812 H 729.69 -4.20376 -2.76211 0
M  V30 7813 H 729.39 -5.61819 -1.72143 0
M  V30 7814 H 730.914 -5.50258 -2.64666 0
M  V30 7815 H 732.328 -5.72001 -0.385656 0
M  V30 7816 H 730.725 -5.99032 0.357926 0
M  V30 7817 H 731.795 -4.74077 1.01879 0
M  V30 7818 N 733.138 -0.185124 -1.56509 0
M  V30 7819 C 734.086 0.756505 -2.19954 0
M  V30 7820 C 735.08 1.22725 -1.16769 0
M  V30 7821 O 736.286 1.1913 -1.34937 0
M  V30 7822 H 732.661 0.262279 -0.704779 0
M  V30 7823 H 734.632 0.197587 -2.97745 0
M  V30 7824 C 733.381 1.96975 -2.86524 0
M  V30 7825 H 732.704 1.61658 -3.65659 0
M  V30 7826 H 734.144 2.60719 -3.34367 0
M  V30 7827 C 732.603 2.80219 -1.87027 0
M  V30 7828 O 733.133 3.77821 -1.36433 0
M  V30 7829 N 731.339 2.4551 -1.55477 0
M  V30 7830 H 730.886 1.66199 -1.96813 0
M  V30 7831 H 730.844 3.01493 -0.891597 0
M  V30 7832 N 734.616 1.57351 0.0885366 0
M  V30 7833 C 735.548 1.99221 1.13329 0
M  V30 7834 C 736.561 0.895705 1.35945 0
M  V30 7835 O 737.75 1.17376 1.34481 0
M  V30 7836 C 734.85 2.3016 2.48756 0
M  V30 7837 C 734.023 3.61444 2.46327 0
M  V30 7838 C 733.082 3.80244 3.63732 0
M  V30 7839 O 732.108 4.52024 3.45924 0
M  V30 7840 N 733.31 3.2132 4.8346 0
M  V30 7841 H 736.075 2.89456 0.776862 0
M  V30 7842 H 733.636 1.59505 0.277428 0
M  V30 7843 H 735.628 2.39925 3.25911 0
M  V30 7844 H 734.198 1.459 2.76464 0
M  V30 7845 H 733.418 3.62588 1.54673 0
M  V30 7846 H 734.706 4.47678 2.41789 0
M  V30 7847 H 734.104 2.63028 5.00832 0
M  V30 7848 H 732.661 3.3656 5.58185 0
M  V30 7849 N 736.094 -0.359525 1.53444 0
M  V30 7850 C 737.042 -1.46104 1.80987 0
M  V30 7851 C 738.036 -1.55181 0.679351 0
M  V30 7852 O 739.242 -1.57995 0.862405 0
M  V30 7853 H 735.617 -0.486835 0.573145 0
M  V30 7854 H 737.588 -1.2008 2.73173 0
M  V30 7855 C 736.337 -2.82855 2.02208 0
M  V30 7856 H 735.66 -2.76631 2.88644 0
M  V30 7857 H 737.1 -3.59091 2.25455 0
M  V30 7858 C 735.559 -3.27192 0.802931 0
M  V30 7859 O 736.089 -4.017 -0.00544286 0
M  V30 7860 N 734.295 -2.83807 0.624657 0
M  V30 7861 H 733.842 -2.23339 1.28364 0
M  V30 7862 H 733.8 -3.13828 -0.189641 0
M  V30 7863 N 737.572 -1.44907 -0.619662 0
M  V30 7864 C 738.82 -1.47999 -1.37625 0
M  V30 7865 C 739.141 -0.118295 -1.94641 0
M  V30 7866 O 738.411 0.85086 -1.76457 0
M  V30 7867 H 736.991 -0.544993 -0.510873 0
M  V30 7868 H 739.653 -1.80772 -0.728522 0
M  V30 7869 H 738.749 -2.21196 -2.20179 0
M  V30 7870 N 739.05 0.861098 -1.31996 0
M  V30 7871 C 740.28 1.64501 -1.24992 0
M  V30 7872 C 740.688 1.88288 0.185576 0
M  V30 7873 O 740.031 1.44756 1.131 0
M  V30 7874 C 740.093 3.03098 -1.93319 0
M  V30 7875 C 739.757 3.02381 -3.42658 0
M  V30 7876 C 740.754 2.79696 -4.38254 0
M  V30 7877 C 738.439 3.23221 -3.84491 0
M  V30 7878 C 740.433 2.77843 -5.73657 0
M  V30 7879 C 738.12 3.20996 -5.20005 0
M  V30 7880 C 739.118 2.98335 -6.14398 0
M  V30 7881 O 738.806 2.95971 -7.47433 0
M  V30 7882 H 738.538 0.519309 -0.432775 0
M  V30 7883 H 741.092 1.08241 -1.74565 0
M  V30 7884 H 739.322 3.61121 -1.38306 0
M  V30 7885 H 741.011 3.63751 -1.8011 0
M  V30 7886 H 741.777 2.63368 -4.07262 0
M  V30 7887 H 737.656 3.39887 -3.11445 0
M  V30 7888 H 741.2 2.60074 -6.47308 0
M  V30 7889 H 737.097 3.36865 -5.50629 0
M  V30 7890 H 737.865 3.1197 -7.56714 0
M  V30 7891 N 740.528 1.15101 1.07655 0
M  V30 7892 C 741.756 0.947731 1.83918 0
M  V30 7893 C 742.171 -0.503927 1.81951 0
M  V30 7894 O 741.528 -1.34941 1.2287 0
M  V30 7895 C 741.579 1.4503 3.31132 0
M  V30 7896 O 741.3 2.84508 3.33146 0
M  V30 7897 C 742.801 1.28806 4.24174 0
M  V30 7898 H 740.021 0.336786 0.580358 0
M  V30 7899 H 742.565 1.52799 1.35914 0
M  V30 7900 H 740.72 0.912632 3.76497 0
M  V30 7901 H 741.134 3.0723 4.251 0
M  V30 7902 H 742.608 1.6882 5.25551 0
M  V30 7903 H 743.085 0.231851 4.38588 0
M  V30 7904 H 743.691 1.81465 3.84643 0
M  V30 7905 N 742.006 -1.2595 0.947325 0
M  V30 7906 C 742.936 -2.28521 0.479604 0
M  V30 7907 C 743.917 -1.63469 -0.470293 0
M  V30 7908 O 745.102 -1.90627 -0.370824 0
M  V30 7909 C 742.232 -3.46397 -0.250289 0
M  V30 7910 C 741.186 -4.23578 0.613643 0
M  V30 7911 C 740.512 -5.34131 -0.246568 0
M  V30 7912 C 741.812 -4.86979 1.88809 0
M  V30 7913 H 743.506 -2.67895 1.33688 0
M  V30 7914 H 741.052 -1.28783 0.644274 0
M  V30 7915 H 743.005 -4.17269 -0.588576 0
M  V30 7916 H 741.729 -3.05993 -1.14175 0
M  V30 7917 H 740.388 -3.54478 0.93491 0
M  V30 7918 H 740.036 -4.89968 -1.13756 0
M  V30 7919 H 739.736 -5.86683 0.328123 0
M  V30 7920 H 741.26 -6.07839 -0.579986 0
M  V30 7921 H 742.674 -5.50034 1.61666 0
M  V30 7922 H 741.071 -5.49675 2.40784 0
M  V30 7923 H 742.141 -4.09575 2.5957 0
M  V30 7924 N 743.484 -0.715051 -1.40445 0
M  V30 7925 C 744.73 -0.254705 -2.01194 0
M  V30 7926 C 745.063 1.14894 -1.56567 0
M  V30 7927 O 744.338 1.77933 -0.785491 0
M  V30 7928 C 744.621 -0.334148 -3.58546 0
M  V30 7929 C 744.474 -1.77613 -4.13248 0
M  V30 7930 C 745.793 0.294968 -4.3911 0
M  V30 7931 H 742.912 -0.094025 -0.730978 0
M  V30 7932 H 745.554 -0.907449 -1.66929 0
M  V30 7933 H 743.704 0.221609 -3.87867 0
M  V30 7934 H 745.376 -2.38723 -3.94727 0
M  V30 7935 H 743.619 -2.30402 -3.67556 0
M  V30 7936 H 744.29 -1.78311 -5.22407 0
M  V30 7937 H 746.766 -0.178563 -4.15717 0
M  V30 7938 H 745.642 0.208934 -5.48502 0
M  V30 7939 H 745.903 1.37841 -4.20062 0
M  V30 7940 N 744.962 1.50701 -0.461195 0
M  V30 7941 C 746.211 2.01458 0.0988277 0
M  V30 7942 C 746.524 1.34863 1.41673 0
M  V30 7943 O 747.73 1.76721 2.06111 0
M  V30 7944 C 746.186 3.59186 0.226648 0
M  V30 7945 C 745.794 4.34732 -1.08223 0
M  V30 7946 C 747.538 4.18015 0.73916 0
M  V30 7947 C 745.445 5.8422 -0.918747 0
M  V30 7948 H 744.375 0.7529 0.040709 0
M  V30 7949 H 747.026 1.736 -0.594589 0
M  V30 7950 H 745.408 3.83589 0.983621 0
M  V30 7951 H 746.582 4.22059 -1.84939 0
M  V30 7952 H 744.897 3.87466 -1.52509 0
M  V30 7953 H 747.494 5.27436 0.878347 0
M  V30 7954 H 747.837 3.78746 1.72793 0
M  V30 7955 H 748.37 3.9778 0.0398469 0
M  V30 7956 H 745.109 6.27944 -1.88059 0
M  V30 7957 H 744.629 5.99493 -0.191801 0
M  V30 7958 H 746.308 6.44382 -0.581405 0
M  V30 7959 N 746.441 0.193421 1.56409 0
M  V30 7960 C 747.669 -0.451438 2.01915 0
M  V30 7961 C 748.084 -1.55306 1.07357 0
M  V30 7962 O 747.441 -1.82333 0.0781512 0
M  V30 7963 C 747.492 -1.00931 3.47124 0
M  V30 7964 O 747.213 0.0483623 4.38073 0
M  V30 7965 C 748.714 -1.73021 4.0814 0
M  V30 7966 H 745.934 -0.113495 0.661332 0
M  V30 7967 H 748.478 0.301636 2.02263 0
M  V30 7968 H 746.633 -1.71277 3.47481 0
M  V30 7969 H 747.047 -0.366644 5.23217 0
M  V30 7970 H 748.521 -2.07289 5.11601 0
M  V30 7971 H 748.998 -2.6333 3.51502 0
M  V30 7972 H 749.604 -1.07264 4.11551 0
M  V30 7973 N 747.919 -1.57396 -0.0801906 0
M  V30 7974 C 749.167 -1.86467 -0.779384 0
M  V30 7975 C 749.488 -0.784243 -1.78535 0
M  V30 7976 O 748.758 0.187986 -1.94996 0
M  V30 7977 H 747.338 -0.68806 -0.29083 0
M  V30 7978 H 750 -1.94813 -0.0582749 0
M  V30 7979 H 749.096 -2.83701 -1.30078 0
M  V30 7980 N 749.397 0.351382 -1.53633 0
M  V30 7981 C 750.344 1.43115 -1.81071 0
M  V30 7982 C 751.314 1.52601 -0.655913 0
M  V30 7983 O 752.499 1.68264 -0.89955 0
M  V30 7984 C 749.639 2.79874 -2.01903 0
M  V30 7985 C 748.752 2.79242 -3.29618 0
M  V30 7986 C 747.887 4.07667 -3.40559 0
M  V30 7987 C 746.926 4.01233 -4.62254 0
M  V30 7988 N 746.063 5.21334 -4.70271 0
M  V30 7989 H 750.903 1.19017 -2.73201 0
M  V30 7990 H 748.44 0.576691 -1.35324 0
M  V30 7991 H 750.398 3.5934 -2.11969 0
M  V30 7992 H 749.028 3.0234 -1.13094 0
M  V30 7993 H 748.08 1.91927 -3.28433 0
M  V30 7994 H 749.392 2.70363 -4.19172 0
M  V30 7995 H 748.546 4.95555 -3.50015 0
M  V30 7996 H 747.285 4.19317 -2.49047 0
M  V30 7997 H 746.29 3.11732 -4.52884 0
M  V30 7998 H 747.515 3.91173 -5.55122 0
M  V30 7999 H 745.461 5.33543 -3.81665 0
M  V30 8000 H 745.378 5.14681 -5.5375 0
M  V30 8001 H 746.646 6.11014 -4.84027 0
M  V30 8002 N 750.875 1.45233 0.611969 0
M  V30 8003 C 751.822 1.5357 1.72293 0
M  V30 8004 C 752.792 0.381912 1.6165 0
M  V30 8005 O 753.977 0.594765 1.81293 0
M  V30 8006 C 751.117 1.50419 3.10593 0
M  V30 8007 C 750.23 2.76316 3.32074 0
M  V30 8008 C 749.365 2.64866 4.60456 0
M  V30 8009 C 748.404 3.85838 4.7518 0
M  V30 8010 N 747.541 3.72949 5.94856 0
M  V30 8011 H 752.381 2.4848 1.64504 0
M  V30 8012 H 749.918 1.23302 0.802191 0
M  V30 8013 H 751.876 1.4658 3.90602 0
M  V30 8014 H 750.506 0.590621 3.17351 0
M  V30 8015 H 749.558 2.90261 2.45872 0
M  V30 8016 H 750.87 3.66055 3.38829 0
M  V30 8017 H 750.024 2.58969 5.48653 0
M  V30 8018 H 748.763 1.72719 4.56092 0
M  V30 8019 H 747.768 3.92099 3.85407 0
M  V30 8020 H 748.993 4.79045 4.81344 0
M  V30 8021 H 746.939 2.83567 5.91545 0
M  V30 8022 H 746.856 4.56319 6.02751 0
M  V30 8023 H 748.124 3.70976 6.85563 0
M  V30 8024 N 752.353 -0.854086 1.3245 0
M  V30 8025 C 753.602 -1.60318 1.22397 0
M  V30 8026 C 753.915 -1.9444 -0.212664 0
M  V30 8027 O 755.121 -2.67991 -0.435066 0
M  V30 8028 C 753.577 -2.8909 2.1437 0
M  V30 8029 C 753.185 -2.62391 3.63119 0
M  V30 8030 C 754.929 -3.67104 2.13155 0
M  V30 8031 C 752.836 -3.87167 4.47052 0
M  V30 8032 H 751.766 -0.601586 0.454544 0
M  V30 8033 H 754.417 -0.943023 1.57415 0
M  V30 8034 H 752.799 -3.56567 1.72268 0
M  V30 8035 H 753.973 -2.03222 4.13567 0
M  V30 8036 H 752.288 -1.97706 3.66471 0
M  V30 8037 H 754.885 -4.59696 2.731 0
M  V30 8038 H 755.228 -4.00876 1.12268 0
M  V30 8039 H 755.761 -3.06533 2.5354 0
M  V30 8040 H 752.5 -3.58536 5.48755 0
M  V30 8041 H 752.02 -4.45729 4.01355 0
M  V30 8042 H 753.699 -4.549 4.60081 0
M  V30 8043 N 753.831 -1.1567 -1.07043 0
M  V30 8044 C 755.059 -0.957471 -1.83412 0
M  V30 8045 C 755.474 0.494271 -1.82215 0
M  V30 8046 O 754.831 1.34288 -1.23584 0
M  V30 8047 C 754.882 -1.46784 -3.30359 0
M  V30 8048 O 754.603 -2.86271 -3.31633 0
M  V30 8049 C 756.104 -1.31054 -4.23485 0
M  V30 8050 H 753.324 -0.33986 -0.578564 0
M  V30 8051 H 755.868 -1.53518 -1.35102 0
M  V30 8052 H 754.023 -0.932586 -3.76007 0
M  V30 8053 H 754.437 -3.0948 -4.23465 0
M  V30 8054 H 755.911 -1.71605 -5.24648 0
M  V30 8055 H 756.388 -0.255107 -4.38458 0
M  V30 8056 H 756.994 -1.83503 -3.83676 0
M  V30 8057 N 755.309 1.25446 -0.953992 0
M  V30 8058 C 756.256 2.25912 -0.472485 0
M  V30 8059 C 757.226 1.59173 0.47469 0
M  V30 8060 O 758.411 1.86812 0.388082 0
M  V30 8061 C 755.551 3.44235 0.244218 0
M  V30 8062 C 754.664 4.25613 -0.740121 0
M  V30 8063 C 753.799 5.312 -0.000922267 0
M  V30 8064 C 752.838 6.04265 -0.976236 0
M  V30 8065 N 751.975 7.01589 -0.267952 0
M  V30 8066 H 756.815 2.66469 -1.3341 0
M  V30 8067 H 754.352 1.31005 -0.669045 0
M  V30 8068 H 756.31 4.11682 0.676314 0
M  V30 8069 H 754.94 3.04554 1.06988 0
M  V30 8070 H 753.992 3.57834 -1.2907 0
M  V30 8071 H 755.304 4.762 -1.48441 0
M  V30 8072 H 754.458 6.04719 0.48984 0
M  V30 8073 H 753.197 4.81484 0.776159 0
M  V30 8074 H 752.202 5.29561 -1.478 0
M  V30 8075 H 753.427 6.5607 -1.75354 0
M  V30 8076 H 751.373 6.54164 0.490403 0
M  V30 8077 H 751.29 7.4999 -0.951344 0
M  V30 8078 H 752.558 7.7924 0.201294 0
M  V30 8079 N 756.787 0.722489 1.40064 0
M  V30 8080 C 758.036 0.261932 1.99992 0
M  V30 8081 C 758.349 -1.15358 1.57961 0
M  V30 8082 O 759.555 -1.71301 2.10637 0
M  V30 8083 C 758.011 0.41737 3.57472 0
M  V30 8084 C 757.619 1.83997 4.08472 0
M  V30 8085 C 759.363 0.0179561 4.24496 0
M  V30 8086 C 757.27 1.94563 5.5848 0
M  V30 8087 H 756.2 0.0941768 0.748095 0
M  V30 8088 H 758.851 0.894572 1.60218 0
M  V30 8089 H 757.233 -0.283965 3.94981 0
M  V30 8090 H 758.407 2.57224 3.82325 0
M  V30 8091 H 756.722 2.19147 3.54067 0
M  V30 8092 H 759.319 0.076085 5.34646 0
M  V30 8093 H 759.662 -1.02498 4.03485 0
M  V30 8094 H 760.195 0.669988 3.92117 0
M  V30 8095 H 756.934 2.97001 5.84355 0
M  V30 8096 H 756.454 1.25756 5.86469 0
M  V30 8097 H 758.133 1.72095 6.23692 0
M  V30 8098 N 758.265 -1.50454 0.469181 0
M  V30 8099 C 759.676 -1.86695 0.0136034 0
M  V30 8100 C 760.027 -1.38413 -1.39055 0
M  V30 8101 O 759.152 -0.748294 -2.03051 0
M  V30 8102 C 759.747 -3.38795 0.0179098 0
M  V30 8103 C 758.306 -3.74455 -0.382191 0
M  V30 8104 C 757.453 -2.74338 0.404207 0
M  V30 8105 H 760.404 -1.43225 0.683547 0
M  V30 8106 H 760.425 -3.72321 -0.78468 0
M  V30 8107 H 759.937 -3.73906 1.04 0
M  V30 8108 H 758.038 -3.44944 -1.4087 0
M  V30 8109 H 758.151 -4.79025 -0.084862 0
M  V30 8110 H 756.515 -2.54305 -0.141829 0
M  V30 8111 H 757.298 -3.12293 1.42577 0
M  V30 8112 N 759.743 -0.201713 -1.56304 0
M  V30 8113 C 760.673 0.71155 -2.22394 0
M  V30 8114 C 761.654 1.21625 -1.18917 0
M  V30 8115 O 762.839 1.26388 -1.47444 0
M  V30 8116 C 759.969 1.92837 -2.88845 0
M  V30 8117 C 758.923 1.55831 -3.98623 0
M  V30 8118 C 758.249 2.85228 -4.52271 0
M  V30 8119 C 759.549 0.763249 -5.16693 0
M  V30 8120 H 761.243 0.160573 -2.98969 0
M  V30 8121 H 758.789 0.0757916 -1.438 0
M  V30 8122 H 760.742 2.57253 -3.33764 0
M  V30 8123 H 759.466 2.50398 -2.09686 0
M  V30 8124 H 758.125 0.9377 -3.54405 0
M  V30 8125 H 757.773 3.40893 -3.69866 0
M  V30 8126 H 757.473 2.6121 -5.26349 0
M  V30 8127 H 758.997 3.50622 -4.99897 0
M  V30 8128 H 760.411 1.31066 -5.58117 0
M  V30 8129 H 758.808 0.620935 -5.96879 0
M  V30 8130 H 759.878 -0.234322 -4.84334 0
M  V30 8131 N 761.222 1.57436 0.0718424 0
M  V30 8132 C 762.17 2.04725 1.10411 0
M  V30 8133 C 763.164 0.952579 1.4008 0
M  V30 8134 O 764.37 1.13769 1.39487 0
M  V30 8135 H 760.745 0.652749 0.373393 0
M  V30 8136 H 762.716 2.90569 0.679126 0
M  V30 8137 C 761.465 2.5068 2.40946 0
M  V30 8138 H 760.788 3.34505 2.18967 0
M  V30 8139 H 762.228 2.87521 3.11621 0
M  V30 8140 C 760.687 1.38971 3.06902 0
M  V30 8141 O 761.217 0.731786 3.94978 0
M  V30 8142 N 759.423 1.13485 2.67525 0
M  V30 8143 H 758.97 1.67168 1.95991 0
M  V30 8144 H 758.928 0.389467 3.11978 0
M  V30 8145 N 762.7 -0.34323 1.53817 0
M  V30 8146 C 763.948 -1.0813 1.70741 0
M  V30 8147 C 764.269 -1.89165 0.473461 0
M  V30 8148 O 763.539 -1.89075 -0.512605 0
M  V30 8149 H 762.119 -0.40219 0.629486 0
M  V30 8150 H 764.781 -0.384426 1.91071 0
M  V30 8151 H 763.877 -1.7585 2.57843 0
M  V30 8152 N 764.178 -1.45556 -0.604258 0
M  V30 8153 C 765.108 -1.57327 -1.72541 0
M  V30 8154 C 766.089 -0.424637 -1.64714 0
M  V30 8155 O 767.274 -0.648196 -1.83063 0
M  V30 8156 C 764.404 -1.54279 -3.11152 0
M  V30 8157 C 763.358 -2.67893 -3.33792 0
M  V30 8158 C 762.684 -2.499 -4.72709 0
M  V30 8159 C 763.984 -4.0988 -3.23722 0
M  V30 8160 H 765.678 -2.51175 -1.62947 0
M  V30 8161 H 763.224 -1.20884 -0.782504 0
M  V30 8162 H 765.177 -1.6111 -3.89386 0
M  V30 8163 H 763.901 -0.569627 -3.21594 0
M  V30 8164 H 762.56 -2.60495 -2.57949 0
M  V30 8165 H 762.208 -1.50715 -4.79889 0
M  V30 8166 H 761.908 -3.26091 -4.88813 0
M  V30 8167 H 763.432 -2.5859 -5.5314 0
M  V30 8168 H 764.846 -4.18503 -3.91826 0
M  V30 8169 H 763.243 -4.86487 -3.51355 0
M  V30 8170 H 764.313 -4.31553 -2.21111 0
M  V30 8171 N 765.656 0.84705 -1.32902 0
M  V30 8172 C 766.904 1.5986 -1.2365 0
M  V30 8173 C 767.225 1.93974 0.199789 0
M  V30 8174 O 766.495 1.60273 1.12648 0
M  V30 8175 H 765.075 0.592696 -0.454665 0
M  V30 8176 H 767.737 1.01278 -1.66519 0
M  V30 8177 H 766.833 2.53218 -1.82448 0
M  V30 8178 N 767.134 1.16236 1.06428 0
M  V30 8179 C 768.374 0.95369 1.80787 0
M  V30 8180 C 768.738 -0.509495 1.85117 0
M  V30 8181 O 769.939 -0.836822 2.55442 0
M  V30 8182 C 768.21 1.56235 3.21443 0
M  V30 8183 S 769.769 1.49812 4.12434 0
M  V30 8184 H 766.587 0.343004 0.622792 0
M  V30 8185 H 769.189 1.47957 1.27785 0
M  V30 8186 H 767.893 2.62 3.15886 0
M  V30 8187 H 767.424 1.03574 3.79521 0
M  V30 8188 H 769.439 0.49745 4.937 0
M  V30 8189 N 768.612 -1.24939 0.960631 0
M  V30 8190 C 770.028 -1.45039 0.666018 0
M  V30 8191 C 770.228 -1.86021 -0.774501 0
M  V30 8192 O 769.284 -1.99392 -1.54916 0
M  V30 8193 C 770.597 -2.51775 1.64408 0
M  V30 8194 C 772.145 -2.6561 1.65592 0
M  V30 8195 C 772.62 -3.75536 2.62177 0
M  V30 8196 N 774.111 -3.82954 2.60577 0
M  V30 8197 C 774.846 -4.67517 3.31987 0
M  V30 8198 N 774.342 -5.56321 4.1289 0
M  V30 8199 N 776.135 -4.61535 3.20845 0
M  V30 8200 H 768.286 -0.96632 1.89145 0
M  V30 8201 H 770.549 -0.486034 0.813926 0
M  V30 8202 H 770.255 -2.28534 2.67329 0
M  V30 8203 H 770.129 -3.49804 1.41128 0
M  V30 8204 H 772.516 -2.88212 0.633846 0
M  V30 8205 H 772.597 -1.67962 1.92931 0
M  V30 8206 H 772.241 -3.53684 3.64514 0
M  V30 8207 H 772.171 -4.72682 2.32119 0
M  V30 8208 H 774.662 -3.19478 2.01847 0
M  V30 8209 H 774.975 -6.17787 4.64283 0
M  V30 8210 H 773.32 -5.5601 4.16987 0
M  V30 8211 H 776.511 -3.91169 2.57108 0
M  V30 8212 H 776.684 -5.27214 3.76762 0
M  V30 8213 N 770.09 -0.729906 -1.39679 0
M  V30 8214 C 771.04 -0.0627678 -2.27914 0
M  V30 8215 C 772.024 0.717867 -1.43998 0
M  V30 8216 O 773.216 0.587713 -1.66958 0
M  V30 8217 C 770.345 0.847564 -3.32673 0
M  V30 8218 C 769.431 0.0613515 -4.24056 0
M  V30 8219 N 769.822 -0.962863 -4.96551 0
M  V30 8220 C 768.12 0.291773 -4.45045 0
M  V30 8221 C 768.821 -1.43652 -5.63683 0
M  V30 8222 N 767.797 -0.756044 -5.38317 0
M  V30 8223 H 771.599 -0.847545 -2.81414 0
M  V30 8224 H 769.113 -0.563776 -1.523 0
M  V30 8225 H 771.11 1.34094 -3.94746 0
M  V30 8226 H 769.77 1.63156 -2.80732 0
M  V30 8227 H 770.781 -1.34409 -5.00154 0
M  V30 8228 H 767.458 1.05097 -4.04056 0
M  V30 8229 H 768.848 -2.28835 -6.31731 0
M  V30 8230 N 771.568 1.50203 -0.477153 0
M  V30 8231 C 772.815 2.02358 0.0757385 0
M  V30 8232 C 773.143 1.3587 1.39174 0
M  V30 8233 O 772.398 0.475415 1.89838 0
M  V30 8234 C 772.697 3.56127 0.301325 0
M  V30 8235 C 772.363 4.41126 -0.933725 0
M  V30 8236 C 771.025 4.64075 -1.27233 0
M  V30 8237 C 773.377 4.90737 -1.75576 0
M  V30 8238 C 770.705 5.33878 -2.43292 0
M  V30 8239 C 773.057 5.61816 -2.90768 0
M  V30 8240 C 771.721 5.83016 -3.25036 0
M  V30 8241 H 770.991 0.740482 0.0277147 0
M  V30 8242 H 773.638 1.80754 -0.632467 0
M  V30 8243 H 771.943 3.76279 1.09183 0
M  V30 8244 H 773.64 3.94053 0.743184 0
M  V30 8245 H 770.23 4.23489 -0.659935 0
M  V30 8246 H 774.414 4.72856 -1.50734 0
M  V30 8247 H 769.67 5.48499 -2.70109 0
M  V30 8248 H 773.844 5.99237 -3.54807 0
M  V30 8249 H 771.471 6.36881 -4.15074 0
M  V30 8250 N 773.046 0.209999 1.56195 0
M  V30 8251 C 773.978 -0.736967 2.17029 0
M  V30 8252 C 774.991 -1.16599 1.13616 0
M  V30 8253 O 776.18 -1.09914 1.40646 0
M  V30 8254 C 773.28 -2.00852 2.72969 0
M  V30 8255 C 772.453 -1.73691 4.01435 0
M  V30 8256 C 771.512 -2.85439 4.42053 0
M  V30 8257 O 770.538 -2.54405 5.09183 0
M  V30 8258 N 771.74 -4.14135 4.06783 0
M  V30 8259 H 774.505 -0.216656 2.98916 0
M  V30 8260 H 772.066 0.0285672 1.61875 0
M  V30 8261 H 774.058 -2.74778 2.97118 0
M  V30 8262 H 772.628 -2.43963 1.95451 0
M  V30 8263 H 771.848 -0.834676 3.85262 0
M  V30 8264 H 773.136 -1.52961 4.85263 0
M  V30 8265 H 772.534 -4.42196 3.52816 0
M  V30 8266 H 771.091 -4.84642 4.35851 0
M  V30 8267 N 774.524 -1.57472 -0.0634922 0
M  V30 8268 C 775.749 -1.92273 -0.77756 0
M  V30 8269 C 776.174 -0.807141 -1.69902 0
M  V30 8270 O 775.532 0.239523 -1.79711 0
M  V30 8271 C 775.58 -3.26054 -1.54017 0
M  V30 8272 O 774.684 -3.15873 -2.65138 0
M  V30 8273 H 774.025 -0.629389 -0.211579 0
M  V30 8274 H 776.555 -2.04579 -0.0292523 0
M  V30 8275 H 776.565 -3.60127 -1.91763 0
M  V30 8276 H 775.24 -4.06824 -0.864128 0
M  V30 8277 H 773.817 -2.93373 -2.30189 0
M  V30 8278 N 776.003 0.335068 -1.53997 0
M  V30 8279 C 777.243 1.0827 -1.7337 0
M  V30 8280 C 777.607 1.85618 -0.490913 0
M  V30 8281 O 778.808 2.62864 -0.561799 0
M  V30 8282 C 777.079 1.99212 -2.96731 0
M  V30 8283 S 778.638 2.81083 -3.36954 0
M  V30 8284 H 775.456 0.365698 -0.609743 0
M  V30 8285 H 778.058 0.360079 -1.92155 0
M  V30 8286 H 776.762 1.41204 -3.85344 0
M  V30 8287 H 776.293 2.75898 -2.80436 0
M  V30 8288 H 778.308 4.01657 -2.91352 0
M  V30 8289 N 777.481 1.45874 0.596531 0
M  V30 8290 C 778.706 1.54247 1.38646 0
M  V30 8291 C 779.131 0.179571 1.87241 0
M  V30 8292 O 778.489 -0.837831 1.6078 0
M  V30 8293 C 778.537 2.54015 2.55946 0
M  V30 8294 O 777.641 2.06561 3.5694 0
M  V30 8295 H 776.982 0.519555 0.413471 0
M  V30 8296 H 779.512 1.91327 0.724936 0
M  V30 8297 H 779.522 2.73179 3.03047 0
M  V30 8298 H 778.197 3.52994 2.19928 0
M  V30 8299 H 776.774 1.97324 3.16414 0
M  V30 8300 N 778.959 -0.83999 1.33349 0
M  V30 8301 C 779.891 -1.95678 1.19344 0
M  V30 8302 C 780.904 -1.62322 0.124692 0
M  V30 8303 O 782.093 -1.74516 0.375012 0
M  V30 8304 C 779.193 -3.29133 0.807771 0
M  V30 8305 C 778.366 -3.9063 1.96792 0
M  V30 8306 C 777.425 -5.02438 1.56341 0
M  V30 8307 O 776.451 -5.21646 2.27759 0
M  V30 8308 N 777.653 -5.78612 0.467767 0
M  V30 8309 H 780.418 -2.08229 2.15548 0
M  V30 8310 H 777.979 -1.01566 1.26079 0
M  V30 8311 H 779.971 -4.01355 0.519282 0
M  V30 8312 H 778.541 -3.12535 -0.063555 0
M  V30 8313 H 777.761 -3.11011 2.4221 0
M  V30 8314 H 779.049 -4.2845 2.74422 0
M  V30 8315 H 778.447 -5.65559 -0.126324 0
M  V30 8316 H 777.004 -6.51362 0.238945 0
M  V30 8317 N 780.437 -1.16799 -1.0581 0
M  V30 8318 C 781.677 -0.963264 -1.80279 0
M  V30 8319 C 782.041 0.499671 -1.85384 0
M  V30 8320 O 783.242 0.823264 -2.55882 0
M  V30 8321 C 781.513 -1.57938 -3.20609 0
M  V30 8322 S 783.072 -1.51997 -4.11634 0
M  V30 8323 H 779.89 -0.346302 -0.620964 0
M  V30 8324 H 782.492 -1.48632 -1.26999 0
M  V30 8325 H 781.196 -2.63672 -3.14492 0
M  V30 8326 H 780.727 -1.05586 -3.78966 0
M  V30 8327 H 782.742 -0.523625 -4.93429 0
M  V30 8328 N 781.915 1.24427 -0.967243 0
M  V30 8329 C 782.845 2.2773 -0.515899 0
M  V30 8330 C 783.826 1.64197 0.444227 0
M  V30 8331 O 785.011 1.91193 0.340451 0
M  V30 8332 C 782.141 3.46751 0.195149 0
M  V30 8333 C 781.095 4.22548 -0.680953 0
M  V30 8334 C 780.421 5.34456 0.161561 0
M  V30 8335 C 781.721 4.83914 -1.96532 0
M  V30 8336 H 783.415 2.65735 -1.37933 0
M  V30 8337 H 780.961 1.27742 -0.664681 0
M  V30 8338 H 782.914 4.18153 0.522117 0
M  V30 8339 H 781.638 3.07771 1.09292 0
M  V30 8340 H 780.297 3.52946 -0.991186 0
M  V30 8341 H 779.945 4.91716 1.05947 0
M  V30 8342 H 779.645 5.86087 -0.421418 0
M  V30 8343 H 781.169 6.08685 0.483211 0
M  V30 8344 H 782.583 5.47392 -1.70396 0
M  V30 8345 H 780.98 5.45775 -2.49499 0
M  V30 8346 H 782.05 4.05393 -2.66053 0
M  V30 8347 N 783.393 0.737304 1.3929 0
M  V30 8348 C 784.618 0.295237 2.05288 0
M  V30 8349 C 785.043 -1.06235 1.55228 0
M  V30 8350 O 784.401 -1.67365 0.697043 0
M  V30 8351 C 784.449 0.309146 3.59272 0
M  V30 8352 O 783.553 -0.702437 4.06374 0
M  V30 8353 H 782.894 0.133762 0.650387 0
M  V30 8354 H 785.424 1.00387 1.78279 0
M  V30 8355 H 785.434 0.154336 4.07708 0
M  V30 8356 H 784.109 1.29974 3.95069 0
M  V30 8357 H 782.686 -0.513574 3.69346 0
M  V30 8358 N 784.871 -1.49948 0.485112 0
M  V30 8359 C 785.834 -2.27351 -0.290546 0
M  V30 8360 C 786.834 -1.32704 -0.908087 0
M  V30 8361 O 788.024 -1.56007 -0.775085 0
M  V30 8362 C 785.156 -3.10135 -1.41524 0
M  V30 8363 H 786.349 -2.97374 0.388454 0
M  V30 8364 H 783.902 -1.54453 0.239586 0
M  V30 8365 H 784.637 -2.44641 -2.12888 0
M  V30 8366 H 784.422 -3.79705 -0.978074 0
M  V30 8367 H 785.912 -3.68638 -1.96204 0
M  V30 8368 N 786.349 -0.21828 -1.56081 0
M  V30 8369 C 787.76 0.290166 -1.84431 0
M  V30 8370 C 788.111 1.59712 -1.13958 0
M  V30 8371 O 787.236 2.12516 -0.40815 0
M  V30 8372 C 787.831 0.53325 -3.34577 0
M  V30 8373 C 786.39 0.986011 -3.63256 0
M  V30 8374 C 785.537 0.0472798 -2.7726 0
M  V30 8375 H 788.488 -0.441548 -1.52434 0
M  V30 8376 H 788.509 1.37967 -3.54606 0
M  V30 8377 H 788.021 -0.418137 -3.85841 0
M  V30 8378 H 786.122 1.95087 -3.17446 0
M  V30 8379 H 786.235 0.862684 -4.71269 0
M  V30 8380 H 784.599 0.553471 -2.48614 0
M  V30 8381 H 785.382 -0.898966 -3.31321 0
M  V30 8382 N 787.827 1.57504 0.0551401 0
M  V30 8383 C 789.238 1.76626 0.604979 0
M  V30 8384 C 789.589 0.845978 1.77024 0
M  V30 8385 O 788.714 0.0341936 2.16373 0
M  V30 8386 C 789.309 3.203 1.10425 0
M  V30 8387 C 787.868 3.4071 1.59981 0
M  V30 8388 C 787.015 2.72258 0.526414 0
M  V30 8389 H 789.966 1.57775 -0.171072 0
M  V30 8390 H 789.987 3.25377 1.97256 0
M  V30 8391 H 789.499 3.87255 0.255939 0
M  V30 8392 H 787.6 2.78892 2.47083 0
M  V30 8393 H 787.713 4.49227 1.66528 0
M  V30 8394 H 786.077 2.35283 0.97539 0
M  V30 8395 H 786.86 3.41879 -0.311991 0
M  V30 8396 N 789.305 -0.326896 1.54172 0
M  V30 8397 C 790.552 -1.06523 1.72218 0
M  V30 8398 C 790.88 -1.88119 0.494114 0
M  V30 8399 O 790.135 -1.8855 -0.524147 0
M  V30 8400 C 790.434 -2.0208 2.94785 0
M  V30 8401 C 790.1 -1.36665 4.2969 0
M  V30 8402 C 788.762 -1.18556 4.66367 0
M  V30 8403 C 791.114 -0.896868 5.13425 0
M  V30 8404 C 788.442 -0.521113 5.84381 0
M  V30 8405 C 790.794 -0.246261 6.3212 0
M  V30 8406 C 789.458 -0.052987 6.67479 0
M  V30 8407 H 788.728 -0.389796 0.63019 0
M  V30 8408 H 791.375 -0.342725 1.88408 0
M  V30 8409 H 789.68 -2.8077 2.73268 0
M  V30 8410 H 791.377 -2.59231 3.05941 0
M  V30 8411 H 787.967 -1.51762 4.00832 0
M  V30 8412 H 792.151 -1.02458 4.85609 0
M  V30 8413 H 787.407 -0.36014 6.10338 0
M  V30 8414 H 791.581 0.125775 6.96286 0
M  V30 8415 H 789.208 0.463903 7.58783 0
M  V30 8416 N 790.784 -1.46188 -0.588786 0
M  V30 8417 C 792.03 -1.51407 -1.34921 0
M  V30 8418 C 792.363 -0.162771 -1.93517 0
M  V30 8419 O 791.638 0.825082 -1.76132 0
M  V30 8420 C 791.921 -2.60795 -2.48311 0
M  V30 8421 C 791.774 -4.05435 -1.94789 0
M  V30 8422 C 793.093 -2.66313 -3.50379 0
M  V30 8423 H 790.212 -0.551213 -0.489217 0
M  V30 8424 H 792.854 -1.78095 -0.661993 0
M  V30 8425 H 791.004 -2.3817 -3.06932 0
M  V30 8426 H 792.676 -4.39328 -1.40672 0
M  V30 8427 H 790.919 -4.15202 -1.25659 0
M  V30 8428 H 791.59 -4.77691 -2.76613 0
M  V30 8429 H 794.066 -2.86634 -3.01629 0
M  V30 8430 H 792.942 -3.44681 -4.27184 0
M  V30 8431 H 793.203 -1.72127 -4.07216 0
M  V30 8432 N 792.262 0.832906 -1.33792 0
M  V30 8433 C 793.194 1.95042 -1.2038 0
M  V30 8434 C 794.207 1.62253 -0.133299 0
M  V30 8435 O 795.396 1.74315 -0.384261 0
M  V30 8436 C 792.496 3.287 -0.825215 0
M  V30 8437 C 791.669 3.89581 -1.98861 0
M  V30 8438 C 790.728 5.01602 -1.59003 0
M  V30 8439 O 789.754 5.20431 -2.30522 0
M  V30 8440 N 790.956 5.78356 -0.498446 0
M  V30 8441 H 793.721 2.07083 -2.16649 0
M  V30 8442 H 791.282 1.00896 -1.26616 0
M  V30 8443 H 793.274 4.01074 -0.540559 0
M  V30 8444 H 791.844 3.12565 0.0469796 0
M  V30 8445 H 791.064 3.09723 -2.43856 0
M  V30 8446 H 792.352 4.26989 -2.76691 0
M  V30 8447 H 791.75 5.65618 0.0963297 0
M  V30 8448 H 790.307 6.51226 -0.273485 0
M  V30 8449 N 793.74 1.17359 1.05189 0
M  V30 8450 C 794.98 0.972812 1.79766 0
M  V30 8451 C 795.344 -0.489832 1.85647 0
M  V30 8452 O 796.545 -0.809682 2.56315 0
M  V30 8453 C 794.816 1.59636 3.19767 0
M  V30 8454 S 796.375 1.54178 4.10822 0
M  V30 8455 H 793.193 0.34959 0.619119 0
M  V30 8456 H 795.795 1.49304 1.26209 0
M  V30 8457 H 794.499 2.65336 3.13089 0
M  V30 8458 H 794.03 1.07594 3.78401 0
M  V30 8459 H 796.045 0.549785 4.93145 0
M  V30 8460 N 795.218 -1.23913 0.973828 0
M  V30 8461 C 796.466 -1.91771 0.637817 0
M  V30 8462 C 796.787 -1.76434 -0.830435 0
M  V30 8463 O 796.057 -1.13965 -1.59339 0
M  V30 8464 H 794.637 -0.709761 0.232912 0
M  V30 8465 H 797.299 -1.50677 1.23622 0
M  V30 8466 H 796.395 -2.99327 0.883731 0
M  V30 8467 N 796.696 -0.74468 -1.38897 0
M  V30 8468 C 797.942 -0.306249 -2.01081 0
M  V30 8469 C 798.297 1.09724 -1.58046 0
M  V30 8470 O 797.59 1.73923 -0.803834 0
M  V30 8471 C 797.784 -0.357302 -3.55609 0
M  V30 8472 C 797.613 -1.76421 -4.13649 0
M  V30 8473 C 796.383 -2.3787 -4.4581 0
M  V30 8474 C 798.581 -2.71942 -4.36523 0
M  V30 8475 N 796.563 -3.70614 -4.89406 0
M  V30 8476 C 797.934 -3.89437 -4.8243 0
M  V30 8477 C 799.989 -2.69579 -4.18607 0
M  V30 8478 C 798.692 -5.04917 -5.123 0
M  V30 8479 C 800.718 -3.8421 -4.49596 0
M  V30 8480 C 800.08 -5.00442 -4.95719 0
M  V30 8481 H 796.179 -0.158531 -0.765762 0
M  V30 8482 H 798.763 -0.972726 -1.6866 0
M  V30 8483 H 796.934 0.278865 -3.87398 0
M  V30 8484 H 798.666 0.100599 -4.04575 0
M  V30 8485 H 795.421 -1.8971 -4.33943 0
M  V30 8486 H 795.845 -4.38791 -5.1555 0
M  V30 8487 H 800.487 -1.80905 -3.82143 0
M  V30 8488 H 798.205 -5.94213 -5.47665 0
M  V30 8489 H 801.791 -3.83691 -4.37347 0
M  V30 8490 H 800.671 -5.87671 -5.19242 0
M  V30 8491 N 798.174 1.49689 -0.493057 0
M  V30 8492 C 799.414 2.04332 0.0527374 0
M  V30 8493 C 799.778 1.36522 1.35003 0
M  V30 8494 O 800.979 1.81842 1.97957 0
M  V30 8495 C 799.25 3.56782 0.210044 0
M  V30 8496 S 800.809 4.32998 0.711232 0
M  V30 8497 H 797.627 0.710978 0.00554853 0
M  V30 8498 H 800.229 1.83835 -0.665213 0
M  V30 8499 H 798.933 4.03681 -0.739566 0
M  V30 8500 H 798.464 3.81671 0.953468 0
M  V30 8501 H 800.479 4.54916 1.98156 0
M  V30 8502 N 799.652 0.226554 1.55963 0
M  V30 8503 C 800.602 -0.694986 2.1715 0
M  V30 8504 C 801.586 -1.15394 1.12129 0
M  V30 8505 O 802.778 -1.1071 1.38102 0
M  V30 8506 C 799.907 -1.9007 2.85882 0
M  V30 8507 C 798.993 -1.46119 3.98133 0
M  V30 8508 N 799.384 -0.734584 5.00437 0
M  V30 8509 C 797.682 -1.74809 4.10314 0
M  V30 8510 C 798.383 -0.509773 5.79462 0
M  V30 8511 N 797.359 -1.06796 5.33006 0
M  V30 8512 H 801.161 -0.131469 2.93606 0
M  V30 8513 H 798.675 0.0280165 1.62376 0
M  V30 8514 H 800.672 -2.57169 3.28131 0
M  V30 8515 H 799.332 -2.46864 2.10923 0
M  V30 8516 H 800.343 -0.386757 5.16454 0
M  V30 8517 H 797.02 -2.32887 3.46511 0
M  V30 8518 H 798.41 0.0688847 6.71865 0
M  V30 8519 N 801.13 -1.57531 -0.0467866 0
M  V30 8520 C 802.407 -1.79568 -0.775536 0
M  V30 8521 C 802.787 -0.820322 -1.94509 0
M  V30 8522 O 802.135 0.14134 -2.28062 0
M  V30 8523 C 802.345 -3.26789 -1.22516 0
M  V30 8524 C 803.693 -3.91299 -1.64835 0
M  V30 8525 O 804.717 -3.30831 -1.3202 0
M  V30 8526 O 803.576 -4.97727 -2.25677 0
M  V30 8527 H 800.67 -0.737817 -0.373572 0
M  V30 8528 H 803.216 -1.69682 -0.0249302 0
M  V30 8529 H 801.988 -3.89357 -0.389446 0
M  V30 8530 H 801.611 -3.41496 -2.03633 0
M  V30 8531 N 802.608 0.318715 -1.54344 0
M  V30 8532 C 803.555 1.39242 -1.84066 0
M  V30 8533 C 804.525 1.51175 -0.688134 0
M  V30 8534 O 805.71 1.66318 -0.935039 0
M  V30 8535 C 802.85 2.75528 -2.07794 0
M  V30 8536 C 801.963 2.72187 -3.35467 0
M  V30 8537 C 801.098 4.00352 -3.4913 0
M  V30 8538 C 800.137 3.91338 -4.7066 0
M  V30 8539 N 799.274 5.11242 -4.81224 0
M  V30 8540 H 804.114 1.13196 -2.75664 0
M  V30 8541 H 801.651 0.547857 -1.36517 0
M  V30 8542 H 803.609 3.54763 -2.19543 0
M  V30 8543 H 802.239 2.99873 -1.19482 0
M  V30 8544 H 801.291 1.84917 -3.3243 0
M  V30 8545 H 802.603 2.61411 -4.24812 0
M  V30 8546 H 801.757 4.88019 -3.60448 0
M  V30 8547 H 800.496 4.1394 -2.57886 0
M  V30 8548 H 799.501 3.02055 -4.59394 0
M  V30 8549 H 800.726 3.7931 -5.63294 0
M  V30 8550 H 798.672 5.25327 -3.92897 0
M  V30 8551 H 798.589 5.0282 -5.64543 0
M  V30 8552 H 799.857 6.0061 -4.96879 0
M  V30 8553 N 804.086 1.46499 0.581025 0
M  V30 8554 C 805.326 1.53456 1.35021 0
M  V30 8555 C 805.69 0.182542 1.9113 0
M  V30 8556 O 806.891 0.126874 2.685 0
M  V30 8557 C 805.162 2.60387 2.44812 0
M  V30 8558 S 806.721 2.86762 3.32134 0
M  V30 8559 H 803.539 0.54216 0.459982 0
M  V30 8560 H 806.141 1.83742 0.667754 0
M  V30 8561 H 804.845 3.57253 2.01986 0
M  V30 8562 H 804.376 2.31839 3.17828 0
M  V30 8563 H 806.391 2.2216 4.43688 0
M  V30 8564 N 805.565 -0.825799 1.34232 0
M  V30 8565 C 806.811 -1.58419 1.26614 0
M  V30 8566 C 807.144 -1.93503 -0.164341 0
M  V30 8567 O 806.419 -1.59785 -1.109 0
M  V30 8568 C 806.702 -2.8856 2.15418 0
M  V30 8569 C 806.555 -2.60075 3.66989 0
M  V30 8570 C 807.874 -3.90107 2.03726 0
M  V30 8571 H 804.993 -0.574794 0.461282 0
M  V30 8572 H 807.635 -0.951519 1.64457 0
M  V30 8573 H 805.785 -3.42553 1.83275 0
M  V30 8574 H 807.457 -2.12414 4.09485 0
M  V30 8575 H 805.7 -1.93565 3.88221 0
M  V30 8576 H 806.371 -3.52866 4.24488 0
M  V30 8577 H 808.847 -3.45459 2.31942 0
M  V30 8578 H 807.723 -4.78976 2.68092 0
M  V30 8579 H 807.984 -4.30329 1.01337 0
M  V30 8580 N 807.043 -1.17915 -1.04565 0
M  V30 8581 C 808.459 -0.927761 -1.29864 0
M  V30 8582 C 808.659 0.409536 -1.97294 0
M  V30 8583 O 807.715 1.14505 -2.25044 0
M  V30 8584 C 809.028 -2.08967 -2.16225 0
M  V30 8585 C 810.576 -2.12741 -2.29587 0
M  V30 8586 C 811.051 -3.28335 -3.19312 0
M  V30 8587 N 812.542 -3.28164 -3.26898 0
M  V30 8588 C 813.277 -4.14249 -3.96466 0
M  V30 8589 N 812.773 -5.10457 -4.68407 0
M  V30 8590 N 814.566 -4.02179 -3.92694 0
M  V30 8591 H 806.717 -2.03983 -0.592011 0
M  V30 8592 H 808.98 -0.891023 -0.323701 0
M  V30 8593 H 808.686 -3.05654 -1.73979 0
M  V30 8594 H 808.56 -2.04606 -3.16885 0
M  V30 8595 H 810.947 -1.16636 -2.71072 0
M  V30 8596 H 811.028 -2.21162 -1.28535 0
M  V30 8597 H 810.672 -4.2471 -2.78539 0
M  V30 8598 H 810.602 -3.17151 -4.20384 0
M  V30 8599 H 813.093 -2.58511 -2.75646 0
M  V30 8600 H 813.406 -5.72526 -5.1907 0
M  V30 8601 H 811.751 -5.14422 -4.67328 0
M  V30 8602 H 814.942 -3.26308 -3.3562 0
M  V30 8603 H 815.115 -4.69486 -4.4664 0
M  V30 8604 N 808.521 1.23394 -0.980386 0
M  V30 8605 C 809.746 1.96384 -0.666935 0
M  V30 8606 C 810.171 1.72087 0.759456 0
M  V30 8607 O 809.529 0.992328 1.51732 0
M  V30 8608 C 809.577 3.47499 -0.963177 0
M  V30 8609 O 808.681 4.12363 -0.0552051 0
M  V30 8610 H 808.022 0.614797 -0.250839 0
M  V30 8611 H 810.552 1.56831 -1.31398 0
M  V30 8612 H 810.562 3.97953 -0.899877 0
M  V30 8613 H 809.237 3.6451 -2.00264 0
M  V30 8614 H 807.814 3.72499 -0.172914 0
M  V30 8615 N 809.999 0.752036 1.385 0
M  V30 8616 C 810.909 0.125318 2.34265 0
M  V30 8617 C 811.925 -0.702437 1.59191 0
M  V30 8618 O 813.101 -0.626951 1.91393 0
M  V30 8619 C 810.166 -0.758486 3.38301 0
M  V30 8620 C 809.227 0.0834636 4.29219 0
M  V30 8621 C 808.46 -0.758252 5.28286 0
M  V30 8622 O 808.683 -1.99632 5.34325 0
M  V30 8623 O 807.617 -0.177878 6.01637 0
M  V30 8624 H 811.443 0.91617 2.89551 0
M  V30 8625 H 809.028 0.512911 1.4032 0
M  V30 8626 H 810.91 -1.26365 4.02007 0
M  V30 8627 H 809.585 -1.52786 2.85374 0
M  V30 8628 H 808.492 0.634545 3.68679 0
M  V30 8629 H 809.825 0.815455 4.85398 0
M  V30 8630 N 811.477 -1.49425 0.500989 0
M  V30 8631 C 812.387 -2.32899 -0.282011 0
M  V30 8632 C 813.403 -1.44632 -0.967346 0
M  V30 8633 O 814.579 -1.77654 -0.94873 0
M  V30 8634 C 811.644 -3.20069 -1.33253 0
M  V30 8635 C 810.705 -4.24186 -0.660636 0
M  V30 8636 C 809.938 -5.07191 -1.6611 0
M  V30 8637 O 810.161 -4.91712 -2.89094 0
M  V30 8638 O 809.095 -5.8948 -1.21643 0
M  V30 8639 H 812.921 -3.01038 0.401224 0
M  V30 8640 H 810.506 -1.47079 0.262323 0
M  V30 8641 H 812.388 -3.74071 -1.94033 0
M  V30 8642 H 811.063 -2.54625 -1.9987 0
M  V30 8643 H 809.97 -3.74098 -0.0130959 0
M  V30 8644 H 811.303 -4.92186 -0.0369179 0
M  V30 8645 N 812.955 -0.234822 -1.55841 0
M  V30 8646 C 814.195 0.394944 -2.00548 0
M  V30 8647 C 814.559 1.56002 -1.11926 0
M  V30 8648 O 815.76 2.2567 -1.46037 0
M  V30 8649 C 814.031 0.805896 -3.48195 0
M  V30 8650 S 815.59 1.4279 -4.14918 0
M  V30 8651 H 812.408 0.124802 -0.699961 0
M  V30 8652 H 815.01 -0.347224 -1.92392 0
M  V30 8653 H 813.714 -0.0515271 -4.10368 0
M  V30 8654 H 813.245 1.58055 -3.60253 0
M  V30 8655 H 815.26 2.71699 -4.15204 0
M  V30 8656 N 814.433 1.57553 0.0384317 0
M  V30 8657 C 815.363 2.0898 1.04161 0
M  V30 8658 C 816.344 0.99029 1.38301 0
M  V30 8659 O 817.529 1.26499 1.47349 0
M  V30 8660 C 814.659 2.56145 2.34536 0
M  V30 8661 C 813.613 3.70275 2.14663 0
M  V30 8662 C 812.939 4.03612 3.50715 0
M  V30 8663 C 814.239 4.99067 1.54045 0
M  V30 8664 H 815.933 2.93046 0.613548 0
M  V30 8665 H 813.479 1.40973 0.293684 0
M  V30 8666 H 815.432 2.90741 3.05037 0
M  V30 8667 H 814.156 1.6915 2.79385 0
M  V30 8668 H 812.815 3.36013 1.46597 0
M  V30 8669 H 812.463 3.13698 3.93195 0
M  V30 8670 H 812.163 4.80482 3.38247 0
M  V30 8671 H 813.687 4.40735 4.22593 0
M  V30 8672 H 815.101 5.3168 2.14451 0
M  V30 8673 H 813.498 5.80484 1.52178 0
M  V30 8674 H 814.568 4.8226 0.505259 0
M  V30 8675 N 815.911 -0.310526 1.54511 0
M  V30 8676 C 817.136 -1.07046 1.7764 0
M  V30 8677 C 817.561 -1.80488 0.529696 0
M  V30 8678 O 816.919 -1.73702 -0.519361 0
M  V30 8679 C 816.967 -2.03411 2.97752 0
M  V30 8680 O 816.071 -3.11545 2.7021 0
M  V30 8681 H 815.412 -0.307994 0.588248 0
M  V30 8682 H 817.942 -0.350848 2.01569 0
M  V30 8683 H 817.952 -2.46048 3.2546 0
M  V30 8684 H 816.627 -1.49361 3.88155 0
M  V30 8685 H 815.204 -2.7349 2.53491 0
M  V30 8686 N 817.389 -1.46805 -0.573248 0
M  V30 8687 C 818.637 -1.52302 -1.32847 0
M  V30 8688 C 818.958 -0.180159 -1.94166 0
M  V30 8689 O 818.228 0.794291 -1.79075 0
M  V30 8690 H 816.808 -0.56097 -0.493276 0
M  V30 8691 H 819.47 -1.82998 -0.670642 0
M  V30 8692 H 818.566 -2.28089 -2.13031 0
M  V30 8693 N 818.867 0.818669 -1.34668 0
M  V30 8694 C 820.095 1.60674 -1.30351 0
M  V30 8695 C 820.51 1.88408 0.121546 0
M  V30 8696 O 819.867 1.47849 1.06991 0
M  V30 8697 C 819.918 2.94516 -2.09625 0
M  V30 8698 O 819.639 2.6799 -3.46573 0
M  V30 8699 C 821.14 3.8891 -2.12754 0
M  V30 8700 H 818.36 0.499306 -0.448258 0
M  V30 8701 H 820.904 1.01828 -1.77345 0
M  V30 8702 H 819.059 3.49908 -1.66262 0
M  V30 8703 H 819.473 3.53361 -3.87603 0
M  V30 8704 H 820.947 4.79972 -2.72637 0
M  V30 8705 H 821.424 4.24599 -1.12306 0
M  V30 8706 H 822.03 3.39453 -2.56225 0
M  V30 8707 N 820.346 1.18468 1.03938 0
M  V30 8708 C 821.592 0.992302 1.77553 0
M  V30 8709 C 821.947 -0.472959 1.86496 0
M  V30 8710 O 821.24 -1.34662 1.36296 0
M  V30 8711 C 821.434 1.58229 3.20466 0
M  V30 8712 C 821.263 3.1034 3.25452 0
M  V30 8713 C 820.033 3.79166 3.34008 0
M  V30 8714 C 822.231 4.07814 3.13357 0
M  V30 8715 N 820.213 5.18768 3.28258 0
M  V30 8716 C 821.584 5.33946 3.15121 0
M  V30 8717 C 823.639 3.99315 2.97409 0
M  V30 8718 C 822.342 6.52565 3.02574 0
M  V30 8719 C 824.368 5.17532 2.86208 0
M  V30 8720 C 823.73 6.42557 2.88617 0
M  V30 8721 H 819.829 0.417131 0.661457 0
M  V30 8722 H 822.413 1.50265 1.23808 0
M  V30 8723 H 820.584 1.0981 3.72554 0
M  V30 8724 H 822.316 1.32531 3.82384 0
M  V30 8725 H 819.071 3.29905 3.39794 0
M  V30 8726 H 819.495 5.91783 3.28818 0
M  V30 8727 H 824.137 3.03485 2.94375 0
M  V30 8728 H 821.855 7.48592 3.0436 0
M  V30 8729 H 825.441 5.12748 2.7492 0
M  V30 8730 H 824.321 7.32494 2.80039 0
M  V30 8731 N 821.824 -1.22873 0.986916 0
M  V30 8732 C 823.052 -1.95487 0.677663 0
M  V30 8733 C 823.467 -1.72978 -0.756572 0
M  V30 8734 O 822.824 -1.02517 -1.50985 0
M  V30 8735 C 822.875 -3.48337 0.966638 0
M  V30 8736 O 822.596 -3.70087 2.34451 0
M  V30 8737 C 824.097 -4.38142 0.674248 0
M  V30 8738 H 821.317 -0.622211 0.251185 0
M  V30 8739 H 823.861 -1.56187 1.32007 0
M  V30 8740 H 822.016 -3.85628 0.370137 0
M  V30 8741 H 822.43 -4.64332 2.43918 0
M  V30 8742 H 823.904 -5.44165 0.926759 0
M  V30 8743 H 824.381 -4.3745 -0.391728 0
M  V30 8744 H 824.987 -4.06469 1.25152 0
M  V30 8745 N 823.302 -0.75937 -1.38099 0
M  V30 8746 C 824.234 -0.0956547 -2.29 0
M  V30 8747 C 825.247 0.677561 -1.4803 0
M  V30 8748 O 826.436 0.517696 -1.70828 0
M  V30 8749 C 823.536 0.88844 -3.27047 0
M  V30 8750 C 822.709 0.171652 -4.37063 0
M  V30 8751 C 821.768 1.06733 -5.15262 0
M  V30 8752 O 820.794 0.535698 -5.66674 0
M  V30 8753 N 821.996 2.39486 -5.28797 0
M  V30 8754 H 824.761 -0.876354 -2.86601 0
M  V30 8755 H 822.322 -0.61065 -1.49942 0
M  V30 8756 H 824.314 1.49079 -3.76241 0
M  V30 8757 H 822.884 1.57018 -2.70304 0
M  V30 8758 H 822.104 -0.611473 -3.89429 0
M  V30 8759 H 823.392 -0.324121 -5.07767 0
M  V30 8760 H 822.79 2.85127 -4.88589 0
M  V30 8761 H 821.347 2.94758 -5.81344 0
M  V30 8762 N 824.78 1.49157 -0.508906 0
M  V30 8763 C 825.712 2.272 0.302115 0
M  V30 8764 C 826.725 1.3407 0.923529 0
M  V30 8765 O 827.914 1.5929 0.805532 0
M  V30 8766 C 825.014 3.06736 1.44105 0
M  V30 8767 C 824.187 4.27497 0.925477 0
M  V30 8768 C 823.246 4.89014 1.94297 0
M  V30 8769 O 822.272 5.48851 1.50834 0
M  V30 8770 N 823.474 4.7937 3.2739 0
M  V30 8771 H 826.239 2.97443 -0.367115 0
M  V30 8772 H 823.8 1.58248 -0.341933 0
M  V30 8773 H 825.792 3.44763 2.11944 0
M  V30 8774 H 824.362 2.3905 2.0143 0
M  V30 8775 H 823.582 3.94135 0.0717301 0
M  V30 8776 H 824.87 5.05714 0.55955 0
M  V30 8777 H 824.268 4.31869 3.65384 0
M  V30 8778 H 822.825 5.21559 3.90922 0
M  V30 8779 N 826.258 0.243083 1.55714 0
M  V30 8780 C 827.507 -0.383188 1.98027 0
M  V30 8781 C 827.82 -1.59347 1.13436 0
M  V30 8782 O 829.026 -2.29065 1.45745 0
M  V30 8783 C 827.482 -0.733135 3.52354 0
M  V30 8784 C 827.09 0.455539 4.45678 0
M  V30 8785 C 828.834 -1.32381 4.03331 0
M  V30 8786 C 826.741 0.0819591 5.91343 0
M  V30 8787 H 825.671 -0.146944 0.739543 0
M  V30 8788 H 828.322 0.342697 1.80272 0
M  V30 8789 H 826.704 -1.51704 3.65789 0
M  V30 8790 H 827.878 1.23291 4.44 0
M  V30 8791 H 826.193 0.960886 4.05162 0
M  V30 8792 H 828.79 -1.61658 5.09677 0
M  V30 8793 H 829.133 -2.24698 3.50452 0
M  V30 8794 H 829.666 -0.602885 3.93205 0
M  V30 8795 H 826.405 0.972171 6.48251 0
M  V30 8796 H 825.925 -0.659291 5.96166 0
M  V30 8797 H 827.604 -0.3372 6.46121 0
M  V30 8798 N 827.736 -1.57571 -0.0300757 0
M  V30 8799 C 828.976 -1.91074 -0.725946 0
M  V30 8800 C 829.34 -0.841545 -1.72575 0
M  V30 8801 O 830.541 -1.06088 -2.46979 0
M  V30 8802 C 828.812 -3.2973 -1.37888 0
M  V30 8803 S 830.371 -3.85065 -2.10405 0
M  V30 8804 H 827.189 -0.669084 -0.240515 0
M  V30 8805 H 829.791 -1.9549 0.019384 0
M  V30 8806 H 828.495 -4.05411 -0.637974 0
M  V30 8807 H 828.026 -3.28614 -2.16278 0
M  V30 8808 H 830.041 -3.63711 -3.37533 0
M  V30 8809 N 829.214 0.302327 -1.54673 0
M  V30 8810 C 830.144 1.37759 -1.88533 0
M  V30 8811 C 831.125 1.52961 -0.744113 0
M  V30 8812 O 832.31 1.6649 -0.999731 0
M  V30 8813 C 829.44 2.74201 -2.13146 0
M  V30 8814 C 828.394 2.73765 -3.28993 0
M  V30 8815 C 827.72 4.13483 -3.39022 0
M  V30 8816 C 829.02 2.35624 -4.66132 0
M  V30 8817 H 830.714 1.0967 -2.78591 0
M  V30 8818 H 828.26 0.52613 -1.34044 0
M  V30 8819 H 830.213 3.49508 -2.35419 0
M  V30 8820 H 828.937 3.03812 -1.19858 0
M  V30 8821 H 827.596 2.00914 -3.06642 0
M  V30 8822 H 827.244 4.40269 -2.43253 0
M  V30 8823 H 826.944 4.14093 -4.16894 0
M  V30 8824 H 828.468 4.90572 -3.63553 0
M  V30 8825 H 829.882 3.00647 -4.88143 0
M  V30 8826 H 828.279 2.47449 -5.46707 0
M  V30 8827 H 829.349 1.30753 -4.66939 0
M  V30 8828 N 830.692 1.47107 0.565454 0
M  V30 8829 C 832.103 1.47266 1.1476 0
M  V30 8830 C 832.454 0.222841 1.9493 0
M  V30 8831 O 831.579 -0.672862 2.05673 0
M  V30 8832 C 832.174 2.66822 2.08785 0
M  V30 8833 C 830.733 2.69967 2.62288 0
M  V30 8834 C 829.88 2.40236 1.38499 0
M  V30 8835 H 832.831 1.54736 0.352479 0
M  V30 8836 H 832.852 2.43323 2.92531 0
M  V30 8837 H 832.364 3.5777 1.50408 0
M  V30 8838 H 830.465 1.83137 3.24487 0
M  V30 8839 H 830.578 3.70426 3.03845 0
M  V30 8840 H 828.942 1.90648 1.68895 0
M  V30 8841 H 829.725 3.33381 0.819274 0
M  V30 8842 N 832.17 -0.811516 1.35101 0
M  V30 8843 C 833.133 -1.90467 1.27495 0
M  V30 8844 C 834.133 -1.59703 0.187516 0
M  V30 8845 O 835.323 -1.68528 0.440896 0
M  V30 8846 C 832.455 -3.26774 0.971154 0
M  V30 8847 H 833.648 -1.98631 2.2469 0
M  V30 8848 H 831.201 -1.00681 1.19553 0
M  V30 8849 H 831.936 -3.243 0.0028557 0
M  V30 8850 H 831.721 -3.50488 1.75785 0
M  V30 8851 H 833.211 -4.06804 0.943414 0
M  V30 8852 N 833.648 -1.19017 -1.03309 0
M  V30 8853 C 834.897 -0.984542 -1.76039 0
M  V30 8854 C 835.21 0.485937 -1.89468 0
M  V30 8855 O 836.416 0.810278 -2.59127 0
M  V30 8856 C 834.872 -1.71261 -3.1654 0
M  V30 8857 C 834.48 -3.22291 -3.11179 0
M  V30 8858 C 836.224 -1.59007 -3.93595 0
M  V30 8859 C 834.131 -3.87704 -4.46587 0
M  V30 8860 H 833.061 -0.364749 -0.659905 0
M  V30 8861 H 835.712 -1.4247 -1.15649 0
M  V30 8862 H 834.094 -1.20025 -3.77373 0
M  V30 8863 H 835.268 -3.80611 -2.59753 0
M  V30 8864 H 833.583 -3.34772 -2.47622 0
M  V30 8865 H 836.18 -2.05232 -4.93745 0
M  V30 8866 H 836.523 -0.543534 -4.12736 0
M  V30 8867 H 837.056 -2.07564 -3.39355 0
M  V30 8868 H 833.795 -4.92437 -4.3265 0
M  V30 8869 H 833.315 -3.34172 -4.98085 0
M  V30 8870 H 834.994 -3.91008 -5.15482 0
M  V30 8871 N 835.127 1.22348 -0.993418 0
M  V30 8872 C 836.357 1.94842 -0.687023 0
M  V30 8873 C 836.765 1.73594 0.752445 0
M  V30 8874 O 836.108 1.03238 1.51946 0
M  V30 8875 C 836.17 3.47694 -0.913754 0
M  V30 8876 C 835.834 3.92678 -2.33781 0
M  V30 8877 C 836.831 4.0031 -3.31734 0
M  V30 8878 C 834.516 4.25311 -2.67237 0
M  V30 8879 C 836.51 4.39951 -4.61218 0
M  V30 8880 C 834.197 4.64631 -3.9694 0
M  V30 8881 C 835.195 4.71919 -4.93742 0
M  V30 8882 O 834.883 5.10349 -6.21127 0
M  V30 8883 H 834.615 0.626771 -0.253247 0
M  V30 8884 H 837.169 1.56436 -1.33105 0
M  V30 8885 H 835.399 3.86115 -0.212552 0
M  V30 8886 H 837.088 4.01403 -0.602528 0
M  V30 8887 H 837.854 3.75288 -3.07219 0
M  V30 8888 H 833.733 4.18842 -1.92594 0
M  V30 8889 H 837.277 4.45555 -5.36774 0
M  V30 8890 H 833.174 4.89104 -4.21245 0
M  V30 8891 H 833.942 5.2842 -6.25072 0
M  V30 8892 N 836.605 0.766683 1.37694 0
M  V30 8893 C 837.552 0.147725 2.30327 0
M  V30 8894 C 838.522 -0.695366 1.50844 0
M  V30 8895 O 839.707 -0.64878 1.79431 0
M  V30 8896 C 836.847 -0.72935 3.37305 0
M  V30 8897 C 835.96 0.129795 4.31805 0
M  V30 8898 C 835.095 -0.751511 5.25857 0
M  V30 8899 C 834.134 0.110475 6.12 0
M  V30 8900 N 833.271 -0.728522 6.9831 0
M  V30 8901 H 838.111 0.943204 2.82679 0
M  V30 8902 H 835.648 0.476736 1.3916 0
M  V30 8903 H 837.606 -1.25263 3.97951 0
M  V30 8904 H 836.236 -1.49048 2.86329 0
M  V30 8905 H 835.288 0.770829 3.72508 0
M  V30 8906 H 836.6 0.794923 4.92425 0
M  V30 8907 H 835.754 -1.34146 5.91684 0
M  V30 8908 H 834.493 -1.45034 4.65636 0
M  V30 8909 H 833.498 0.712999 5.45157 0
M  V30 8910 H 834.723 0.806557 6.74293 0
M  V30 8911 H 832.669 -1.41206 6.40622 0
M  V30 8912 H 832.586 -0.12058 7.55904 0
M  V30 8913 H 833.854 -1.30303 7.68532 0
M  V30 8914 N 838.083 -1.48885 0.516809 0
M  V30 8915 C 839.329 -2.02788 -0.0220928 0
M  V30 8916 C 839.662 -1.39433 -1.35175 0
M  V30 8917 O 838.937 -0.535459 -1.86984 0
M  V30 8918 C 839.22 -3.59753 -0.158012 0
M  V30 8919 C 839.073 -4.33611 1.19588 0
M  V30 8920 C 840.392 -4.30984 -0.891133 0
M  V30 8921 H 837.511 -0.736971 -0.00655488 0
M  V30 8922 H 840.153 -1.77746 0.671287 0
M  V30 8923 H 838.303 -3.8122 -0.748568 0
M  V30 8924 H 839.975 -4.23598 1.82653 0
M  V30 8925 H 838.218 -3.95547 1.78116 0
M  V30 8926 H 838.889 -5.41846 1.05391 0
M  V30 8927 H 841.365 -4.14267 -0.39012 0
M  V30 8928 H 840.241 -5.40527 -0.955107 0
M  V30 8929 H 840.502 -3.97336 -1.93847 0
M  V30 8930 N 839.561 -0.251338 -1.55583 0
M  V30 8931 C 840.808 0.372169 -1.99051 0
M  V30 8932 C 841.136 1.57623 -1.13953 0
M  V30 8933 O 840.391 1.94762 -0.191398 0
M  V30 8934 C 840.69 0.821186 -3.47838 0
M  V30 8935 C 840.356 -0.275608 -4.50057 0
M  V30 8936 C 839.018 -0.57683 -4.7773 0
M  V30 8937 C 841.37 -1.01585 -5.11204 0
M  V30 8938 C 838.698 -1.62229 -5.63825 0
M  V30 8939 C 841.05 -2.05087 -5.98433 0
M  V30 8940 C 839.714 -2.35869 -6.24437 0
M  V30 8941 H 838.984 0.136186 -0.728378 0
M  V30 8942 H 841.631 -0.360089 -1.88084 0
M  V30 8943 H 839.936 1.63272 -3.56159 0
M  V30 8944 H 841.633 1.31396 -3.78861 0
M  V30 8945 H 838.223 -0.030697 -4.28589 0
M  V30 8946 H 842.407 -0.79639 -4.89869 0
M  V30 8947 H 837.663 -1.86607 -5.82226 0
M  V30 8948 H 841.837 -2.62934 -6.44855 0
M  V30 8949 H 839.464 -3.17017 -6.90944 0
M  V30 8950 N 841.039 1.57585 0.0217189 0
M  V30 8951 C 842.45 1.7787 0.567377 0
M  V30 8952 C 842.801 0.883337 1.7519 0
M  V30 8953 O 841.926 0.0800819 2.16252 0
M  V30 8954 C 842.521 3.2257 1.03606 0
M  V30 8955 C 841.08 3.44026 1.52718 0
M  V30 8956 C 840.227 2.73313 0.468545 0
M  V30 8957 H 843.178 1.57377 -0.2045 0
M  V30 8958 H 843.199 3.29488 1.9031 0
M  V30 8959 H 842.711 3.87711 0.173739 0
M  V30 8960 H 840.812 2.8407 2.41111 0
M  V30 8961 H 840.925 4.52659 1.56962 0
M  V30 8962 H 839.289 2.37299 0.925263 0
M  V30 8963 H 840.072 3.41141 -0.384438 0
M  V30 8964 N 842.517 -0.29412 1.54831 0
M  V30 8965 C 843.465 -1.38296 1.87021 0
M  V30 8966 C 844.459 -1.5216 0.744557 0
M  V30 8967 O 845.665 -1.54196 0.92864 0
M  V30 8968 H 842.04 -0.462088 0.593278 0
M  V30 8969 H 844.011 -1.08386 2.7802 0
M  V30 8970 C 842.76 -2.74024 2.14023 0
M  V30 8971 H 842.083 -2.6414 3.00117 0
M  V30 8972 H 843.523 -3.49205 2.40482 0
M  V30 8973 C 841.982 -3.23492 0.940982 0
M  V30 8974 O 842.512 -4.01361 0.164937 0
M  V30 8975 N 840.718 -2.80902 0.744467 0
M  V30 8976 H 840.265 -2.17694 1.37721 0
M  V30 8977 H 840.223 -3.14349 -0.0563652 0
M  V30 8978 N 843.995 -1.47404 -0.557645 0
M  V30 8979 C 845.22 -1.57868 -1.34508 0
M  V30 8980 C 845.645 -0.229151 -1.86699 0
M  V30 8981 O 845.003 0.794908 -1.62944 0
M  V30 8982 C 845.051 -2.60712 -2.49122 0
M  V30 8983 O 844.155 -2.15952 -3.51338 0
M  V30 8984 H 843.496 -0.530335 -0.399551 0
M  V30 8985 H 846.026 -1.93181 -0.673954 0
M  V30 8986 H 846.036 -2.81118 -2.95697 0
M  V30 8987 H 844.711 -3.58701 -2.10491 0
M  V30 8988 H 843.288 -2.05644 -3.11071 0
M  V30 8989 N 845.473 0.80434 -1.35529 0
M  V30 8990 C 846.436 1.89788 -1.28503 0
M  V30 8991 C 847.436 1.59601 -0.195983 0
M  V30 8992 O 848.626 1.68292 -0.449827 0
M  V30 8993 C 845.758 3.26255 -0.98847 0
M  V30 8994 H 846.951 1.97436 -2.25741 0
M  V30 8995 H 844.504 1.00046 -1.20086 0
M  V30 8996 H 845.239 3.24294 -0.0200541 0
M  V30 8997 H 845.024 3.49551 -1.77641 0
M  V30 8998 H 846.514 4.06298 -0.964975 0
M  V30 8999 N 846.951 1.19563 1.02676 0
M  V30 9000 C 848.362 1.00158 1.57561 0
M  V30 9001 C 848.713 -0.444922 1.91089 0
M  V30 9002 O 847.838 -1.32466 1.71119 0
M  V30 9003 C 848.433 1.81181 2.86284 0
M  V30 9004 C 846.992 1.66171 3.37734 0
M  V30 9005 C 846.139 1.7975 2.11152 0
M  V30 9006 H 849.09 1.33904 0.85179 0
M  V30 9007 H 849.111 1.30916 3.57269 0
M  V30 9008 H 848.623 2.86454 2.6185 0
M  V30 9009 H 846.724 0.634927 3.6715 0
M  V30 9010 H 846.837 2.46832 4.10622 0
M  V30 9011 H 845.201 1.22833 2.23123 0
M  V30 9012 H 845.984 2.86487 1.89157 0
M  V30 9013 N 848.429 -1.21819 0.999893 0
M  V30 9014 C 849.359 -2.26282 0.576096 0
M  V30 9015 C 850.34 -1.65317 -0.400537 0
M  V30 9016 O 851.525 -1.92028 -0.28964 0
M  V30 9017 C 848.655 -3.47147 -0.103145 0
M  V30 9018 C 847.609 -4.20594 0.792745 0
M  V30 9019 C 846.935 -5.34696 -0.0198026 0
M  V30 9020 C 848.235 -4.78533 2.09293 0
M  V30 9021 H 849.929 -2.61984 1.4493 0
M  V30 9022 H 847.475 -1.25935 0.698316 0
M  V30 9023 H 849.428 -4.1939 -0.411068 0
M  V30 9024 H 848.152 -3.1056 -1.01094 0
M  V30 9025 H 846.811 -3.50194 1.08442 0
M  V30 9026 H 846.459 -4.94352 -0.928729 0
M  V30 9027 H 846.159 -5.84764 0.576661 0
M  V30 9028 H 847.683 -6.09752 -0.321659 0
M  V30 9029 H 849.097 -5.42682 1.8485 0
M  V30 9030 H 847.494 -5.38968 2.63881 0
M  V30 9031 H 848.564 -3.98197 2.76708 0
M  V30 9032 N 849.908 -0.773975 -1.37286 0
M  V30 9033 C 850.818 -0.162571 -2.34036 0
M  V30 9034 C 851.834 0.677022 -1.60289 0
M  V30 9035 O 853.01 0.596423 -1.92366 0
M  V30 9036 C 850.075 0.70457 -3.39465 0
M  V30 9037 C 849.136 -0.151738 -4.29032 0
M  V30 9038 C 848.369 0.674111 -5.29426 0
M  V30 9039 O 848.592 1.91107 -5.37433 0
M  V30 9040 O 847.526 0.0821398 -6.01844 0
M  V30 9041 H 851.352 -0.962119 -2.88057 0
M  V30 9042 H 848.937 -0.53517 -1.39486 0
M  V30 9043 H 850.819 1.19954 -4.03967 0
M  V30 9044 H 849.494 1.48227 -2.87768 0
M  V30 9045 H 848.401 -0.693118 -3.67623 0
M  V30 9046 H 849.734 -0.892575 -4.84039 0
M  V30 9047 N 851.386 1.48609 -0.524698 0
M  V30 9048 C 852.634 2.02097 0.0112991 0
M  V30 9049 C 852.955 1.40455 1.35268 0
M  V30 9050 O 852.225 0.56807 1.87483 0
M  V30 9051 H 850.805 0.746966 0.00716426 0
M  V30 9052 H 853.467 1.82378 -0.687329 0
M  V30 9053 H 852.563 3.11855 0.123531 0
M  V30 9054 N 852.864 0.259585 1.55447 0
M  V30 9055 C 854.112 -0.360893 1.98852 0
M  V30 9056 C 854.433 -1.57535 1.14924 0
M  V30 9057 O 853.703 -1.94485 0.235025 0
M  V30 9058 H 852.283 -0.136332 0.734454 0
M  V30 9059 H 854.945 0.361319 1.91522 0
M  V30 9060 H 854.041 -0.661388 3.05012 0
M  V30 9061 N 854.342 -1.57594 -0.0133615 0
M  V30 9062 C 855.57 -1.94251 -0.712328 0
M  V30 9063 C 855.985 -0.86063 -1.68043 0
M  V30 9064 O 855.342 0.161632 -1.81783 0
M  V30 9065 C 855.393 -3.30891 -1.45581 0
M  V30 9066 O 855.114 -4.34924 -0.526539 0
M  V30 9067 C 856.615 -3.81926 -2.2505 0
M  V30 9068 H 853.835 -0.640737 -0.199241 0
M  V30 9069 H 856.379 -2.04472 0.0337855 0
M  V30 9070 H 854.534 -3.22019 -2.15366 0
M  V30 9071 H 854.948 -5.1389 -1.04962 0
M  V30 9072 H 856.422 -4.79999 -2.72589 0
M  V30 9073 H 856.899 -3.13934 -3.07152 0
M  V30 9074 H 857.505 -3.93931 -1.60308 0
M  V30 9075 N 855.82 0.285905 -1.54985 0
M  V30 9076 C 857.236 0.632405 -1.46536 0
M  V30 9077 C 857.436 1.90074 -0.668888 0
M  V30 9078 O 856.492 2.51839 -0.182586 0
M  V30 9079 C 857.805 0.771361 -2.90638 0
M  V30 9080 C 859.353 0.866262 -3.00774 0
M  V30 9081 C 859.828 1.0371 -4.46103 0
M  V30 9082 N 861.319 1.10294 -4.49877 0
M  V30 9083 C 862.054 1.25369 -5.59527 0
M  V30 9084 N 861.55 1.37246 -6.7907 0
M  V30 9085 N 863.343 1.28377 -5.47244 0
M  V30 9086 H 855.494 -0.547226 -2.0523 0
M  V30 9087 H 857.757 -0.183298 -0.930111 0
M  V30 9088 H 857.463 -0.0899485 -3.51585 0
M  V30 9089 H 857.337 1.65569 -3.3892 0
M  V30 9090 H 859.724 1.71805 -2.39931 0
M  V30 9091 H 859.805 -0.0424049 -2.55765 0
M  V30 9092 H 859.449 0.190021 -5.07544 0
M  V30 9093 H 859.379 1.96022 -4.88757 0
M  V30 9094 H 861.87 1.02407 -3.6376 0
M  V30 9095 H 862.183 1.48546 -7.58389 0
M  V30 9096 H 860.528 1.34274 -6.81906 0
M  V30 9097 H 863.719 1.1872 -4.52795 0
M  V30 9098 H 863.892 1.39782 -6.32744 0
M  V30 9099 N 857.298 1.47698 0.54982 0
M  V30 9100 C 858.228 1.63622 1.66583 0
M  V30 9101 C 859.209 0.485477 1.63025 0
M  V30 9102 O 860.394 0.715692 1.80531 0
M  V30 9103 C 857.524 1.65721 3.05211 0
M  V30 9104 C 856.478 2.80097 3.2362 0
M  V30 9105 C 855.804 2.67272 4.63109 0
M  V30 9106 C 857.104 4.21612 3.08286 0
M  V30 9107 H 858.798 2.57049 1.53512 0
M  V30 9108 H 856.344 1.23705 0.737099 0
M  V30 9109 H 858.297 1.75451 3.83138 0
M  V30 9110 H 857.021 0.688593 3.19258 0
M  V30 9111 H 855.68 2.69889 2.48104 0
M  V30 9112 H 855.328 1.68422 4.73965 0
M  V30 9113 H 855.028 3.44008 4.76374 0
M  V30 9114 H 856.552 2.78942 5.43161 0
M  V30 9115 H 857.966 4.32758 3.76024 0
M  V30 9116 H 856.363 4.99193 3.33057 0
M  V30 9117 H 857.433 4.39462 2.04942 0
M  V30 9118 N 858.776 -0.797141 1.35954 0
M  V30 9119 C 860.004 -1.5858 1.32891 0
M  V30 9120 C 860.419 -1.88578 -0.0915564 0
M  V30 9121 O 859.776 -1.49532 -1.04625 0
M  V30 9122 C 859.827 -2.91143 2.14284 0
M  V30 9123 O 859.548 -2.62442 3.50793 0
M  V30 9124 C 861.049 -3.85476 2.18914 0
M  V30 9125 H 858.269 -0.492111 0.456144 0
M  V30 9126 H 860.813 -0.98994 1.78943 0
M  V30 9127 H 858.968 -3.47219 1.71807 0
M  V30 9128 H 859.382 -3.4715 3.93175 0
M  V30 9129 H 860.856 -4.75574 2.80238 0
M  V30 9130 H 861.333 -4.22758 1.19047 0
M  V30 9131 H 861.939 -3.35334 2.61593 0
M  V30 9132 N 860.254 -1.20106 -1.0204 0
M  V30 9133 C 861.503 -1.00316 -1.74985 0
M  V30 9134 C 861.816 0.465814 -1.89972 0
M  V30 9135 O 863.022 0.782749 -2.59972 0
M  V30 9136 C 861.478 -1.74608 -3.14706 0
M  V30 9137 C 861.086 -3.25573 -3.07744 0
M  V30 9138 C 862.83 -1.63172 -3.91887 0
M  V30 9139 C 860.737 -3.92419 -4.42449 0
M  V30 9140 H 859.667 -0.371728 -0.655999 0
M  V30 9141 H 862.318 -1.43688 -1.14131 0
M  V30 9142 H 860.7 -1.24021 -3.76078 0
M  V30 9143 H 861.874 -3.83345 -2.55702 0
M  V30 9144 H 860.189 -3.3738 -2.44057 0
M  V30 9145 H 862.786 -2.10457 -4.9154 0
M  V30 9146 H 863.129 -0.58728 -4.12137 0
M  V30 9147 H 863.662 -2.11152 -3.37135 0
M  V30 9148 H 860.401 -4.96998 -4.27403 0
M  V30 9149 H 859.921 -3.39436 -4.94513 0
M  V30 9150 H 861.6 -3.96453 -5.11306 0
M  V30 9151 N 861.732 1.21287 -1.00634 0
M  V30 9152 C 862.972 1.92106 -0.698194 0
M  V30 9153 C 863.336 1.76437 0.757222 0
M  V30 9154 O 864.537 2.41641 1.17741 0
M  V30 9155 C 862.808 3.39748 -1.10932 0
M  V30 9156 S 864.367 4.29013 -0.921586 0
M  V30 9157 H 861.185 0.663755 -0.254853 0
M  V30 9158 H 863.787 1.46772 -1.29145 0
M  V30 9159 H 862.491 3.48669 -2.16467 0
M  V30 9160 H 862.022 3.90101 -0.508419 0
M  V30 9161 H 864.037 4.95871 0.180578 0
M  V30 9162 N 863.21 0.781244 1.36873 0
M  V30 9163 C 864.458 0.349198 1.9906 0
M  V30 9164 C 864.779 -1.0806 1.62321 0
M  V30 9165 O 864.049 -1.74351 0.893229 0
M  V30 9166 H 862.629 0.126126 0.736275 0
M  V30 9167 H 865.291 1.00148 1.67202 0
M  V30 9168 H 864.387 0.434451 3.09061 0
M  V30 9169 N 864.689 -1.48329 0.532571 0
M  V30 9170 C 865.935 -2.03399 0.00755104 0
M  V30 9171 C 866.29 -1.40213 -1.3175 0
M  V30 9172 O 865.583 -0.539633 -1.83844 0
M  V30 9173 C 865.777 -3.57 -0.168943 0
M  V30 9174 C 865.606 -4.35077 1.13745 0
M  V30 9175 C 864.376 -4.75915 1.69803 0
M  V30 9176 C 866.574 -4.71734 2.04869 0
M  V30 9177 N 864.556 -5.38538 2.94703 0
M  V30 9178 C 865.927 -5.34403 3.14346 0
M  V30 9179 C 867.982 -4.53665 2.05164 0
M  V30 9180 C 866.685 -5.80912 4.24186 0
M  V30 9181 C 868.711 -5.01157 3.13999 0
M  V30 9182 C 868.073 -5.63853 4.22195 0
M  V30 9183 H 864.172 -0.780743 0.0443253 0
M  V30 9184 H 866.756 -1.81119 0.714423 0
M  V30 9185 H 864.927 -3.79099 -0.844903 0
M  V30 9186 H 866.659 -3.98708 -0.693804 0
M  V30 9187 H 863.414 -4.57103 1.23909 0
M  V30 9188 H 863.838 -5.74413 3.583 0
M  V30 9189 H 868.48 -4.04571 1.22808 0
M  V30 9190 H 866.198 -6.2901 5.07318 0
M  V30 9191 H 869.784 -4.88965 3.15285 0
M  V30 9192 H 868.664 -5.99935 5.05023 0
M  V30 9193 N 866.167 -0.267825 -1.55308 0
M  V30 9194 C 867.444 0.402449 -1.91415 0
M  V30 9195 C 867.824 1.7428 -1.1912 0
M  V30 9196 O 867.172 2.2631 -0.315609 0
M  V30 9197 C 867.382 0.549926 -3.4464 0
M  V30 9198 C 868.73 0.836188 -4.16285 0
M  V30 9199 O 869.754 0.635009 -3.50494 0
M  V30 9200 O 868.613 1.22051 -5.32697 0
M  V30 9201 H 865.707 0.219177 -0.797427 0
M  V30 9202 H 868.253 -0.313439 -1.6678 0
M  V30 9203 H 867.025 -0.393641 -3.89315 0
M  V30 9204 H 866.648 1.31556 -3.75205 0
M  V30 9205 N 867.645 1.57599 0.00500368 0
M  V30 9206 C 868.892 1.90349 0.690895 0
M  V30 9207 C 869.22 0.868045 1.74055 0
M  V30 9208 O 868.475 -0.127855 1.95282 0
M  V30 9209 C 868.774 3.29855 1.37588 0
M  V30 9210 C 868.44 4.48548 0.459906 0
M  V30 9211 C 867.102 4.80752 0.207693 0
M  V30 9212 C 869.454 5.20919 -0.171054 0
M  V30 9213 C 866.782 5.82701 -0.683855 0
M  V30 9214 C 869.134 6.23818 -1.05045 0
M  V30 9215 C 867.798 6.54481 -1.31189 0
M  V30 9216 H 867.068 0.696538 0.252816 0
M  V30 9217 H 869.715 1.91436 -0.0494495 0
M  V30 9218 H 868.02 3.24869 2.19015 0
M  V30 9219 H 869.717 3.52452 1.91255 0
M  V30 9220 H 866.307 4.23384 0.666648 0
M  V30 9221 H 870.491 4.96299 0.0107942 0
M  V30 9222 H 865.747 6.04822 -0.894467 0
M  V30 9223 H 869.921 6.79029 -1.54574 0
M  V30 9224 H 867.548 7.33299 -2.00442 0
M  V30 9225 N 869.123 -0.277682 1.55134 0
M  V30 9226 C 870.371 -1.00791 1.75173 0
M  V30 9227 C 870.692 -1.86987 0.553266 0
M  V30 9228 O 869.962 -1.91079 -0.43195 0
M  V30 9229 H 868.542 -0.375129 0.645978 0
M  V30 9230 H 871.204 -0.303041 1.9253 0
M  V30 9231 H 870.3 -1.64756 2.6507 0
M  V30 9232 N 870.601 -1.47988 -0.541979 0
M  V30 9233 C 871.848 -1.55393 -1.29843 0
M  V30 9234 C 872.176 -0.222668 -1.93221 0
M  V30 9235 O 871.431 0.785936 -1.79225 0
M  V30 9236 C 871.73 -2.63189 -2.41798 0
M  V30 9237 C 871.396 -4.05999 -1.96151 0
M  V30 9238 C 870.058 -4.44872 -1.83419 0
M  V30 9239 C 872.41 -4.95545 -1.61507 0
M  V30 9240 C 869.738 -5.71108 -1.34361 0
M  V30 9241 C 872.09 -6.22259 -1.13915 0
M  V30 9242 C 870.754 -6.59998 -0.997911 0
M  V30 9243 H 870.024 -0.568623 -0.47513 0
M  V30 9244 H 872.671 -1.81654 -0.606142 0
M  V30 9245 H 870.976 -2.30743 -3.16647 0
M  V30 9246 H 872.673 -2.66138 -2.99953 0
M  V30 9247 H 869.263 -3.75294 -2.07008 0
M  V30 9248 H 873.447 -4.662 -1.70209 0
M  V30 9249 H 868.703 -5.99083 -1.22103 0
M  V30 9250 H 872.877 -6.91048 -0.861755 0
M  V30 9251 H 870.504 -7.57704 -0.615561 0
M  V30 9252 N 872.079 0.78992 -1.36375 0
M  V30 9253 C 873.495 1.0879 -1.16777 0
M  V30 9254 C 873.695 2.01498 0.00848236 0
M  V30 9255 O 872.751 2.43338 0.674007 0
M  V30 9256 C 874.064 1.70285 -2.47837 0
M  V30 9257 C 875.612 1.82629 -2.54196 0
M  V30 9258 C 876.087 2.47539 -3.85342 0
M  V30 9259 N 877.578 2.55008 -3.86685 0
M  V30 9260 C 878.313 3.06041 -4.84898 0
M  V30 9261 N 877.809 3.57385 -5.93505 0
M  V30 9262 N 879.602 3.04748 -4.72319 0
M  V30 9263 H 871.753 0.173985 -2.11686 0
M  V30 9264 H 874.016 0.139798 -0.937636 0
M  V30 9265 H 873.722 1.09633 -3.34176 0
M  V30 9266 H 873.596 2.69799 -2.63607 0
M  V30 9267 H 875.983 2.42419 -1.68276 0
M  V30 9268 H 876.064 0.81923 -2.42327 0
M  V30 9269 H 875.708 1.88393 -4.71668 0
M  V30 9270 H 875.638 3.48815 -3.94507 0
M  V30 9271 H 878.129 2.18651 -3.08221 0
M  V30 9272 H 878.442 3.94674 -6.64419 0
M  V30 9273 H 876.787 3.55538 -5.97175 0
M  V30 9274 H 879.978 2.63925 -3.86602 0
M  V30 9275 H 880.151 3.44212 -5.49019 0
M  V30 9276 N 873.557 1.20646 1.01402 0
M  V30 9277 C 874.973 0.961866 1.27359 0
M  V30 9278 C 875.173 -0.357083 1.98311 0
M  V30 9279 O 874.229 -1.08498 2.28001 0
M  V30 9280 C 875.542 2.14627 2.10609 0
M  V30 9281 C 877.09 2.18753 2.23866 0
M  V30 9282 C 877.565 3.36686 3.10494 0
M  V30 9283 N 879.056 3.36716 3.18083 0
M  V30 9284 C 879.791 4.24615 3.85343 0
M  V30 9285 N 879.287 5.22697 4.54708 0
M  V30 9286 N 881.08 4.12449 3.81893 0
M  V30 9287 H 873.231 2.05481 0.537721 0
M  V30 9288 H 875.494 0.899292 0.299963 0
M  V30 9289 H 875.2 3.10159 1.65814 0
M  V30 9290 H 875.074 2.12935 3.11349 0
M  V30 9291 H 877.461 1.23782 2.67885 0
M  V30 9292 H 877.542 2.24492 1.22626 0
M  V30 9293 H 877.186 4.31945 2.67181 0
M  V30 9294 H 877.116 3.28185 4.11828 0
M  V30 9295 H 879.607 2.65728 2.68695 0
M  V30 9296 H 879.92 5.86087 5.03708 0
M  V30 9297 H 878.265 5.26631 4.53525 0
M  V30 9298 H 881.456 3.35091 3.26851 0
M  V30 9299 H 881.629 4.81162 4.34035 0
M  V30 9300 N 875.035 -1.20752 1.01276 0
M  V30 9301 C 875.983 -2.25432 0.572989 0
M  V30 9302 C 876.977 -1.64935 -0.386354 0
M  V30 9303 O 878.183 -1.7816 -0.256696 0
M  V30 9304 H 874.558 -0.733229 0.166972 0
M  V30 9305 H 876.529 -2.59856 1.46687 0
M  V30 9306 C 875.278 -3.47615 -0.0768249 0
M  V30 9307 H 874.601 -3.94442 0.652354 0
M  V30 9308 H 876.041 -4.22572 -0.3477 0
M  V30 9309 C 874.5 -3.1003 -1.31845 0
M  V30 9310 O 875.03 -3.21216 -2.41211 0
M  V30 9311 N 873.236 -2.64616 -1.20111 0
M  V30 9312 H 872.783 -2.55714 -0.311184 0
M  V30 9313 H 872.741 -2.39838 -2.03286 0
M  V30 9314 N 876.513 -0.788492 -1.36457 0
M  V30 9315 C 877.461 -0.174192 -2.31947 0
M  V30 9316 C 878.455 0.665974 -1.5576 0
M  V30 9317 O 879.661 0.561161 -1.71029 0
M  V30 9318 H 876.036 -0.0375538 -0.751062 0
M  V30 9319 H 878.007 -0.995011 -2.81322 0
M  V30 9320 C 876.756 0.677276 -3.4104 0
M  V30 9321 H 876.079 0.0401418 -3.9978 0
M  V30 9322 H 877.519 1.07379 -4.10178 0
M  V30 9323 C 875.978 1.83512 -2.82533 0
M  V30 9324 O 876.508 2.93164 -2.74623 0
M  V30 9325 N 874.714 1.64095 -2.39836 0
M  V30 9326 H 874.261 0.749046 -2.46469 0
M  V30 9327 H 874.219 2.41726 -2.01037 0
M  V30 9328 N 877.991 1.48044 -0.54043 0
M  V30 9329 C 878.938 2.29781 0.216597 0
M  V30 9330 C 879.908 1.38021 0.924094 0
M  V30 9331 O 881.093 1.66985 0.923078 0
M  V30 9332 C 878.233 3.21623 1.2511 0
M  V30 9333 C 877.346 4.28467 0.551384 0
M  V30 9334 C 876.481 5.07477 1.56972 0
M  V30 9335 C 875.52 6.06113 0.854048 0
M  V30 9336 N 874.657 6.78143 1.81842 0
M  V30 9337 H 879.497 2.94001 -0.486578 0
M  V30 9338 H 877.034 1.44929 -0.251789 0
M  V30 9339 H 878.992 3.73279 1.8633 0
M  V30 9340 H 877.622 2.59305 1.92252 0
M  V30 9341 H 876.674 3.79997 -0.174982 0
M  V30 9342 H 877.986 4.98799 -0.0100542 0
M  V30 9343 H 877.14 5.63199 2.25592 0
M  V30 9344 H 875.879 4.37008 2.16507 0
M  V30 9345 H 874.884 5.49585 0.153838 0
M  V30 9346 H 876.109 6.78584 0.264675 0
M  V30 9347 H 874.055 6.10417 2.40265 0
M  V30 9348 H 873.972 7.44587 1.3087 0
M  V30 9349 H 875.24 7.38448 2.49628 0
M  V30 9350 N 879.47 0.276058 1.55163 0
M  V30 9351 C 880.717 -0.340455 1.99618 0
M  V30 9352 C 881.045 -1.5579 1.16446 0
M  V30 9353 O 880.3 -1.94433 0.222359 0
M  V30 9354 C 880.599 -0.765744 3.491 0
M  V30 9355 C 880.265 0.347174 4.49561 0
M  V30 9356 C 878.927 0.65276 4.76752 0
M  V30 9357 C 881.279 1.09705 5.09523 0
M  V30 9358 C 878.607 1.71179 5.61173 0
M  V30 9359 C 880.959 2.14581 5.95095 0
M  V30 9360 C 879.623 2.45773 6.20606 0
M  V30 9361 H 878.893 -0.124581 0.730452 0
M  V30 9362 H 881.54 0.389966 1.87487 0
M  V30 9363 H 879.845 -1.57585 3.58712 0
M  V30 9364 H 881.542 -1.25352 3.80904 0
M  V30 9365 H 878.132 0.0988779 4.28486 0
M  V30 9366 H 882.316 0.874223 4.8854 0
M  V30 9367 H 877.572 1.95846 5.79184 0
M  V30 9368 H 881.746 2.7316 6.40591 0
M  V30 9369 H 879.373 3.27969 6.85813 0
M  V30 9370 N 880.948 -1.576 0.00335426 0
M  V30 9371 C 882.225 -1.81945 -0.718015 0
M  V30 9372 C 882.605 -0.881788 -1.91801 0
M  V30 9373 O 881.953 0.0687118 -2.28397 0
M  V30 9374 C 882.163 -3.30521 -1.12058 0
M  V30 9375 C 883.511 -3.96345 -1.52303 0
M  V30 9376 O 884.535 -3.34864 -1.21428 0
M  V30 9377 O 883.394 -5.04655 -2.09728 0
M  V30 9378 H 880.488 -0.749328 -0.34991 0
M  V30 9379 H 883.034 -1.69675 0.0290654 0
M  V30 9380 H 881.806 -3.90399 -0.265378 0
M  V30 9381 H 881.429 -3.47802 -1.92665 0
M  V30 9382 N 882.426 0.269451 -1.5528 0
M  V30 9383 C 883.356 1.33729 -1.91413 0
M  V30 9384 C 884.337 1.51348 -0.776391 0
M  V30 9385 O 885.522 1.64332 -1.03482 0
M  V30 9386 C 882.652 2.69618 -2.18914 0
M  V30 9387 C 881.606 2.66725 -3.34726 0
M  V30 9388 C 880.932 4.06199 -3.47716 0
M  V30 9389 C 882.232 2.25684 -4.71025 0
M  V30 9390 H 883.926 1.03736 -2.80854 0
M  V30 9391 H 881.472 0.497579 -1.3513 0
M  V30 9392 H 883.425 3.44436 -2.42779 0
M  V30 9393 H 882.149 3.01201 -1.26275 0
M  V30 9394 H 880.808 1.94365 -3.10834 0
M  V30 9395 H 880.456 4.3501 -2.52537 0
M  V30 9396 H 880.156 4.05157 -4.25583 0
M  V30 9397 H 881.68 4.8275 -3.73877 0
M  V30 9398 H 883.094 2.90225 -4.94411 0
M  V30 9399 H 881.491 2.35797 -5.51833 0
M  V30 9400 H 882.561 1.20819 -4.69607 0
M  V30 9401 N 883.904 1.48273 0.534124 0
M  V30 9402 C 884.851 1.62487 1.6391 0
M  V30 9403 C 885.821 0.467062 1.59398 0
M  V30 9404 O 887.006 0.690029 1.77885 0
M  V30 9405 C 884.146 1.66671 3.02183 0
M  V30 9406 C 883.259 2.9353 3.16961 0
M  V30 9407 C 882.394 2.88902 4.45768 0
M  V30 9408 C 881.433 4.10483 4.54059 0
M  V30 9409 N 880.57 4.03956 5.74251 0
M  V30 9410 H 885.41 2.56851 1.51101 0
M  V30 9411 H 882.947 1.27381 0.735704 0
M  V30 9412 H 884.905 1.67079 3.82283 0
M  V30 9413 H 883.535 0.758011 3.13774 0
M  V30 9414 H 882.587 3.02886 2.3014 0
M  V30 9415 H 883.899 3.83501 3.18949 0
M  V30 9416 H 883.053 2.87688 5.34154 0
M  V30 9417 H 881.792 1.96652 4.46295 0
M  V30 9418 H 880.797 4.11977 3.64081 0
M  V30 9419 H 882.022 5.03887 4.55274 0
M  V30 9420 H 879.968 3.14525 5.75682 0
M  V30 9421 H 879.885 4.87628 5.77715 0
M  V30 9422 H 881.153 4.06795 6.64935 0
M  V30 9423 N 885.382 -0.782676 1.36792 0
M  V30 9424 C 886.329 -1.89558 1.31667 0
M  V30 9425 C 887.299 -1.65076 0.184147 0
M  V30 9426 O 888.484 -1.87143 0.371753 0
M  V30 9427 C 885.624 -3.26469 1.11858 0
M  V30 9428 C 884.737 -3.62978 2.34245 0
M  V30 9429 C 883.872 -4.89041 2.07394 0
M  V30 9430 C 882.911 -5.18249 3.25706 0
M  V30 9431 N 882.048 -6.35497 2.98476 0
M  V30 9432 H 886.888 -1.93274 2.26824 0
M  V30 9433 H 884.425 -0.945057 1.12726 0
M  V30 9434 H 886.383 -4.05431 0.983968 0
M  V30 9435 H 885.013 -3.22158 0.203531 0
M  V30 9436 H 884.065 -2.79087 2.58485 0
M  V30 9437 H 885.377 -3.80507 3.22514 0
M  V30 9438 H 884.531 -5.75883 1.90901 0
M  V30 9439 H 883.27 -4.73594 1.16446 0
M  V30 9440 H 882.275 -4.29887 3.4275 0
M  V30 9441 H 883.5 -5.35611 4.1749 0
M  V30 9442 H 881.446 -6.21429 2.10146 0
M  V30 9443 H 881.363 -6.5339 3.80286 0
M  V30 9444 H 882.631 -7.25304 2.85577 0
M  V30 9445 N 886.86 -1.21182 -1.00761 0
M  V30 9446 C 888.088 -1.05335 -1.78079 0
M  V30 9447 C 888.503 0.396988 -1.84579 0
M  V30 9448 O 887.86 1.27548 -1.30529 0
M  V30 9449 C 887.911 -1.64089 -3.22113 0
M  V30 9450 O 887.632 -3.03448 -3.15992 0
M  V30 9451 C 889.133 -1.53318 -4.15943 0
M  V30 9452 H 886.353 -0.37005 -0.559736 0
M  V30 9453 H 888.897 -1.60463 -1.26775 0
M  V30 9454 H 887.052 -1.13059 -3.70535 0
M  V30 9455 H 887.466 -3.31492 -4.06465 0
M  V30 9456 H 888.94 -1.99174 -5.14814 0
M  V30 9457 H 889.417 -0.487166 -4.3649 0
M  V30 9458 H 890.023 -2.03582 -3.73409 0
M  V30 9459 N 888.338 1.20213 -1.01915 0
M  V30 9460 C 889.754 1.41696 -0.734459 0
M  V30 9461 C 889.954 1.89504 0.684867 0
M  V30 9462 O 889.01 2.06556 1.45227 0
M  V30 9463 C 890.323 2.43644 -1.76233 0
M  V30 9464 C 891.871 2.57406 -1.78076 0
M  V30 9465 C 892.346 3.626 -2.79796 0
M  V30 9466 N 893.837 3.70086 -2.78551 0
M  V30 9467 C 894.572 4.51145 -3.53915 0
M  V30 9468 N 894.068 5.35988 -4.38963 0
M  V30 9469 N 895.861 4.45702 -3.425 0
M  V30 9470 H 888.012 0.874976 -1.93541 0
M  V30 9471 H 890.275 0.446647 -0.836188 0
M  V30 9472 H 889.981 2.15519 -2.77929 0
M  V30 9473 H 889.855 3.42672 -1.57657 0
M  V30 9474 H 892.242 2.8486 -0.770634 0
M  V30 9475 H 892.323 1.58565 -2.00725 0
M  V30 9476 H 891.967 3.35889 -3.80973 0
M  V30 9477 H 891.897 4.61069 -2.54407 0
M  V30 9478 H 894.388 3.09484 -2.1686 0
M  V30 9479 H 894.701 5.94932 -4.9323 0
M  V30 9480 H 893.046 5.35482 -4.4304 0
M  V30 9481 H 896.237 3.78456 -2.75478 0
M  V30 9482 H 896.41 5.08637 -4.01487 0
M  V30 9483 N 889.816 0.795718 1.36037 0
M  V30 9484 C 891.062 0.371574 1.99367 0
M  V30 9485 C 891.395 -1.0557 1.62999 0
M  V30 9486 O 890.67 -1.73051 0.887895 0
M  V30 9487 C 890.953 0.542622 3.55988 0
M  V30 9488 C 890.806 2.01404 4.0219 0
M  V30 9489 C 892.125 -0.0384527 4.40083 0
M  V30 9490 H 889.244 0.136483 0.724252 0
M  V30 9491 H 891.886 1.00323 1.61355 0
M  V30 9492 H 890.036 0.0049053 3.885 0
M  V30 9493 H 891.708 2.6133 3.80137 0
M  V30 9494 H 889.951 2.51439 3.53498 0
M  V30 9495 H 890.622 2.08466 5.11122 0
M  V30 9496 H 893.098 0.420634 4.13968 0
M  V30 9497 H 891.974 0.111214 5.48787 0
M  V30 9498 H 892.235 -1.13116 4.27384 0
M  V30 9499 N 891.294 -1.47756 0.548274 0
M  V30 9500 C 892.224 -2.32702 -0.19284 0
M  V30 9501 C 893.205 -1.43237 -0.917457 0
M  V30 9502 O 894.39 -1.72103 -0.89967 0
M  V30 9503 C 891.52 -3.24831 -1.22891 0
M  V30 9504 C 890.474 -4.23466 -0.621312 0
M  V30 9505 C 889.8 -5.04856 -1.76137 0
M  V30 9506 C 891.1 -5.20616 0.419055 0
M  V30 9507 H 892.794 -2.94914 0.516323 0
M  V30 9508 H 890.34 -1.41818 0.24975 0
M  V30 9509 H 892.293 -3.83094 -1.75547 0
M  V30 9510 H 891.017 -2.60656 -1.9679 0
M  V30 9511 H 889.676 -3.66416 -0.116123 0
M  V30 9512 H 889.324 -4.37091 -2.48918 0
M  V30 9513 H 889.024 -5.71629 -1.36065 0
M  V30 9514 H 890.548 -5.65976 -2.29136 0
M  V30 9515 H 891.962 -5.73296 -0.0211034 0
M  V30 9516 H 890.359 -5.95543 0.738163 0
M  V30 9517 H 891.429 -4.66638 1.31822 0
M  V30 9518 N 892.772 -0.284283 -1.55015 0
M  V30 9519 C 893.702 0.592663 -2.25853 0
M  V30 9520 C 894.683 1.15151 -1.25197 0
M  V30 9521 O 895.868 1.18395 -1.53936 0
M  V30 9522 C 892.998 1.77254 -2.98661 0
M  V30 9523 C 891.952 1.34482 -4.06323 0
M  V30 9524 C 891.278 2.60853 -4.66754 0
M  V30 9525 C 892.578 0.488288 -5.20013 0
M  V30 9526 H 894.272 0.00187041 -2.994 0
M  V30 9527 H 891.818 -0.000540402 -1.44 0
M  V30 9528 H 893.771 2.39199 -3.46932 0
M  V30 9529 H 892.495 2.38931 -2.22664 0
M  V30 9530 H 891.154 0.748519 -3.58877 0
M  V30 9531 H 890.802 3.20808 -3.87416 0
M  V30 9532 H 890.502 2.32942 -5.39455 0
M  V30 9533 H 892.026 3.23631 -5.1778 0
M  V30 9534 H 893.44 1.01298 -5.6428 0
M  V30 9535 H 891.837 0.303669 -5.99331 0
M  V30 9536 H 892.907 -0.490727 -4.8241 0
M  V30 9537 N 894.251 1.57596 -0.0117121 0
M  V30 9538 C 895.499 1.90694 0.669342 0
M  V30 9539 C 895.82 0.886999 1.73659 0
M  V30 9540 O 895.09 -0.0739779 1.9576 0
M  V30 9541 H 893.67 0.703846 0.250219 0
M  V30 9542 H 896.332 1.94821 -0.0554057 0
M  V30 9543 H 895.428 2.90802 1.13316 0
M  V30 9544 N 895.729 -0.261212 1.5542 0
M  V30 9545 C 896.677 -1.34298 1.89913 0
M  V30 9546 C 897.671 -1.50547 0.776665 0
M  V30 9547 O 898.877 -1.52191 0.961139 0
M  V30 9548 H 895.252 -0.4494 0.602946 0
M  V30 9549 H 897.223 -1.02464 2.80256 0
M  V30 9550 C 895.972 -2.69423 2.19788 0
M  V30 9551 H 895.295 -2.57715 3.05652 0
M  V30 9552 H 896.735 -3.44026 2.47835 0
M  V30 9553 C 895.194 -3.21423 1.00939 0
M  V30 9554 O 895.724 -4.00921 0.250034 0
M  V30 9555 N 893.93 -2.7926 0.803883 0
M  V30 9556 H 893.477 -2.14724 1.42308 0
M  V30 9557 H 893.435 -3.14398 0.0103257 0
M  V30 9558 N 897.207 -1.48554 -0.526253 0
M  V30 9559 C 898.117 -1.66044 -1.65731 0
M  V30 9560 C 899.133 -0.542951 -1.65312 0
M  V30 9561 O 900.309 -0.814495 -1.84195 0
M  V30 9562 C 897.374 -1.69959 -3.02184 0
M  V30 9563 C 896.435 -2.93362 -3.13428 0
M  V30 9564 C 895.668 -2.97081 -4.43372 0
M  V30 9565 O 895.891 -2.09103 -5.3069 0
M  V30 9566 O 894.825 -3.8929 -4.59061 0
M  V30 9567 H 898.651 -2.61811 -1.53912 0
M  V30 9568 H 896.236 -1.31999 -0.699759 0
M  V30 9569 H 898.118 -1.75033 -3.83329 0
M  V30 9570 H 896.793 -0.773658 -3.14319 0
M  V30 9571 H 895.7 -2.93818 -2.31564 0
M  V30 9572 H 897.033 -3.85352 -3.06211 0
M  V30 9573 N 898.685 0.775411 -1.37205 0
M  V30 9574 C 899.91 1.5696 -1.35567 0
M  V30 9575 C 900.335 1.88012 0.0575554 0
M  V30 9576 O 899.693 1.48954 1.03355 0
M  V30 9577 C 899.741 2.85886 -2.19776 0
M  V30 9578 O 898.845 3.80103 -1.59987 0
M  V30 9579 H 898.186 0.475583 -0.463375 0
M  V30 9580 H 900.716 0.96001 -1.80679 0
M  V30 9581 H 900.726 3.35024 -2.32859 0
M  V30 9582 H 899.401 2.62613 -3.22502 0
M  V30 9583 H 897.978 3.38736 -1.55924 0
M  V30 9584 N 900.163 1.21714 1.00117 0
M  V30 9585 C 901.403 1.04818 1.75478 0
M  V30 9586 C 901.767 -0.410653 1.87557 0
M  V30 9587 O 902.968 -0.700241 2.59519 0
M  V30 9588 C 901.239 1.73055 3.12709 0
M  V30 9589 S 902.798 1.71464 4.03913 0
M  V30 9590 H 899.616 0.375534 0.603734 0
M  V30 9591 H 902.218 1.54522 1.19763 0
M  V30 9592 H 900.922 2.78376 3.01554 0
M  V30 9593 H 900.453 1.23546 3.73497 0
M  V30 9594 H 902.468 0.75845 4.90369 0
M  V30 9595 N 901.641 -1.19671 1.02551 0
M  V30 9596 C 902.869 -1.93233 0.739513 0
M  V30 9597 C 903.284 -1.75298 -0.701158 0
M  V30 9598 O 902.641 -1.07269 -1.47647 0
M  V30 9599 C 902.692 -3.45085 1.07697 0
M  V30 9600 O 902.413 -3.62441 2.46106 0
M  V30 9601 C 903.914 -4.35776 0.813298 0
M  V30 9602 H 901.134 -0.613905 0.270853 0
M  V30 9603 H 903.678 -1.51909 1.36909 0
M  V30 9604 H 901.833 -3.84255 0.492635 0
M  V30 9605 H 902.247 -4.56337 2.58567 0
M  V30 9606 H 903.721 -5.40941 1.09941 0
M  V30 9607 H 904.198 -4.38474 -0.252359 0
M  V30 9608 H 904.804 -4.02282 1.38021 0
M  V30 9609 N 903.119 -0.802921 -1.35613 0
M  V30 9610 C 904.049 -0.225131 -2.32412 0
M  V30 9611 C 905.03 0.647383 -1.57299 0
M  V30 9612 O 906.215 0.578414 -1.85386 0
M  V30 9613 C 903.345 0.630085 -3.41537 0
M  V30 9614 C 902.299 -0.143635 -4.27759 0
M  V30 9615 C 901.625 0.833046 -5.28171 0
M  V30 9616 C 902.925 -1.34054 -5.04804 0
M  V30 9617 H 904.619 -1.03385 -2.80984 0
M  V30 9618 H 902.165 -0.498593 -1.35093 0
M  V30 9619 H 904.118 1.04433 -4.08254 0
M  V30 9620 H 902.842 1.47165 -2.91565 0
M  V30 9621 H 901.501 -0.539015 -3.62616 0
M  V30 9622 H 901.149 1.67001 -4.74468 0
M  V30 9623 H 900.849 0.319697 -5.8673 0
M  V30 9624 H 902.373 1.24558 -5.97761 0
M  V30 9625 H 903.787 -1.00136 -5.64487 0
M  V30 9626 H 902.184 -1.78812 -5.72841 0
M  V30 9627 H 903.254 -2.12906 -4.35659 0
M  V30 9628 N 904.597 1.47463 -0.556102 0
M  V30 9629 C 905.825 2.06868 -0.0364585 0
M  V30 9630 C 906.24 1.40893 1.25677 0
M  V30 9631 O 905.597 0.505083 1.75371 0
M  V30 9632 C 905.648 3.61128 0.163984 0
M  V30 9633 O 905.369 4.24629 -1.07803 0
M  V30 9634 C 906.87 4.37397 0.721036 0
M  V30 9635 H 904.09 0.669466 -0.0453399 0
M  V30 9636 H 906.634 1.89482 -0.769198 0
M  V30 9637 H 904.789 3.78031 0.84685 0
M  V30 9638 H 905.203 5.17149 -0.875067 0
M  V30 9639 H 906.677 5.46016 0.810584 0
M  V30 9640 H 907.154 4.03604 1.73206 0
M  V30 9641 H 907.76 4.25236 0.073904 0
M  V30 9642 N 906.075 0.2925 1.54862 0
M  V30 9643 C 907.005 -0.580677 2.26165 0
M  V30 9644 C 907.986 -1.14485 1.25806 0
M  V30 9645 O 909.171 -1.17577 1.54562 0
M  V30 9646 C 906.301 -1.75668 2.99596 0
M  V30 9647 C 905.255 -1.32325 4.07031 0
M  V30 9648 C 904.581 -2.58374 4.68131 0
M  V30 9649 C 905.881 -0.460703 5.20264 0
M  V30 9650 H 907.575 0.0140075 2.99397 0
M  V30 9651 H 905.121 0.00817706 1.43998 0
M  V30 9652 H 907.074 -2.37356 3.48195 0
M  V30 9653 H 905.798 -2.37747 2.23928 0
M  V30 9654 H 904.457 -0.729477 3.59269 0
M  V30 9655 H 904.105 -3.18749 3.89112 0
M  V30 9656 H 903.805 -2.30078 5.40683 0
M  V30 9657 H 905.329 -3.2088 5.19489 0
M  V30 9658 H 906.743 -0.983037 5.64809 0
M  V30 9659 H 905.14 -0.271881 5.99484 0
M  V30 9660 H 906.21 0.516304 4.82143 0
M  V30 9661 N 907.553 -1.57587 0.0200696 0
M  V30 9662 C 908.778 -1.96124 -0.674547 0
M  V30 9663 C 909.203 -0.896068 -1.65385 0
M  V30 9664 O 908.561 0.143925 -1.80728 0
M  V30 9665 C 908.609 -3.3376 -1.36517 0
M  V30 9666 O 907.713 -3.29483 -2.48022 0
M  V30 9667 H 907.054 -0.639719 -0.177919 0
M  V30 9668 H 909.584 -2.04447 0.0792317 0
M  V30 9669 H 909.594 -3.69785 -1.72403 0
M  V30 9670 H 908.269 -4.10832 -0.647265 0
M  V30 9671 H 906.846 -3.05162 -2.14314 0
M  V30 9672 N 909.032 0.252966 -1.55557 0
M  V30 9673 C 909.942 1.33472 -1.92931 0
M  V30 9674 C 910.958 1.52983 -0.828985 0
M  V30 9675 O 912.134 1.66723 -1.12984 0
M  V30 9676 C 909.199 2.6704 -2.21112 0
M  V30 9677 C 908.26 2.56103 -3.44542 0
M  V30 9678 C 907.493 3.83302 -3.71369 0
M  V30 9679 O 907.716 4.84907 -3.00368 0
M  V30 9680 O 906.65 3.823 -4.64898 0
M  V30 9681 H 910.476 1.04768 -2.85057 0
M  V30 9682 H 908.061 0.453208 -1.4236 0
M  V30 9683 H 909.943 3.45981 -2.40572 0
M  V30 9684 H 908.618 2.95489 -1.32166 0
M  V30 9685 H 907.525 1.7547 -3.30396 0
M  V30 9686 H 908.858 2.32601 -4.33772 0
M  V30 9687 N 910.51 1.48831 0.518367 0
M  V30 9688 C 911.735 1.61379 1.30275 0
M  V30 9689 C 912.16 0.278571 1.86026 0
M  V30 9690 O 911.518 -0.751427 1.64995 0
M  V30 9691 C 911.566 2.67225 2.42122 0
M  V30 9692 O 910.67 2.25192 3.45489 0
M  V30 9693 H 910.011 0.540742 0.385349 0
M  V30 9694 H 912.541 1.949 0.622498 0
M  V30 9695 H 912.551 2.88859 2.8814 0
M  V30 9696 H 911.226 3.64155 2.00907 0
M  V30 9697 H 909.803 2.13819 3.05509 0
M  V30 9698 N 911.988 -0.768124 1.37614 0
M  V30 9699 C 913.216 -1.55726 1.36224 0
M  V30 9700 C 913.631 -1.8873 -0.0515357 0
M  V30 9701 O 912.988 -1.51718 -1.0143 0
M  V30 9702 C 913.039 -2.86533 2.20412 0
M  V30 9703 O 912.76 -2.54942 3.56281 0
M  V30 9704 C 914.261 -3.80745 2.27041 0
M  V30 9705 H 911.481 -0.482325 0.46648 0
M  V30 9706 H 914.025 -0.95176 1.81002 0
M  V30 9707 H 912.18 -3.43496 1.79134 0
M  V30 9708 H 912.594 -3.38732 4.00451 0
M  V30 9709 H 914.068 -4.69523 2.90263 0
M  V30 9710 H 914.545 -4.20138 1.27987 0
M  V30 9711 H 915.151 -3.2971 2.68647 0
M  V30 9712 N 913.466 -1.22244 -0.994698 0
M  V30 9713 C 914.399 -0.934168 -2.08203 0
M  V30 9714 C 915.377 0.122231 -1.6214 0
M  V30 9715 O 916.561 -0.00896598 -1.88498 0
M  V30 9716 C 913.688 -0.404646 -3.36274 0
M  V30 9717 C 912.734 -1.44544 -4.01259 0
M  V30 9718 S 913.567 -3.01816 -4.42343 0
M  V30 9719 C 914.723 -2.50497 -5.73587 0
M  V30 9720 H 914.956 -1.85493 -2.32335 0
M  V30 9721 H 912.489 -1.0533 -1.12893 0
M  V30 9722 H 914.447 -0.105719 -4.10364 0
M  V30 9723 H 913.108 0.494971 -3.10176 0
M  V30 9724 H 912.301 -1.02478 -4.93472 0
M  V30 9725 H 911.903 -1.69298 -3.33488 0
M  V30 9726 H 914.195 -1.91626 -6.49835 0
M  V30 9727 H 915.138 -3.41193 -6.20478 0
M  V30 9728 H 915.546 -1.91845 -5.30901 0
M  V30 9729 N 914.944 1.19125 -1.03184 0
M  V30 9730 C 915.892 2.24492 -0.608781 0
M  V30 9731 C 916.886 1.65529 0.360065 0
M  V30 9732 O 918.092 1.78546 0.22832 0
M  V30 9733 H 914.467 0.73048 -0.178616 0
M  V30 9734 H 916.438 2.5749 -1.50803 0
M  V30 9735 C 915.187 3.47693 0.0215126 0
M  V30 9736 H 914.51 3.93354 -0.715024 0
M  V30 9737 H 915.95 4.23072 0.280429 0
M  V30 9738 C 914.409 3.12088 1.26896 0
M  V30 9739 O 914.939 3.25013 2.36071 0
M  V30 9740 N 913.145 2.66494 1.15886 0
M  V30 9741 H 912.692 2.56176 0.270463 0
M  V30 9742 H 912.65 2.43042 1.99444 0
M  V30 9743 N 916.422 0.810101 1.35185 0
M  V30 9744 C 917.65 0.404696 2.02903 0
M  V30 9745 C 918.065 -0.985434 1.61042 0
M  V30 9746 O 917.422 -1.63557 0.809658 0
M  V30 9747 C 917.473 0.482493 3.58266 0
M  V30 9748 O 917.194 1.81782 3.98606 0
M  V30 9749 C 918.695 0.070345 4.43244 0
M  V30 9750 H 915.915 0.163972 0.650657 0
M  V30 9751 H 918.459 1.0947 1.72733 0
M  V30 9752 H 916.614 -0.159296 3.87072 0
M  V30 9753 H 917.028 1.78306 4.93262 0
M  V30 9754 H 918.502 0.175888 5.5172 0
M  V30 9755 H 918.979 -0.984724 4.28018 0
M  V30 9756 H 919.585 0.685427 4.1974 0
M  V30 9757 N 917.9 -1.47166 0.563914 0
M  V30 9758 C 918.83 -2.32894 -0.168148 0
M  V30 9759 C 919.811 -1.44202 -0.902214 0
M  V30 9760 O 920.996 -1.73048 -0.881365 0
M  V30 9761 C 918.126 -3.26116 -1.19439 0
M  V30 9762 C 917.08 -4.24101 -0.576363 0
M  V30 9763 C 916.406 -5.06696 -1.70772 0
M  V30 9764 C 917.706 -5.20142 0.47425 0
M  V30 9765 H 919.4 -2.9435 0.547573 0
M  V30 9766 H 916.946 -1.41545 0.264778 0
M  V30 9767 H 918.899 -3.84935 -1.71474 0
M  V30 9768 H 917.623 -2.62728 -1.94014 0
M  V30 9769 H 916.282 -3.66519 -0.0772534 0
M  V30 9770 H 915.93 -4.39707 -2.44268 0
M  V30 9771 H 915.63 -5.7304 -1.29994 0
M  V30 9772 H 917.154 -5.68375 -2.2312 0
M  V30 9773 H 918.568 -5.73286 0.0397035 0
M  V30 9774 H 916.965 -5.94726 0.801287 0
M  V30 9775 H 918.035 -4.65214 1.36764 0
M  V30 9776 N 919.378 -0.300708 -1.54705 0
M  V30 9777 C 920.325 0.57552 -2.23509 0
M  V30 9778 C 921.295 1.12979 -1.21758 0
M  V30 9779 O 922.48 1.17437 -1.50377 0
M  V30 9780 C 919.62 1.74167 -2.97926 0
M  V30 9781 C 918.733 1.21882 -4.1445 0
M  V30 9782 C 917.868 2.34881 -4.7645 0
M  V30 9783 C 916.907 1.79729 -5.85119 0
M  V30 9784 N 916.044 2.863 -6.41075 0
M  V30 9785 H 920.884 -0.0178257 -2.97995 0
M  V30 9786 H 918.421 -0.0205666 -1.47086 0
M  V30 9787 H 920.379 2.42753 -3.39303 0
M  V30 9788 H 919.009 2.30665 -2.25817 0
M  V30 9789 H 918.061 0.425227 -3.78016 0
M  V30 9790 H 919.373 0.775065 -4.92741 0
M  V30 9791 H 918.527 3.11415 -5.20678 0
M  V30 9792 H 917.266 2.82584 -3.97489 0
M  V30 9793 H 916.271 1.01684 -5.40315 0
M  V30 9794 H 917.496 1.32931 -6.65963 0
M  V30 9795 H 915.442 3.33337 -5.64998 0
M  V30 9796 H 915.359 2.46419 -7.14712 0
M  V30 9797 H 916.627 3.62732 -6.89961 0
M  V30 9798 N 920.856 1.57574 -0.0284266 0
M  V30 9799 C 922.096 1.93637 0.65453 0
M  V30 9800 C 922.46 0.905015 1.69332 0
M  V30 9801 O 923.661 1.15181 2.42872 0
M  V30 9802 C 921.932 3.3462 1.25555 0
M  V30 9803 S 923.491 3.92609 1.95968 0
M  V30 9804 H 920.309 0.67755 0.215516 0
M  V30 9805 H 922.911 1.95284 -0.0919257 0
M  V30 9806 H 921.615 4.07499 0.487069 0
M  V30 9807 H 921.146 3.36415 2.03933 0
M  V30 9808 H 923.161 3.75988 3.23802 0
M  V30 9809 N 922.334 -0.244713 1.55689 0
M  V30 9810 C 923.562 -0.989944 1.8168 0
M  V30 9811 C 923.977 -1.78863 0.604449 0
M  V30 9812 O 923.334 -1.77437 -0.426907 0
M  V30 9813 C 923.385 -1.92607 3.05916 0
M  V30 9814 O 923.106 -1.1597 4.22472 0
M  V30 9815 C 924.607 -2.78711 3.44724 0
M  V30 9816 H 921.827 -0.2912 0.604519 0
M  V30 9817 H 924.371 -0.266938 2.0275 0
M  V30 9818 H 922.526 -2.60333 2.8689 0
M  V30 9819 H 922.94 -1.79311 4.92898 0
M  V30 9820 H 924.414 -3.40141 4.34751 0
M  V30 9821 H 924.891 -3.49935 2.6541 0
M  V30 9822 H 925.497 -2.16435 3.66109 0
M  V30 9823 N 923.813 -1.49104 -0.510467 0
M  V30 9824 C 925.059 -1.58346 -1.26705 0
M  V30 9825 C 925.392 -0.265121 -1.92382 0
M  V30 9826 O 924.667 0.730558 -1.80258 0
M  V30 9827 C 924.95 -2.7359 -2.34137 0
M  V30 9828 C 924.803 -4.1519 -1.73024 0
M  V30 9829 C 926.122 -2.84511 -3.3577 0
M  V30 9830 H 923.241 -0.57637 -0.459311 0
M  V30 9831 H 925.883 -1.81353 -0.566658 0
M  V30 9832 H 924.033 -2.54105 -2.93876 0
M  V30 9833 H 925.705 -4.46167 -1.17186 0
M  V30 9834 H 923.948 -4.21279 -1.03473 0
M  V30 9835 H 924.619 -4.91683 -2.50903 0
M  V30 9836 H 927.095 -3.0222 -2.86011 0
M  V30 9837 H 925.971 -3.6684 -4.08313 0
M  V30 9838 H 926.232 -1.93471 -3.97519 0
M  V30 9839 N 925.291 0.760815 -1.38019 0
M  V30 9840 C 926.539 1.51673 -1.33566 0
M  V30 9841 C 926.86 1.94852 0.076024 0
M  V30 9842 O 926.13 1.67112 1.02227 0
M  V30 9843 H 924.71 0.562581 -0.491438 0
M  V30 9844 H 927.372 0.904832 -1.72623 0
M  V30 9845 H 926.468 2.41102 -1.98182 0
M  V30 9846 N 926.769 1.22769 0.988202 0
M  V30 9847 C 928.18 1.0512 1.54294 0
M  V30 9848 C 928.531 -0.383904 1.92407 0
M  V30 9849 O 927.656 -1.26955 1.75246 0
M  V30 9850 C 928.251 1.90198 2.80375 0
M  V30 9851 C 926.81 1.76831 3.32276 0
M  V30 9852 C 925.957 1.86377 2.05326 0
M  V30 9853 H 928.908 1.36546 0.808758 0
M  V30 9854 H 928.929 1.42216 3.52923 0
M  V30 9855 H 928.441 2.9464 2.52605 0
M  V30 9856 H 926.542 0.751412 3.64945 0
M  V30 9857 H 926.655 2.59771 4.02562 0
M  V30 9858 H 925.019 1.2987 2.19103 0
M  V30 9859 H 925.802 2.9236 1.79946 0
M  V30 9860 N 928.247 -1.18576 1.03814 0
M  V30 9861 C 929.21 -2.2033 0.63146 0
M  V30 9862 C 930.21 -1.57787 -0.309816 0
M  V30 9863 O 931.4 -1.73938 -0.0955598 0
M  V30 9864 C 928.532 -3.40818 -0.0745963 0
M  V30 9865 H 929.725 -2.57824 1.53189 0
M  V30 9866 H 927.278 -1.32416 0.830398 0
M  V30 9867 H 928.013 -3.08853 -0.988947 0
M  V30 9868 H 927.798 -3.87453 0.6019 0
M  V30 9869 H 929.288 -4.16166 -0.345727 0
M  V30 9870 N 929.725 -0.817259 -1.34754 0
M  V30 9871 C 930.658 -0.180483 -2.27485 0
M  V30 9872 C 931.636 0.659792 -1.48612 0
M  V30 9873 O 932.82 0.624761 -1.77845 0
M  V30 9874 C 929.947 0.748487 -3.30326 0
M  V30 9875 C 928.993 -0.0135304 -4.26498 0
M  V30 9876 S 929.826 -1.35685 -5.18025 0
M  V30 9877 C 930.982 -0.432605 -6.24403 0
M  V30 9878 H 931.215 -0.966677 -2.81145 0
M  V30 9879 H 928.748 -0.612864 -1.41716 0
M  V30 9880 H 930.706 1.27893 -3.90069 0
M  V30 9881 H 929.367 1.50816 -2.75524 0
M  V30 9882 H 928.56 0.692454 -4.9922 0
M  V30 9883 H 928.162 -0.474344 -3.7098 0
M  V30 9884 H 930.454 0.378035 -6.76444 0
M  V30 9885 H 931.397 -1.12934 -6.99036 0
M  V30 9886 H 931.805 -0.0235533 -5.64495 0
M  V30 9887 N 931.203 1.46865 -0.571711 0
M  V30 9888 C 932.151 2.31897 0.180714 0
M  V30 9889 C 933.145 1.43815 0.895191 0
M  V30 9890 O 934.351 1.60501 0.814828 0
M  V30 9891 H 930.726 0.748032 0.077148 0
M  V30 9892 H 932.697 2.93185 -0.555432 0
M  V30 9893 C 931.446 3.26766 1.18824 0
M  V30 9894 H 930.769 3.94515 0.64789 0
M  V30 9895 H 932.209 3.89067 1.68532 0
M  V30 9896 C 930.668 2.51325 2.2436 0
M  V30 9897 O 931.198 2.26825 3.31532 0
M  V30 9898 N 929.404 2.12079 1.98673 0
M  V30 9899 H 928.951 2.32204 1.1153 0
M  V30 9900 H 928.909 1.61921 2.69498 0
M  V30 9901 N 932.681 0.308908 1.54543 0
M  V30 9902 C 933.628 -0.563659 2.23811 0
M  V30 9903 C 934.598 -1.12332 1.22355 0
M  V30 9904 O 935.783 -1.16638 1.50997 0
M  V30 9905 C 932.923 -1.72585 2.98845 0
M  V30 9906 C 932.036 -1.19682 4.1509 0
M  V30 9907 C 931.171 -2.32351 4.77688 0
M  V30 9908 C 930.21 -1.76623 5.86064 0
M  V30 9909 N 929.347 -2.82896 6.42584 0
M  V30 9910 H 934.187 0.0336288 2.97981 0
M  V30 9911 H 931.724 0.0283666 1.47073 0
M  V30 9912 H 933.682 -2.40951 3.40586 0
M  V30 9913 H 932.312 -2.29464 2.27037 0
M  V30 9914 H 931.364 -0.405173 3.78236 0
M  V30 9915 H 932.676 -0.748923 4.93146 0
M  V30 9916 H 931.83 -3.0865 5.22322 0
M  V30 9917 H 930.569 -2.80472 3.98982 0
M  V30 9918 H 929.574 -0.988171 5.40847 0
M  V30 9919 H 930.799 -1.29398 6.66658 0
M  V30 9920 H 928.745 -3.30336 5.66758 0
M  V30 9921 H 928.662 -2.42626 7.16009 0
M  V30 9922 H 929.93 -3.59068 6.91875 0
M  V30 9923 N 934.159 -1.57557 0.0367827 0
M  V30 9924 C 935.109 -2.07182 -0.95183 0
M  V30 9925 C 936.093 -0.973921 -1.28076 0
M  V30 9926 O 937.285 -1.23741 -1.26559 0
M  V30 9927 C 934.414 -2.60869 -2.23164 0
M  V30 9928 C 933.5 -3.77602 -1.93074 0
M  V30 9929 N 933.891 -4.87923 -1.33283 0
M  V30 9930 C 932.189 -3.86234 -2.23023 0
M  V30 9931 C 932.89 -5.69083 -1.20498 0
M  V30 9932 N 931.866 -5.16233 -1.70306 0
M  V30 9933 H 935.668 -2.89876 -0.484647 0
M  V30 9934 H 933.182 -1.61528 -0.16804 0
M  V30 9935 H 935.179 -2.94716 -2.9487 0
M  V30 9936 H 933.839 -1.79607 -2.70502 0
M  V30 9937 H 934.85 -5.08018 -1.00686 0
M  V30 9938 H 931.527 -3.15891 -2.72981 0
M  V30 9939 H 932.917 -6.6779 -0.741999 0
M  V30 9940 N 935.637 0.236453 -1.55816 0
M  V30 9941 C 936.884 0.963012 -1.78136 0
M  V30 9942 C 937.212 1.84918 -0.602952 0
M  V30 9943 O 936.467 1.91285 0.413325 0
M  V30 9944 C 936.766 1.84549 -3.06066 0
M  V30 9945 C 936.432 1.11381 -4.36927 0
M  V30 9946 C 935.094 0.911635 -4.72486 0
M  V30 9947 C 937.446 0.596 -5.17781 0
M  V30 9948 C 934.774 0.179515 -5.86425 0
M  V30 9949 C 937.126 -0.122702 -6.32481 0
M  V30 9950 C 935.79 -0.336263 -6.66652 0
M  V30 9951 H 935.06 0.352391 -0.651845 0
M  V30 9952 H 937.707 0.232295 -1.90086 0
M  V30 9953 H 936.012 2.6436 -2.89173 0
M  V30 9954 H 937.709 2.40953 -3.20535 0
M  V30 9955 H 934.299 1.28134 -4.08998 0
M  V30 9956 H 938.483 0.73971 -4.90757 0
M  V30 9957 H 933.739 0.00368224 -6.114 0
M  V30 9958 H 937.913 -0.531516 -6.94369 0
M  V30 9959 H 935.54 -0.905507 -7.54788 0
M  V30 9960 N 937.115 1.49373 0.502552 0
M  V30 9961 C 938.063 1.66411 1.62512 0
M  V30 9962 C 939.057 0.530062 1.60893 0
M  V30 9963 O 940.263 0.709648 1.65421 0
M  V30 9964 H 936.638 0.524707 0.538689 0
M  V30 9965 H 938.609 2.60639 1.45293 0
M  V30 9966 C 937.358 1.74648 3.00655 0
M  V30 9967 H 936.681 2.61285 3.02606 0
M  V30 9968 H 938.121 1.90605 3.78742 0
M  V30 9969 C 936.58 0.490963 3.33303 0
M  V30 9970 O 937.11 -0.384039 3.9986 0
M  V30 9971 N 935.316 0.354375 2.88431 0
M  V30 9972 H 934.863 1.06742 2.34444 0
M  V30 9973 H 934.821 -0.484593 3.10643 0
M  V30 9974 N 938.594 -0.753485 1.38421 0
M  V30 9975 C 939.527 -1.87525 1.30037 0
M  V30 9976 C 940.505 -1.6163 0.177379 0
M  V30 9977 O 941.689 -1.85132 0.354716 0
M  V30 9978 C 938.816 -3.23138 1.01485 0
M  V30 9979 C 937.862 -3.67921 2.15723 0
M  V30 9980 S 938.695 -3.79447 3.77863 0
M  V30 9981 C 939.851 -5.17879 3.51499 0
M  V30 9982 H 940.084 -1.94351 2.24978 0
M  V30 9983 H 937.617 -0.916475 1.24258 0
M  V30 9984 H 939.575 -4.01455 0.856959 0
M  V30 9985 H 938.236 -3.13991 0.0826199 0
M  V30 9986 H 937.429 -4.66287 1.91292 0
M  V30 9987 H 937.031 -2.96758 2.2762 0
M  V30 9988 H 939.323 -6.03636 3.0762 0
M  V30 9989 H 940.266 -5.47331 4.49259 0
M  V30 9990 H 940.674 -4.86681 2.8601 0
M  V30 9991 N 940.072 -1.23292 -0.981677 0
M  V30 9992 C 941.297 -1.09176 -1.76339 0
M  V30 9993 C 941.722 0.352726 -1.84763 0
M  V30 9994 O 941.08 1.25509 -1.30832 0
M  V30 9995 C 941.128 -1.72046 -3.16911 0
M  V30 9996 O 940.232 -0.98174 -4.00544 0
M  V30 9997 H 939.573 -0.382755 -0.542581 0
M  V30 9998 H 942.103 -1.63319 -1.23239 0
M  V30 9999 H 942.113 -1.77232 -3.67495 0
M  V30 10000 H 940.788 -2.77154 -3.10095 0
M  V30 10001 H 939.365 -1.00672 -3.59054 0
M  V30 10002 N 941.55 1.18024 -1.04442 0
M  V30 10003 C 942.799 1.8743 -0.745185 0
M  V30 10004 C 943.112 1.81459 0.730206 0
M  V30 10005 O 944.318 2.46263 1.1431 0
M  V30 10006 C 942.774 3.36266 -1.28271 0
M  V30 10007 C 942.382 3.50757 -2.787 0
M  V30 10008 C 944.126 4.11048 -1.06018 0
M  V30 10009 C 942.033 4.93573 -3.25791 0
M  V30 10010 H 940.963 0.702038 -0.27506 0
M  V30 10011 H 943.614 1.33333 -1.26073 0
M  V30 10012 H 941.996 3.89853 -0.695002 0
M  V30 10013 H 943.17 3.07423 -3.43261 0
M  V30 10014 H 941.485 2.89385 -2.99408 0
M  V30 10015 H 944.082 5.16395 -1.38711 0
M  V30 10016 H 944.425 4.163 0.00241716 0
M  V30 10017 H 944.958 3.63644 -1.61269 0
M  V30 10018 H 941.697 4.93491 -4.31447 0
M  V30 10019 H 941.217 5.37607 -2.65968 0
M  V30 10020 H 942.896 5.62307 -3.20031 0
M  V30 10021 N 943.028 0.824394 1.34319 0
M  V30 10022 C 944.277 0.40956 1.97498 0
M  V30 10023 C 944.59 -1.03323 1.66083 0
M  V30 10024 O 945.796 -1.55205 2.22764 0
M  V30 10025 C 944.252 0.681384 3.53391 0
M  V30 10026 C 943.86 2.1379 3.93698 0
M  V30 10027 C 945.604 0.332788 4.23194 0
M  V30 10028 C 943.511 2.35453 5.42509 0
M  V30 10029 H 942.441 0.149409 0.739049 0
M  V30 10030 H 945.092 1.01095 1.5314 0
M  V30 10031 H 943.474 0.00980375 3.95999 0
M  V30 10032 H 944.648 2.84876 3.62191 0
M  V30 10033 H 942.963 2.44807 3.36836 0
M  V30 10034 H 945.56 0.472463 5.32609 0
M  V30 10035 H 945.903 -0.722862 4.09976 0
M  V30 10036 H 946.436 0.959005 3.86067 0
M  V30 10037 H 943.175 3.39529 5.60714 0
M  V30 10038 H 942.695 1.68912 5.75525 0
M  V30 10039 H 944.374 2.17885 6.09209 0
M  V30 10040 N 944.506 -1.46559 0.579492 0
M  V30 10041 C 945.755 -2.01606 0.0615735 0
M  V30 10042 C 946.068 -1.45695 -1.30508 0
M  V30 10043 O 947.274 -1.92541 -1.91416 0
M  V30 10044 C 945.73 -3.59851 0.059496 0
M  V30 10045 C 945.338 -4.24757 1.42427 0
M  V30 10046 C 947.082 -4.22567 -0.404646 0
M  V30 10047 C 944.989 -5.75072 1.38009 0
M  V30 10048 H 943.919 -0.753754 0.0192491 0
M  V30 10049 H 946.57 -1.68326 0.73066 0
M  V30 10050 H 944.952 -3.90193 -0.675691 0
M  V30 10051 H 946.126 -4.06029 2.17893 0
M  V30 10052 H 944.441 -3.74121 1.82817 0
M  V30 10053 H 947.038 -5.32748 -0.456441 0
M  V30 10054 H 947.381 -3.91279 -1.42149 0
M  V30 10055 H 947.914 -3.96839 0.276376 0
M  V30 10056 H 944.653 -6.11014 2.37364 0
M  V30 10057 H 944.173 -5.96073 0.667583 0
M  V30 10058 H 945.852 -6.37724 1.09163 0
M  V30 10059 N 945.984 -0.3171 -1.54377 0
M  V30 10060 C 947.209 0.292311 -2.0533 0
M  V30 10061 C 947.634 1.45503 -1.19207 0
M  V30 10062 O 946.992 1.80197 -0.199721 0
M  V30 10063 C 947.04 0.710787 -3.53525 0
M  V30 10064 O 946.144 1.81387 -3.70368 0
M  V30 10065 H 945.485 0.0539976 -0.661801 0
M  V30 10066 H 948.015 -0.463629 -1.99278 0
M  V30 10067 H 948.025 0.995216 -3.95676 0
M  V30 10068 H 946.7 -0.139668 -4.15665 0
M  V30 10069 H 945.277 1.52875 -3.40123 0
M  V30 10070 N 947.462 1.57535 -0.0451378 0
M  V30 10071 C 948.41 2.12351 0.949205 0
M  V30 10072 C 949.404 1.05386 1.32628 0
M  V30 10073 O 950.61 1.23802 1.30664 0
M  V30 10074 H 946.985 0.678648 0.323945 0
M  V30 10075 H 948.956 2.94806 0.461718 0
M  V30 10076 C 947.705 2.67862 2.21687 0
M  V30 10077 H 947.028 3.49826 1.93551 0
M  V30 10078 H 948.468 3.09844 2.89435 0
M  V30 10079 C 946.927 1.61353 2.95748 0
M  V30 10080 O 947.457 1.02276 3.88462 0
M  V30 10081 N 945.663 1.33017 2.5837 0
M  V30 10082 H 945.21 1.81246 1.83051 0
M  V30 10083 H 945.168 0.619812 3.0823 0
M  V30 10084 N 948.94 -0.228186 1.55939 0
M  V30 10085 C 950.188 -0.951668 1.78291 0
M  V30 10086 C 950.509 -1.85132 0.612474 0
M  V30 10087 O 949.779 -1.92356 -0.370942 0
M  V30 10088 H 948.359 -0.354388 0.657585 0
M  V30 10089 H 951.021 -0.241635 1.93396 0
M  V30 10090 H 950.117 -1.56239 2.70177 0
M  V30 10091 N 950.418 -1.49637 -0.494624 0
M  V30 10092 C 951.368 -1.63168 -1.59249 0
M  V30 10093 C 952.352 -0.487089 -1.5335 0
M  V30 10094 O 953.544 -0.74036 -1.60772 0
M  V30 10095 C 950.673 -1.70744 -2.97828 0
M  V30 10096 C 949.759 -2.90802 -3.08699 0
M  V30 10097 N 950.15 -4.14797 -2.89442 0
M  V30 10098 C 948.448 -2.88871 -3.39808 0
M  V30 10099 C 949.149 -4.95535 -3.04663 0
M  V30 10100 N 948.125 -4.29025 -3.33824 0
M  V30 10101 H 951.927 -2.56751 -1.43024 0
M  V30 10102 H 949.441 -1.46497 -0.700885 0
M  V30 10103 H 951.438 -1.78537 -3.76736 0
M  V30 10104 H 950.098 -0.783024 -3.15117 0
M  V30 10105 H 951.109 -4.44675 -2.6549 0
M  V30 10106 H 947.786 -2.05834 -3.63233 0
M  V30 10107 H 949.176 -6.0406 -2.94214 0
M  V30 10108 N 951.896 0.746133 -1.38819 0
M  V30 10109 C 953.144 1.50247 -1.35167 0
M  V30 10110 C 953.465 1.94921 0.0553531 0
M  V30 10111 O 952.735 1.68187 1.00449 0
M  V30 10112 H 951.315 0.557337 -0.497377 0
M  V30 10113 H 953.977 0.886472 -1.73573 0
M  V30 10114 H 953.073 2.38986 -2.00728 0
M  V30 10115 N 953.375 1.23811 0.975125 0
M  V30 10116 C 954.603 1.10019 1.75224 0
M  V30 10117 C 955.018 -0.34791 1.85567 0
M  V30 10118 O 954.375 -1.24043 1.33864 0
M  V30 10119 C 954.426 1.72572 3.1765 0
M  V30 10120 O 954.147 3.11719 3.07836 0
M  V30 10121 C 955.648 1.64292 4.11732 0
M  V30 10122 H 952.868 0.38476 0.549728 0
M  V30 10123 H 955.412 1.63768 1.22476 0
M  V30 10124 H 953.567 1.22843 3.67408 0
M  V30 10125 H 953.981 3.42152 3.97533 0
M  V30 10126 H 955.455 2.12754 5.09352 0
M  V30 10127 H 955.932 0.602722 4.35045 0
M  V30 10128 H 956.538 2.13411 3.6788 0
M  V30 10129 N 954.853 -1.17469 1.05066 0
M  V30 10130 C 956.081 -1.9162 0.780334 0
M  V30 10131 C 956.496 -1.76745 -0.663817 0
M  V30 10132 O 955.853 -1.10377 -1.45338 0
M  V30 10133 C 955.904 -3.42723 1.14992 0
M  V30 10134 O 955.625 -3.57139 2.53739 0
M  V30 10135 C 957.126 -4.33952 0.905549 0
M  V30 10136 H 954.346 -0.608022 0.283814 0
M  V30 10137 H 956.89 -1.4897 1.401 0
M  V30 10138 H 955.045 -3.83124 0.57403 0
M  V30 10139 H 955.459 -4.5075 2.68189 0
M  V30 10140 H 956.933 -5.38487 1.21391 0
M  V30 10141 H 957.41 -4.38911 -0.159295 0
M  V30 10142 H 958.016 -3.99263 1.46522 0
M  V30 10143 N 956.331 -0.831506 -1.3388 0
M  V30 10144 C 957.263 -0.216908 -2.28171 0
M  V30 10145 C 958.276 0.598141 -1.51414 0
M  V30 10146 O 959.465 0.426416 -1.73332 0
M  V30 10147 C 956.565 0.713831 -3.31297 0
M  V30 10148 C 955.738 -0.0602673 -4.37358 0
M  V30 10149 C 954.797 0.792696 -5.20195 0
M  V30 10150 O 953.823 0.234564 -5.68716 0
M  V30 10151 N 955.025 2.11119 -5.40748 0
M  V30 10152 H 957.79 -1.02704 -2.81553 0
M  V30 10153 H 955.351 -0.689272 -1.46495 0
M  V30 10154 H 957.343 1.28925 -3.83615 0
M  V30 10155 H 955.913 1.42469 -2.78247 0
M  V30 10156 H 955.133 -0.817041 -3.8564 0
M  V30 10157 H 956.421 -0.592822 -5.05335 0
M  V30 10158 H 955.819 2.58828 -5.03016 0
M  V30 10159 H 954.376 2.63527 -5.96151 0
M  V30 10160 N 957.809 1.4625 -0.587256 0
M  V30 10161 C 959.039 2.06444 -0.0802135 0
M  V30 10162 C 959.447 1.43585 1.23207 0
M  V30 10163 O 958.79 0.536956 1.75677 0
M  V30 10164 C 958.852 3.59165 0.155129 0
M  V30 10165 C 958.516 4.44243 -1.07225 0
M  V30 10166 C 959.513 4.80497 -1.98542 0
M  V30 10167 C 957.198 4.8531 -1.29537 0
M  V30 10168 C 959.192 5.56649 -3.10516 0
M  V30 10169 C 956.879 5.61221 -2.41815 0
M  V30 10170 C 957.877 5.96805 -3.32134 0
M  V30 10171 O 957.565 6.71181 -4.42461 0
M  V30 10172 H 957.297 0.673626 -0.0566063 0
M  V30 10173 H 959.851 1.88797 -0.809004 0
M  V30 10174 H 958.081 3.75137 0.938583 0
M  V30 10175 H 959.77 4.01271 0.611243 0
M  V30 10176 H 960.536 4.49345 -1.82522 0
M  V30 10177 H 956.415 4.5706 -0.601431 0
M  V30 10178 H 959.959 5.84343 -3.81037 0
M  V30 10179 H 955.856 5.91786 -2.57797 0
M  V30 10180 H 956.624 6.8961 -4.40886 0
M  V30 10181 N 959.287 0.325282 1.54207 0
M  V30 10182 C 960.512 -0.281418 2.05482 0
M  V30 10183 C 960.937 -1.44869 1.19977 0
M  V30 10184 O 960.295 -1.80088 0.209275 0
M  V30 10185 C 960.343 -0.692029 3.53897 0
M  V30 10186 O 959.447 -1.7942 3.71325 0
M  V30 10187 H 958.788 -0.0504872 0.662078 0
M  V30 10188 H 961.318 0.474191 1.99029 0
M  V30 10189 H 961.328 -0.974219 3.96198 0
M  V30 10190 H 960.003 0.161709 4.15586 0
M  V30 10191 H 958.58 -1.51069 3.40929 0
M  V30 10192 N 960.765 -1.57509 0.0534917 0
M  V30 10193 C 961.993 -1.97098 -0.629298 0
M  V30 10194 C 962.408 -0.931128 -1.64242 0
M  V30 10195 O 961.765 0.0843866 -1.82305 0
M  V30 10196 C 961.816 -3.36767 -1.31415 0
M  V30 10197 O 961.537 -4.36766 -0.341599 0
M  V30 10198 C 963.038 -3.91127 -2.08649 0
M  V30 10199 H 960.258 -0.648611 -0.171886 0
M  V30 10200 H 962.802 -2.04145 0.120479 0
M  V30 10201 H 960.957 -3.30863 -2.01515 0
M  V30 10202 H 961.371 -5.1788 -0.830715 0
M  V30 10203 H 962.845 -4.91129 -2.51985 0
M  V30 10204 H 963.322 -3.26679 -2.9356 0
M  V30 10205 H 963.928 -4.00376 -1.43456 0
M  V30 10206 N 962.243 0.219913 -1.56058 0
M  V30 10207 C 963.49 0.944064 -1.79147 0
M  V30 10208 C 963.818 1.84268 -0.622531 0
M  V30 10209 O 963.073 1.91713 0.393013 0
M  V30 10210 C 963.372 1.81293 -3.08006 0
M  V30 10211 C 963.038 1.0674 -4.38084 0
M  V30 10212 C 961.7 0.86147 -4.73426 0
M  V30 10213 C 964.052 0.541049 -5.18384 0
M  V30 10214 C 961.38 0.117307 -5.86583 0
M  V30 10215 C 963.732 -0.189779 -6.32315 0
M  V30 10216 C 962.396 -0.406951 -6.66258 0
M  V30 10217 H 961.666 0.345458 -0.655546 0
M  V30 10218 H 964.313 0.212121 -1.90322 0
M  V30 10219 H 962.618 2.61278 -2.9196 0
M  V30 10220 H 964.315 2.3754 -3.23072 0
M  V30 10221 H 960.905 1.23789 -4.10334 0
M  V30 10222 H 965.089 0.687617 -4.91514 0
M  V30 10223 H 960.345 -0.0611651 -6.11369 0
M  V30 10224 H 964.519 -0.605134 -6.93766 0
M  V30 10225 H 962.146 -0.985511 -7.53785 0
M  V30 10226 N 963.721 1.49897 0.486681 0
M  V30 10227 C 964.946 1.64106 1.26823 0
M  V30 10228 C 965.371 0.317967 1.85393 0
M  V30 10229 O 964.729 -0.71626 1.66551 0
M  V30 10230 C 964.777 2.72301 2.36399 0
M  V30 10231 O 963.881 2.32469 3.40634 0
M  V30 10232 H 963.222 0.548794 0.373793 0
M  V30 10233 H 965.752 1.96177 0.581017 0
M  V30 10234 H 965.762 2.94906 2.81948 0
M  V30 10235 H 964.437 3.68335 1.93137 0
M  V30 10236 H 963.014 2.20251 3.00905 0
M  V30 10237 N 965.199 -0.738761 1.39212 0
M  V30 10238 C 966.429 -1.5258 1.39295 0
M  V30 10239 C 966.837 -1.89194 -0.0153 0
M  V30 10240 O 966.18 -1.5435 -0.996073 0
M  V30 10241 C 966.242 -2.84462 2.19822 0
M  V30 10242 C 965.906 -2.70303 3.68491 0
M  V30 10243 C 966.903 -2.39102 4.61656 0
M  V30 10244 C 964.588 -2.87291 4.1203 0
M  V30 10245 C 966.582 -2.25066 5.96342 0
M  V30 10246 C 964.269 -2.72874 5.46793 0
M  V30 10247 C 965.267 -2.41807 6.38763 0
M  V30 10248 O 964.955 -2.27475 7.71045 0
M  V30 10249 H 964.687 -0.478236 0.477772 0
M  V30 10250 H 967.241 -0.920846 1.83602 0
M  V30 10251 H 965.471 -3.47202 1.70257 0
M  V30 10252 H 967.16 -3.46058 2.12129 0
M  V30 10253 H 967.926 -2.25632 4.2932 0
M  V30 10254 H 963.805 -3.10466 3.40781 0
M  V30 10255 H 967.349 -2.00739 6.68094 0
M  V30 10256 H 963.246 -2.85922 5.78722 0
M  V30 10257 H 964.014 -2.42574 7.81729 0
M  V30 10258 N 966.677 -1.24326 -0.968545 0
M  V30 10259 C 967.923 -1.08406 -1.71394 0
M  V30 10260 C 968.256 0.376353 -1.90518 0
M  V30 10261 O 967.531 1.27816 -1.46606 0
M  V30 10262 C 967.814 -1.82344 -3.1052 0
M  V30 10263 C 967.667 -3.3613 -2.98893 0
M  V30 10264 C 968.986 -1.59545 -4.10163 0
M  V30 10265 H 966.105 -0.395205 -0.622079 0
M  V30 10266 H 968.747 -1.52983 -1.12677 0
M  V30 10267 H 966.897 -1.44452 -3.60646 0
M  V30 10268 H 968.569 -3.83614 -2.56199 0
M  V30 10269 H 966.812 -3.64553 -2.35124 0
M  V30 10270 H 967.483 -3.83064 -3.97449 0
M  V30 10271 H 969.959 -1.92504 -3.68892 0
M  V30 10272 H 968.835 -2.13736 -5.05577 0
M  V30 10273 H 969.096 -0.533503 -4.38869 0
M  V30 10274 N 968.156 1.1691 -1.05688 0
M  V30 10275 C 969.433 1.83266 -0.683601 0
M  V30 10276 C 969.813 1.93858 0.835602 0
M  V30 10277 O 969.161 1.47696 1.7435 0
M  V30 10278 C 969.371 3.20625 -1.37842 0
M  V30 10279 C 970.719 3.96473 -1.51967 0
M  V30 10280 O 971.743 3.30122 -1.33783 0
M  V30 10281 O 970.602 5.15393 -1.81749 0
M  V30 10282 H 967.696 0.791028 -0.241254 0
M  V30 10283 H 970.242 1.24165 -1.15677 0
M  V30 10284 H 969.014 3.07914 -2.41463 0
M  V30 10285 H 968.637 3.87398 -0.894921 0
M  V30 10286 N 969.634 0.838594 1.33437 0
M  V30 10287 C 971.045 0.490934 1.8013 0
M  V30 10288 C 971.396 -0.990024 1.6939 0
M  V30 10289 O 970.521 -1.77139 1.24302 0
M  V30 10290 C 971.116 0.884347 3.27055 0
M  V30 10291 C 969.675 0.588829 3.71766 0
M  V30 10292 C 968.822 1.09282 2.54858 0
M  V30 10293 H 971.773 1.02732 1.20962 0
M  V30 10294 H 971.794 0.194283 3.80004 0
M  V30 10295 H 971.306 1.96225 3.34839 0
M  V30 10296 H 969.407 -0.479018 3.69508 0
M  V30 10297 H 969.52 1.14387 4.65245 0
M  V30 10298 H 967.884 0.513702 2.49466 0
M  V30 10299 H 968.667 2.1775 2.65405 0
M  V30 10300 N 971.112 -1.45937 0.595003 0
M  V30 10301 C 972.358 -2.0262 0.0854317 0
M  V30 10302 C 972.691 -1.46402 -1.27594 0
M  V30 10303 O 971.966 -0.633823 -1.83883 0
M  V30 10304 C 972.249 -3.60085 0.0329075 0
M  V30 10305 C 972.102 -4.26663 1.42405 0
M  V30 10306 C 973.421 -4.35101 -0.661426 0
M  V30 10307 H 970.54 -0.736282 0.0325196 0
M  V30 10308 H 973.182 -1.73938 0.764563 0
M  V30 10309 H 971.332 -3.84652 -0.545439 0
M  V30 10310 H 973.004 -4.13321 2.04851 0
M  V30 10311 H 971.247 -3.85549 1.98833 0
M  V30 10312 H 971.918 -5.35497 1.33965 0
M  V30 10313 H 974.394 -4.15753 -0.169977 0
M  V30 10314 H 973.27 -5.44829 -0.667243 0
M  V30 10315 H 973.531 -4.07053 -1.72513 0
M  V30 10316 N 972.59 -0.333456 -1.54032 0
M  V30 10317 C 973.839 0.267081 -1.99924 0
M  V30 10318 C 974.152 1.52463 -1.22534 0
M  V30 10319 O 975.358 2.20178 -1.58852 0
M  V30 10320 C 973.814 0.526456 -3.56029 0
M  V30 10321 C 973.422 -0.714607 -4.42264 0
M  V30 10322 C 975.166 1.0864 -4.10363 0
M  V30 10323 C 973.073 -0.42659 -5.89859 0
M  V30 10324 H 972.003 0.103577 -0.746852 0
M  V30 10325 H 974.654 -0.447218 -1.77967 0
M  V30 10326 H 973.036 1.3012 -3.74012 0
M  V30 10327 H 974.21 -1.48968 -4.36056 0
M  V30 10328 H 972.525 -1.19547 -3.9887 0
M  V30 10329 H 975.122 1.31668 -5.18235 0
M  V30 10330 H 975.465 2.03884 -3.62956 0
M  V30 10331 H 975.998 0.37261 -3.96051 0
M  V30 10332 H 972.737 -1.34847 -6.4148 0
M  V30 10333 H 972.257 0.310588 -5.98995 0
M  V30 10334 H 973.936 -0.0400807 -6.46988 0
M  V30 10335 N 974.068 1.57479 -0.061844 0
M  V30 10336 C 975.296 1.97429 0.618837 0
M  V30 10337 C 975.711 0.939826 1.63746 0
M  V30 10338 O 975.068 -0.0747173 1.82347 0
M  V30 10339 C 975.119 3.3746 1.29628 0
M  V30 10340 O 974.84 4.36941 0.318431 0
M  V30 10341 C 976.341 3.92228 2.06572 0
M  V30 10342 H 973.561 0.649513 0.168444 0
M  V30 10343 H 976.105 2.04078 -0.131303 0
M  V30 10344 H 974.26 3.31928 1.99757 0
M  V30 10345 H 974.674 5.18313 0.803239 0
M  V30 10346 H 976.148 4.92458 2.49377 0
M  V30 10347 H 976.625 3.28231 2.91824 0
M  V30 10348 H 977.231 4.01131 1.4133 0
M  V30 10349 N 975.546 -0.211634 1.56173 0
M  V30 10350 C 976.771 -0.955324 1.84088 0
M  V30 10351 C 977.196 -1.76754 0.643407 0
M  V30 10352 O 976.554 -1.76653 -0.407842 0
M  V30 10353 C 976.602 -1.84063 3.10085 0
M  V30 10354 O 975.706 -2.9373 2.89476 0
M  V30 10355 H 975.047 -0.26996 0.606645 0
M  V30 10356 H 977.577 -0.221947 2.03393 0
M  V30 10357 H 977.587 -2.24852 3.40449 0
M  V30 10358 H 976.262 -1.24373 3.96868 0
M  V30 10359 H 974.839 -2.56816 2.7037 0
M  V30 10360 N 977.024 -1.50153 -0.478725 0
M  V30 10361 C 978.273 -1.60002 -1.22809 0
M  V30 10362 C 978.586 -0.302277 -1.9325 0
M  V30 10363 O 979.792 -0.279583 -2.70057 0
M  V30 10364 C 978.248 -2.82402 -2.23108 0
M  V30 10365 C 977.856 -4.19023 -1.58505 0
M  V30 10366 C 979.6 -3.01593 -2.98734 0
M  V30 10367 C 977.507 -5.32618 -2.57045 0
M  V30 10368 H 976.437 -0.595822 -0.462073 0
M  V30 10369 H 979.088 -1.76573 -0.499412 0
M  V30 10370 H 977.47 -2.59373 -2.99235 0
M  V30 10371 H 978.644 -4.52277 -0.882187 0
M  V30 10372 H 976.959 -4.05374 -0.951877 0
M  V30 10373 H 979.556 -3.8363 -3.72468 0
M  V30 10374 H 979.899 -2.1302 -3.57671 0
M  V30 10375 H 980.432 -3.24766 -2.29721 0
M  V30 10376 H 977.171 -6.23321 -2.02858 0
M  V30 10377 H 976.691 -5.03792 -3.25505 0
M  V30 10378 H 978.37 -5.62877 -3.19028 0
M  V30 10379 N 978.502 0.731368 -1.39602 0
M  V30 10380 C 979.727 1.52567 -1.40492 0
M  V30 10381 C 980.152 1.881 -0.00228828 0
M  V30 10382 O 979.51 1.52167 0.985643 0
M  V30 10383 C 979.558 2.78749 -2.2876 0
M  V30 10384 O 978.662 3.7482 -1.71999 0
M  V30 10385 H 978.003 0.460601 -0.478271 0
M  V30 10386 H 980.533 0.902042 -1.83642 0
M  V30 10387 H 980.543 3.27446 -2.43399 0
M  V30 10388 H 979.218 2.5222 -3.30693 0
M  V30 10389 H 977.795 3.33604 -1.66622 0
M  V30 10390 N 979.98 1.24838 0.961938 0
M  V30 10391 C 981.391 1.08369 1.5203 0
M  V30 10392 C 981.742 -0.343005 1.93178 0
M  V30 10393 O 980.867 -1.2321 1.779 0
M  V30 10394 C 981.462 1.96102 2.76278 0
M  V30 10395 C 980.021 1.8384 3.28451 0
M  V30 10396 C 979.168 1.9069 2.01327 0
M  V30 10397 H 982.119 1.38231 0.779613 0
M  V30 10398 H 982.14 1.4967 3.49827 0
M  V30 10399 H 981.652 2.99931 2.46298 0
M  V30 10400 H 979.753 0.828653 3.63269 0
M  V30 10401 H 979.866 2.68251 3.96961 0
M  V30 10402 H 978.23 1.34488 2.16299 0
M  V30 10403 H 979.013 2.96111 1.73705 0
M  V30 10404 N 981.458 -1.16348 1.06306 0
M  V30 10405 C 982.405 -2.20741 0.673962 0
M  V30 10406 C 983.375 -1.628 -0.329454 0
M  V30 10407 O 984.56 -1.89547 -0.218313 0
M  V30 10408 C 981.7 -3.45036 0.0667008 0
M  V30 10409 C 980.813 -4.17221 1.12031 0
M  V30 10410 C 979.948 -5.29034 0.479176 0
M  V30 10411 C 978.987 -5.93021 1.51631 0
M  V30 10412 N 978.124 -6.96327 0.898528 0
M  V30 10413 H 982.964 -2.53376 1.56859 0
M  V30 10414 H 980.501 -1.24449 0.784276 0
M  V30 10415 H 982.459 -4.16099 -0.302916 0
M  V30 10416 H 981.089 -3.1295 -0.791333 0
M  V30 10417 H 980.141 -3.4476 1.60763 0
M  V30 10418 H 981.453 -4.60902 1.90712 0
M  V30 10419 H 980.607 -6.06674 0.0565993 0
M  V30 10420 H 979.346 -4.86517 -0.33951 0
M  V30 10421 H 978.351 -5.14104 1.94878 0
M  V30 10422 H 979.576 -6.37618 2.3371 0
M  V30 10423 H 977.522 -6.55923 0.100555 0
M  V30 10424 H 977.439 -7.38379 1.62272 0
M  V30 10425 H 978.707 -7.77888 0.5011 0
M  V30 10426 N 982.937 -0.845659 -1.3299 0
M  V30 10427 C 984.167 -0.457686 -2.01467 0
M  V30 10428 C 984.575 0.947664 -1.63756 0
M  V30 10429 O 983.918 1.62841 -0.850213 0
M  V30 10430 C 983.98 -0.506589 -3.55913 0
M  V30 10431 C 983.644 -1.86924 -4.17023 0
M  V30 10432 C 984.641 -2.83344 -4.35904 0
M  V30 10433 C 982.326 -2.16394 -4.53298 0
M  V30 10434 C 984.32 -4.07391 -4.90216 0
M  V30 10435 C 982.007 -3.40695 -5.07316 0
M  V30 10436 C 983.005 -4.3601 -5.25722 0
M  V30 10437 O 982.693 -5.58112 -5.7859 0
M  V30 10438 H 982.425 -0.179258 -0.651799 0
M  V30 10439 H 984.979 -1.14172 -1.70745 0
M  V30 10440 H 983.209 0.234253 -3.8599 0
M  V30 10441 H 984.898 -0.135487 -4.05674 0
M  V30 10442 H 985.664 -2.61879 -4.08221 0
M  V30 10443 H 981.543 -1.42994 -4.38262 0
M  V30 10444 H 985.087 -4.81796 -5.04498 0
M  V30 10445 H 980.984 -3.62014 -5.3443 0
M  V30 10446 H 981.752 -5.59946 -5.96995 0
M  V30 10447 N 984.415 1.45619 -0.602734 0
M  V30 10448 C 985.663 2.01873 -0.095844 0
M  V30 10449 C 985.984 1.47427 1.27633 0
M  V30 10450 O 985.254 0.666652 1.84208 0
M  V30 10451 H 983.834 0.746295 -0.0324408 0
M  V30 10452 H 986.496 1.78478 -0.783037 0
M  V30 10453 H 985.592 3.12072 -0.0419507 0
M  V30 10454 N 985.893 0.34162 1.53853 0
M  V30 10455 C 987.304 -0.14269 1.86154 0
M  V30 10456 C 987.655 -1.50151 1.2629 0
M  V30 10457 O 986.78 -2.08601 0.575735 0
M  V30 10458 C 987.375 -0.265691 3.37757 0
M  V30 10459 C 985.934 -0.694231 3.69942 0
M  V30 10460 C 985.081 0.173195 2.76759 0
M  V30 10461 H 988.032 0.561284 1.48443 0
M  V30 10462 H 988.053 -1.09352 3.64448 0
M  V30 10463 H 987.565 0.723424 3.81298 0
M  V30 10464 H 985.666 -1.69244 3.31945 0
M  V30 10465 H 985.779 -0.485461 4.76634 0
M  V30 10466 H 984.143 -0.35416 2.52226 0
M  V30 10467 H 984.926 1.15941 3.23129 0
M  V30 10468 N 987.371 -1.57444 0.0701946 0
M  V30 10469 C 988.304 -2.08232 -0.93352 0
M  V30 10470 C 989.282 -0.987073 -1.29212 0
M  V30 10471 O 990.466 -1.26035 -1.40169 0
M  V30 10472 C 987.593 -2.53866 -2.2421 0
M  V30 10473 C 986.639 -3.7481 -2.03518 0
M  V30 10474 S 987.472 -5.1958 -1.29601 0
M  V30 10475 C 988.628 -5.68544 -2.61742 0
M  V30 10476 H 988.861 -2.93042 -0.501354 0
M  V30 10477 H 986.394 -1.53741 -0.142533 0
M  V30 10478 H 988.352 -2.80818 -2.99419 0
M  V30 10479 H 987.013 -1.69327 -2.64551 0
M  V30 10480 H 986.206 -4.04724 -3.00358 0
M  V30 10481 H 985.808 -3.48222 -1.36445 0
M  V30 10482 H 988.1 -5.75291 -3.57836 0
M  V30 10483 H 989.043 -6.67459 -2.3644 0
M  V30 10484 H 989.451 -4.96354 -2.68873 0
M  V30 10485 N 988.849 0.203349 -1.56283 0
M  V30 10486 C 989.812 1.23566 -1.93039 0
M  V30 10487 C 990.812 1.38869 -0.810687 0
M  V30 10488 O 992.002 1.36822 -1.07821 0
M  V30 10489 C 989.134 2.60645 -2.1972 0
M  V30 10490 H 990.327 0.921692 -2.85385 0
M  V30 10491 H 987.88 0.44453 -1.49845 0
M  V30 10492 H 988.615 2.9711 -1.29985 0
M  V30 10493 H 988.4 2.50911 -3.01307 0
M  V30 10494 H 989.89 3.35103 -2.4919 0
M  V30 10495 N 990.327 1.50405 0.470755 0
M  V30 10496 C 991.575 1.61092 1.2204 0
M  V30 10497 C 991.896 0.313487 1.92464 0
M  V30 10498 O 991.166 -0.669043 1.84121 0
M  V30 10499 H 989.746 0.593618 0.45346 0
M  V30 10500 H 992.408 1.87184 0.542985 0
M  V30 10501 H 991.504 2.42222 1.96812 0
M  V30 10502 N 991.805 -0.723954 1.39988 0
M  V30 10503 C 993.053 -1.48078 1.3754 0
M  V30 10504 C 993.374 -1.94985 -0.0243358 0
M  V30 10505 O 992.644 -1.69764 -0.977602 0
M  V30 10506 H 991.224 -0.549354 0.506181 0
M  V30 10507 H 993.886 -0.858746 1.74962 0
M  V30 10508 H 992.982 -2.35763 2.04505 0
M  V30 10509 N 993.283 -1.25346 -0.955304 0
M  V30 10510 C 994.511 -1.12793 -1.73451 0
M  V30 10511 C 994.926 0.318344 -1.86097 0
M  V30 10512 O 994.283 1.21897 -1.35821 0
M  V30 10513 C 994.334 -1.77603 -3.14864 0
M  V30 10514 O 994.055 -3.16577 -3.02837 0
M  V30 10515 C 995.556 -1.70821 -4.09066 0
M  V30 10516 H 992.776 -0.393457 -0.543537 0
M  V30 10517 H 995.32 -1.65696 -1.19855 0
M  V30 10518 H 993.475 -1.28673 -3.65407 0
M  V30 10519 H 993.889 -3.48433 -3.92039 0
M  V30 10520 H 995.363 -2.2083 -5.05903 0
M  V30 10521 H 995.84 -0.671858 -4.34031 0
M  V30 10522 H 996.446 -2.19237 -3.64438 0
M  V30 10523 N 994.761 1.15782 -1.06922 0
M  V30 10524 C 995.691 2.22538 -0.707045 0
M  V30 10525 C 996.672 1.67371 0.303471 0
M  V30 10526 O 997.857 1.9339 0.177189 0
M  V30 10527 C 994.987 3.47158 -0.0994269 0
M  V30 10528 C 993.941 4.15257 -1.03661 0
M  V30 10529 C 993.267 5.33902 -0.291974 0
M  V30 10530 C 994.567 4.65516 -2.36837 0
M  V30 10531 H 996.261 2.53089 -1.59958 0
M  V30 10532 H 993.807 1.21649 -0.770552 0
M  V30 10533 H 995.76 4.21073 0.165852 0
M  V30 10534 H 994.484 3.15926 0.828155 0
M  V30 10535 H 993.143 3.43276 -1.28674 0
M  V30 10536 H 992.791 4.98926 0.638928 0
M  V30 10537 H 992.491 5.80407 -0.916613 0
M  V30 10538 H 994.015 6.1059 -0.0343915 0
M  V30 10539 H 995.429 5.30981 -2.16175 0
M  V30 10540 H 993.826 5.22666 -2.94856 0
M  V30 10541 H 994.896 3.81387 -2.99453 0
M  V30 10542 N 996.239 0.8527 1.3254 0
M  V30 10543 C 997.169 0.311234 2.31416 0
M  V30 10544 C 998.15 -0.588557 1.59593 0
M  V30 10545 O 999.335 -0.509211 1.87405 0
M  V30 10546 C 996.465 -0.502892 3.4364 0
M  V30 10547 C 995.419 0.302296 4.26931 0
M  V30 10548 C 994.745 -0.636445 5.30899 0
M  V30 10549 C 996.045 1.52697 4.99481 0
M  V30 10550 H 997.739 1.13742 2.76953 0
M  V30 10551 H 995.285 0.548389 1.33149 0
M  V30 10552 H 997.238 -0.892092 4.11849 0
M  V30 10553 H 995.962 -1.36242 2.96826 0
M  V30 10554 H 994.621 0.673226 3.60365 0
M  V30 10555 H 994.269 -1.49277 4.80339 0
M  V30 10556 H 993.969 -0.101716 5.87512 0
M  V30 10557 H 995.493 -1.02286 6.01972 0
M  V30 10558 H 996.907 1.21017 5.60382 0
M  V30 10559 H 995.304 1.9995 5.65809 0
M  V30 10560 H 996.374 2.28929 4.27457 0
M  V30 10561 N 997.718 -1.45297 0.610449 0
M  V30 10562 C 998.946 -2.0659 0.113211 0
M  V30 10563 C 999.361 -1.4546 -1.20361 0
M  V30 10564 O 998.718 -0.569823 -1.73376 0
M  V30 10565 C 998.769 -3.61488 -0.0298411 0
M  V30 10566 O 998.49 -4.20336 1.23488 0
M  V30 10567 C 999.991 -4.39772 -0.558202 0
M  V30 10568 H 997.211 -0.667322 0.0701555 0
M  V30 10569 H 999.755 -1.86497 0.838993 0
M  V30 10570 H 997.91 -3.80913 -0.705963 0
M  V30 10571 H 998.324 -5.13545 1.0664 0
M  V30 10572 H 999.798 -5.48648 -0.607375 0
M  V30 10573 H 1000.27 -4.09755 -1.58107 0
M  V30 10574 H 1000.88 -4.25217 0.0839704 0
M  V30 10575 N 999.196 -0.349774 -1.5367 0
M  V30 10576 C 1000.13 0.496338 -2.28164 0
M  V30 10577 C 1001.11 1.09737 -1.29968 0
M  V30 10578 O 1002.29 1.11759 -1.58819 0
M  V30 10579 C 999.422 1.64428 -3.0591 0
M  V30 10580 C 998.376 1.17127 -4.11661 0
M  V30 10581 C 997.702 2.40822 -4.77398 0
M  V30 10582 C 999.002 0.267293 -5.21616 0
M  V30 10583 H 1000.7 -0.125117 -2.99138 0
M  V30 10584 H 998.242 -0.0616152 -1.43868 0
M  V30 10585 H 1000.19 2.2427 -3.56765 0
M  V30 10586 H 998.919 2.29272 -2.32598 0
M  V30 10587 H 997.578 0.595634 -3.61729 0
M  V30 10588 H 997.226 3.04088 -4.00674 0
M  V30 10589 H 996.926 2.09852 -5.48849 0
M  V30 10590 H 998.45 3.01378 -5.3104 0
M  V30 10591 H 999.864 0.772734 -5.68068 0
M  V30 10592 H 998.261 0.0491991 -6.0008 0
M  V30 10593 H 999.331 -0.694892 -4.79895 0
M  V30 10594 N 1000.67 1.57404 -0.0785433 0
M  V30 10595 C 1001.9 1.98074 0.597862 0
M  V30 10596 C 1002.32 0.95714 1.6274 0
M  V30 10597 O 1001.67 -0.0553728 1.82416 0
M  V30 10598 C 1001.72 3.38815 1.26041 0
M  V30 10599 O 1001.45 4.37254 0.27207 0
M  V30 10600 C 1002.95 3.94397 2.024 0
M  V30 10601 H 1000.17 0.651263 0.161546 0
M  V30 10602 H 1002.71 2.03927 -0.152941 0
M  V30 10603 H 1000.87 3.34028 1.96225 0
M  V30 10604 H 1001.28 5.19136 0.74822 0
M  V30 10605 H 1002.75 4.95075 2.4414 0
M  V30 10606 H 1003.23 3.31308 2.88326 0
M  V30 10607 H 1003.84 4.02607 1.37068 0
M  V30 10608 N 1002.15 -0.195058 1.56388 0
M  V30 10609 C 1003.4 -0.913636 1.8027 0
M  V30 10610 C 1003.72 -1.83791 0.651606 0
M  V30 10611 O 1002.99 -1.931 -0.330057 0
M  V30 10612 H 1001.57 -0.34036 0.664954 0
M  V30 10613 H 1004.23 -0.200559 1.93865 0
M  V30 10614 H 1003.33 -1.50473 2.7343 0
M  V30 10615 N 1003.63 -1.50653 -0.462772 0
M  V30 10616 C 1004.58 -1.70661 -1.58043 0
M  V30 10617 C 1005.57 -0.572533 -1.59432 0
M  V30 10618 O 1006.78 -0.753257 -1.63481 0
M  V30 10619 H 1003.15 -0.538805 -0.524588 0
M  V30 10620 H 1005.12 -2.64399 -1.38332 0
M  V30 10621 C 1003.87 -1.82558 -2.95919 0
M  V30 10622 H 1003.2 -2.69216 -2.95572 0
M  V30 10623 H 1004.64 -2.0058 -3.73556 0
M  V30 10624 C 1003.09 -0.57916 -3.31885 0
M  V30 10625 O 1003.62 0.277888 -4.00738 0
M  V30 10626 N 1001.83 -0.430723 -2.8739 0
M  V30 10627 H 1001.38 -1.1292 -2.31531 0
M  V30 10628 H 1001.34 0.402061 -3.11819 0
M  V30 10629 N 1005.11 0.71652 -1.4037 0
M  V30 10630 C 1006.34 1.50344 -1.41704 0
M  V30 10631 C 1006.75 1.89194 -0.0148011 0
M  V30 10632 O 1006.09 1.55916 0.971391 0
M  V30 10633 C 1006.15 2.80928 -2.2432 0
M  V30 10634 C 1005.82 2.64406 -3.72744 0
M  V30 10635 C 1006.81 2.31727 -4.65401 0
M  V30 10636 C 1004.5 2.807 -4.16549 0
M  V30 10637 C 1006.49 2.15551 -5.99847 0
M  V30 10638 C 1004.18 2.64141 -5.51065 0
M  V30 10639 C 1005.18 2.31614 -6.42529 0
M  V30 10640 O 1004.86 2.15179 -7.74566 0
M  V30 10641 H 1004.6 0.470574 -0.48532 0
M  V30 10642 H 1007.15 0.89152 -1.85043 0
M  V30 10643 H 1005.38 3.4445 -1.75759 0
M  V30 10644 H 1007.07 3.4264 -2.17607 0
M  V30 10645 H 1007.84 2.18773 -4.32855 0
M  V30 10646 H 1003.71 3.05005 -3.45677 0
M  V30 10647 H 1007.26 1.90084 -6.71203 0
M  V30 10648 H 1003.16 2.76679 -5.83197 0
M  V30 10649 H 1003.92 2.30106 -7.85489 0
M  V30 10650 N 1006.59 1.25851 0.948643 0
M  V30 10651 C 1007.52 1.09248 2.06367 0
M  V30 10652 C 1008.5 -0.000205168 1.701 0
M  V30 10653 O 1009.68 0.170442 1.93451 0
M  V30 10654 C 1006.81 0.716777 3.39823 0
M  V30 10655 C 1005.77 1.76036 3.90122 0
M  V30 10656 C 1005.09 1.23918 5.20143 0
M  V30 10657 C 1006.39 3.16039 4.15833 0
M  V30 10658 H 1008.09 2.02518 2.20515 0
M  V30 10659 H 1005.63 0.975093 1.05962 0
M  V30 10660 H 1007.59 0.587531 4.17284 0
M  V30 10661 H 1006.31 -0.251626 3.25629 0
M  V30 10662 H 1004.97 1.87815 3.14835 0
M  V30 10663 H 1004.62 0.260836 5.02323 0
M  V30 10664 H 1004.32 1.93673 5.54765 0
M  V30 10665 H 1005.84 1.12245 6.00194 0
M  V30 10666 H 1007.25 3.0738 4.83933 0
M  V30 10667 H 1005.65 3.83317 4.61723 0
M  V30 10668 H 1006.72 3.62652 3.21887 0
M  V30 10669 N 1008.06 -1.15214 1.07534 0
M  V30 10670 C 1009.01 -2.22078 0.69168 0
M  V30 10671 C 1010.01 -1.66751 -0.298382 0
M  V30 10672 O 1011.21 -1.7927 -0.161897 0
M  V30 10673 H 1007.59 -0.723347 0.205604 0
M  V30 10674 H 1009.56 -2.51716 1.60256 0
M  V30 10675 C 1008.31 -3.47534 0.107546 0
M  V30 10676 H 1007.63 -3.90429 0.860522 0
M  V30 10677 H 1009.07 -4.23821 -0.123215 0
M  V30 10678 C 1007.53 -3.16583 -1.15226 0
M  V30 10679 O 1008.06 -3.33551 -2.23845 0
M  V30 10680 N 1006.27 -2.70611 -1.05915 0
M  V30 10681 H 1005.81 -2.57004 -0.175198 0
M  V30 10682 H 1005.77 -2.50277 -1.90287 0
M  V30 10683 N 1009.54 -0.859717 -1.32086 0
M  V30 10684 C 1010.77 -0.478865 -2.01796 0
M  V30 10685 C 1011.19 0.918274 -1.64163 0
M  V30 10686 O 1010.55 1.60409 -0.844896 0
M  V30 10687 C 1010.6 -0.631356 -3.5503 0
M  V30 10688 O 1009.7 0.333712 -4.11048 0
M  V30 10689 H 1009.04 -0.191775 -0.635703 0
M  V30 10690 H 1011.57 -1.16031 -1.68517 0
M  V30 10691 H 1011.58 -0.520783 -4.04663 0
M  V30 10692 H 1010.26 -1.65015 -3.81763 0
M  V30 10693 H 1008.84 0.178953 -3.7247 0
M  V30 10694 N 1011.02 1.44971 -0.618145 0
M  V30 10695 C 1012.27 2.0176 -0.11725 0
M  V30 10696 C 1012.59 1.48773 1.26062 0
M  V30 10697 O 1011.86 0.686152 1.83491 0
M  V30 10698 H 1010.44 0.745909 -0.0403545 0
M  V30 10699 H 1013.1 1.77638 -0.801923 0
M  V30 10700 H 1012.2 3.1201 -0.0750477 0
M  V30 10701 N 1012.5 0.357919 1.53482 0
M  V30 10702 C 1013.45 -0.507364 2.26999 0
M  V30 10703 C 1014.44 -1.08987 1.29685 0
M  V30 10704 O 1015.65 -1.03396 1.47341 0
M  V30 10705 H 1012.02 -0.182326 0.729562 0
M  V30 10706 H 1013.99 0.134547 2.98097 0
M  V30 10707 C 1012.74 -1.63911 3.06641 0
M  V30 10708 H 1012.06 -1.20017 3.81361 0
M  V30 10709 H 1013.5 -2.21943 3.61272 0
M  V30 10710 C 1011.96 -2.57697 2.17011 0
M  V30 10711 O 1012.49 -3.60318 1.77578 0
M  V30 10712 N 1010.7 -2.2671 1.818 0
M  V30 10713 H 1010.25 -1.43296 2.14065 0
M  V30 10714 H 1010.2 -2.89716 1.22115 0
M  V30 10715 N 1013.98 -1.5736 0.0868897 0
M  V30 10716 C 1015.2 -1.98809 -0.590757 0
M  V30 10717 C 1015.63 -0.965407 -1.61436 0
M  V30 10718 O 1014.98 0.067143 -1.81176 0
M  V30 10719 C 1015.03 -3.39249 -1.22238 0
M  V30 10720 O 1014.14 -3.39706 -2.33824 0
M  V30 10721 H 1013.48 -0.64669 -0.150626 0
M  V30 10722 H 1016.01 -2.03927 0.165873 0
M  V30 10723 H 1016.02 -3.76765 -1.56564 0
M  V30 10724 H 1014.69 -4.13208 -0.472434 0
M  V30 10725 H 1013.27 -3.13977 -2.01178 0
M  V30 10726 N 1015.45 0.186762 -1.56489 0
M  V30 10727 C 1016.87 0.537933 -1.50261 0
M  V30 10728 C 1017.07 1.85435 -0.788414 0
M  V30 10729 O 1016.13 2.50168 -0.342377 0
M  V30 10730 C 1017.44 0.584965 -2.94955 0
M  V30 10731 C 1018.99 0.673228 -3.05674 0
M  V30 10732 C 1019.46 0.751294 -4.51796 0
M  V30 10733 N 1020.95 0.814599 -4.55981 0
M  V30 10734 C 1021.69 0.895313 -5.66367 0
M  V30 10735 N 1021.18 0.937814 -6.86423 0
M  V30 10736 N 1022.98 0.933145 -5.543 0
M  V30 10737 H 1015.13 -0.676636 -2.01334 0
M  V30 10738 H 1017.39 -0.242079 -0.916571 0
M  V30 10739 H 1017.1 -0.313361 -3.50301 0
M  V30 10740 H 1016.97 1.4368 -3.48763 0
M  V30 10741 H 1019.36 1.56198 -2.50372 0
M  V30 10742 H 1019.44 -0.204976 -2.54977 0
M  V30 10743 H 1019.08 -0.133143 -5.07725 0
M  V30 10744 H 1019.01 1.64542 -5.00233 0
M  V30 10745 H 1021.5 0.790662 -3.69536 0
M  V30 10746 H 1021.82 1.00015 -7.66301 0
M  V30 10747 H 1020.16 0.906351 -6.89065 0
M  V30 10748 H 1023.35 0.896836 -4.59428 0
M  V30 10749 H 1023.53 0.992588 -6.40353 0
M  V30 10750 N 1016.93 1.50896 0.454776 0
M  V30 10751 C 1017.88 1.67333 1.54867 0
M  V30 10752 C 1018.87 0.527576 1.52005 0
M  V30 10753 O 1020.06 0.782726 1.58753 0
M  V30 10754 C 1017.19 1.7858 2.93196 0
M  V30 10755 C 1016.27 2.98884 3.0088 0
M  V30 10756 N 1016.66 4.22326 2.78343 0
M  V30 10757 C 1014.96 2.97779 3.32029 0
M  V30 10758 C 1015.66 5.03439 2.91418 0
M  V30 10759 N 1014.64 4.37725 3.22332 0
M  V30 10760 H 1018.44 2.60453 1.36167 0
M  V30 10761 H 1015.96 1.48304 0.661797 0
M  V30 10762 H 1017.95 1.88463 3.7187 0
M  V30 10763 H 1016.61 0.866296 3.1293 0
M  V30 10764 H 1017.62 4.51557 2.53607 0
M  V30 10765 H 1014.3 2.15393 3.57648 0
M  V30 10766 H 1015.69 6.11648 2.78095 0
M  V30 10767 N 1018.41 -0.709066 1.40748 0
M  V30 10768 C 1019.66 -1.4646 1.38681 0
M  V30 10769 C 1019.97 -1.95599 -0.0056209 0
M  V30 10770 O 1021.18 -2.71091 -0.148907 0
M  V30 10771 C 1019.63 -2.64771 2.43771 0
M  V30 10772 C 1019.24 -2.22474 3.88856 0
M  V30 10773 C 1020.99 -3.42475 2.50821 0
M  V30 10774 C 1018.89 -3.37663 4.85528 0
M  V30 10775 H 1017.82 -0.550084 0.515678 0
M  V30 10776 H 1020.47 -0.771074 1.66513 0
M  V30 10777 H 1018.86 -3.36325 2.09048 0
M  V30 10778 H 1020.03 -1.58297 4.32757 0
M  V30 10779 H 1018.35 -1.57798 3.85342 0
M  V30 10780 H 1020.94 -4.28201 3.20232 0
M  V30 10781 H 1021.29 -3.86738 1.54076 0
M  V30 10782 H 1021.82 -2.77969 2.84567 0
M  V30 10783 H 1018.56 -2.98426 5.83628 0
M  V30 10784 H 1018.08 -4.00734 4.46287 0
M  V30 10785 H 1019.76 -4.03636 5.05655 0
M  V30 10786 N 1019.89 -1.26353 -0.941956 0
M  V30 10787 C 1021.11 -1.14731 -1.72776 0
M  V30 10788 C 1021.54 0.293766 -1.85792 0
M  V30 10789 O 1020.9 1.21284 -1.34759 0
M  V30 10790 C 1020.95 -1.82041 -3.11277 0
M  V30 10791 O 1020.05 -1.10867 -3.97218 0
M  V30 10792 H 1019.39 -0.399823 -0.53013 0
M  V30 10793 H 1021.92 -1.67157 -1.17981 0
M  V30 10794 H 1021.93 -1.88834 -3.61671 0
M  V30 10795 H 1020.61 -2.86879 -3.0112 0
M  V30 10796 H 1019.18 -1.12044 -3.55669 0
M  V30 10797 N 1021.37 1.14642 -1.08144 0
M  V30 10798 C 1022.62 1.84964 -0.804437 0
M  V30 10799 C 1022.93 1.8369 0.672106 0
M  V30 10800 O 1024.14 2.49775 1.06417 0
M  V30 10801 C 1022.59 3.32015 -1.38904 0
M  V30 10802 C 1022.2 3.41713 -2.89718 0
M  V30 10803 C 1023.94 4.07467 -1.19041 0
M  V30 10804 C 1021.85 4.82958 -3.41329 0
M  V30 10805 H 1020.78 0.692932 -0.297256 0
M  V30 10806 H 1023.43 1.29255 -1.30251 0
M  V30 10807 H 1021.81 3.87445 -0.818679 0
M  V30 10808 H 1022.99 2.96347 -3.52867 0
M  V30 10809 H 1021.3 2.79713 -3.08463 0
M  V30 10810 H 1023.9 5.1172 -1.55069 0
M  V30 10811 H 1024.24 4.16097 -0.130027 0
M  V30 10812 H 1024.78 3.58329 -1.72757 0
M  V30 10813 H 1021.51 4.79515 -4.46929 0
M  V30 10814 H 1021.03 5.28873 -2.82937 0
M  V30 10815 H 1022.71 5.51841 -3.37759 0
M  V30 10816 N 1022.85 0.866709 1.31628 0
M  V30 10817 C 1024.09 0.475086 1.96437 0
M  V30 10818 C 1024.41 -0.975179 1.68865 0
M  V30 10819 O 1023.68 -1.68317 1.0023 0
M  V30 10820 H 1022.26 0.172695 0.726764 0
M  V30 10821 H 1024.93 1.10578 1.60494 0
M  V30 10822 H 1024.02 0.630123 3.05673 0
M  V30 10823 N 1024.32 -1.44642 0.625825 0
M  V30 10824 C 1025.57 -2.01695 0.127948 0
M  V30 10825 C 1025.89 -1.49439 -1.25271 0
M  V30 10826 O 1025.16 -0.695873 -1.83124 0
M  V30 10827 H 1023.74 -0.745685 0.0443096 0
M  V30 10828 H 1026.4 -1.7721 0.811332 0
M  V30 10829 H 1025.5 -3.11966 0.0915933 0
M  V30 10830 N 1025.8 -0.366053 -1.5329 0
M  V30 10831 C 1026.75 0.480205 -2.25749 0
M  V30 10832 C 1027.72 1.07713 -1.2644 0
M  V30 10833 O 1028.9 1.10953 -1.55222 0
M  V30 10834 C 1026.04 1.61374 -3.05045 0
M  V30 10835 C 1025.16 1.04194 -4.19246 0
M  V30 10836 C 1024.29 2.14462 -4.85983 0
M  V30 10837 C 1023.33 1.5475 -5.92215 0
M  V30 10838 N 1022.47 2.58852 -6.52641 0
M  V30 10839 H 1027.31 -0.144199 -2.97651 0
M  V30 10840 H 1024.84 -0.0829321 -1.46866 0
M  V30 10841 H 1026.8 2.28144 -3.49294 0
M  V30 10842 H 1025.43 2.2088 -2.35397 0
M  V30 10843 H 1024.48 0.264514 -3.79479 0
M  V30 10844 H 1025.8 0.565379 -4.95585 0
M  V30 10845 H 1024.95 2.89051 -5.33418 0
M  V30 10846 H 1023.69 2.6547 -4.09117 0
M  V30 10847 H 1022.69 0.786759 -5.44142 0
M  V30 10848 H 1023.92 1.04566 -6.71001 0
M  V30 10849 H 1021.87 3.09073 -5.78627 0
M  V30 10850 H 1021.78 2.15884 -7.24521 0
M  V30 10851 H 1023.05 3.33142 -7.04724 0
M  V30 10852 N 1027.28 1.57312 -0.0952337 0
M  V30 10853 C 1028.51 1.98697 0.57682 0
M  V30 10854 C 1028.92 0.974347 1.61716 0
M  V30 10855 O 1028.28 -0.036022 1.82464 0
M  V30 10856 C 1028.33 3.40133 1.2244 0
M  V30 10857 O 1028.05 4.37518 0.225678 0
M  V30 10858 C 1029.55 3.96522 1.98205 0
M  V30 10859 H 1026.77 0.65294 0.154629 0
M  V30 10860 H 1029.32 2.03754 -0.174562 0
M  V30 10861 H 1027.47 3.3609 1.92671 0
M  V30 10862 H 1027.89 5.199 0.693116 0
M  V30 10863 H 1029.36 4.97637 2.38875 0
M  V30 10864 H 1029.84 3.34347 2.84796 0
M  V30 10865 H 1030.44 4.04038 1.3279 0
M  V30 10866 N 1028.76 -0.17846 1.56586 0
M  V30 10867 C 1030 -0.90281 1.83381 0
M  V30 10868 C 1030.36 -1.79738 0.675139 0
M  V30 10869 O 1031.56 -2.55879 0.823368 0
M  V30 10870 C 1029.83 -1.68353 3.15265 0
M  V30 10871 S 1031.39 -2.45762 3.6352 0
M  V30 10872 H 1028.21 -0.302508 0.643436 0
M  V30 10873 H 1030.81 -0.164961 1.94803 0
M  V30 10874 H 1029.52 -1.01725 3.97593 0
M  V30 10875 H 1029.05 -2.46289 3.06766 0
M  V30 10876 H 1031.06 -3.70312 3.30278 0
M  V30 10877 N 1030.24 -1.51135 -0.446768 0
M  V30 10878 C 1031.46 -1.67129 -1.21965 0
M  V30 10879 C 1031.88 -0.36467 -1.85245 0
M  V30 10880 O 1031.24 0.655908 -1.70306 0
M  V30 10881 C 1031.29 -2.78016 -2.31061 0
M  V30 10882 O 1031.01 -4.03615 -1.70371 0
M  V30 10883 C 1032.51 -3.05197 -3.21511 0
M  V30 10884 H 1029.73 -0.561111 -0.367961 0
M  V30 10885 H 1032.27 -1.97499 -0.530517 0
M  V30 10886 H 1030.43 -2.50272 -2.95707 0
M  V30 10887 H 1030.84 -4.65126 -2.424 0
M  V30 10888 H 1032.32 -3.8639 -3.94216 0
M  V30 10889 H 1032.79 -2.17228 -3.81718 0
M  V30 10890 H 1033.4 -3.34565 -2.62577 0
M  V30 10891 N 1031.71 0.701592 -1.41122 0
M  V30 10892 C 1032.64 1.82815 -1.45262 0
M  V30 10893 C 1033.62 1.67215 -0.311939 0
M  V30 10894 O 1034.81 1.87038 -0.522538 0
M  V30 10895 C 1031.94 3.20899 -1.32819 0
M  V30 10896 C 1030.89 3.51194 -2.44636 0
M  V30 10897 C 1030.22 4.8857 -2.17263 0
M  V30 10898 C 1031.52 3.50777 -3.86979 0
M  V30 10899 H 1033.21 1.79608 -2.39544 0
M  V30 10900 H 1030.76 0.862693 -1.15298 0
M  V30 10901 H 1032.71 3.99417 -1.34329 0
M  V30 10902 H 1031.44 3.24717 -0.350191 0
M  V30 10903 H 1030.1 2.75024 -2.42399 0
M  V30 10904 H 1029.74 4.89007 -1.17819 0
M  V30 10905 H 1029.44 5.09805 -2.92186 0
M  V30 10906 H 1030.97 5.69405 -2.20478 0
M  V30 10907 H 1032.38 4.19309 -3.90964 0
M  V30 10908 H 1030.78 3.83542 -4.61536 0
M  V30 10909 H 1031.85 2.49873 -4.15562 0
M  V30 10910 N 1033.19 1.2685 0.935242 0
M  V30 10911 C 1034.14 1.08923 2.03481 0
M  V30 10912 C 1035.11 -0.00749786 1.66098 0
M  V30 10913 O 1036.29 0.153401 1.90182 0
M  V30 10914 C 1033.43 0.734529 3.37192 0
M  V30 10915 C 1032.55 1.90812 3.87576 0
M  V30 10916 C 1031.68 1.49599 5.097 0
M  V30 10917 C 1030.72 2.63752 5.5236 0
M  V30 10918 N 1029.86 2.23179 6.65684 0
M  V30 10919 H 1034.7 2.03016 2.18148 0
M  V30 10920 H 1032.23 1.01072 1.06878 0
M  V30 10921 H 1034.19 0.509734 4.14074 0
M  V30 10922 H 1032.82 -0.169438 3.22355 0
M  V30 10923 H 1031.87 2.24567 3.0704 0
M  V30 10924 H 1033.19 2.7647 4.1517 0
M  V30 10925 H 1032.34 1.23199 5.9406 0
M  V30 10926 H 1031.08 0.61039 4.83865 0
M  V30 10927 H 1030.08 2.90874 4.66554 0
M  V30 10928 H 1031.31 3.5292 5.80193 0
M  V30 10929 H 1029.26 1.37061 6.41522 0
M  V30 10930 H 1029.17 3.02379 6.92895 0
M  V30 10931 H 1030.44 2.00007 7.53404 0
M  V30 10932 N 1034.67 -1.14067 1.0875 0
M  V30 10933 C 1035.9 -1.89582 0.841038 0
M  V30 10934 C 1036.32 -1.78226 -0.601436 0
M  V30 10935 O 1035.68 -1.12491 -1.42181 0
M  V30 10936 C 1035.73 -3.37415 1.27213 0
M  V30 10937 O 1034.83 -4.10191 0.426246 0
M  V30 10938 H 1034.17 -0.589716 0.305173 0
M  V30 10939 H 1036.7 -1.44364 1.44984 0
M  V30 10940 H 1036.71 -3.88234 1.25451 0
M  V30 10941 H 1035.39 -3.44999 2.32268 0
M  V30 10942 H 1033.96 -3.69429 0.507585 0
M  V30 10943 N 1036.15 -0.873678 -1.31166 0
M  V30 10944 C 1037.39 -0.487178 -1.96861 0
M  V30 10945 C 1037.73 0.95887 -1.68877 0
M  V30 10946 O 1037 1.6758 -0.987279 0
M  V30 10947 C 1037.29 -0.74925 -3.52219 0
M  V30 10948 C 1037.14 -2.2451 -3.89763 0
M  V30 10949 C 1038.46 -0.218194 -4.39559 0
M  V30 10950 H 1035.58 -0.178477 -0.715063 0
M  V30 10951 H 1038.22 -1.0956 -1.55231 0
M  V30 10952 H 1036.37 -0.231403 -3.8781 0
M  V30 10953 H 1038.04 -2.83049 -3.64254 0
M  V30 10954 H 1036.28 -2.71621 -3.38237 0
M  V30 10955 H 1036.95 -2.37911 -4.98099 0
M  V30 10956 H 1039.43 -0.661274 -4.10812 0
M  V30 10957 H 1038.31 -0.430983 -5.47205 0
M  V30 10958 H 1038.57 0.880056 -4.33252 0
M  V30 10959 N 1037.63 1.44308 -0.633487 0
M  V30 10960 C 1038.85 2.06897 -0.144347 0
M  V30 10961 C 1039.28 1.47045 1.173 0
M  V30 10962 O 1038.63 0.572806 1.72013 0
M  V30 10963 C 1038.68 3.60571 -0.0456324 0
M  V30 10964 O 1037.79 4.0015 0.997682 0
M  V30 10965 H 1037.13 0.658427 -0.0858499 0
M  V30 10966 H 1039.66 1.85142 -0.870833 0
M  V30 10967 H 1039.67 4.07745 0.144178 0
M  V30 10968 H 1038.34 4.03515 -1.0074 0
M  V30 10969 H 1036.92 3.64603 0.782252 0
M  V30 10970 N 1039.1 0.374177 1.53094 0
M  V30 10971 C 1040.05 -0.48326 2.27524 0
M  V30 10972 C 1041.05 -1.07606 1.30833 0
M  V30 10973 O 1042.25 -1.01827 1.48429 0
M  V30 10974 H 1038.63 -0.174578 0.731455 0
M  V30 10975 H 1040.6 0.166156 2.97937 0
M  V30 10976 C 1039.35 -1.6065 3.08362 0
M  V30 10977 H 1038.67 -1.15966 3.82612 0
M  V30 10978 H 1040.11 -2.18099 3.63606 0
M  V30 10979 C 1038.57 -2.55381 2.19732 0
M  V30 10980 O 1039.1 -3.58414 1.8139 0
M  V30 10981 N 1037.31 -2.24769 1.84194 0
M  V30 10982 H 1036.85 -1.41018 2.15573 0
M  V30 10983 H 1036.81 -2.88404 1.25181 0
M  V30 10984 N 1040.58 -1.57259 0.103575 0
M  V30 10985 C 1041.81 -1.99424 -0.569638 0
M  V30 10986 C 1042.23 -0.982475 -1.60403 0
M  V30 10987 O 1041.59 0.0479231 -1.81237 0
M  V30 10988 C 1041.64 -3.40527 -1.18633 0
M  V30 10989 O 1040.74 -3.42167 -2.30208 0
M  V30 10990 H 1040.08 -0.648251 -0.143759 0
M  V30 10991 H 1042.61 -2.03739 0.187493 0
M  V30 10992 H 1042.62 -3.78404 -1.5256 0
M  V30 10993 H 1041.3 -4.13686 -0.428582 0
M  V30 10994 H 1039.88 -3.16093 -1.97837 0
M  V30 10995 N 1042.06 0.170153 -1.56679 0
M  V30 10996 C 1043.31 0.884902 -1.81252 0
M  V30 10997 C 1043.62 1.83361 -0.681024 0
M  V30 10998 O 1044.83 2.59082 -0.811722 0
M  V30 10999 C 1043.28 1.62408 -3.21172 0
M  V30 11000 C 1042.89 0.718947 -4.42194 0
M  V30 11001 C 1044.64 2.32699 -3.55037 0
M  V30 11002 C 1042.54 1.45843 -5.73135 0
M  V30 11003 H 1041.47 0.33418 -0.675899 0
M  V30 11004 H 1044.12 0.137818 -1.82982 0
M  V30 11005 H 1042.51 2.41596 -3.13763 0
M  V30 11006 H 1043.68 -0.0360521 -4.60786 0
M  V30 11007 H 1042 0.125634 -4.1621 0
M  V30 11008 H 1044.59 2.88621 -4.50114 0
M  V30 11009 H 1044.94 3.08092 -2.79974 0
M  V30 11010 H 1045.47 1.60453 -3.64005 0
M  V30 11011 H 1042.21 0.746799 -6.51232 0
M  V30 11012 H 1041.73 2.18672 -5.58518 0
M  V30 11013 H 1043.41 2.0056 -6.1513 0
M  V30 11014 N 1043.54 1.5137 0.438746 0
M  V30 11015 C 1044.47 1.75528 1.53987 0
M  V30 11016 C 1045.45 0.605067 1.58975 0
M  V30 11017 O 1046.63 0.847634 1.74725 0
M  V30 11018 C 1043.76 1.87904 2.92078 0
M  V30 11019 C 1042.72 3.0333 3.01951 0
M  V30 11020 C 1042.04 3.00888 4.42007 0
M  V30 11021 C 1043.34 4.43319 2.76163 0
M  V30 11022 H 1045.04 2.67728 1.34022 0
M  V30 11023 H 1042.58 1.28831 0.643308 0
M  V30 11024 H 1044.54 2.03388 3.69068 0
M  V30 11025 H 1043.26 0.923514 3.13271 0
M  V30 11026 H 1041.92 2.87549 2.274 0
M  V30 11027 H 1041.57 2.03116 4.60166 0
M  V30 11028 H 1041.27 3.78397 4.49544 0
M  V30 11029 H 1042.79 3.18464 5.20973 0
M  V30 11030 H 1044.21 4.59458 3.42887 0
M  V30 11031 H 1042.6 5.22523 2.9511 0
M  V30 11032 H 1043.67 4.53453 1.71779 0
M  V30 11033 N 1045.02 -0.694098 1.41492 0
M  V30 11034 C 1045.93 -1.83778 1.45818 0
M  V30 11035 C 1046.94 -1.70471 0.348639 0
M  V30 11036 O 1048.12 -1.92361 0.596588 0
M  V30 11037 C 1045.18 -3.19771 1.33967 0
M  V30 11038 C 1044.24 -3.45175 2.5525 0
M  V30 11039 C 1043.48 -4.74681 2.43955 0
M  V30 11040 O 1043.7 -5.51268 1.46491 0
M  V30 11041 O 1042.63 -5.00901 3.33739 0
M  V30 11042 H 1046.46 -1.83084 2.42309 0
M  V30 11043 H 1044.05 -0.847349 1.23046 0
M  V30 11044 H 1045.93 -4.00961 1.29648 0
M  V30 11045 H 1044.6 -3.21145 0.405926 0
M  V30 11046 H 1043.51 -2.6391 2.65146 0
M  V30 11047 H 1044.84 -3.48617 3.47458 0
M  V30 11048 N 1046.49 -1.27344 -0.928501 0
M  V30 11049 C 1047.73 -1.14871 -1.69068 0
M  V30 11050 C 1048.1 0.300603 -1.89632 0
M  V30 11051 O 1049.3 0.547743 -2.6316 0
M  V30 11052 C 1047.57 -1.90992 -3.02087 0
M  V30 11053 S 1049.13 -1.94722 -3.93229 0
M  V30 11054 H 1045.95 -0.410095 -0.580812 0
M  V30 11055 H 1048.55 -1.61242 -1.1055 0
M  V30 11056 H 1047.25 -2.95484 -2.84811 0
M  V30 11057 H 1046.78 -1.45112 -3.65658 0
M  V30 11058 H 1048.8 -1.04306 -4.85113 0
M  V30 11059 N 1047.97 1.13488 -1.09353 0
M  V30 11060 C 1049.2 1.88319 -0.849681 0
M  V30 11061 C 1049.61 1.79347 0.602616 0
M  V30 11062 O 1048.95 1.15744 1.4265 0
M  V30 11063 C 1049.02 3.38698 -1.20514 0
M  V30 11064 C 1048.68 3.71452 -2.66219 0
M  V30 11065 C 1049.68 3.70755 -3.64467 0
M  V30 11066 C 1047.36 4.01132 -3.02321 0
M  V30 11067 C 1049.36 3.9928 -4.96845 0
M  V30 11068 C 1047.04 4.29318 -4.3489 0
M  V30 11069 C 1048.04 4.28376 -5.31961 0
M  V30 11070 O 1047.73 4.55872 -6.62145 0
M  V30 11071 H 1047.46 0.603053 -0.305455 0
M  V30 11072 H 1050.01 1.44592 -1.45884 0
M  V30 11073 H 1048.24 3.82925 -0.539022 0
M  V30 11074 H 1049.93 3.94852 -0.940552 0
M  V30 11075 H 1050.7 3.47901 -3.3792 0
M  V30 11076 H 1046.58 4.01013 -2.27398 0
M  V30 11077 H 1050.12 3.9846 -5.72604 0
M  V30 11078 H 1046.02 4.51644 -4.61181 0
M  V30 11079 H 1046.79 4.73544 -6.67607 0
M  V30 11080 N 1049.45 0.880621 1.30701 0
M  V30 11081 C 1050.68 0.511682 2.00473 0
M  V30 11082 C 1051.09 -0.898684 1.6604 0
M  V30 11083 O 1050.45 -1.59035 0.895218 0
M  V30 11084 C 1050.5 0.671723 3.55204 0
M  V30 11085 O 1050.22 2.02656 3.8841 0
M  V30 11086 C 1051.72 0.3052 4.42248 0
M  V30 11087 H 1048.94 0.198231 0.64105 0
M  V30 11088 H 1051.49 1.18472 1.66687 0
M  V30 11089 H 1049.64 0.0461066 3.87373 0
M  V30 11090 H 1050.06 2.04202 4.83117 0
M  V30 11091 H 1051.53 0.468095 5.50012 0
M  V30 11092 H 1052.01 -0.756456 4.32637 0
M  V30 11093 H 1052.61 0.906959 4.15517 0
M  V30 11094 N 1050.93 -1.4397 0.641131 0
M  V30 11095 C 1052.34 -1.85267 0.230838 0
M  V30 11096 C 1052.69 -1.53659 -1.21998 0
M  V30 11097 O 1051.82 -0.979572 -1.92959 0
M  V30 11098 C 1052.41 -3.36284 0.412171 0
M  V30 11099 C 1050.97 -3.76358 0.0563004 0
M  V30 11100 C 1050.12 -2.67768 0.720809 0
M  V30 11101 H 1053.07 -1.34294 0.845624 0
M  V30 11102 H 1053.09 -3.78924 -0.345936 0
M  V30 11103 H 1052.6 -3.59258 1.46818 0
M  V30 11104 H 1050.7 -3.58997 -0.997582 0
M  V30 11105 H 1050.82 -4.76756 0.473335 0
M  V30 11106 H 1049.18 -2.54227 0.155164 0
M  V30 11107 H 1049.96 -2.93573 1.77961 0
M  V30 11108 N 1052.41 -0.382291 -1.52893 0
M  V30 11109 C 1053.37 0.44408 -2.24857 0
M  V30 11110 C 1054.37 0.996004 -1.26239 0
M  V30 11111 O 1055.56 0.879114 -1.5039 0
M  V30 11112 C 1052.69 1.62234 -2.99822 0
M  V30 11113 H 1053.89 -0.185862 -2.99324 0
M  V30 11114 H 1051.44 -0.134275 -1.55722 0
M  V30 11115 H 1052.17 2.28991 -2.29638 0
M  V30 11116 H 1051.96 1.23336 -3.72197 0
M  V30 11117 H 1053.45 2.20756 -3.54481 0
M  V30 11118 N 1053.89 1.57202 -0.111913 0
M  V30 11119 C 1054.82 2.11995 0.871242 0
M  V30 11120 C 1055.83 1.06102 1.23475 0
M  V30 11121 O 1057.02 1.33497 1.18494 0
M  V30 11122 C 1054.12 2.59874 2.17528 0
M  V30 11123 C 1053.29 3.89788 1.98455 0
M  V30 11124 C 1052.35 4.23339 3.12523 0
M  V30 11125 O 1051.38 4.92277 2.85748 0
M  V30 11126 N 1052.58 3.80089 4.38762 0
M  V30 11127 H 1055.34 2.96976 0.403157 0
M  V30 11128 H 1052.91 1.61737 0.0727159 0
M  V30 11129 H 1054.9 2.79354 2.9282 0
M  V30 11130 H 1053.47 1.79812 2.55707 0
M  V30 11131 H 1052.69 3.79288 1.07396 0
M  V30 11132 H 1053.98 4.74748 1.83007 0
M  V30 11133 H 1053.37 3.24473 4.63394 0
M  V30 11134 H 1051.93 4.04691 5.10949 0
M  V30 11135 N 1055.36 -0.161842 1.56767 0
M  V30 11136 C 1056.59 -0.892247 1.86672 0
M  V30 11137 C 1057.01 -1.75407 0.69841 0
M  V30 11138 O 1056.36 -1.7945 -0.332251 0
M  V30 11139 C 1056.41 -1.7612 3.15696 0
M  V30 11140 O 1056.14 -0.934131 4.28025 0
M  V30 11141 C 1057.64 -2.60046 3.59014 0
M  V30 11142 H 1054.86 -0.258747 0.619105 0
M  V30 11143 H 1057.4 -0.159089 2.0388 0
M  V30 11144 H 1055.56 -2.44759 3.00286 0
M  V30 11145 H 1055.97 -1.52931 5.01709 0
M  V30 11146 H 1057.44 -3.16618 4.5217 0
M  V30 11147 H 1057.92 -3.35374 2.83586 0
M  V30 11148 H 1058.53 -1.96724 3.77067 0
M  V30 11149 N 1056.84 -1.516 -0.430713 0
M  V30 11150 C 1058.09 -1.63829 -1.17657 0
M  V30 11151 C 1058.4 -0.363605 -1.92191 0
M  V30 11152 O 1059.61 -0.365358 -2.6903 0
M  V30 11153 C 1058.07 -2.89357 -2.14011 0
M  V30 11154 C 1057.67 -4.23854 -1.45094 0
M  V30 11155 C 1059.42 -3.10944 -2.88988 0
M  V30 11156 C 1057.32 -5.40526 -2.3997 0
M  V30 11157 H 1056.25 -0.610221 -0.442884 0
M  V30 11158 H 1058.91 -1.78073 -0.442984 0
M  V30 11159 H 1057.29 -2.68762 -2.90832 0
M  V30 11160 H 1058.46 -4.54854 -0.737853 0
M  V30 11161 H 1056.78 -4.08197 -0.822429 0
M  V30 11162 H 1059.37 -3.95286 -3.60074 0
M  V30 11163 H 1059.72 -2.24291 -3.50712 0
M  V30 11164 H 1060.25 -3.3191 -2.19272 0
M  V30 11165 H 1056.99 -6.29459 -1.82925 0
M  V30 11166 H 1056.51 -5.13893 -3.09313 0
M  V30 11167 H 1058.19 -5.72741 -3.00959 0
M  V30 11168 N 1058.32 0.686584 -1.41858 0
M  V30 11169 C 1059.54 1.4802 -1.45275 0
M  V30 11170 C 1059.97 1.87997 -0.0621297 0
M  V30 11171 O 1059.33 1.55226 0.936733 0
M  V30 11172 C 1059.38 2.7133 -2.37513 0
M  V30 11173 O 1058.48 3.69159 -1.83836 0
M  V30 11174 H 1057.82 0.445152 -0.492682 0
M  V30 11175 H 1060.35 0.843161 -1.86419 0
M  V30 11176 H 1060.36 3.19537 -2.53693 0
M  V30 11177 H 1059.04 2.41571 -3.3855 0
M  V30 11178 H 1057.61 3.28134 -1.77151 0
M  V30 11179 N 1059.8 1.27835 0.921735 0
M  V30 11180 C 1061.03 1.17352 1.704 0
M  V30 11181 C 1061.44 -0.268892 1.86875 0
M  V30 11182 O 1060.8 -1.18253 1.39005 0
M  V30 11183 C 1060.85 1.85889 3.10045 0
M  V30 11184 O 1060.57 3.24495 2.94338 0
M  V30 11185 C 1062.07 1.81607 4.04393 0
M  V30 11186 H 1059.29 0.40773 0.532914 0
M  V30 11187 H 1061.83 1.68815 1.15419 0
M  V30 11188 H 1059.99 1.38316 3.61867 0
M  V30 11189 H 1060.4 3.58705 3.82663 0
M  V30 11190 H 1061.88 2.34165 4.99871 0
M  V30 11191 H 1062.35 0.786697 4.32097 0
M  V30 11192 H 1062.96 2.28822 3.58498 0
M  V30 11193 N 1061.28 -1.12907 1.09954 0
M  V30 11194 C 1062.19 -2.22082 0.756095 0
M  V30 11195 C 1063.2 -1.72277 -0.244272 0
M  V30 11196 O 1064.38 -2.01224 -0.0842637 0
M  V30 11197 C 1061.44 -3.46192 0.187642 0
M  V30 11198 C 1060.5 -4.10861 1.24465 0
M  V30 11199 C 1059.74 -5.29047 0.703227 0
M  V30 11200 O 1059.96 -5.68443 -0.472043 0
M  V30 11201 O 1058.89 -5.83904 1.46082 0
M  V30 11202 H 1062.72 -2.53842 1.66727 0
M  V30 11203 H 1060.3 -1.21145 0.874316 0
M  V30 11204 H 1062.19 -4.21212 -0.125774 0
M  V30 11205 H 1060.86 -3.16119 -0.696459 0
M  V30 11206 H 1059.77 -3.37643 1.61085 0
M  V30 11207 H 1061.1 -4.45078 2.10159 0
M  V30 11208 N 1062.75 -0.88754 -1.30232 0
M  V30 11209 C 1064 -0.507279 -1.96043 0
M  V30 11210 C 1064.33 0.944059 -1.70052 0
M  V30 11211 O 1063.58 1.68255 -0.999444 0
M  V30 11212 C 1063.88 -0.731765 -3.49828 0
M  V30 11213 C 1063.55 -2.15858 -3.95874 0
M  V30 11214 C 1062.21 -2.54875 -4.08157 0
M  V30 11215 C 1064.56 -3.0883 -4.19849 0
M  V30 11216 C 1061.89 -3.86069 -4.41778 0
M  V30 11217 C 1064.24 -4.39559 -4.5494 0
M  V30 11218 C 1062.91 -4.78465 -4.65432 0
M  V30 11219 H 1062.18 -0.185627 -0.717373 0
M  V30 11220 H 1064.82 -1.12388 -1.55052 0
M  V30 11221 H 1063.13 -0.0321473 -3.91787 0
M  V30 11222 H 1064.83 -0.417107 -3.98825 0
M  V30 11223 H 1061.42 -1.84574 -3.86821 0
M  V30 11224 H 1065.6 -2.79906 -4.09837 0
M  V30 11225 H 1060.86 -4.1595 -4.48102 0
M  V30 11226 H 1065.03 -5.11636 -4.72442 0
M  V30 11227 H 1062.66 -5.80162 -4.91239 0
M  V30 11228 N 1064.23 1.43628 -0.648757 0
M  V30 11229 C 1065.2 2.29172 0.0360713 0
M  V30 11230 C 1066.2 1.41974 0.754976 0
M  V30 11231 O 1067.39 1.63654 0.5969 0
M  V30 11232 C 1064.52 3.23942 1.0618 0
M  V30 11233 H 1065.71 2.91214 -0.716544 0
M  V30 11234 H 1063.26 1.50833 -0.409759 0
M  V30 11235 H 1064 2.66786 1.8438 0
M  V30 11236 H 1063.78 3.88223 0.550016 0
M  V30 11237 H 1065.27 3.8816 1.54019 0
M  V30 11238 N 1065.71 0.390394 1.52688 0
M  V30 11239 C 1066.96 -0.191729 2.01892 0
M  V30 11240 C 1067.29 -1.4637 1.27631 0
M  V30 11241 O 1066.56 -1.90809 0.377094 0
M  V30 11242 C 1066.85 -0.458535 3.57169 0
M  V30 11243 C 1066.7 0.828796 4.42098 0
M  V30 11244 C 1068.02 -1.2487 4.22014 0
M  V30 11245 H 1065.14 -0.0682091 0.733837 0
M  V30 11246 H 1067.78 0.520176 1.82741 0
M  V30 11247 H 1065.93 -1.06498 3.73618 0
M  V30 11248 H 1067.6 1.46562 4.37398 0
M  V30 11249 H 1065.85 1.44388 4.09066 0
M  V30 11250 H 1066.52 0.596746 5.48765 0
M  V30 11251 H 1068.99 -0.735452 4.09549 0
M  V30 11252 H 1067.87 -1.40412 5.30637 0
M  V30 11253 H 1068.13 -2.2642 3.79719 0
M  V30 11254 N 1067.19 -1.57141 0.120249 0
M  V30 11255 C 1068.14 -2.15379 -0.829497 0
M  V30 11256 C 1069.11 -1.07913 -1.2627 0
M  V30 11257 O 1070.29 -1.35827 -1.33999 0
M  V30 11258 C 1067.43 -2.75847 -2.0737 0
M  V30 11259 C 1066.54 -3.97624 -1.68875 0
M  V30 11260 C 1065.68 -4.46175 -2.88272 0
M  V30 11261 C 1064.72 -5.60481 -2.46023 0
M  V30 11262 N 1063.85 -6.0377 -3.58337 0
M  V30 11263 H 1068.69 -2.96211 -0.326031 0
M  V30 11264 H 1066.23 -1.46341 -0.149235 0
M  V30 11265 H 1068.19 -3.09037 -2.80272 0
M  V30 11266 H 1066.82 -1.97703 -2.55174 0
M  V30 11267 H 1065.87 -3.70588 -0.858431 0
M  V30 11268 H 1067.18 -4.80512 -1.33827 0
M  V30 11269 H 1066.34 -4.8128 -3.69397 0
M  V30 11270 H 1065.08 -3.6224 -3.26548 0
M  V30 11271 H 1064.08 -5.24979 -1.63331 0
M  V30 11272 H 1065.31 -6.46184 -2.08863 0
M  V30 11273 H 1063.25 -5.22776 -3.96284 0
M  V30 11274 H 1063.17 -6.81517 -3.27217 0
M  V30 11275 H 1064.44 -6.43514 -4.39898 0
M  V30 11276 N 1068.67 0.153526 -1.5685 0
M  V30 11277 C 1069.6 1.19162 -2.00805 0
M  V30 11278 C 1070.58 1.45172 -0.886518 0
M  V30 11279 O 1071.76 1.56203 -1.15387 0
M  V30 11280 C 1068.89 2.52637 -2.38311 0
M  V30 11281 C 1067.85 2.41161 -3.53589 0
M  V30 11282 C 1067.17 3.79287 -3.76889 0
M  V30 11283 C 1068.47 1.90122 -4.86468 0
M  V30 11284 H 1070.17 0.82617 -2.87776 0
M  V30 11285 H 1067.71 0.395972 -1.38449 0
M  V30 11286 H 1069.67 3.25478 -2.6766 0
M  V30 11287 H 1068.39 2.91005 -1.4827 0
M  V30 11288 H 1067.05 1.70772 -3.24395 0
M  V30 11289 H 1066.7 4.15079 -2.84109 0
M  V30 11290 H 1066.4 3.72472 -4.54465 0
M  V30 11291 H 1067.92 4.53687 -4.08657 0
M  V30 11292 H 1069.33 2.52752 -5.14577 0
M  V30 11293 H 1067.73 1.94214 -5.67804 0
M  V30 11294 H 1068.8 0.856517 -4.77275 0
M  V30 11295 N 1070.14 1.51827 0.422667 0
M  V30 11296 C 1071.09 1.74198 1.51406 0
M  V30 11297 C 1072.06 0.584013 1.55494 0
M  V30 11298 O 1073.25 0.820079 1.72277 0
M  V30 11299 C 1070.39 1.88627 2.88988 0
M  V30 11300 C 1069.5 3.16233 2.94314 0
M  V30 11301 C 1068.63 3.21172 4.2311 0
M  V30 11302 C 1067.67 4.43033 4.2236 0
M  V30 11303 N 1066.81 4.4544 5.42704 0
M  V30 11304 H 1071.65 2.67352 1.31632 0
M  V30 11305 H 1069.19 1.32487 0.63919 0
M  V30 11306 H 1071.15 1.94976 3.68837 0
M  V30 11307 H 1069.78 0.988673 3.07287 0
M  V30 11308 H 1068.83 3.19123 2.07039 0
M  V30 11309 H 1070.14 4.06104 2.89623 0
M  V30 11310 H 1069.29 3.26517 5.11343 0
M  V30 11311 H 1068.03 2.29216 4.30478 0
M  V30 11312 H 1067.04 4.37849 3.32518 0
M  V30 11313 H 1068.26 5.3627 4.16643 0
M  V30 11314 H 1066.21 3.56361 5.50766 0
M  V30 11315 H 1066.13 5.29138 5.39953 0
M  V30 11316 H 1067.39 4.54997 6.32928 0
M  V30 11317 N 1071.62 -0.679052 1.4222 0
M  V30 11318 C 1072.87 -1.43485 1.41757 0
M  V30 11319 C 1073.18 -1.95567 0.0358698 0
M  V30 11320 O 1074.39 -2.71346 -0.0913713 0
M  V30 11321 C 1072.85 -2.59541 2.49332 0
M  V30 11322 C 1072.45 -2.14176 3.93488 0
M  V30 11323 C 1074.2 -3.37078 2.58029 0
M  V30 11324 C 1072.11 -3.27289 4.92581 0
M  V30 11325 H 1071.04 -0.539022 0.52723 0
M  V30 11326 H 1073.69 -0.735581 1.68111 0
M  V30 11327 H 1072.07 -3.31815 2.16135 0
M  V30 11328 H 1073.24 -1.49082 4.36017 0
M  V30 11329 H 1071.56 -1.49589 3.88603 0
M  V30 11330 H 1074.15 -4.21312 3.29242 0
M  V30 11331 H 1074.5 -3.83383 1.62245 0
M  V30 11332 H 1075.03 -2.7187 2.90399 0
M  V30 11333 H 1071.77 -2.8598 5.89827 0
M  V30 11334 H 1071.29 -3.91178 4.54687 0
M  V30 11335 H 1072.97 -3.9282 5.14103 0
M  V30 11336 N 1073.1 -1.28322 -0.914942 0
M  V30 11337 C 1074.38 -1.06111 -1.64316 0
M  V30 11338 C 1074.76 0.399934 -2.07277 0
M  V30 11339 O 1074.11 1.38577 -1.81683 0
M  V30 11340 C 1074.32 -2.03461 -2.83557 0
M  V30 11341 C 1075.66 -2.33541 -3.54604 0
M  V30 11342 O 1076.69 -2.01536 -2.93704 0
M  V30 11343 O 1075.55 -2.88158 -4.64357 0
M  V30 11344 H 1072.64 -0.405451 -0.72079 0
M  V30 11345 H 1075.19 -1.39636 -0.964352 0
M  V30 11346 H 1073.96 -3.01938 -2.48896 0
M  V30 11347 H 1073.58 -1.70574 -3.59152 0
M  V30 11348 N 1074.58 1.12322 -1.10551 0
M  V30 11349 C 1075.51 2.20176 -0.777486 0
M  V30 11350 C 1076.49 1.68252 0.250069 0
M  V30 11351 O 1077.67 1.93856 0.115574 0
M  V30 11352 C 1074.8 3.46666 -0.209822 0
M  V30 11353 C 1073.76 4.11749 -1.1682 0
M  V30 11354 C 1073.08 5.32703 -0.461684 0
M  V30 11355 C 1074.38 4.57746 -2.51527 0
M  V30 11356 H 1076.08 2.47872 -1.67928 0
M  V30 11357 H 1073.62 1.19136 -0.808863 0
M  V30 11358 H 1075.58 4.21388 0.0318068 0
M  V30 11359 H 1074.3 3.18401 0.727226 0
M  V30 11360 H 1072.96 3.39009 -1.3953 0
M  V30 11361 H 1072.61 5.00706 0.479875 0
M  V30 11362 H 1072.31 5.77197 -1.1008 0
M  V30 11363 H 1073.83 6.10172 -0.228629 0
M  V30 11364 H 1075.25 5.23835 -2.32958 0
M  V30 11365 H 1073.64 5.13021 -3.11335 0
M  V30 11366 H 1074.71 3.71667 -3.11435 0
M  V30 11367 N 1076.06 0.894434 1.2976 0
M  V30 11368 C 1077.02 0.373094 2.26143 0
M  V30 11369 C 1078.02 -0.489756 1.5316 0
M  V30 11370 O 1079.21 -0.29556 1.71674 0
M  V30 11371 C 1076.34 -0.467234 3.37683 0
M  V30 11372 H 1077.53 1.22427 2.73773 0
M  V30 11373 H 1075.09 0.672112 1.41111 0
M  V30 11374 H 1075.82 -1.33861 2.95384 0
M  V30 11375 H 1075.61 0.150954 3.91809 0
M  V30 11376 H 1077.1 -0.823469 4.094 0
M  V30 11377 N 1077.53 -1.43282 0.656365 0
M  V30 11378 C 1078.48 -2.32556 -0.0452037 0
M  V30 11379 C 1079.48 -1.48789 -0.80982 0
M  V30 11380 O 1080.68 -1.64979 -0.719865 0
M  V30 11381 H 1077.06 -0.751258 -0.0334043 0
M  V30 11382 H 1079.03 -2.89448 0.725423 0
M  V30 11383 C 1077.78 -3.33138 -0.995706 0
M  V30 11384 H 1077.1 -3.97622 -0.416774 0
M  V30 11385 H 1078.54 -3.98231 -1.45562 0
M  V30 11386 C 1077 -2.63978 -2.09325 0
M  V30 11387 O 1077.53 -2.45769 -3.17743 0
M  V30 11388 N 1075.74 -2.23301 -1.8597 0
M  V30 11389 H 1075.28 -2.38312 -0.97802 0
M  V30 11390 H 1075.24 -1.77358 -2.59599 0
M  V30 11391 N 1079.01 -0.398486 -1.52479 0
M  V30 11392 C 1080.43 -0.0488635 -1.59525 0
M  V30 11393 C 1080.63 1.43756 -1.41197 0
M  V30 11394 O 1079.69 2.20317 -1.23357 0
M  V30 11395 C 1081 -0.534262 -2.95916 0
M  V30 11396 C 1082.55 -0.491314 -3.0912 0
M  V30 11397 C 1083.02 -0.953049 -4.47974 0
M  V30 11398 N 1084.51 -0.909434 -4.54184 0
M  V30 11399 C 1085.25 -1.23801 -5.59876 0
M  V30 11400 N 1084.74 -1.63752 -6.73169 0
M  V30 11401 N 1086.54 -1.15867 -5.50028 0
M  V30 11402 H 1078.69 -1.36608 -1.62641 0
M  V30 11403 H 1080.95 -0.560515 -0.764544 0
M  V30 11404 H 1080.66 -1.57277 -3.14574 0
M  V30 11405 H 1080.53 0.0617787 -3.77149 0
M  V30 11406 H 1082.92 0.538123 -2.90152 0
M  V30 11407 H 1083 -1.12327 -2.29818 0
M  V30 11408 H 1082.64 -1.98076 -4.67684 0
M  V30 11409 H 1082.57 -0.298007 -5.25756 0
M  V30 11410 H 1085.06 -0.615569 -3.72853 0
M  V30 11411 H 1085.38 -1.87163 -7.49793 0
M  V30 11412 H 1083.72 -1.67647 -6.74477 0
M  V30 11413 H 1086.91 -0.845502 -4.60401 0
M  V30 11414 H 1087.09 -1.41805 -6.32294 0
M  V30 11415 N 1080.49 1.57075 -0.12858 0
M  V30 11416 C 1081.4 2.19369 0.831533 0
M  V30 11417 C 1082.42 1.17258 1.28555 0
M  V30 11418 O 1083.59 1.49766 1.34656 0
M  V30 11419 C 1080.66 2.78846 2.06024 0
M  V30 11420 C 1079.72 3.96024 1.65722 0
M  V30 11421 C 1078.95 4.52655 2.82735 0
M  V30 11422 O 1079.18 4.08175 3.98434 0
M  V30 11423 O 1078.11 5.43198 2.59268 0
M  V30 11424 H 1081.94 3.01887 0.331352 0
M  V30 11425 H 1079.52 1.49081 0.0975226 0
M  V30 11426 H 1081.4 3.16721 2.77967 0
M  V30 11427 H 1080.08 1.99353 2.5503 0
M  V30 11428 H 1078.98 3.62899 0.908574 0
M  V30 11429 H 1080.32 4.76981 1.21449 0
M  V30 11430 N 1081.97 -0.145205 1.5693 0
M  V30 11431 C 1083.2 -0.872398 1.87608 0
M  V30 11432 C 1083.61 -1.74657 0.716975 0
M  V30 11433 O 1082.97 -1.79792 -0.3132 0
M  V30 11434 C 1083.02 -1.72762 3.17546 0
M  V30 11435 O 1082.74 -0.888681 4.28992 0
M  V30 11436 C 1084.24 -2.56224 3.61751 0
M  V30 11437 H 1081.46 -0.252166 0.621815 0
M  V30 11438 H 1084.01 -0.137456 2.04038 0
M  V30 11439 H 1082.16 -2.41561 3.02865 0
M  V30 11440 H 1082.58 -1.47601 5.03303 0
M  V30 11441 H 1084.05 -3.11804 4.55502 0
M  V30 11442 H 1084.53 -3.32347 2.87127 0
M  V30 11443 H 1085.13 -1.92714 3.79133 0
M  V30 11444 N 1083.45 -1.52049 -0.414609 0
M  V30 11445 C 1084.67 -1.6997 -1.18848 0
M  V30 11446 C 1085.1 -0.406058 -1.83665 0
M  V30 11447 O 1084.46 0.635981 -1.69779 0
M  V30 11448 C 1084.5 -2.8327 -2.23138 0
M  V30 11449 O 1083.61 -2.48457 -3.29155 0
M  V30 11450 H 1082.95 -0.566003 -0.347183 0
M  V30 11451 H 1085.48 -1.98726 -0.486757 0
M  V30 11452 H 1085.49 -3.08022 -2.67557 0
M  V30 11453 H 1084.16 -3.7713 -1.75344 0
M  V30 11454 H 1082.74 -2.34357 -2.90054 0
M  V30 11455 N 1084.93 0.6715 -1.42579 0
M  V30 11456 C 1086.17 1.42731 -1.42516 0
M  V30 11457 C 1086.49 1.95545 -0.0462407 0
M  V30 11458 O 1087.69 2.71391 0.0769798 0
M  V30 11459 C 1086.15 2.58215 -2.50705 0
M  V30 11460 C 1085.76 2.12086 -3.94618 0
M  V30 11461 C 1087.5 3.35705 -2.59813 0
M  V30 11462 C 1085.41 3.24672 -4.9431 0
M  V30 11463 H 1084.34 0.536218 -0.530081 0
M  V30 11464 H 1086.99 0.726655 -1.68499 0
M  V30 11465 H 1085.37 3.30665 -2.17892 0
M  V30 11466 H 1086.55 1.46768 -4.36802 0
M  V30 11467 H 1084.86 1.47526 -3.89391 0
M  V30 11468 H 1087.46 4.1956 -3.31472 0
M  V30 11469 H 1087.8 3.82517 -1.64276 0
M  V30 11470 H 1088.33 2.70326 -2.91836 0
M  V30 11471 H 1085.07 2.82848 -5.91335 0
M  V30 11472 H 1084.59 3.88761 -4.56755 0
M  V30 11473 H 1086.27 3.90088 -5.16179 0
M  V30 11474 N 1086.4 1.28806 0.908124 0
M  V30 11475 C 1087.65 1.16287 1.65781 0
M  V30 11476 C 1087.98 -0.287389 1.92365 0
M  V30 11477 O 1087.23 -1.22491 1.52625 0
M  V30 11478 C 1087.53 1.91267 3.01914 0
M  V30 11479 C 1087.2 3.41033 2.9497 0
M  V30 11480 C 1085.86 3.81879 2.92783 0
M  V30 11481 C 1088.21 4.36507 2.848 0
M  V30 11482 C 1085.54 5.16529 2.78235 0
M  V30 11483 C 1087.89 5.71237 2.71792 0
M  V30 11484 C 1086.56 6.11351 2.67967 0
M  V30 11485 H 1085.83 0.425526 0.606637 0
M  V30 11486 H 1088.47 1.59646 1.05762 0
M  V30 11487 H 1086.78 1.40474 3.65752 0
M  V30 11488 H 1088.48 1.78992 3.58835 0
M  V30 11489 H 1085.07 3.08561 2.97469 0
M  V30 11490 H 1089.25 4.05909 2.85573 0
M  V30 11491 H 1084.51 5.4673 2.73672 0
M  V30 11492 H 1088.68 6.44872 2.62892 0
M  V30 11493 H 1086.31 7.15637 2.56451 0
M  V30 11494 N 1087.88 -1.11734 1.11145 0
M  V30 11495 C 1089.11 -1.87755 0.881062 0
M  V30 11496 C 1089.53 -1.79461 -0.563496 0
M  V30 11497 O 1088.89 -1.15481 -1.39763 0
M  V30 11498 C 1088.94 -3.34641 1.34342 0
M  V30 11499 O 1088.04 -4.09195 0.513157 0
M  V30 11500 H 1087.38 -0.583111 0.317613 0
M  V30 11501 H 1089.91 -1.41256 1.48013 0
M  V30 11502 H 1089.92 -3.85486 1.33658 0
M  V30 11503 H 1088.6 -3.39994 2.39534 0
M  V30 11504 H 1087.17 -3.68269 0.585833 0
M  V30 11505 N 1089.36 -0.901303 -1.29284 0
M  V30 11506 C 1090.59 -0.542723 -1.99344 0
M  V30 11507 C 1091 0.877357 -1.67628 0
M  V30 11508 O 1090.34 1.59088 -0.918515 0
M  V30 11509 C 1090.4 -0.657088 -3.53444 0
M  V30 11510 C 1090.07 -2.04444 -4.0872 0
M  V30 11511 C 1091.06 -3.01577 -4.23494 0
M  V30 11512 C 1088.75 -2.35425 -4.43712 0
M  V30 11513 C 1090.74 -4.27816 -4.72496 0
M  V30 11514 C 1088.43 -3.61906 -4.9241 0
M  V30 11515 C 1089.43 -4.57916 -5.06757 0
M  V30 11516 O 1089.12 -5.8215 -5.54397 0
M  V30 11517 H 1088.85 -0.206742 -0.64361 0
M  V30 11518 H 1091.4 -1.21311 -1.65749 0
M  V30 11519 H 1089.63 0.0703305 -3.86636 0
M  V30 11520 H 1091.32 -0.307425 -4.04734 0
M  V30 11521 H 1092.09 -2.78957 -3.96747 0
M  V30 11522 H 1087.97 -1.61454 -4.31803 0
M  V30 11523 H 1091.51 -5.0276 -4.83609 0
M  V30 11524 H 1087.41 -3.84356 -5.18595 0
M  V30 11525 H 1088.17 -5.84762 -5.72709 0
M  V30 11526 N 1090.84 1.42931 -0.663954 0
M  V30 11527 C 1092.25 1.56098 -0.332496 0
M  V30 11528 C 1092.45 1.64564 1.16279 0
M  V30 11529 O 1091.51 1.6066 1.94794 0
M  V30 11530 C 1092.82 2.81649 -1.05329 0
M  V30 11531 C 1094.37 2.95408 -1.03457 0
M  V30 11532 C 1094.85 4.23805 -1.73647 0
M  V30 11533 N 1096.34 4.30693 -1.70462 0
M  V30 11534 C 1097.07 5.28833 -2.21637 0
M  V30 11535 N 1096.57 6.33189 -2.81147 0
M  V30 11536 N 1098.36 5.20558 -2.12075 0
M  V30 11537 H 1090.51 1.3568 -1.63416 0
M  V30 11538 H 1092.77 0.652361 -0.687844 0
M  V30 11539 H 1092.48 2.81494 -2.10842 0
M  V30 11540 H 1092.35 3.72208 -0.611626 0
M  V30 11541 H 1094.74 2.95097 0.0121936 0
M  V30 11542 H 1094.82 2.06109 -1.51502 0
M  V30 11543 H 1094.47 4.24876 -2.78285 0
M  V30 11544 H 1094.4 5.12019 -1.2306 0
M  V30 11545 H 1096.89 3.55904 -1.27046 0
M  V30 11546 H 1097.2 7.04411 -3.17844 0
M  V30 11547 H 1095.55 6.33781 -2.85212 0
M  V30 11548 H 1098.74 4.3795 -1.6528 0
M  V30 11549 H 1098.91 5.96881 -2.52264 0
M  V30 11550 N 1092.32 0.406567 1.52266 0
M  V30 11551 C 1093.23 -0.4271 2.30679 0
M  V30 11552 C 1094.24 -1.0559 1.383 0
M  V30 11553 O 1095.42 -1.05797 1.71374 0
M  V30 11554 C 1092.48 -1.53008 3.1111 0
M  V30 11555 C 1091.54 -0.924604 4.19225 0
M  V30 11556 C 1090.78 -1.97502 4.95811 0
M  V30 11557 O 1091 -3.19277 4.72671 0
M  V30 11558 O 1089.93 -1.58268 5.80719 0
M  V30 11559 H 1093.76 0.212187 3.02958 0
M  V30 11560 H 1091.34 0.169835 1.48432 0
M  V30 11561 H 1093.23 -2.17046 3.61205 0
M  V30 11562 H 1091.9 -2.15401 2.41628 0
M  V30 11563 H 1090.81 -0.247009 3.73284 0
M  V30 11564 H 1092.14 -0.34463 4.90992 0
M  V30 11565 N 1093.79 -1.57004 0.136909 0
M  V30 11566 C 1095.07 -1.87375 -0.561233 0
M  V30 11567 C 1095.45 -1.04117 -1.83638 0
M  V30 11568 O 1094.8 -0.125103 -2.28157 0
M  V30 11569 C 1095.01 -3.38829 -0.836426 0
M  V30 11570 C 1096.36 -4.07826 -1.18164 0
M  V30 11571 O 1097.38 -3.4395 -0.92611 0
M  V30 11572 O 1096.24 -5.20614 -1.66204 0
M  V30 11573 H 1093.33 -0.776287 -0.285145 0
M  V30 11574 H 1095.88 -1.68818 0.172761 0
M  V30 11575 H 1094.65 -3.91244 0.066442 0
M  V30 11576 H 1094.28 -3.62879 -1.62496 0
M  V30 11577 N 1095.27 0.136881 -1.57004 0
M  V30 11578 C 1096.68 0.695911 -1.73245 0
M  V30 11579 C 1097.03 1.8118 -0.75288 0
M  V30 11580 O 1096.16 2.16258 0.0782477 0
M  V30 11581 C 1096.75 1.26914 -3.14131 0
M  V30 11582 C 1095.31 1.77463 -3.31939 0
M  V30 11583 C 1094.46 0.667128 -2.69156 0
M  V30 11584 H 1097.41 -0.0888841 -1.58451 0
M  V30 11585 H 1097.43 2.13892 -3.14691 0
M  V30 11586 H 1096.94 0.456754 -3.85403 0
M  V30 11587 H 1095.05 2.61236 -2.65681 0
M  V30 11588 H 1095.16 1.89638 -4.39971 0
M  V30 11589 H 1093.52 1.09629 -2.29899 0
M  V30 11590 H 1094.31 -0.13398 -3.43038 0
M  V30 11591 N 1096.75 1.52266 0.40654 0
M  V30 11592 C 1098 1.6568 1.15035 0
M  V30 11593 C 1098.31 0.394135 1.91588 0
M  V30 11594 O 1099.52 0.408113 2.68415 0
M  V30 11595 C 1097.97 2.92725 2.0938 0
M  V30 11596 C 1097.58 4.26108 1.38332 0
M  V30 11597 C 1099.33 3.15502 2.84004 0
M  V30 11598 C 1097.23 5.44275 2.3134 0
M  V30 11599 H 1096.16 0.61719 0.43312 0
M  V30 11600 H 1098.81 1.78755 0.414598 0
M  V30 11601 H 1097.2 2.73355 2.86519 0
M  V30 11602 H 1098.37 4.55971 0.665396 0
M  V30 11603 H 1096.69 4.09454 0.757384 0
M  V30 11604 H 1099.28 4.00964 3.5374 0
M  V30 11605 H 1099.63 2.29842 3.471 0
M  V30 11606 H 1100.16 3.35357 2.13964 0
M  V30 11607 H 1096.9 6.3229 1.72887 0
M  V30 11608 H 1096.42 5.18749 3.01098 0
M  V30 11609 H 1098.1 5.77457 2.91809 0
M  V30 11610 N 1098.23 -0.663929 1.42933 0
M  V30 11611 C 1099.47 -1.42603 1.44195 0
M  V30 11612 C 1099.81 -1.94101 0.0620284 0
M  V30 11613 O 1099.08 -1.71609 -0.91546 0
M  V30 11614 C 1099.37 -2.61522 2.47544 0
M  V30 11615 C 1099.22 -2.15587 3.94769 0
M  V30 11616 C 1100.54 -3.6374 2.47753 0
M  V30 11617 H 1097.66 -0.517189 0.525056 0
M  V30 11618 H 1100.3 -0.75361 1.74415 0
M  V30 11619 H 1098.45 -3.1889 2.21904 0
M  V30 11620 H 1100.12 -1.63303 4.31428 0
M  V30 11621 H 1098.36 -1.47057 4.08114 0
M  V30 11622 H 1099.03 -3.01053 4.62678 0
M  V30 11623 H 1101.51 -3.16111 2.70579 0
M  V30 11624 H 1100.39 -4.44512 3.22025 0
M  V30 11625 H 1100.65 -4.15607 1.50742 0
M  V30 11626 N 1099.71 -1.29285 -0.901281 0
M  V30 11627 C 1100.94 -1.19874 -1.68267 0
M  V30 11628 C 1101.34 0.243387 -1.87628 0
M  V30 11629 O 1100.69 1.17497 -1.41209 0
M  V30 11630 C 1100.75 -1.83907 -3.08899 0
M  V30 11631 C 1100.41 -3.33198 -3.12775 0
M  V30 11632 C 1101.41 -4.29446 -2.9304 0
M  V30 11633 C 1099.1 -3.7437 -3.34892 0
M  V30 11634 C 1101.09 -5.64842 -2.95352 0
M  V30 11635 C 1098.78 -5.09888 -3.36834 0
M  V30 11636 C 1099.77 -6.04934 -3.17087 0
M  V30 11637 O 1099.46 -7.37979 -3.18815 0
M  V30 11638 H 1099.19 -0.416601 -0.532372 0
M  V30 11639 H 1101.75 -1.71154 -1.13558 0
M  V30 11640 H 1099.98 -1.27136 -3.65203 0
M  V30 11641 H 1101.67 -1.6884 -3.69118 0
M  V30 11642 H 1102.43 -3.9897 -2.75767 0
M  V30 11643 H 1098.31 -3.00846 -3.49303 0
M  V30 11644 H 1101.86 -6.39004 -2.79856 0
M  V30 11645 H 1097.75 -5.40009 -3.53638 0
M  V30 11646 H 1098.52 -7.46763 -3.35092 0
M  V30 11647 N 1101.18 1.11143 -1.11736 0
M  V30 11648 C 1102.09 2.20851 -0.791331 0
M  V30 11649 C 1103.11 1.72644 0.216833 0
M  V30 11650 O 1104.29 2.01332 0.0522401 0
M  V30 11651 C 1101.35 3.4585 -0.242694 0
M  V30 11652 C 1100.41 4.08829 -1.30986 0
M  V30 11653 C 1099.65 5.27861 -0.787305 0
M  V30 11654 O 1099.87 5.69122 0.381549 0
M  V30 11655 O 1098.8 5.81506 -1.55352 0
M  V30 11656 H 1102.63 2.51158 -1.70744 0
M  V30 11657 H 1100.21 1.19739 -0.893478 0
M  V30 11658 H 1102.1 4.21359 0.0587472 0
M  V30 11659 H 1100.77 3.17187 0.646079 0
M  V30 11660 H 1099.68 3.35037 -1.66436 0
M  V30 11661 H 1101.01 4.41678 -2.17213 0
M  V30 11662 N 1102.66 0.908147 1.28804 0
M  V30 11663 C 1103.91 0.534332 1.94494 0
M  V30 11664 C 1104.22 -0.92552 1.72318 0
M  V30 11665 O 1105.43 -1.40724 2.32183 0
M  V30 11666 C 1103.89 0.904748 3.48342 0
M  V30 11667 C 1103.49 2.38394 3.79305 0
M  V30 11668 C 1105.24 0.601249 4.2022 0
M  V30 11669 C 1103.15 2.69478 5.26437 0
M  V30 11670 H 1102.08 0.196107 0.728051 0
M  V30 11671 H 1104.73 1.1063 1.46401 0
M  V30 11672 H 1103.11 0.261624 3.95135 0
M  V30 11673 H 1104.28 3.07333 3.43341 0
M  V30 11674 H 1102.6 2.65733 3.20586 0
M  V30 11675 H 1105.19 0.810225 5.28526 0
M  V30 11676 H 1105.54 -0.460669 4.13743 0
M  V30 11677 H 1106.07 1.20259 3.79187 0
M  V30 11678 H 1102.81 3.74501 5.37986 0
M  V30 11679 H 1102.33 2.05171 5.63618 0
M  V30 11680 H 1104.01 2.56187 5.94119 0
M  V30 11681 N 1104.14 -1.42577 0.671525 0
M  V30 11682 C 1105.09 -2.27978 -0.0315286 0
M  V30 11683 C 1106.07 -1.40907 -0.776796 0
M  V30 11684 O 1107.27 -1.64385 -0.656248 0
M  V30 11685 C 1104.4 -3.28884 -0.9844 0
M  V30 11686 C 1103.48 -4.23439 -0.236647 0
M  V30 11687 N 1103.87 -5.00107 0.756714 0
M  V30 11688 C 1102.17 -4.43457 -0.475551 0
M  V30 11689 C 1102.87 -5.69141 1.20221 0
M  V30 11690 N 1101.85 -5.40983 0.532802 0
M  V30 11691 H 1105.65 -2.84678 0.730455 0
M  V30 11692 H 1103.16 -1.54501 0.500317 0
M  V30 11693 H 1105.16 -3.88864 -1.50302 0
M  V30 11694 H 1103.82 -2.73745 -1.74625 0
M  V30 11695 H 1104.83 -5.05285 1.13613 0
M  V30 11696 H 1101.51 -3.99364 -1.21715 0
M  V30 11697 H 1102.9 -6.40653 2.02517 0
M  V30 11698 N 1105.62 -0.414636 -1.52048 0
M  V30 11699 C 1107.03 0.0537107 -1.86623 0
M  V30 11700 C 1107.38 1.43955 -1.3331 0
M  V30 11701 O 1106.51 2.05616 -0.674606 0
M  V30 11702 C 1107.1 0.104241 -3.3864 0
M  V30 11703 C 1105.66 0.516936 -3.72833 0
M  V30 11704 C 1104.81 -0.305042 -2.75617 0
M  V30 11705 H 1107.76 -0.631469 -1.45596 0
M  V30 11706 H 1107.78 0.918395 -3.6925 0
M  V30 11707 H 1107.29 -0.904523 -3.77412 0
M  V30 11708 H 1105.39 1.53214 -3.39641 0
M  V30 11709 H 1105.5 0.2575 -4.78408 0
M  V30 11710 H 1103.87 0.233416 -2.53628 0
M  V30 11711 H 1104.65 -1.31226 -3.1723 0
M  V30 11712 N 1107.1 1.56929 -0.145233 0
M  V30 11713 C 1108.32 2.00431 0.513314 0
M  V30 11714 C 1108.74 1.0253 1.58534 0
M  V30 11715 O 1108.1 0.0220459 1.82487 0
M  V30 11716 C 1108.15 3.43856 1.11557 0
M  V30 11717 O 1107.87 4.38015 0.0863707 0
M  V30 11718 C 1109.37 4.02627 1.8549 0
M  V30 11719 H 1106.59 0.657529 0.133778 0
M  V30 11720 H 1109.13 2.03095 -0.239296 0
M  V30 11721 H 1107.29 3.4205 1.81881 0
M  V30 11722 H 1107.7 5.21842 0.527363 0
M  V30 11723 H 1109.18 5.04985 2.22923 0
M  V30 11724 H 1109.65 3.43239 2.74014 0
M  V30 11725 H 1110.26 4.08058 1.19869 0
M  V30 11726 N 1108.58 -0.128553 1.57075 0
M  V30 11727 C 1109.52 -1.15812 1.9964 0
M  V30 11728 C 1110.49 -1.41679 0.86696 0
M  V30 11729 O 1111.68 -1.53705 1.13046 0
M  V30 11730 C 1108.82 -2.48198 2.39774 0
M  V30 11731 C 1107.93 -2.29348 3.66092 0
M  V30 11732 C 1107.07 -3.54898 3.95248 0
M  V30 11733 C 1106.1 -3.31164 5.14779 0
M  V30 11734 N 1105.24 -4.48891 5.39853 0
M  V30 11735 H 1110.08 -0.788136 2.87389 0
M  V30 11736 H 1107.62 -0.377682 1.42169 0
M  V30 11737 H 1109.58 -3.25414 2.61077 0
M  V30 11738 H 1108.21 -2.83108 1.5508 0
M  V30 11739 H 1107.26 -1.43095 3.5246 0
M  V30 11740 H 1108.57 -2.07781 4.53463 0
M  V30 11741 H 1107.72 -4.40536 4.17148 0
M  V30 11742 H 1106.46 -3.79487 3.06335 0
M  V30 11743 H 1105.47 -2.43915 4.92733 0
M  V30 11744 H 1106.69 -3.07954 6.05261 0
M  V30 11745 H 1104.64 -4.73619 4.53895 0
M  V30 11746 H 1104.56 -4.30394 6.21528 0
M  V30 11747 H 1105.82 -5.35691 5.66265 0
M  V30 11748 N 1110.05 -1.5248 -0.398459 0
M  V30 11749 C 1111.28 -1.71221 -1.17039 0
M  V30 11750 C 1111.7 -0.425515 -1.83224 0
M  V30 11751 O 1111.06 0.617938 -1.70444 0
M  V30 11752 C 1111.11 -2.8562 -2.20121 0
M  V30 11753 O 1110.21 -2.51934 -3.26501 0
M  V30 11754 H 1109.55 -0.569654 -0.34116 0
M  V30 11755 H 1112.08 -1.99231 -0.465652 0
M  V30 11756 H 1112.09 -3.10842 -2.64275 0
M  V30 11757 H 1110.77 -3.78969 -1.71334 0
M  V30 11758 H 1109.35 -2.3742 -2.87552 0
M  V30 11759 N 1111.53 0.65634 -1.43283 0
M  V30 11760 C 1112.78 1.41627 -1.44734 0
M  V30 11761 C 1113.11 1.94372 -0.0704893 0
M  V30 11762 O 1112.36 1.72511 0.924037 0
M  V30 11763 C 1112.66 2.61688 -2.43421 0
M  V30 11764 C 1112.33 2.2738 -3.8937 0
M  V30 11765 C 1110.99 2.17735 -4.29121 0
M  V30 11766 C 1113.34 1.99863 -4.81357 0
M  V30 11767 C 1110.67 1.78725 -5.58815 0
M  V30 11768 C 1113.02 1.62352 -6.11412 0
M  V30 11769 C 1111.68 1.51231 -6.50143 0
M  V30 11770 H 1110.95 0.51825 -0.529621 0
M  V30 11771 H 1113.6 0.746701 -1.76342 0
M  V30 11772 H 1111.91 3.33763 -2.05206 0
M  V30 11773 H 1113.6 3.19896 -2.41801 0
M  V30 11774 H 1110.19 2.35795 -3.57908 0
M  V30 11775 H 1114.38 2.06237 -4.5142 0
M  V30 11776 H 1109.63 1.68698 -5.87666 0
M  V30 11777 H 1113.81 1.40091 -6.82164 0
M  V30 11778 H 1111.43 1.20774 -7.50545 0
M  V30 11779 N 1113.01 1.29761 0.894412 0
M  V30 11780 C 1114.26 1.17409 1.64006 0
M  V30 11781 C 1114.57 -0.272355 1.93695 0
M  V30 11782 O 1115.78 -0.517269 2.66527 0
M  V30 11783 C 1114.23 2.05379 2.95546 0
M  V30 11784 C 1113.84 3.54878 2.73433 0
M  V30 11785 C 1115.59 2.01765 3.73485 0
M  V30 11786 C 1113.49 4.34935 4.00731 0
M  V30 11787 H 1112.42 0.43583 0.615279 0
M  V30 11788 H 1115.07 1.5444 0.990983 0
M  V30 11789 H 1113.46 1.61222 3.61695 0
M  V30 11790 H 1114.63 4.07122 2.15844 0
M  V30 11791 H 1112.94 3.60218 2.08882 0
M  V30 11792 H 1115.54 2.58835 4.67877 0
M  V30 11793 H 1115.88 0.998876 4.04139 0
M  V30 11794 H 1116.42 2.43994 3.14184 0
M  V30 11795 H 1113.16 5.3747 3.75241 0
M  V30 11796 H 1112.68 3.87458 4.5786 0
M  V30 11797 H 1114.36 4.45875 4.68833 0
M  V30 11798 N 1114.49 -1.10549 1.12324 0
M  V30 11799 C 1115.71 -1.8681 0.900927 0
M  V30 11800 C 1116.14 -1.80049 -0.54443 0
M  V30 11801 O 1115.5 -1.16957 -1.38531 0
M  V30 11802 C 1115.54 -3.33197 1.37883 0
M  V30 11803 O 1114.65 -4.08628 0.556529 0
M  V30 11804 H 1113.99 -0.579709 0.32378 0
M  V30 11805 H 1116.52 -1.39678 1.49503 0
M  V30 11806 H 1116.53 -3.84047 1.37739 0
M  V30 11807 H 1115.2 -3.37435 2.43127 0
M  V30 11808 H 1113.78 -3.67627 0.62486 0
M  V30 11809 N 1115.97 -0.914965 -1.28321 0
M  V30 11810 C 1117.21 -0.547665 -1.94538 0
M  V30 11811 C 1117.53 0.911834 -1.72368 0
M  V30 11812 O 1116.8 1.64481 -1.06408 0
M  V30 11813 H 1115.38 -0.199549 -0.719853 0
M  V30 11814 H 1118.05 -1.16459 -1.5628 0
M  V30 11815 H 1117.14 -0.743138 -3.03124 0
M  V30 11816 N 1117.44 1.42219 -0.679077 0
M  V30 11817 C 1118.69 2.01081 -0.202718 0
M  V30 11818 C 1119.01 1.53986 1.19639 0
M  V30 11819 O 1118.28 0.763359 1.80415 0
M  V30 11820 H 1116.86 0.743526 -0.0719547 0
M  V30 11821 H 1119.52 1.74077 -0.876544 0
M  V30 11822 H 1118.62 3.11411 -0.207314 0
M  V30 11823 N 1118.92 0.422693 1.51826 0
M  V30 11824 C 1120.15 -0.15017 2.06856 0
M  V30 11825 C 1120.57 -1.36946 1.28948 0
M  V30 11826 O 1119.93 -1.78393 0.32338 0
M  V30 11827 C 1119.98 -0.465563 3.57582 0
M  V30 11828 O 1119.08 -1.55442 3.81984 0
M  V30 11829 H 1118.42 -0.00827931 0.663948 0
M  V30 11830 H 1120.95 0.599806 1.95611 0
M  V30 11831 H 1120.96 -0.720279 4.01592 0
M  V30 11832 H 1119.64 0.425679 4.13716 0
M  V30 11833 H 1118.21 -1.29081 3.49846 0
M  V30 11834 N 1120.4 -1.5685 0.153553 0
M  V30 11835 C 1121.63 -2.00701 -0.502678 0
M  V30 11836 C 1122.04 -1.0337 -1.57988 0
M  V30 11837 O 1121.4 -0.0317233 -1.82472 0
M  V30 11838 C 1121.45 -3.44443 -1.09732 0
M  V30 11839 O 1121.17 -4.38054 -0.0631405 0
M  V30 11840 C 1122.67 -4.03605 -1.83352 0
M  V30 11841 H 1119.89 -0.658229 -0.130289 0
M  V30 11842 H 1122.44 -2.02965 0.250063 0
M  V30 11843 H 1120.59 -3.43009 -1.80065 0
M  V30 11844 H 1121.01 -5.22114 -0.499681 0
M  V30 11845 H 1122.48 -5.0616 -2.20241 0
M  V30 11846 H 1122.96 -3.44687 -2.7219 0
M  V30 11847 H 1123.56 -4.08688 -1.17703 0
M  V30 11848 N 1121.88 0.120221 -1.57141 0
M  V30 11849 C 1123.13 0.826791 -1.83976 0
M  V30 11850 C 1123.44 1.81102 -0.739014 0
M  V30 11851 O 1124.65 2.56368 -0.893736 0
M  V30 11852 C 1123.1 1.52108 -3.26176 0
M  V30 11853 C 1122.71 0.577902 -4.44257 0
M  V30 11854 C 1124.45 2.21286 -3.62261 0
M  V30 11855 C 1122.36 1.27535 -5.77485 0
M  V30 11856 H 1121.29 0.312508 -0.686189 0
M  V30 11857 H 1123.94 0.0795343 -1.83328 0
M  V30 11858 H 1122.32 2.31492 -3.2129 0
M  V30 11859 H 1123.5 -0.182629 -4.60438 0
M  V30 11860 H 1121.81 -0.00684348 -4.16399 0
M  V30 11861 H 1124.41 2.74154 -4.59068 0
M  V30 11862 H 1124.75 2.99029 -2.89634 0
M  V30 11863 H 1125.29 1.48791 -3.68925 0
M  V30 11864 H 1122.02 0.539237 -6.53278 0
M  V30 11865 H 1121.54 2.00792 -5.65192 0
M  V30 11866 H 1123.22 1.80888 -6.21199 0
M  V30 11867 N 1123.36 1.52689 0.390367 0
M  V30 11868 C 1124.58 1.71541 1.15678 0
M  V30 11869 C 1125 0.433171 1.83764 0
M  V30 11870 O 1124.36 -0.592248 1.72623 0
M  V30 11871 C 1124.41 2.864 2.20584 0
M  V30 11872 O 1124.13 4.0966 1.55274 0
M  V30 11873 C 1125.63 3.1692 3.09962 0
M  V30 11874 H 1122.85 0.574381 0.346883 0
M  V30 11875 H 1125.39 1.99332 0.456851 0
M  V30 11876 H 1123.55 2.61075 2.86214 0
M  V30 11877 H 1123.96 4.73802 2.2497 0
M  V30 11878 H 1125.44 4.00755 3.79604 0
M  V30 11879 H 1125.91 2.31245 3.73393 0
M  V30 11880 H 1126.52 3.4408 2.49979 0
M  V30 11881 N 1124.83 -0.648732 1.43629 0
M  V30 11882 C 1126.08 -1.40579 1.45196 0
M  V30 11883 C 1126.4 -1.9484 0.0790556 0
M  V30 11884 O 1125.67 -1.74707 -0.886239 0
M  V30 11885 H 1124.25 -0.52175 0.53459 0
M  V30 11886 H 1126.92 -0.764796 1.79268 0
M  V30 11887 H 1126.01 -2.24591 2.16715 0
M  V30 11888 N 1126.31 -1.30234 -0.887518 0
M  V30 11889 C 1127.56 -1.19086 -1.64153 0
M  V30 11890 C 1127.89 0.254428 -1.92526 0
M  V30 11891 O 1127.17 1.18233 -1.54438 0
M  V30 11892 C 1127.45 -2.01723 -2.98295 0
M  V30 11893 C 1127.3 -3.54458 -2.76911 0
M  V30 11894 C 1128.62 -1.85307 -3.99186 0
M  V30 11895 H 1125.74 -0.433967 -0.595686 0
M  V30 11896 H 1128.38 -1.59839 -1.0272 0
M  V30 11897 H 1126.53 -1.67096 -3.5073 0
M  V30 11898 H 1128.2 -3.99131 -2.31284 0
M  V30 11899 H 1126.45 -3.78768 -2.11464 0
M  V30 11900 H 1127.12 -4.07565 -3.72283 0
M  V30 11901 H 1129.59 -2.15575 -3.55903 0
M  V30 11902 H 1128.47 -2.45456 -4.90961 0
M  V30 11903 H 1128.73 -0.811528 -4.34588 0
M  V30 11904 N 1127.79 1.09952 -1.12909 0
M  V30 11905 C 1129.04 1.81657 -0.885729 0
M  V30 11906 C 1129.36 1.85863 0.589913 0
M  V30 11907 O 1128.63 1.34028 1.42875 0
M  V30 11908 H 1127.21 0.672743 -0.324694 0
M  V30 11909 H 1129.87 1.33013 -1.42456 0
M  V30 11910 H 1128.97 2.85018 -1.27167 0
M  V30 11911 N 1129.27 0.921757 1.27833 0
M  V30 11912 C 1130.22 0.414838 2.27041 0
M  V30 11913 C 1131.19 -0.515045 1.57913 0
M  V30 11914 O 1132.37 -0.435499 1.85763 0
M  V30 11915 C 1129.51 -0.331744 3.43502 0
M  V30 11916 C 1128.62 0.631565 4.27358 0
M  V30 11917 C 1127.76 -0.134265 5.3103 0
M  V30 11918 C 1126.8 0.822138 6.06554 0
M  V30 11919 N 1125.93 0.0893149 7.02043 0
M  V30 11920 H 1130.77 1.26585 2.69778 0
M  V30 11921 H 1128.31 0.635488 1.32665 0
M  V30 11922 H 1130.27 -0.780866 4.09827 0
M  V30 11923 H 1128.9 -1.14704 3.01733 0
M  V30 11924 H 1127.95 1.19922 3.61003 0
M  V30 11925 H 1129.26 1.36274 4.79824 0
M  V30 11926 H 1128.42 -0.643579 6.03277 0
M  V30 11927 H 1127.16 -0.898443 4.79353 0
M  V30 11928 H 1126.16 1.34275 5.33151 0
M  V30 11929 H 1127.39 1.586 6.6032 0
M  V30 11930 H 1125.33 -0.656725 6.52704 0
M  V30 11931 H 1125.25 0.760167 7.52169 0
M  V30 11932 H 1126.52 -0.399541 7.78475 0
M  V30 11933 N 1130.75 -1.41857 0.686609 0
M  V30 11934 C 1131.69 -2.326 0.0041351 0
M  V30 11935 C 1132.69 -1.50474 -0.778077 0
M  V30 11936 O 1133.89 -1.66468 -0.684709 0
M  V30 11937 H 1130.27 -0.751797 -0.0174615 0
M  V30 11938 H 1132.24 -2.87844 0.786656 0
M  V30 11939 C 1130.99 -3.35175 -0.924819 0
M  V30 11940 H 1130.31 -3.98416 -0.332339 0
M  V30 11941 H 1131.75 -4.01229 -1.37082 0
M  V30 11942 C 1130.21 -2.68359 -2.03679 0
M  V30 11943 O 1130.74 -2.52453 -3.12459 0
M  V30 11944 N 1128.95 -2.27196 -1.81192 0
M  V30 11945 H 1128.49 -2.40333 -0.92725 0
M  V30 11946 H 1128.45 -1.82824 -2.55778 0
M  V30 11947 N 1132.22 -0.430739 -1.51599 0
M  V30 11948 C 1133.15 0.374695 -2.30474 0
M  V30 11949 C 1134.14 1.02694 -1.35602 0
M  V30 11950 O 1135.32 1.03184 -1.6452 0
M  V30 11951 C 1132.45 1.47981 -3.14196 0
M  V30 11952 C 1131.4 0.951415 -4.17291 0
M  V30 11953 C 1130.73 2.15177 -4.89492 0
M  V30 11954 C 1132.03 -0.00957951 -5.22299 0
M  V30 11955 H 1133.72 -0.283508 -2.98055 0
M  V30 11956 H 1131.27 -0.13779 -1.43339 0
M  V30 11957 H 1133.22 2.05043 -3.68151 0
M  V30 11958 H 1131.95 2.16621 -2.44424 0
M  V30 11959 H 1130.61 0.403052 -3.64378 0
M  V30 11960 H 1130.25 2.82421 -4.1623 0
M  V30 11961 H 1129.95 1.80464 -5.59202 0
M  V30 11962 H 1131.48 2.72806 -5.46269 0
M  V30 11963 H 1132.89 0.470527 -5.71366 0
M  V30 11964 H 1131.29 -0.268959 -5.99497 0
M  V30 11965 H 1132.36 -0.948297 -4.75537 0
M  V30 11966 N 1133.7 1.56767 -0.161869 0
M  V30 11967 C 1134.65 2.18807 0.789074 0
M  V30 11968 C 1135.64 1.14934 1.24445 0
M  V30 11969 O 1136.85 1.33154 1.2112 0
M  V30 11970 H 1133.23 0.700808 0.272713 0
M  V30 11971 H 1135.2 2.97419 0.241766 0
M  V30 11972 C 1133.95 2.83568 2.01207 0
M  V30 11973 H 1133.27 3.63219 1.67068 0
M  V30 11974 H 1134.71 3.3046 2.65654 0
M  V30 11975 C 1133.17 1.82846 2.82964 0
M  V30 11976 O 1133.7 1.30809 3.79805 0
M  V30 11977 N 1131.9 1.51815 2.47791 0
M  V30 11978 H 1131.45 1.94325 1.69103 0
M  V30 11979 H 1131.41 0.846742 3.02783 0
M  V30 11980 N 1135.18 -0.111886 1.57202 0
M  V30 11981 C 1136.41 -0.836317 1.89791 0
M  V30 11982 C 1136.83 -1.72304 0.754513 0
M  V30 11983 O 1136.19 -1.78889 -0.294672 0
M  V30 11984 C 1136.24 -1.63971 3.21164 0
M  V30 11985 O 1135.34 -2.74726 3.0757 0
M  V30 11986 H 1134.68 -0.230833 0.622585 0
M  V30 11987 H 1137.21 -0.0921478 2.04392 0
M  V30 11988 H 1137.22 -2.02746 3.54059 0
M  V30 11989 H 1135.9 -0.98882 4.03974 0
M  V30 11990 H 1134.47 -2.39101 2.86156 0
M  V30 11991 N 1136.66 -1.52894 -0.382264 0
M  V30 11992 C 1137.9 -1.68515 -1.12829 0
M  V30 11993 C 1138.24 -0.427211 -1.89443 0
M  V30 11994 O 1137.51 0.57516 -1.85801 0
M  V30 11995 C 1137.8 -2.92449 -2.10108 0
M  V30 11996 C 1137.65 -4.2836 -1.37214 0
M  V30 11997 C 1138.97 -3.11944 -3.1045 0
M  V30 11998 H 1136.09 -0.613223 -0.408811 0
M  V30 11999 H 1138.73 -1.85503 -0.410921 0
M  V30 12000 H 1136.88 -2.78097 -2.71283 0
M  V30 12001 H 1138.55 -4.54493 -0.789516 0
M  V30 12002 H 1136.79 -4.28532 -0.673973 0
M  V30 12003 H 1137.46 -5.11178 -2.0833 0
M  V30 12004 H 1139.94 -3.25372 -2.59369 0
M  V30 12005 H 1138.82 -4.00125 -3.75754 0
M  V30 12006 H 1139.08 -2.26465 -3.79692 0
M  V30 12007 N 1138.14 0.641106 -1.43971 0
M  V30 12008 C 1139.36 1.43324 -1.4991 0
M  V30 12009 C 1139.79 1.87705 -0.121908 0
M  V30 12010 O 1139.15 1.58127 0.886875 0
M  V30 12011 C 1139.19 2.63637 -2.46025 0
M  V30 12012 O 1138.3 3.63123 -1.95488 0
M  V30 12013 H 1137.64 0.429252 -0.506595 0
M  V30 12014 H 1140.17 0.783427 -1.89007 0
M  V30 12015 H 1140.18 3.11304 -2.63731 0
M  V30 12016 H 1138.85 2.30678 -3.46064 0
M  V30 12017 H 1137.43 3.22332 -1.87501 0
M  V30 12018 N 1139.62 1.30703 0.880598 0
M  V30 12019 C 1140.86 1.19955 1.63519 0
M  V30 12020 C 1141.19 -0.244214 1.92658 0
M  V30 12021 O 1140.47 -1.17412 1.55063 0
M  V30 12022 C 1140.75 2.03302 2.97221 0
M  V30 12023 C 1140.61 3.55921 2.75028 0
M  V30 12024 C 1141.92 1.87421 3.98198 0
M  V30 12025 H 1139.04 0.43712 0.593376 0
M  V30 12026 H 1141.69 1.60382 1.01871 0
M  V30 12027 H 1139.84 1.68953 3.49839 0
M  V30 12028 H 1141.51 4.00352 2.29164 0
M  V30 12029 H 1139.75 3.79885 2.09452 0
M  V30 12030 H 1140.42 4.09533 3.70117 0
M  V30 12031 H 1142.9 2.17459 3.54755 0
M  V30 12032 H 1141.77 2.48057 4.89652 0
M  V30 12033 H 1142.03 0.834563 4.34151 0
M  V30 12034 N 1141.09 -1.09351 1.1349 0
M  V30 12035 C 1142.5 -1.63035 0.909746 0
M  V30 12036 C 1142.86 -1.88229 -0.553573 0
M  V30 12037 O 1141.98 -1.63256 -1.42044 0
M  V30 12038 C 1142.58 -2.96186 1.64497 0
M  V30 12039 C 1141.13 -3.46692 1.46566 0
M  V30 12040 C 1140.28 -2.21095 1.67369 0
M  V30 12041 H 1143.23 -0.92704 1.28809 0
M  V30 12042 H 1143.25 -3.64177 1.10251 0
M  V30 12043 H 1142.77 -2.77818 2.70996 0
M  V30 12044 H 1140.87 -3.70183 0.423728 0
M  V30 12045 H 1140.98 -4.24078 2.22923 0
M  V30 12046 H 1139.34 -2.29789 1.0986 0
M  V30 12047 H 1140.13 -2.05245 2.7519 0
M  V30 12048 N 1142.57 -0.928524 -1.27343 0
M  V30 12049 C 1143.99 -0.62889 -1.46687 0
M  V30 12050 C 1144.19 0.821592 -1.83989 0
M  V30 12051 O 1143.24 1.59941 -1.95385 0
M  V30 12052 C 1144.56 -1.57947 -2.55878 0
M  V30 12053 C 1146.1 -1.58778 -2.69738 0
M  V30 12054 C 1146.58 -2.52535 -3.82087 0
M  V30 12055 N 1148.07 -2.50747 -3.89462 0
M  V30 12056 C 1148.81 -3.19981 -4.75814 0
M  V30 12057 N 1148.3 -3.98598 -5.66649 0
M  V30 12058 N 1150.09 -3.08996 -4.69551 0
M  V30 12059 H 1142.25 -1.86625 -1.01414 0
M  V30 12060 H 1144.51 -0.801293 -0.50659 0
M  V30 12061 H 1144.21 -2.61427 -2.35264 0
M  V30 12062 H 1144.09 -1.3218 -3.53282 0
M  V30 12063 H 1146.48 -0.560292 -2.89732 0
M  V30 12064 H 1146.56 -1.88594 -1.72817 0
M  V30 12065 H 1146.2 -3.55395 -3.62846 0
M  V30 12066 H 1146.13 -2.20015 -4.78436 0
M  V30 12067 H 1148.62 -1.93651 -3.24511 0
M  V30 12068 H 1148.93 -4.4841 -6.29403 0
M  V30 12069 H 1147.28 -4.02701 -5.66442 0
M  V30 12070 H 1150.47 -2.4707 -3.97585 0
M  V30 12071 H 1150.64 -3.63223 -5.36631 0
M  V30 12072 N 1144.05 1.41491 -0.694123 0
M  V30 12073 C 1144.98 2.28189 0.0226347 0
M  V30 12074 C 1145.96 1.42152 0.7894 0
M  V30 12075 O 1147.14 1.71581 0.780519 0
M  V30 12076 C 1144.27 3.22357 1.03942 0
M  V30 12077 C 1143.32 4.24927 0.365994 0
M  V30 12078 S 1144.15 5.28043 -0.890562 0
M  V30 12079 C 1145.31 6.25776 0.124665 0
M  V30 12080 H 1145.54 2.88631 -0.712698 0
M  V30 12081 H 1143.07 1.46607 -0.484344 0
M  V30 12082 H 1145.03 3.77143 1.62091 0
M  V30 12083 H 1143.69 2.61013 1.74732 0
M  V30 12084 H 1142.88 4.9108 1.13388 0
M  V30 12085 H 1142.49 3.73729 -0.142389 0
M  V30 12086 H 1144.78 6.70398 0.978393 0
M  V30 12087 H 1145.72 7.06312 -0.502901 0
M  V30 12088 H 1146.13 5.62466 0.478792 0
M  V30 12089 N 1145.53 0.438773 1.51369 0
M  V30 12090 C 1146.77 -0.127401 2.02399 0
M  V30 12091 C 1147.11 -1.42235 1.32223 0
M  V30 12092 O 1146.38 -1.89513 0.437607 0
M  V30 12093 C 1146.66 -0.344673 3.58447 0
M  V30 12094 C 1146.52 0.969027 4.39238 0
M  V30 12095 C 1147.84 -1.11381 4.25773 0
M  V30 12096 H 1144.96 -0.0448281 0.735635 0
M  V30 12097 H 1147.6 0.57805 1.80993 0
M  V30 12098 H 1145.75 -0.945582 3.76817 0
M  V30 12099 H 1147.42 1.60403 4.32514 0
M  V30 12100 H 1145.66 1.57329 4.04265 0
M  V30 12101 H 1146.33 0.771029 5.46589 0
M  V30 12102 H 1148.81 -0.604785 4.11681 0
M  V30 12103 H 1147.69 -1.23459 5.34835 0
M  V30 12104 H 1147.95 -2.14225 3.8673 0
M  V30 12105 N 1147.01 -1.56678 0.170181 0
M  V30 12106 C 1148.25 -1.96024 -0.475147 0
M  V30 12107 C 1148.57 -1.0588 -1.64465 0
M  V30 12108 O 1149.77 -1.34901 -2.35614 0
M  V30 12109 C 1148.23 -3.4855 -0.896704 0
M  V30 12110 C 1147.84 -4.47318 0.247142 0
M  V30 12111 C 1149.58 -3.96716 -1.51052 0
M  V30 12112 C 1147.49 -5.91082 -0.193982 0
M  V30 12113 H 1146.42 -0.731883 -0.181282 0
M  V30 12114 H 1149.07 -1.81674 0.25823 0
M  V30 12115 H 1147.45 -3.58314 -1.68603 0
M  V30 12116 H 1148.63 -4.49268 1.02445 0
M  V30 12117 H 1146.94 -4.09203 0.770839 0
M  V30 12118 H 1149.54 -5.01581 -1.85258 0
M  V30 12119 H 1149.88 -3.39588 -2.40802 0
M  V30 12120 H 1150.41 -3.89965 -0.785652 0
M  V30 12121 H 1147.15 -6.5208 0.668714 0
M  V30 12122 H 1146.67 -5.92441 -0.936675 0
M  V30 12123 H 1148.35 -6.43844 -0.638237 0
M  V30 12124 N 1148.48 0.103547 -1.57259 0
M  V30 12125 C 1149.43 1.14513 -2.02459 0
M  V30 12126 C 1150.43 1.4197 -0.924163 0
M  V30 12127 O 1151.63 1.41751 -1.10936 0
M  V30 12128 H 1148.01 0.386469 -0.645094 0
M  V30 12129 H 1149.98 0.737531 -2.89142 0
M  V30 12130 C 1148.73 2.45948 -2.45775 0
M  V30 12131 H 1148.05 2.25662 -3.30026 0
M  V30 12132 H 1149.49 3.17351 -2.81184 0
M  V30 12133 C 1147.95 3.09639 -1.32759 0
M  V30 12134 O 1148.48 3.96372 -0.652059 0
M  V30 12135 N 1146.68 2.69757 -1.08072 0
M  V30 12136 H 1146.23 1.9932 -1.63185 0
M  V30 12137 H 1146.19 3.127 -0.326532 0
M  V30 12138 N 1149.96 1.53094 0.37415 0
M  V30 12139 C 1151.21 1.69111 1.11934 0
M  V30 12140 C 1151.54 0.437252 1.89213 0
M  V30 12141 O 1150.82 -0.565298 1.86104 0
M  V30 12142 C 1151.1 2.93559 2.08554 0
M  V30 12143 C 1150.95 4.29082 1.3494 0
M  V30 12144 C 1152.27 3.13586 3.08791 0
M  V30 12145 H 1149.39 0.615383 0.405553 0
M  V30 12146 H 1152.03 1.85719 0.401078 0
M  V30 12147 H 1150.18 2.79531 2.69805 0
M  V30 12148 H 1151.85 4.54906 0.765402 0
M  V30 12149 H 1150.1 4.28884 0.651238 0
M  V30 12150 H 1150.77 5.12275 2.05616 0
M  V30 12151 H 1153.24 3.26743 2.57639 0
M  V30 12152 H 1152.12 4.02112 3.73627 0
M  V30 12153 H 1152.38 2.28475 3.78486 0
M  V30 12154 N 1151.44 -0.633461 1.44309 0
M  V30 12155 C 1152.39 -1.73919 1.47432 0
M  V30 12156 C 1153.37 -1.57258 0.340381 0
M  V30 12157 O 1154.57 -1.67035 0.585529 0
M  V30 12158 C 1151.69 -3.12595 1.41912 0
M  V30 12159 C 1150.78 -3.34734 2.60411 0
M  V30 12160 N 1151.17 -3.2725 3.85669 0
M  V30 12161 C 1149.47 -3.65522 2.55557 0
M  V30 12162 C 1150.17 -3.50013 4.64613 0
M  V30 12163 N 1149.15 -3.72775 3.95651 0
M  V30 12164 H 1152.95 -1.66588 2.42128 0
M  V30 12165 H 1150.46 -0.835844 1.39239 0
M  V30 12166 H 1152.46 -3.91887 1.42233 0
M  V30 12167 H 1151.12 -3.21095 0.482525 0
M  V30 12168 H 1152.13 -3.06221 4.17671 0
M  V30 12169 H 1148.81 -3.81017 1.70682 0
M  V30 12170 H 1150.2 -3.49839 5.73639 0
M  V30 12171 N 1152.92 -1.31168 -0.873655 0
M  V30 12172 C 1153.83 -1.20458 -2.01313 0
M  V30 12173 C 1154.84 -0.122074 -1.73571 0
M  V30 12174 O 1156.02 -0.339176 -1.98523 0
M  V30 12175 C 1153.09 -0.90876 -3.34578 0
M  V30 12176 C 1152.15 -2.07779 -3.75668 0
M  V30 12177 C 1151.38 -1.79599 -5.02573 0
M  V30 12178 O 1151.6 -0.729338 -5.65718 0
M  V30 12179 O 1150.54 -2.65169 -5.40341 0
M  V30 12180 H 1154.36 -2.16207 -2.13279 0
M  V30 12181 H 1151.95 -1.10871 -1.00139 0
M  V30 12182 H 1153.83 -0.759469 -4.145 0
M  V30 12183 H 1152.5 0.0187249 -3.23695 0
M  V30 12184 H 1151.41 -2.28247 -2.96402 0
M  V30 12185 H 1152.74 -2.9874 -3.91172 0
M  V30 12186 N 1154.4 1.08748 -1.14068 0
M  V30 12187 C 1155.36 2.1375 -0.827266 0
M  V30 12188 C 1156.36 1.59936 0.166496 0
M  V30 12189 O 1157.55 1.74092 -0.0614305 0
M  V30 12190 C 1154.68 3.40106 -0.232557 0
M  V30 12191 H 1155.87 2.42985 -1.7578 0
M  V30 12192 H 1153.43 1.24402 -0.946244 0
M  V30 12193 H 1154.16 3.16503 0.706859 0
M  V30 12194 H 1153.95 3.8046 -0.948293 0
M  V30 12195 H 1155.44 4.17589 -0.0303662 0
M  V30 12196 N 1155.87 0.935264 1.26849 0
M  V30 12197 C 1157.12 0.578545 1.93642 0
M  V30 12198 C 1157.44 -0.884296 1.73796 0
M  V30 12199 O 1156.71 -1.62768 1.09011 0
M  V30 12200 H 1155.29 0.210976 0.716588 0
M  V30 12201 H 1157.96 1.1893 1.54407 0
M  V30 12202 H 1157.05 0.791268 3.01903 0
M  V30 12203 N 1157.35 -1.41121 0.701616 0
M  V30 12204 C 1158.77 -1.55162 0.373766 0
M  V30 12205 C 1158.97 -1.6759 -1.11875 0
M  V30 12206 O 1158.02 -1.65768 -1.90465 0
M  V30 12207 C 1159.34 -2.78758 1.12759 0
M  V30 12208 C 1160.89 -2.92561 1.11253 0
M  V30 12209 C 1161.36 -4.19052 1.84822 0
M  V30 12210 N 1162.85 -4.26023 1.81821 0
M  V30 12211 C 1163.59 -5.22771 2.3558 0
M  V30 12212 N 1163.08 -6.25512 2.97836 0
M  V30 12213 N 1164.88 -5.14752 2.25802 0
M  V30 12214 H 1157.03 -1.31299 1.66956 0
M  V30 12215 H 1159.29 -0.633894 0.704898 0
M  V30 12216 H 1159 -2.75804 2.18231 0
M  V30 12217 H 1158.87 -3.70456 0.710095 0
M  V30 12218 H 1161.26 -2.95026 0.0660506 0
M  V30 12219 H 1161.34 -2.0202 1.56913 0
M  V30 12220 H 1160.98 -4.17349 2.89452 0
M  V30 12221 H 1160.91 -5.08577 1.36592 0
M  V30 12222 H 1163.4 -3.52411 1.36438 0
M  V30 12223 H 1163.72 -6.95736 3.36409 0
M  V30 12224 H 1162.06 -6.25997 3.01916 0
M  V30 12225 H 1165.25 -4.33414 1.76833 0
M  V30 12226 H 1165.42 -5.89983 2.68001 0
M  V30 12227 N 1158.83 -0.446794 -1.51134 0
M  V30 12228 C 1159.78 0.374154 -2.29571 0
M  V30 12229 C 1160.77 1.01241 -1.35818 0
M  V30 12230 O 1161.98 0.946293 -1.53119 0
M  V30 12231 H 1158.35 0.13948 -0.738951 0
M  V30 12232 H 1160.32 -0.308117 -2.96805 0
M  V30 12233 C 1159.07 1.45754 -3.15675 0
M  V30 12234 H 1158.4 0.975787 -3.87709 0
M  V30 12235 H 1159.84 2.00502 -3.73597 0
M  V30 12236 C 1158.3 2.44606 -2.31667 0
M  V30 12237 O 1158.83 3.49352 -1.98284 0
M  V30 12238 N 1157.03 2.15725 -1.94708 0
M  V30 12239 H 1156.58 1.30572 -2.22056 0
M  V30 12240 H 1156.54 2.82103 -1.38798 0
M  V30 12241 N 1160.31 1.56586 -0.178487 0
M  V30 12242 C 1161.56 1.97098 0.464617 0
M  V30 12243 C 1161.88 1.06476 1.62767 0
M  V30 12244 O 1161.14 0.100337 1.95443 0
M  V30 12245 C 1161.44 3.43629 0.982552 0
M  V30 12246 C 1161.1 4.50853 -0.0653645 0
M  V30 12247 C 1159.77 4.79901 -0.353349 0
M  V30 12248 C 1162.12 5.15387 -0.776279 0
M  V30 12249 C 1159.45 5.70779 -1.35751 0
M  V30 12250 C 1161.8 6.07349 -1.76948 0
M  V30 12251 C 1160.46 6.34761 -2.06483 0
M  V30 12252 H 1159.73 0.721232 0.170016 0
M  V30 12253 H 1162.38 1.89559 -0.271959 0
M  V30 12254 H 1160.68 3.48155 1.79709 0
M  V30 12255 H 1162.38 3.7232 1.48926 0
M  V30 12256 H 1158.97 4.28266 0.169266 0
M  V30 12257 H 1163.15 4.9305 -0.567008 0
M  V30 12258 H 1158.41 5.90298 -1.59244 0
M  V30 12259 H 1162.58 6.56419 -2.32567 0
M  V30 12260 H 1160.21 7.0498 -2.84441 0
M  V30 12261 N 1161.79 -0.095206 1.57312 0
M  V30 12262 C 1163.01 -0.81227 1.90289 0
M  V30 12263 C 1163.43 -1.72287 0.772178 0
M  V30 12264 O 1162.79 -1.80698 -0.255841 0
M  V30 12265 C 1162.84 -1.62572 3.22882 0
M  V30 12266 O 1162.56 -0.75175 4.31602 0
M  V30 12267 C 1164.06 -2.44585 3.6972 0
M  V30 12268 H 1161.28 -0.232256 0.629522 0
M  V30 12269 H 1163.82 -0.0724733 2.04372 0
M  V30 12270 H 1161.98 -2.31803 3.10397 0
M  V30 12271 H 1162.39 -1.31514 5.07744 0
M  V30 12272 H 1163.87 -2.97155 4.65191 0
M  V30 12273 H 1164.34 -3.23044 2.97555 0
M  V30 12274 H 1164.95 -1.80554 3.85072 0
M  V30 12275 N 1163.26 -1.53291 -0.366026 0
M  V30 12276 C 1164.51 -1.69702 -1.11036 0
M  V30 12277 C 1164.84 -0.44728 -1.88979 0
M  V30 12278 O 1164.12 0.55542 -1.86401 0
M  V30 12279 C 1164.4 -2.94661 -2.06995 0
M  V30 12280 C 1164.25 -4.29791 -1.32663 0
M  V30 12281 C 1165.57 -3.15219 -3.07123 0
M  V30 12282 H 1162.69 -0.617525 -0.402284 0
M  V30 12283 H 1165.33 -1.85929 -0.391223 0
M  V30 12284 H 1163.48 -2.80958 -2.68318 0
M  V30 12285 H 1165.16 -4.55305 -0.741266 0
M  V30 12286 H 1163.4 -4.29223 -0.628484 0
M  V30 12287 H 1164.07 -5.13359 -2.02896 0
M  V30 12288 H 1166.55 -3.28105 -2.55903 0
M  V30 12289 H 1165.42 -4.04088 -3.71489 0
M  V30 12290 H 1165.68 -2.30479 -3.77269 0
M  V30 12291 N 1164.74 0.6258 -1.44643 0
M  V30 12292 C 1165.71 1.71941 -1.51555 0
M  V30 12293 C 1166.71 1.55822 -0.396988 0
M  V30 12294 O 1167.9 1.61221 -0.65981 0
M  V30 12295 C 1165.03 3.11068 -1.39461 0
M  V30 12296 H 1166.22 1.67185 -2.48976 0
M  V30 12297 H 1163.77 0.839934 -1.31814 0
M  V30 12298 H 1164.51 3.21416 -0.431534 0
M  V30 12299 H 1164.29 3.24175 -2.20574 0
M  V30 12300 H 1165.78 3.90762 -1.4729 0
M  V30 12301 N 1166.22 1.31629 0.866686 0
M  V30 12302 C 1167.46 1.22806 1.63395 0
M  V30 12303 C 1167.82 -0.209785 1.9085 0
M  V30 12304 O 1169.03 -0.421562 2.65474 0
M  V30 12305 C 1167.3 2.05187 2.92631 0
M  V30 12306 S 1168.86 2.13261 3.83491 0
M  V30 12307 H 1165.67 0.437339 0.560585 0
M  V30 12308 H 1168.28 1.66333 1.02731 0
M  V30 12309 H 1166.98 3.08736 2.70389 0
M  V30 12310 H 1166.51 1.62393 3.58318 0
M  V30 12311 H 1168.53 1.27333 4.79584 0
M  V30 12312 N 1167.7 -1.08142 1.14644 0
M  V30 12313 C 1168.63 -2.15022 0.793614 0
M  V30 12314 C 1169.64 -1.61679 -0.190729 0
M  V30 12315 O 1170.83 -1.78472 0.0313696 0
M  V30 12316 C 1167.93 -3.38532 0.157785 0
M  V30 12317 C 1167.11 -4.21252 1.17753 0
M  V30 12318 C 1166.17 -5.23158 0.564968 0
M  V30 12319 O 1165.19 -5.5578 1.22869 0
M  V30 12320 N 1166.39 -5.7677 -0.657022 0
M  V30 12321 H 1169.16 -2.45893 1.71338 0
M  V30 12322 H 1166.72 -1.23976 1.04122 0
M  V30 12323 H 1168.71 -4.03834 -0.264586 0
M  V30 12324 H 1167.28 -3.05441 -0.665168 0
M  V30 12325 H 1166.5 -3.51888 1.77675 0
M  V30 12326 H 1167.79 -4.73335 1.86632 0
M  V30 12327 H 1167.19 -5.52503 -1.21478 0
M  V30 12328 H 1165.74 -6.4374 -1.02186 0
M  V30 12329 N 1169.18 -0.941978 -1.26351 0
M  V30 12330 C 1170.13 -0.423053 -2.24041 0
M  V30 12331 C 1171.11 0.480668 -1.53553 0
M  V30 12332 O 1172.3 0.315783 -1.7416 0
M  V30 12333 C 1169.43 0.309814 -3.41899 0
M  V30 12334 C 1168.52 -0.611245 -4.19672 0
M  V30 12335 N 1168.91 -1.73738 -4.75025 0
M  V30 12336 C 1167.21 -0.416985 -4.44046 0
M  V30 12337 C 1167.91 -2.31141 -5.33806 0
M  V30 12338 N 1166.88 -1.59934 -5.1954 0
M  V30 12339 H 1170.69 -1.28268 -2.64433 0
M  V30 12340 H 1168.2 -0.797941 -1.41445 0
M  V30 12341 H 1170.2 0.698618 -4.11005 0
M  V30 12342 H 1168.86 1.1662 -3.03035 0
M  V30 12343 H 1169.87 -2.1195 -4.72544 0
M  V30 12344 H 1166.55 0.397561 -4.15603 0
M  V30 12345 H 1167.94 -3.26029 -5.87499 0
M  V30 12346 N 1170.66 1.40747 -0.709091 0
M  V30 12347 C 1172.07 1.54961 -0.381989 0
M  V30 12348 C 1172.27 1.68181 1.10985 0
M  V30 12349 O 1171.33 1.66776 1.89584 0
M  V30 12350 C 1172.64 2.78156 -1.14236 0
M  V30 12351 C 1174.19 2.91967 -1.12803 0
M  V30 12352 C 1174.66 4.18066 -1.87042 0
M  V30 12353 N 1176.15 4.25052 -1.84078 0
M  V30 12354 C 1176.89 5.21514 -2.38349 0
M  V30 12355 N 1176.39 6.23924 -3.01149 0
M  V30 12356 N 1178.18 5.13548 -2.28528 0
M  V30 12357 H 1170.33 1.30412 -1.6765 0
M  V30 12358 H 1172.59 0.630147 -0.70825 0
M  V30 12359 H 1172.3 2.74643 -2.19691 0
M  V30 12360 H 1172.17 3.70074 -0.729731 0
M  V30 12361 H 1174.56 2.94987 -0.0816956 0
M  V30 12362 H 1174.64 2.01185 -1.57982 0
M  V30 12363 H 1174.28 4.15808 -2.91662 0
M  V30 12364 H 1174.21 5.07845 -1.39287 0
M  V30 12365 H 1176.71 3.51682 -1.38305 0
M  V30 12366 H 1177.02 6.93942 -3.40094 0
M  V30 12367 H 1175.36 6.24387 -3.05231 0
M  V30 12368 H 1178.55 4.3247 -1.79129 0
M  V30 12369 H 1178.73 5.88553 -2.71126 0
M  V30 12370 N 1172.13 0.454803 1.50895 0
M  V30 12371 C 1173.36 -0.106259 2.07128 0
M  V30 12372 C 1173.78 -1.3418 1.31823 0
M  V30 12373 O 1173.14 -1.77667 0.361147 0
M  V30 12374 C 1173.19 -0.389609 3.58489 0
M  V30 12375 O 1172.29 -1.47305 3.85195 0
M  V30 12376 H 1171.63 0.00580588 0.663975 0
M  V30 12377 H 1174.16 0.641163 1.94294 0
M  V30 12378 H 1174.17 -0.634934 4.03029 0
M  V30 12379 H 1172.85 0.513338 4.1272 0
M  V30 12380 H 1171.43 -1.21631 3.52506 0
M  V30 12381 N 1173.61 -1.56489 0.186789 0
M  V30 12382 C 1174.56 -2.20034 -0.754164 0
M  V30 12383 C 1175.55 -1.16899 -1.22601 0
M  V30 12384 O 1176.76 -1.35064 -1.18987 0
M  V30 12385 H 1173.13 -0.705058 -0.261529 0
M  V30 12386 H 1175.11 -2.97766 -0.194418 0
M  V30 12387 C 1173.85 -2.86733 -1.9667 0
M  V30 12388 H 1173.18 -3.65831 -1.61268 0
M  V30 12389 H 1174.62 -3.34645 -2.60363 0
M  V30 12390 C 1173.08 -1.87325 -2.8002 0
M  V30 12391 O 1173.61 -1.36835 -3.77676 0
M  V30 12392 N 1171.81 -1.55738 -2.45345 0
M  V30 12393 H 1171.36 -1.9699 -1.6599 0
M  V30 12394 H 1171.32 -0.894805 -3.01398 0
M  V30 12395 N 1175.09 0.086862 -1.5736 0
M  V30 12396 C 1176.31 0.806017 -1.91097 0
M  V30 12397 C 1176.74 1.71082 -0.78183 0
M  V30 12398 O 1176.1 1.79335 0.266175 0
M  V30 12399 C 1176.15 1.5884 -3.23732 0
M  V30 12400 O 1175.25 2.69798 -3.11902 0
M  V30 12401 H 1174.59 0.220899 -0.626179 0
M  V30 12402 H 1177.12 0.059619 -2.04513 0
M  V30 12403 H 1177.13 1.97088 -3.5724 0
M  V30 12404 H 1175.81 0.924426 -4.05496 0
M  V30 12405 H 1174.38 2.34519 -2.89923 0
M  V30 12406 N 1176.57 1.53483 0.357892 0
M  V30 12407 C 1177.48 1.83434 1.4625 0
M  V30 12408 C 1178.49 0.723313 1.58254 0
M  V30 12409 O 1179.67 1.01416 1.74002 0
M  V30 12410 C 1176.73 2.0249 2.81423 0
M  V30 12411 C 1175.8 3.26378 2.78883 0
M  V30 12412 C 1175.03 3.44516 4.07608 0
M  V30 12413 O 1175.25 2.66787 5.04163 0
M  V30 12414 O 1174.19 4.37898 4.12952 0
M  V30 12415 H 1178.01 2.77294 1.23861 0
M  V30 12416 H 1175.6 1.38958 0.548722 0
M  V30 12417 H 1177.48 2.16552 3.61501 0
M  V30 12418 H 1176.15 1.11819 3.03773 0
M  V30 12419 H 1175.06 3.17733 1.97475 0
M  V30 12420 H 1176.39 4.16996 2.61486 0
M  V30 12421 N 1178.05 -0.61812 1.44973 0
M  V30 12422 C 1179.29 -1.37343 1.47715 0
M  V30 12423 C 1179.61 -1.95239 0.118784 0
M  V30 12424 O 1180.81 -2.7149 0.0237981 0
M  V30 12425 C 1179.27 -2.48732 2.60116 0
M  V30 12426 C 1178.88 -1.97294 4.02218 0
M  V30 12427 C 1180.62 -3.25831 2.72093 0
M  V30 12428 C 1178.53 -3.06102 5.06019 0
M  V30 12429 H 1177.46 -0.516175 0.549617 0
M  V30 12430 H 1180.11 -0.663617 1.7108 0
M  V30 12431 H 1178.49 -3.2235 2.30014 0
M  V30 12432 H 1179.67 -1.30455 4.41948 0
M  V30 12433 H 1177.98 -1.32972 3.94598 0
M  V30 12434 H 1180.58 -4.06968 3.46815 0
M  V30 12435 H 1180.92 -3.76156 1.7836 0
M  V30 12436 H 1181.45 -2.59309 3.01668 0
M  V30 12437 H 1178.19 -2.60706 6.01426 0
M  V30 12438 H 1177.71 -3.71541 4.70869 0
M  V30 12439 H 1179.39 -3.70662 5.30301 0
M  V30 12440 N 1179.52 -1.32087 -0.859693 0
M  V30 12441 C 1180.77 -1.21716 -1.60836 0
M  V30 12442 C 1181.09 0.220904 -1.94349 0
M  V30 12443 O 1182.29 0.446422 -2.67805 0
M  V30 12444 C 1180.75 -2.13143 -2.89997 0
M  V30 12445 C 1180.36 -3.62003 -2.63928 0
M  V30 12446 C 1182.1 -2.11596 -3.68004 0
M  V30 12447 C 1180.01 -4.45407 -3.89059 0
M  V30 12448 H 1178.94 -0.45199 -0.603507 0
M  V30 12449 H 1181.59 -1.57013 -0.949687 0
M  V30 12450 H 1179.97 -1.70755 -3.57294 0
M  V30 12451 H 1181.14 -4.12701 -2.04974 0
M  V30 12452 H 1179.46 -3.6563 -1.99258 0
M  V30 12453 H 1182.06 -2.71149 -4.6085 0
M  V30 12454 H 1182.4 -1.10568 -4.01348 0
M  V30 12455 H 1182.93 -2.52238 -3.07605 0
M  V30 12456 H 1179.67 -5.4723 -3.60859 0
M  V30 12457 H 1179.19 -3.99462 -4.47427 0
M  V30 12458 H 1180.87 -4.58149 -4.56846 0
M  V30 12459 N 1181 1.07532 -1.15215 0
M  V30 12460 C 1182.24 1.81689 -0.936396 0
M  V30 12461 C 1182.61 1.84622 0.527136 0
M  V30 12462 O 1183.81 2.54632 0.861159 0
M  V30 12463 C 1182.08 3.22919 -1.53161 0
M  V30 12464 S 1183.64 4.13845 -1.4587 0
M  V30 12465 H 1180.45 0.626036 -0.337045 0
M  V30 12466 H 1183.06 1.29191 -1.4673 0
M  V30 12467 H 1181.76 3.18372 -2.58974 0
M  V30 12468 H 1181.29 3.80492 -0.999482 0
M  V30 12469 H 1183.31 4.94152 -0.450317 0
M  V30 12470 N 1182.48 0.948665 1.2585 0
M  V30 12471 C 1183.72 0.60782 1.95154 0
M  V30 12472 C 1184.08 -0.838703 1.72713 0
M  V30 12473 O 1185.29 -1.28885 2.35886 0
M  V30 12474 C 1183.56 0.949628 3.44553 0
M  V30 12475 S 1185.12 0.720456 4.32845 0
M  V30 12476 H 1181.93 0.223613 0.674921 0
M  V30 12477 H 1184.54 1.22157 1.52636 0
M  V30 12478 H 1183.24 1.99966 3.58388 0
M  V30 12479 H 1182.77 0.325891 3.92048 0
M  V30 12480 H 1184.79 -0.411697 4.94489 0
M  V30 12481 N 1183.96 -1.40369 0.716545 0
M  V30 12482 C 1185.19 -2.05181 0.266143 0
M  V30 12483 C 1185.6 -1.53988 -1.09239 0
M  V30 12484 O 1184.96 -0.696859 -1.68672 0
M  V30 12485 C 1185.01 -3.60713 0.238384 0
M  V30 12486 O 1184.73 -4.10018 1.54328 0
M  V30 12487 C 1186.23 -4.42701 -0.230453 0
M  V30 12488 H 1183.45 -0.66028 0.119463 0
M  V30 12489 H 1186 -1.7976 0.97502 0
M  V30 12490 H 1184.15 -3.85101 -0.421466 0
M  V30 12491 H 1184.56 -5.0422 1.4444 0
M  V30 12492 H 1186.04 -5.51642 -0.198728 0
M  V30 12493 H 1186.52 -4.20354 -1.27276 0
M  V30 12494 H 1187.12 -4.23423 0.399155 0
M  V30 12495 N 1185.44 -0.462799 -1.50652 0
M  V30 12496 C 1186.66 0.0929761 -2.06691 0
M  V30 12497 C 1187.08 1.34241 -1.32758 0
M  V30 12498 O 1186.44 1.78187 -0.394427 0
M  V30 12499 C 1186.49 0.389492 -3.59396 0
M  V30 12500 O 1186.21 -0.810379 -4.3054 0
M  V30 12501 C 1187.71 0.993147 -4.32032 0
M  V30 12502 H 1184.93 -0.00338664 -0.670991 0
M  V30 12503 H 1187.47 -0.649201 -1.93922 0
M  V30 12504 H 1185.63 1.08159 -3.71995 0
M  V30 12505 H 1186.04 -0.54996 -5.21609 0
M  V30 12506 H 1187.52 1.15044 -5.39878 0
M  V30 12507 H 1187.99 1.98106 -3.91983 0
M  V30 12508 H 1188.6 0.339677 -4.23941 0
M  V30 12509 N 1186.91 1.56388 -0.195085 0
M  V30 12510 C 1188.33 1.8398 0.317513 0
M  V30 12511 C 1188.68 1.11575 1.61386 0
M  V30 12512 O 1187.8 0.376557 2.13099 0
M  V30 12513 C 1188.4 3.33749 0.582859 0
M  V30 12514 C 1186.96 3.61752 1.03983 0
M  V30 12515 C 1186.1 2.77159 0.088434 0
M  V30 12516 H 1189.05 1.53072 -0.418871 0
M  V30 12517 H 1189.07 3.52519 1.43216 0
M  V30 12518 H 1188.59 3.86419 -0.360813 0
M  V30 12519 H 1186.69 3.14515 1.99778 0
M  V30 12520 H 1186.8 4.69937 0.932549 0
M  V30 12521 H 1185.16 2.47765 0.590317 0
M  V30 12522 H 1185.95 3.32619 -0.849682 0
M  V30 12523 N 1188.39 -0.0785156 1.57404 0
M  V30 12524 C 1189.62 -0.795871 1.91522 0
M  V30 12525 C 1190.04 -1.70665 0.790892 0
M  V30 12526 O 1189.4 -1.79474 -0.25666 0
M  V30 12527 C 1189.45 -1.57121 3.24569 0
M  V30 12528 O 1188.55 -2.6814 3.13328 0
M  V30 12529 H 1187.89 -0.217575 0.627341 0
M  V30 12530 H 1190.42 -0.0487724 2.04542 0
M  V30 12531 H 1190.43 -1.9519 3.5828 0
M  V30 12532 H 1189.11 -0.902909 4.05981 0
M  V30 12533 H 1187.69 -2.32978 2.91163 0
M  V30 12534 N 1189.87 -1.5367 -0.349747 0
M  V30 12535 C 1190.8 -1.84208 -1.43492 0
M  V30 12536 C 1191.78 -0.696725 -1.55177 0
M  V30 12537 O 1192.97 -0.948061 -1.69486 0
M  V30 12538 C 1190.1 -2.04613 -2.80625 0
M  V30 12539 C 1189.05 -3.20419 -2.83753 0
M  V30 12540 C 1188.38 -3.26147 -4.23713 0
M  V30 12541 C 1189.68 -4.58666 -2.49846 0
M  V30 12542 H 1191.37 -2.75087 -1.18185 0
M  V30 12543 H 1188.92 -1.32363 -0.567101 0
M  V30 12544 H 1190.87 -2.2456 -3.56582 0
M  V30 12545 H 1189.59 -1.10459 -3.07354 0
M  V30 12546 H 1188.25 -3.00318 -2.10249 0
M  V30 12547 H 1187.9 -2.29599 -4.47541 0
M  V30 12548 H 1187.6 -4.03963 -4.26717 0
M  V30 12549 H 1189.12 -3.48296 -5.0152 0
M  V30 12550 H 1190.54 -4.78668 -3.15516 0
M  V30 12551 H 1188.94 -5.3884 -2.64144 0
M  V30 12552 H 1190.01 -4.62697 -1.4505 0
M  V30 12553 N 1191.35 0.610423 -1.45298 0
M  V30 12554 C 1192.28 1.73507 -1.4976 0
M  V30 12555 C 1193.29 1.58092 -0.38867 0
M  V30 12556 O 1194.48 1.66026 -0.655571 0
M  V30 12557 C 1191.58 3.11475 -1.33554 0
M  V30 12558 C 1190.76 3.53156 -2.5807 0
M  V30 12559 C 1189.81 4.70076 -2.36463 0
M  V30 12560 O 1188.84 4.77337 -3.10061 0
M  V30 12561 N 1190.04 5.63155 -1.40843 0
M  V30 12562 H 1192.81 1.70144 -2.46721 0
M  V30 12563 H 1190.37 0.79562 -1.41002 0
M  V30 12564 H 1192.36 3.87444 -1.16914 0
M  V30 12565 H 1190.93 3.09361 -0.448803 0
M  V30 12566 H 1190.15 2.67178 -2.89844 0
M  V30 12567 H 1191.44 3.77761 -3.40843 0
M  V30 12568 H 1190.84 5.60001 -0.800982 0
M  V30 12569 H 1189.39 6.38669 -1.30175 0
M  V30 12570 N 1192.83 1.32541 0.852676 0
M  V30 12571 C 1193.76 1.17471 1.96807 0
M  V30 12572 C 1194.77 0.109198 1.62433 0
M  V30 12573 O 1195.96 0.358342 1.74866 0
M  V30 12574 C 1193.06 0.776328 3.29888 0
M  V30 12575 C 1192.23 1.93055 3.9249 0
M  V30 12576 C 1191.29 1.51539 5.03907 0
M  V30 12577 O 1190.32 2.22771 5.23796 0
M  V30 12578 N 1191.52 0.412533 5.79032 0
M  V30 12579 H 1194.29 2.13551 2.10276 0
M  V30 12580 H 1191.85 1.25104 1.02764 0
M  V30 12581 H 1193.84 0.48096 4.01832 0
M  V30 12582 H 1192.41 -0.0933749 3.12461 0
M  V30 12583 H 1191.63 2.39231 3.13309 0
M  V30 12584 H 1192.92 2.70321 4.3105 0
M  V30 12585 H 1192.31 -0.180286 5.65413 0
M  V30 12586 H 1190.87 0.17678 6.5156 0
M  V30 12587 N 1194.3 -1.0692 1.15784 0
M  V30 12588 C 1195.23 -2.16216 0.881649 0
M  V30 12589 C 1196.22 -1.69253 -0.16951 0
M  V30 12590 O 1197.4 -1.94186 -0.0229511 0
M  V30 12591 C 1194.53 -3.4527 0.374982 0
M  V30 12592 C 1193.48 -4.05706 1.36332 0
M  V30 12593 C 1192.81 -5.29894 0.715317 0
M  V30 12594 C 1194.11 -4.45224 2.7308 0
M  V30 12595 H 1195.8 -2.39577 1.79563 0
M  V30 12596 H 1193.35 -1.15141 0.864784 0
M  V30 12597 H 1195.3 -4.2106 0.169279 0
M  V30 12598 H 1194.03 -3.21508 -0.574485 0
M  V30 12599 H 1192.69 -3.31965 1.55546 0
M  V30 12600 H 1192.33 -5.02425 -0.240436 0
M  V30 12601 H 1192.03 -5.71287 1.37494 0
M  V30 12602 H 1193.56 -6.08386 0.519489 0
M  V30 12603 H 1194.97 -5.12124 2.57686 0
M  V30 12604 H 1193.37 -4.97583 3.35457 0
M  V30 12605 H 1194.44 -3.56384 3.28813 0
M  V30 12606 N 1195.78 -0.955326 -1.25345 0
M  V30 12607 C 1196.73 -0.467205 -2.2786 0
M  V30 12608 C 1197.72 0.462873 -1.62954 0
M  V30 12609 O 1198.93 0.339526 -1.76769 0
M  V30 12610 H 1195.31 -0.132586 -0.74022 0
M  V30 12611 H 1197.28 -1.34406 -2.66416 0
M  V30 12612 C 1196.03 0.238898 -3.46878 0
M  V30 12613 H 1195.35 -0.467644 -3.97056 0
M  V30 12614 H 1196.79 0.544444 -4.2049 0
M  V30 12615 C 1195.25 1.46164 -3.03542 0
M  V30 12616 O 1195.78 2.55933 -3.09615 0
M  V30 12617 N 1193.98 1.32324 -2.58725 0
M  V30 12618 H 1193.53 0.430131 -2.53984 0
M  V30 12619 H 1193.49 2.14253 -2.30094 0
M  V30 12620 N 1197.26 1.39987 -0.723979 0
M  V30 12621 C 1198.19 2.3332 -0.0917282 0
M  V30 12622 C 1199.17 1.53335 0.736361 0
M  V30 12623 O 1200.36 1.81771 0.683582 0
M  V30 12624 C 1197.49 3.3737 0.824549 0
M  V30 12625 C 1196.44 4.2788 0.101452 0
M  V30 12626 C 1195.77 5.22536 1.13401 0
M  V30 12627 C 1197.07 5.11649 -1.04939 0
M  V30 12628 H 1198.76 2.86441 -0.871318 0
M  V30 12629 H 1196.31 1.37725 -0.420448 0
M  V30 12630 H 1198.26 4.01607 1.27631 0
M  V30 12631 H 1196.98 2.82663 1.63613 0
M  V30 12632 H 1195.64 3.65107 -0.330569 0
M  V30 12633 H 1195.29 4.64131 1.93886 0
M  V30 12634 H 1194.99 5.83938 0.65502 0
M  V30 12635 H 1196.52 5.89651 1.58569 0
M  V30 12636 H 1197.93 5.69293 -0.6766 0
M  V30 12637 H 1196.33 5.82137 -1.45729 0
M  V30 12638 H 1197.4 4.47132 -1.8762 0
M  V30 12639 N 1198.74 0.470782 1.50404 0
M  V30 12640 C 1199.67 -0.359838 2.26358 0
M  V30 12641 C 1200.68 -0.95735 1.31676 0
M  V30 12642 O 1201.87 -0.84581 1.57189 0
M  V30 12643 C 1198.97 -1.51864 3.02969 0
M  V30 12644 C 1198.15 -1.03397 4.25003 0
M  V30 12645 C 1197.21 -2.06679 4.83911 0
M  V30 12646 O 1196.23 -1.64754 5.44835 0
M  V30 12647 N 1197.43 -3.39484 4.70883 0
M  V30 12648 H 1200.2 0.291299 2.98281 0
M  V30 12649 H 1197.76 0.301549 1.59067 0
M  V30 12650 H 1199.75 -2.2065 3.39258 0
M  V30 12651 H 1198.32 -2.07448 2.33846 0
M  V30 12652 H 1197.54 -0.172012 3.93825 0
M  V30 12653 H 1198.83 -0.68807 5.04126 0
M  V30 12654 H 1198.23 -3.76256 4.22431 0
M  V30 12655 H 1196.78 -4.04068 5.11441 0
M  V30 12656 N 1200.22 -1.56282 0.203376 0
M  V30 12657 C 1201.15 -2.2247 -0.709183 0
M  V30 12658 C 1202.13 -1.19046 -1.21499 0
M  V30 12659 O 1203.31 -1.47578 -1.26231 0
M  V30 12660 C 1200.44 -2.8905 -1.92529 0
M  V30 12661 C 1199.4 -3.98789 -1.55407 0
M  V30 12662 C 1198.72 -4.52574 -2.84747 0
M  V30 12663 C 1200.02 -5.16774 -0.75775 0
M  V30 12664 H 1201.72 -2.98986 -0.157392 0
M  V30 12665 H 1199.26 -1.43808 -0.0742613 0
M  V30 12666 H 1201.22 -3.34038 -2.56898 0
M  V30 12667 H 1199.94 -2.09952 -2.50175 0
M  V30 12668 H 1198.6 -3.54504 -0.933928 0
M  V30 12669 H 1198.25 -3.70229 -3.40499 0
M  V30 12670 H 1197.95 -5.26627 -2.6065 0
M  V30 12671 H 1199.47 -5.00269 -3.5009 0
M  V30 12672 H 1200.89 -5.58256 -1.30472 0
M  V30 12673 H 1199.28 -5.96945 -0.614583 0
M  V30 12674 H 1200.35 -4.84308 0.239476 0
M  V30 12675 N 1201.7 0.070167 -1.57444 0
M  V30 12676 C 1203.11 0.621805 -1.76041 0
M  V30 12677 C 1203.46 1.77824 -0.829047 0
M  V30 12678 O 1202.58 2.16396 -0.0135453 0
M  V30 12679 C 1203.18 1.13476 -3.19231 0
M  V30 12680 C 1201.74 1.63225 -3.39167 0
M  V30 12681 C 1200.88 0.552369 -2.71743 0
M  V30 12682 H 1203.83 -0.156009 -1.57931 0
M  V30 12683 H 1203.86 2.00352 -3.2348 0
M  V30 12684 H 1203.37 0.29288 -3.86993 0
M  V30 12685 H 1201.47 2.49733 -2.76522 0
M  V30 12686 H 1201.58 1.70807 -4.47618 0
M  V30 12687 H 1199.95 0.997797 -2.34342 0
M  V30 12688 H 1200.73 -0.279354 -3.42162 0
M  V30 12689 N 1203.17 1.53854 0.341593 0
M  V30 12690 C 1204.1 1.84966 1.42513 0
M  V30 12691 C 1205.08 0.704944 1.54805 0
M  V30 12692 O 1206.27 0.957036 1.68981 0
M  V30 12693 C 1203.4 2.06099 2.79536 0
M  V30 12694 C 1202.35 3.21919 2.82049 0
M  V30 12695 C 1201.68 3.28389 4.21977 0
M  V30 12696 C 1202.98 4.59984 2.4741 0
M  V30 12697 H 1204.67 2.7571 1.16724 0
M  V30 12698 H 1202.22 1.32662 0.560073 0
M  V30 12699 H 1204.17 2.26448 3.55386 0
M  V30 12700 H 1202.9 1.12087 3.06764 0
M  V30 12701 H 1201.56 3.01429 2.08653 0
M  V30 12702 H 1201.2 2.3197 4.46317 0
M  V30 12703 H 1200.9 4.0622 4.24569 0
M  V30 12704 H 1202.43 3.50951 4.99666 0
M  V30 12705 H 1203.84 4.80334 3.12973 0
M  V30 12706 H 1202.24 5.40233 2.61282 0
M  V30 12707 H 1203.31 4.6346 1.42594 0
M  V30 12708 N 1204.65 -0.602709 1.4562 0
M  V30 12709 C 1205.6 -1.71312 1.54664 0
M  V30 12710 C 1206.57 -1.61403 0.392197 0
M  V30 12711 O 1207.75 -1.80911 0.606297 0
M  V30 12712 C 1204.89 -3.09629 1.52393 0
M  V30 12713 C 1204.01 -3.30308 2.78425 0
M  V30 12714 C 1203.14 -4.5876 2.67793 0
M  V30 12715 C 1202.18 -4.72713 3.88855 0
M  V30 12716 N 1201.32 -5.92469 3.76729 0
M  V30 12717 H 1206.16 -1.62918 2.49523 0
M  V30 12718 H 1203.69 -0.794324 1.2381 0
M  V30 12719 H 1205.65 -3.89661 1.49064 0
M  V30 12720 H 1204.28 -3.16968 0.610816 0
M  V30 12721 H 1203.33 -2.44018 2.9182 0
M  V30 12722 H 1204.65 -3.36491 3.68205 0
M  V30 12723 H 1203.8 -5.46993 2.62457 0
M  V30 12724 H 1202.54 -4.54983 1.75619 0
M  V30 12725 H 1201.54 -3.82903 3.94545 0
M  V30 12726 H 1202.77 -4.78284 4.82101 0
M  V30 12727 H 1200.72 -5.89728 2.87328 0
M  V30 12728 H 1200.63 -5.99833 4.60148 0
M  V30 12729 H 1201.9 -6.83187 3.75334 0
M  V30 12730 N 1206.13 -1.32992 -0.845635 0
M  V30 12731 C 1207.36 -1.27087 -1.63268 0
M  V30 12732 C 1207.77 0.159481 -1.88125 0
M  V30 12733 O 1207.13 1.09948 -1.45663 0
M  V30 12734 C 1207.18 -2.03649 -2.98679 0
M  V30 12735 O 1206.9 -3.41104 -2.74918 0
M  V30 12736 C 1208.4 -2.04875 -3.93117 0
M  V30 12737 H 1205.62 -0.438107 -0.508236 0
M  V30 12738 H 1208.17 -1.75257 -1.05381 0
M  V30 12739 H 1206.32 -1.59178 -3.53187 0
M  V30 12740 H 1206.74 -3.80405 -3.61099 0
M  V30 12741 H 1208.21 -2.62911 -4.85368 0
M  V30 12742 H 1208.69 -1.03728 -4.26775 0
M  V30 12743 H 1209.29 -2.49334 -3.44547 0
M  V30 12744 N 1207.61 1.06304 -1.1635 0
M  V30 12745 C 1208.55 2.13776 -0.869965 0
M  V30 12746 C 1209.52 1.65105 0.181541 0
M  V30 12747 O 1210.71 1.90743 0.0467705 0
M  V30 12748 C 1207.85 3.43034 -0.377077 0
M  V30 12749 C 1206.96 4.0544 -1.4914 0
M  V30 12750 C 1206.1 5.22572 -0.953538 0
M  V30 12751 C 1205.14 5.76961 -2.04407 0
M  V30 12752 N 1204.27 6.85409 -1.52181 0
M  V30 12753 H 1209.11 2.38224 -1.79034 0
M  V30 12754 H 1206.65 1.16882 -0.893136 0
M  V30 12755 H 1208.61 4.17136 -0.0729426 0
M  V30 12756 H 1207.24 3.18804 0.506359 0
M  V30 12757 H 1206.29 3.28886 -1.9115 0
M  V30 12758 H 1207.6 4.41859 -2.31434 0
M  V30 12759 H 1206.76 6.037 -0.602579 0
M  V30 12760 H 1205.5 4.87598 -0.099897 0
M  V30 12761 H 1204.5 4.9447 -2.40373 0
M  V30 12762 H 1205.73 6.13987 -2.90167 0
M  V30 12763 H 1203.67 6.52354 -0.690697 0
M  V30 12764 H 1203.59 7.2077 -2.28092 0
M  V30 12765 H 1204.86 7.70217 -1.19942 0
M  V30 12766 N 1209.09 0.96196 1.24836 0
M  V30 12767 C 1210.05 0.492443 2.23847 0
M  V30 12768 C 1211.05 -0.40788 1.55541 0
M  V30 12769 O 1212.24 -0.204143 1.73 0
M  V30 12770 C 1209.37 -0.287578 3.39685 0
M  V30 12771 H 1210.56 1.36767 2.66899 0
M  V30 12772 H 1208.12 0.745967 1.3735 0
M  V30 12773 H 1208.85 -1.18015 3.02064 0
M  V30 12774 H 1208.64 0.358431 3.90458 0
M  V30 12775 H 1210.13 -0.605297 4.1319 0
M  V30 12776 N 1210.56 -1.39601 0.731392 0
M  V30 12777 C 1211.81 -2.00586 0.277756 0
M  V30 12778 C 1212.14 -1.58027 -1.13391 0
M  V30 12779 O 1211.39 -0.798691 -1.7866 0
M  V30 12780 C 1211.69 -3.55934 0.323352 0
M  V30 12781 C 1211.36 -4.18131 1.68753 0
M  V30 12782 C 1210.02 -4.34833 2.06092 0
M  V30 12783 C 1212.37 -4.5267 2.58339 0
M  V30 12784 C 1209.7 -4.83362 3.32532 0
M  V30 12785 C 1212.05 -5.02607 3.84148 0
M  V30 12786 C 1210.72 -5.17517 4.21584 0
M  V30 12787 H 1209.99 -0.733996 0.101638 0
M  V30 12788 H 1212.63 -1.66981 0.937528 0
M  V30 12789 H 1210.94 -3.89542 -0.419995 0
M  V30 12790 H 1212.64 -4.00974 -0.0457235 0
M  V30 12791 H 1209.23 -4.0553 1.38722 0
M  V30 12792 H 1213.41 -4.39388 2.30763 0
M  V30 12793 H 1208.67 -4.93091 3.61485 0
M  V30 12794 H 1212.84 -5.28306 4.53724 0
M  V30 12795 H 1210.47 -5.54882 5.19625 0
M  V30 12796 N 1212.04 -0.478751 -1.50152 0
M  V30 12797 C 1213.29 0.073585 -2.02366 0
M  V30 12798 C 1213.62 1.3903 -1.36018 0
M  V30 12799 O 1212.87 1.89787 -0.477435 0
M  V30 12800 C 1213.17 0.297535 -3.56159 0
M  V30 12801 C 1212.84 -0.938419 -4.41027 0
M  V30 12802 C 1211.5 -1.27727 -4.63939 0
M  V30 12803 C 1213.85 -1.76098 -4.9055 0
M  V30 12804 C 1211.18 -2.4386 -5.33619 0
M  V30 12805 C 1213.53 -2.91366 -5.61506 0
M  V30 12806 C 1212.2 -3.25657 -5.8267 0
M  V30 12807 H 1211.47 0.0269267 -0.740511 0
M  V30 12808 H 1214.11 -0.63439 -1.80687 0
M  V30 12809 H 1212.42 1.08783 -3.76395 0
M  V30 12810 H 1214.11 0.73899 -3.94132 0
M  V30 12811 H 1210.7 -0.664441 -4.23418 0
M  V30 12812 H 1214.89 -1.51237 -4.72696 0
M  V30 12813 H 1210.14 -2.70692 -5.48211 0
M  V30 12814 H 1214.32 -3.55445 -5.98859 0
M  V30 12815 H 1211.95 -4.15751 -6.36439 0
M  V30 12816 N 1213.52 1.56172 -0.211661 0
M  V30 12817 C 1214.45 2.15791 0.74225 0
M  V30 12818 C 1215.43 1.0994 1.198 0
M  V30 12819 O 1216.62 1.38143 1.28253 0
M  V30 12820 C 1213.74 2.73021 2.00443 0
M  V30 12821 C 1212.79 3.91611 1.68946 0
M  V30 12822 S 1213.62 5.29139 0.822949 0
M  V30 12823 C 1214.78 5.898 2.09491 0
M  V30 12824 H 1215.01 2.96366 0.235482 0
M  V30 12825 H 1212.54 1.544 0.0035357 0
M  V30 12826 H 1214.5 3.06635 2.7292 0
M  V30 12827 H 1213.16 1.92457 2.48232 0
M  V30 12828 H 1212.36 4.30122 2.62699 0
M  V30 12829 H 1211.96 3.59093 1.04539 0
M  V30 12830 H 1214.25 6.05172 3.04587 0
M  V30 12831 H 1215.19 6.86036 1.75386 0
M  V30 12832 H 1215.6 5.18546 2.23093 0
M  V30 12833 N 1215 -0.0618163 1.57479 0
M  V30 12834 C 1215.93 -1.07252 2.07411 0
M  V30 12835 C 1216.91 -1.39756 0.969649 0
M  V30 12836 O 1218.09 -1.4921 1.24298 0
M  V30 12837 C 1215.22 -2.38313 2.52635 0
M  V30 12838 C 1214.18 -2.20136 3.67048 0
M  V30 12839 C 1213.5 -3.56668 3.98361 0
M  V30 12840 C 1214.8 -1.61437 4.96725 0
M  V30 12841 H 1216.5 -0.656983 2.92103 0
M  V30 12842 H 1214.04 -0.314579 1.40522 0
M  V30 12843 H 1216 -3.09319 2.86181 0
M  V30 12844 H 1214.72 -2.81865 1.64984 0
M  V30 12845 H 1213.38 -1.51569 3.338 0
M  V30 12846 H 1213.03 -3.97809 3.07826 0
M  V30 12847 H 1212.73 -3.45342 4.75408 0
M  V30 12848 H 1214.25 -4.2909 4.34413 0
M  V30 12849 H 1215.67 -2.2232 5.28438 0
M  V30 12850 H 1214.06 -1.60779 5.78161 0
M  V30 12851 H 1215.13 -0.576795 4.81457 0
M  V30 12852 N 1216.48 -1.54033 -0.333429 0
M  V30 12853 C 1217.75 -1.62404 -1.09015 0
M  V30 12854 C 1218.13 -0.451653 -2.06212 0
M  V30 12855 O 1217.48 0.555086 -2.21655 0
M  V30 12856 C 1217.69 -2.98949 -1.80085 0
M  V30 12857 C 1219.04 -3.54655 -2.33464 0
M  V30 12858 O 1220.06 -3.0119 -1.90166 0
M  V30 12859 O 1218.92 -4.48195 -3.12703 0
M  V30 12860 H 1216.02 -0.65727 -0.501921 0
M  V30 12861 H 1218.56 -1.66378 -0.33411 0
M  V30 12862 H 1217.33 -3.75716 -1.09332 0
M  V30 12863 H 1216.96 -2.98609 -2.62523 0
M  V30 12864 N 1217.95 0.594978 -1.45938 0
M  V30 12865 C 1219.2 1.35093 -1.50314 0
M  V30 12866 C 1219.52 1.94412 -0.151315 0
M  V30 12867 O 1218.79 1.77876 0.820787 0
M  V30 12868 H 1217.37 0.501549 -0.553586 0
M  V30 12869 H 1220.04 0.697735 -1.81983 0
M  V30 12870 H 1219.13 2.16393 -2.24901 0
M  V30 12871 N 1219.43 1.33438 0.838571 0
M  V30 12872 C 1220.68 1.24259 1.58879 0
M  V30 12873 C 1220.99 -0.189957 1.94675 0
M  V30 12874 O 1222.2 -0.40376 2.68481 0
M  V30 12875 C 1220.66 2.1773 2.86569 0
M  V30 12876 C 1220.26 3.66156 2.58135 0
M  V30 12877 C 1222.01 2.17424 3.64591 0
M  V30 12878 C 1219.92 4.5154 3.81923 0
M  V30 12879 H 1218.85 0.461534 0.59624 0
M  V30 12880 H 1221.5 1.58504 0.924588 0
M  V30 12881 H 1219.88 1.76418 3.54532 0
M  V30 12882 H 1221.05 4.1591 1.98382 0
M  V30 12883 H 1219.37 3.68754 1.93416 0
M  V30 12884 H 1221.96 2.78446 4.56478 0
M  V30 12885 H 1222.31 1.16939 3.99539 0
M  V30 12886 H 1222.84 2.571 3.03553 0
M  V30 12887 H 1219.58 5.52902 3.52107 0
M  V30 12888 H 1219.1 4.06529 4.41015 0
M  V30 12889 H 1220.78 4.65359 4.495 0
M  V30 12890 N 1220.91 -1.05686 1.16912 0
M  V30 12891 C 1221.84 -2.15268 0.904532 0
M  V30 12892 C 1222.82 -1.69424 -0.151548 0
M  V30 12893 O 1224.01 -1.942 -0.00235371 0
M  V30 12894 C 1221.14 -3.44853 0.411581 0
M  V30 12895 C 1220.09 -4.04237 1.40628 0
M  V30 12896 C 1219.42 -5.29105 0.771479 0
M  V30 12897 C 1220.72 -4.42303 2.77787 0
M  V30 12898 H 1222.41 -2.37659 1.82094 0
M  V30 12899 H 1219.96 -1.14217 0.876947 0
M  V30 12900 H 1221.91 -4.20857 0.213929 0
M  V30 12901 H 1220.63 -3.22099 -0.540352 0
M  V30 12902 H 1219.29 -3.30297 1.59058 0
M  V30 12903 H 1218.94 -5.02652 -0.187133 0
M  V30 12904 H 1218.64 -5.69797 1.43545 0
M  V30 12905 H 1220.16 -6.07801 0.583988 0
M  V30 12906 H 1221.58 -5.09362 2.63103 0
M  V30 12907 H 1219.98 -4.93997 3.40716 0
M  V30 12908 H 1221.05 -3.52877 3.32575 0
M  V30 12909 N 1222.39 -0.968567 -1.24324 0
M  V30 12910 C 1223.61 -0.648166 -1.97012 0
M  V30 12911 C 1224.04 0.775842 -1.71354 0
M  V30 12912 O 1223.4 1.52672 -0.977804 0
M  V30 12913 C 1223.44 -0.929974 -3.48402 0
M  V30 12914 O 1222.55 -0.015854 -4.12397 0
M  V30 12915 H 1221.89 -0.244961 -0.617163 0
M  V30 12916 H 1224.42 -1.29895 -1.58077 0
M  V30 12917 H 1224.43 -0.861863 -3.98793 0
M  V30 12918 H 1223.1 -1.96776 -3.66404 0
M  V30 12919 H 1221.68 -0.137361 -3.72647 0
M  V30 12920 N 1223.87 1.39211 -0.738786 0
M  V30 12921 C 1224.81 2.30578 -0.10129 0
M  V30 12922 C 1225.78 1.49412 0.725616 0
M  V30 12923 O 1226.97 1.78087 0.684799 0
M  V30 12924 C 1224.11 3.35767 0.797161 0
M  V30 12925 C 1223.22 4.31979 -0.0427701 0
M  V30 12926 C 1222.36 5.24236 0.857306 0
M  V30 12927 C 1221.4 6.12099 0.0128501 0
M  V30 12928 N 1220.53 6.96701 0.869067 0
M  V30 12929 H 1225.37 2.84522 -0.88606 0
M  V30 12930 H 1222.91 1.40093 -0.448602 0
M  V30 12931 H 1224.87 3.95347 1.33255 0
M  V30 12932 H 1223.5 2.83268 1.54787 0
M  V30 12933 H 1222.55 3.73986 -0.695622 0
M  V30 12934 H 1223.86 4.93927 -0.69555 0
M  V30 12935 H 1223.02 5.88861 1.4604 0
M  V30 12936 H 1221.75 4.62619 1.54386 0
M  V30 12937 H 1220.76 5.46483 -0.603018 0
M  V30 12938 H 1221.98 6.75781 -0.67054 0
M  V30 12939 H 1219.93 6.37647 1.54084 0
M  V30 12940 H 1219.85 7.55507 0.272852 0
M  V30 12941 H 1221.12 7.65751 1.4576 0
M  V30 12942 N 1225.34 0.486708 1.49896 0
M  V30 12943 C 1226.57 -0.0599944 2.06513 0
M  V30 12944 C 1226.98 -1.32662 1.34898 0
M  V30 12945 O 1226.33 -1.78915 0.416565 0
M  V30 12946 C 1226.39 -0.39838 3.57286 0
M  V30 12947 C 1226.05 0.768465 4.50493 0
M  V30 12948 C 1227.05 1.65495 4.92856 0
M  V30 12949 C 1224.73 0.96322 4.92978 0
M  V30 12950 C 1226.73 2.72046 5.76429 0
M  V30 12951 C 1224.41 2.03193 5.7633 0
M  V30 12952 C 1225.41 2.9089 6.17958 0
M  V30 12953 O 1225.1 3.95919 6.99645 0
M  V30 12954 H 1224.83 0.0107865 0.675914 0
M  V30 12955 H 1227.39 0.679087 1.93849 0
M  V30 12956 H 1225.62 -1.19086 3.67907 0
M  V30 12957 H 1227.31 -0.882003 3.96201 0
M  V30 12958 H 1228.07 1.51624 4.6069 0
M  V30 12959 H 1223.95 0.29004 4.60087 0
M  V30 12960 H 1227.49 3.40526 6.08841 0
M  V30 12961 H 1223.39 2.17064 6.07909 0
M  V30 12962 H 1224.16 3.93097 7.17925 0
M  V30 12963 N 1226.82 -1.56058 0.219941 0
M  V30 12964 C 1228.07 -1.9826 -0.412197 0
M  V30 12965 C 1228.4 -1.10754 -1.59887 0
M  V30 12966 O 1227.65 -0.15212 -1.95108 0
M  V30 12967 C 1227.95 -3.46113 -0.8911 0
M  V30 12968 C 1227.62 -4.50521 0.184877 0
M  V30 12969 C 1226.28 -4.78795 0.480462 0
M  V30 12970 C 1228.63 -5.13147 0.912652 0
M  V30 12971 C 1225.96 -5.66979 1.50837 0
M  V30 12972 C 1228.31 -6.02444 1.92988 0
M  V30 12973 C 1226.98 -6.29063 2.2324 0
M  V30 12974 H 1226.25 -0.725486 -0.150834 0
M  V30 12975 H 1228.89 -1.88771 0.322122 0
M  V30 12976 H 1227.2 -3.52797 -1.70415 0
M  V30 12977 H 1228.9 -3.76137 -1.39003 0
M  V30 12978 H 1225.49 -4.28564 -0.0556594 0
M  V30 12979 H 1229.67 -4.91374 0.697532 0
M  V30 12980 H 1224.93 -5.85868 1.74839 0
M  V30 12981 H 1229.1 -6.50022 2.49889 0
M  V30 12982 H 1226.73 -6.97191 3.03032 0
M  V30 12983 N 1228.3 0.053464 -1.57509 0
M  V30 12984 C 1229.58 0.783141 -1.79238 0
M  V30 12985 C 1229.96 1.94855 -0.812069 0
M  V30 12986 O 1229.31 2.28 0.151006 0
M  V30 12987 C 1229.52 1.239 -3.26266 0
M  V30 12988 C 1230.86 1.66492 -3.90596 0
M  V30 12989 O 1231.89 1.33421 -3.30269 0
M  V30 12990 O 1230.75 2.27785 -4.96766 0
M  V30 12991 H 1227.84 0.376696 -0.736226 0
M  V30 12992 H 1230.39 0.0321229 -1.6967 0
M  V30 12993 H 1229.16 0.405948 -3.89189 0
M  V30 12994 H 1228.78 2.05078 -3.4063 0
M  V30 12995 N 1229.78 1.54207 0.325255 0
M  V30 12996 C 1230.71 1.86467 1.40543 0
M  V30 12997 C 1231.69 0.721324 1.54048 0
M  V30 12998 O 1232.88 0.974905 1.67956 0
M  V30 12999 C 1230.01 2.09052 2.77335 0
M  V30 13000 C 1228.96 3.24893 2.78619 0
M  V30 13001 C 1228.29 3.32846 4.1847 0
M  V30 13002 C 1229.59 4.62582 2.42518 0
M  V30 13003 H 1231.28 2.76932 1.13794 0
M  V30 13004 H 1228.83 1.33248 0.545971 0
M  V30 13005 H 1230.78 2.30204 3.52964 0
M  V30 13006 H 1229.5 1.15335 3.05558 0
M  V30 13007 H 1228.16 3.03625 2.05444 0
M  V30 13008 H 1227.81 2.3669 4.43832 0
M  V30 13009 H 1227.51 4.10701 4.20237 0
M  V30 13010 H 1229.03 3.56231 4.95915 0
M  V30 13011 H 1230.45 4.83627 3.07861 0
M  V30 13012 H 1228.84 5.42974 2.55538 0
M  V30 13013 H 1229.91 4.64946 1.3767 0
M  V30 13014 N 1231.26 -0.58723 1.46251 0
M  V30 13015 C 1232.51 -1.34179 1.50595 0
M  V30 13016 C 1232.82 -1.94943 0.160171 0
M  V30 13017 O 1234.03 -2.71378 0.0813797 0
M  V30 13018 C 1232.48 -2.43159 2.65333 0
M  V30 13019 C 1232.09 -1.88718 4.06312 0
M  V30 13020 C 1233.83 -3.19986 2.78943 0
M  V30 13021 C 1231.74 -2.953 5.12398 0
M  V30 13022 H 1230.67 -0.504401 0.560442 0
M  V30 13023 H 1233.32 -0.627179 1.72449 0
M  V30 13024 H 1231.7 -3.17398 2.368 0
M  V30 13025 H 1232.88 -1.21051 4.44616 0
M  V30 13026 H 1231.19 -1.24572 3.97329 0
M  V30 13027 H 1233.79 -3.9952 3.5537 0
M  V30 13028 H 1234.13 -3.72288 1.86298 0
M  V30 13029 H 1234.67 -2.52852 3.07101 0
M  V30 13030 H 1231.4 -2.4789 6.0682 0
M  V30 13031 H 1230.92 -3.61469 4.78644 0
M  V30 13032 H 1232.6 -3.5933 5.38044 0
M  V30 13033 N 1232.74 -1.33881 -0.831482 0
M  V30 13034 C 1233.97 -1.28625 -1.61676 0
M  V30 13035 C 1234.37 0.143588 -1.88654 0
M  V30 13036 O 1233.72 1.09847 -1.47239 0
M  V30 13037 C 1233.78 -2.00022 -2.98716 0
M  V30 13038 C 1233.44 -3.49309 -2.94674 0
M  V30 13039 C 1234.44 -4.44375 -2.69864 0
M  V30 13040 C 1232.12 -3.91596 -3.14576 0
M  V30 13041 C 1234.12 -5.79703 -2.64996 0
M  V30 13042 C 1231.81 -5.27026 -3.09333 0
M  V30 13043 C 1232.8 -6.20892 -2.84575 0
M  V30 13044 O 1232.49 -7.53841 -2.79248 0
M  V30 13045 H 1232.22 -0.444235 -0.50954 0
M  V30 13046 H 1234.78 -1.76933 -1.04326 0
M  V30 13047 H 1233.01 -1.46316 -3.57951 0
M  V30 13048 H 1234.7 -1.88168 -3.59649 0
M  V30 13049 H 1235.46 -4.13027 -2.54231 0
M  V30 13050 H 1231.34 -3.18938 -3.32865 0
M  V30 13051 H 1234.89 -6.5294 -2.45591 0
M  V30 13052 H 1230.78 -5.57996 -3.24516 0
M  V30 13053 H 1231.55 -7.63476 -2.95037 0
M  V30 13054 N 1234.21 1.05064 -1.1747 0
M  V30 13055 C 1235.46 1.78352 -0.965311 0
M  V30 13056 C 1235.79 1.87527 0.504707 0
M  V30 13057 O 1235.07 1.376 1.37465 0
M  V30 13058 C 1235.35 3.22173 -1.60862 0
M  V30 13059 C 1235.2 3.21003 -3.15083 0
M  V30 13060 C 1236.52 4.2004 -1.31358 0
M  V30 13061 H 1233.64 0.647452 -0.352101 0
M  V30 13062 H 1236.28 1.22794 -1.44988 0
M  V30 13063 H 1234.43 3.69613 -1.19658 0
M  V30 13064 H 1236.11 2.81629 -3.65353 0
M  V30 13065 H 1234.35 2.59309 -3.47766 0
M  V30 13066 H 1235.02 4.22516 -3.55224 0
M  V30 13067 H 1237.5 3.81099 -1.6704 0
M  V30 13068 H 1236.37 5.1891 -1.78953 0
M  V30 13069 H 1236.63 4.41477 -0.234606 0
M  V30 13070 N 1235.69 0.975146 1.23809 0
M  V30 13071 C 1236.64 0.482305 2.2284 0
M  V30 13072 C 1237.63 -0.439787 1.54773 0
M  V30 13073 O 1238.82 -0.269496 1.74936 0
M  V30 13074 C 1235.95 -0.219056 3.426 0
M  V30 13075 C 1235.03 0.722299 4.17904 0
M  V30 13076 N 1235.42 1.86271 4.70252 0
M  V30 13077 C 1233.72 0.53457 4.42785 0
M  V30 13078 C 1234.42 2.45212 5.2749 0
M  V30 13079 N 1233.4 1.73652 5.15117 0
M  V30 13080 H 1237.2 1.35234 2.60939 0
M  V30 13081 H 1234.71 0.835162 1.3928 0
M  V30 13082 H 1236.71 -0.589401 4.12713 0
M  V30 13083 H 1235.37 -1.08544 3.0602 0
M  V30 13084 H 1236.38 2.24404 4.66758 0
M  V30 13085 H 1233.06 -0.287232 4.16511 0
M  V30 13086 H 1234.45 3.41491 5.78648 0
M  V30 13087 N 1237.17 -1.38817 0.746158 0
M  V30 13088 C 1238.12 -2.32373 0.102785 0
M  V30 13089 C 1239.11 -1.53638 -0.713556 0
M  V30 13090 O 1240.32 -1.69223 -0.613488 0
M  V30 13091 H 1236.69 -0.751861 0.0144405 0
M  V30 13092 H 1238.66 -2.84249 0.908032 0
M  V30 13093 C 1237.41 -3.38796 -0.781827 0
M  V30 13094 H 1236.74 -3.99467 -0.163057 0
M  V30 13095 H 1238.18 -4.06682 -1.19941 0
M  V30 13096 C 1236.63 -2.76756 -1.92113 0
M  V30 13097 O 1237.16 -2.65478 -3.0147 0
M  V30 13098 N 1235.37 -2.34676 -1.71392 0
M  V30 13099 H 1234.92 -2.44049 -0.824483 0
M  V30 13100 H 1234.88 -1.93508 -2.47794 0
M  V30 13101 N 1238.65 -0.49465 -1.49636 0
M  V30 13102 C 1240.06 -0.0452894 -1.86645 0
M  V30 13103 C 1240.41 1.36686 -1.40753 0
M  V30 13104 O 1239.53 2.01751 -0.78265 0
M  V30 13105 C 1240.13 -0.0754115 -3.38716 0
M  V30 13106 C 1238.69 0.318579 -3.75049 0
M  V30 13107 C 1237.84 -0.450712 -2.73613 0
M  V30 13108 H 1240.79 -0.707758 -1.42044 0
M  V30 13109 H 1240.81 0.721372 -3.73599 0
M  V30 13110 H 1240.32 -1.10331 -3.72087 0
M  V30 13111 H 1238.42 1.34995 -3.47285 0
M  V30 13112 H 1238.53 0.00354416 -4.791 0
M  V30 13113 H 1236.9 0.0986455 -2.54509 0
M  V30 13114 H 1237.68 -1.47857 -3.09828 0
M  V30 13115 N 1240.13 1.55939 -0.228214 0
M  V30 13116 C 1241.37 1.9877 0.402272 0
M  V30 13117 C 1241.7 1.11587 1.5894 0
M  V30 13118 O 1240.98 0.175032 1.93711 0
M  V30 13119 C 1241.26 3.50396 0.830353 0
M  V30 13120 C 1241.12 4.4835 -0.360876 0
M  V30 13121 C 1242.43 4.06602 1.68413 0
M  V30 13122 H 1239.55 0.722646 0.144746 0
M  V30 13123 H 1242.2 1.87186 -0.325784 0
M  V30 13124 H 1240.35 3.60398 1.4507 0
M  V30 13125 H 1242.02 4.5035 -0.999113 0
M  V30 13126 H 1240.26 4.21946 -1.00719 0
M  V30 13127 H 1240.93 5.51997 -0.0183074 0
M  V30 13128 H 1243.41 3.99585 1.16064 0
M  V30 13129 H 1242.28 5.12998 1.95254 0
M  V30 13130 H 1242.54 3.53897 2.64971 0
M  V30 13131 N 1241.6 -0.0451101 1.57535 0
M  V30 13132 C 1242.85 -0.739114 1.88529 0
M  V30 13133 C 1243.18 -1.76208 0.823468 0
M  V30 13134 O 1242.43 -1.94893 -0.177512 0
M  V30 13135 C 1242.73 -1.45938 3.26247 0
M  V30 13136 C 1242.4 -0.57391 4.47233 0
M  V30 13137 C 1241.06 -0.329974 4.80067 0
M  V30 13138 C 1243.41 0.0384272 5.21186 0
M  V30 13139 C 1240.74 0.535339 5.84253 0
M  V30 13140 C 1243.09 0.891349 6.26289 0
M  V30 13141 C 1241.76 1.1449 6.57608 0
M  V30 13142 H 1241.03 -0.270461 0.689878 0
M  V30 13143 H 1243.67 0.000714103 1.915 0
M  V30 13144 H 1241.98 -2.27212 3.1919 0
M  V30 13145 H 1243.68 -2.00162 3.47471 0
M  V30 13146 H 1240.27 -0.774181 4.2155 0
M  V30 13147 H 1244.45 -0.137096 4.96111 0
M  V30 13148 H 1239.71 0.740253 6.06902 0
M  V30 13149 H 1243.88 1.37243 6.82743 0
M  V30 13150 H 1241.51 1.81715 7.38162 0
M  V30 13151 N 1243.08 -1.54377 -0.317073 0
M  V30 13152 C 1244.03 -1.84214 -1.39046 0
M  V30 13153 C 1245 -0.689742 -1.51102 0
M  V30 13154 O 1246.18 -0.936809 -1.66218 0
M  V30 13155 C 1243.32 -2.08087 -2.75307 0
M  V30 13156 C 1242.44 -3.35756 -2.7183 0
M  V30 13157 C 1241.57 -3.49556 -3.9998 0
M  V30 13158 C 1240.61 -4.71076 -3.90837 0
M  V30 13159 N 1239.75 -4.81767 -5.10729 0
M  V30 13160 H 1244.59 -2.75785 -1.12902 0
M  V30 13161 H 1242.13 -1.36575 -0.546404 0
M  V30 13162 H 1244.08 -2.19921 -3.54529 0
M  V30 13163 H 1242.71 -1.19801 -2.99746 0
M  V30 13164 H 1241.77 -3.32627 -1.84563 0
M  V30 13165 H 1243.08 -4.2509 -2.60959 0
M  V30 13166 H 1242.23 -3.60967 -4.87635 0
M  V30 13167 H 1240.97 -2.58326 -4.13665 0
M  V30 13168 H 1239.98 -4.59715 -3.01566 0
M  V30 13169 H 1241.2 -5.63698 -3.78711 0
M  V30 13170 H 1239.15 -3.93455 -5.24908 0
M  V30 13171 H 1239.06 -5.65077 -5.02219 0
M  V30 13172 H 1240.33 -4.97517 -6.00081 0
M  V30 13173 N 1244.56 0.579466 -1.4656 0
M  V30 13174 C 1245.97 1.1616 -1.46164 0
M  V30 13175 C 1246.32 1.95134 -0.20423 0
M  V30 13176 O 1245.45 2.05022 0.692457 0
M  V30 13177 C 1246.04 2.11322 -2.64818 0
M  V30 13178 C 1244.6 2.64852 -2.67452 0
M  V30 13179 C 1243.75 1.40786 -2.38903 0
M  V30 13180 H 1246.7 0.367229 -1.54393 0
M  V30 13181 H 1246.72 2.94839 -2.4052 0
M  V30 13182 H 1246.23 1.53815 -3.56318 0
M  V30 13183 H 1244.33 3.26219 -1.80032 0
M  V30 13184 H 1244.45 3.07366 -3.67509 0
M  V30 13185 H 1242.81 1.70707 -1.89027 0
M  V30 13186 H 1243.59 0.851049 -3.32584 0
M  V30 13187 N 1246.04 1.3432 0.824371 0
M  V30 13188 C 1247.29 1.26595 1.5805 0
M  V30 13189 C 1247.61 -0.164471 1.93803 0
M  V30 13190 O 1246.87 -1.12537 1.60106 0
M  V30 13191 C 1247.17 2.1008 2.89139 0
M  V30 13192 C 1246.83 3.59102 2.72684 0
M  V30 13193 C 1245.5 3.99726 2.67904 0
M  V30 13194 C 1247.85 4.53736 2.56463 0
M  V30 13195 C 1245.18 5.33178 2.44822 0
M  V30 13196 C 1247.53 5.87366 2.34913 0
M  V30 13197 C 1246.19 6.27155 2.28544 0
M  V30 13198 H 1245.46 0.463245 0.578347 0
M  V30 13199 H 1248.11 1.66048 0.953948 0
M  V30 13200 H 1246.41 1.6345 3.56078 0
M  V30 13201 H 1248.11 2.01451 3.46726 0
M  V30 13202 H 1244.7 3.26855 2.77244 0
M  V30 13203 H 1248.88 4.23248 2.5918 0
M  V30 13204 H 1244.14 5.63028 2.38348 0
M  V30 13205 H 1248.31 6.60286 2.21349 0
M  V30 13206 H 1245.94 7.30498 2.1042 0
M  V30 13207 N 1247.52 -1.0444 1.18026 0
M  V30 13208 C 1248.43 -2.15862 0.918747 0
M  V30 13209 C 1249.44 -1.73614 -0.115808 0
M  V30 13210 O 1250.62 -2.01294 0.0652312 0
M  V30 13211 C 1247.68 -3.43846 0.443922 0
M  V30 13212 C 1246.74 -4.00497 1.54599 0
M  V30 13213 C 1245.98 -5.22373 1.09372 0
M  V30 13214 O 1246.2 -5.70379 -0.049085 0
M  V30 13215 O 1245.13 -5.71459 1.88992 0
M  V30 13216 H 1248.96 -2.40776 1.85097 0
M  V30 13217 H 1246.55 -1.14326 0.961769 0
M  V30 13218 H 1248.43 -4.20985 0.187017 0
M  V30 13219 H 1247.1 -3.20414 -0.460051 0
M  V30 13220 H 1246.01 -3.24764 1.85686 0
M  V30 13221 H 1247.34 -4.28262 2.42595 0
M  V30 13222 N 1248.99 -0.981699 -1.2329 0
M  V30 13223 C 1249.94 -0.52269 -2.24803 0
M  V30 13224 C 1250.91 0.439116 -1.6019 0
M  V30 13225 O 1252.1 0.346372 -1.8763 0
M  V30 13226 C 1249.24 0.167477 -3.44693 0
M  V30 13227 C 1248.35 -0.834744 -4.23858 0
M  V30 13228 C 1247.48 -0.119249 -5.31066 0
M  V30 13229 C 1246.52 -1.1106 -6.0194 0
M  V30 13230 N 1245.66 -0.424167 -7.00818 0
M  V30 13231 H 1250.5 -1.39312 -2.63431 0
M  V30 13232 H 1248.04 -0.698061 -1.29482 0
M  V30 13233 H 1250 0.584442 -4.13086 0
M  V30 13234 H 1248.63 1.00177 -3.06862 0
M  V30 13235 H 1247.68 -1.37009 -3.5487 0
M  V30 13236 H 1248.99 -1.59012 -4.72776 0
M  V30 13237 H 1248.14 0.355015 -6.0566 0
M  V30 13238 H 1246.88 0.668714 -4.83094 0
M  V30 13239 H 1245.89 -1.5956 -5.26138 0
M  V30 13240 H 1247.11 -1.89924 -6.52001 0
M  V30 13241 H 1245.06 0.344564 -6.55094 0
M  V30 13242 H 1244.98 -1.11817 -7.47685 0
M  V30 13243 H 1246.24 0.0276655 -7.79495 0
M  V30 13244 N 1250.47 1.3842 -0.753509 0
M  V30 13245 C 1251.88 1.82847 -0.377331 0
M  V30 13246 C 1252.23 1.62867 1.09401 0
M  V30 13247 O 1251.36 1.12981 1.84565 0
M  V30 13248 C 1251.95 3.31945 -0.678095 0
M  V30 13249 C 1250.51 3.7472 -0.355196 0
M  V30 13250 C 1249.66 2.61193 -0.931311 0
M  V30 13251 H 1252.61 1.2715 -0.949667 0
M  V30 13252 H 1252.63 3.80475 0.0437292 0
M  V30 13253 H 1252.14 3.46455 -1.74902 0
M  V30 13254 H 1250.25 3.65789 0.70915 0
M  V30 13255 H 1250.36 4.71487 -0.850693 0
M  V30 13256 H 1248.72 2.5219 -0.356695 0
M  V30 13257 H 1249.51 2.78503 -2.00727 0
M  V30 13258 N 1251.95 0.502579 1.49372 0
M  V30 13259 C 1253.2 -0.0414423 2.02758 0
M  V30 13260 C 1253.53 -1.36499 1.38136 0
M  V30 13261 O 1252.8 -1.87487 0.517593 0
M  V30 13262 C 1253.09 -0.192333 3.59586 0
M  V30 13263 C 1252.94 1.15445 4.34733 0
M  V30 13264 C 1254.26 -0.932218 4.30114 0
M  V30 13265 H 1251.38 -0.0135869 0.736875 0
M  V30 13266 H 1254.02 0.654296 1.78379 0
M  V30 13267 H 1252.17 -0.78491 3.80488 0
M  V30 13268 H 1253.84 1.78603 4.25322 0
M  V30 13269 H 1252.09 1.74333 3.97228 0
M  V30 13270 H 1252.76 1.00216 5.42827 0
M  V30 13271 H 1255.23 -0.429632 4.13876 0
M  V30 13272 H 1254.11 -1.00664 5.39591 0
M  V30 13273 H 1254.37 -1.9763 3.95468 0
M  V30 13274 N 1253.43 -1.55816 0.23648 0
M  V30 13275 C 1254.36 -2.16945 -0.707826 0
M  V30 13276 C 1255.34 -1.11832 -1.18036 0
M  V30 13277 O 1256.52 -1.40166 -1.26039 0
M  V30 13278 C 1253.65 -2.76175 -1.96074 0
M  V30 13279 C 1252.7 -3.9425 -1.62695 0
M  V30 13280 S 1253.53 -5.30381 -0.738663 0
M  V30 13281 C 1254.69 -5.93059 -2.00081 0
M  V30 13282 H 1254.92 -2.96703 -0.188303 0
M  V30 13283 H 1252.45 -1.54386 0.0210284 0
M  V30 13284 H 1254.41 -3.10938 -2.68007 0
M  V30 13285 H 1253.07 -1.96382 -2.45138 0
M  V30 13286 H 1252.26 -4.34247 -2.55823 0
M  V30 13287 H 1251.87 -3.6071 -0.988129 0
M  V30 13288 H 1254.16 -6.09941 -2.94921 0
M  V30 13289 H 1255.1 -6.88739 -1.64449 0
M  V30 13290 H 1255.51 -5.2203 -2.14815 0
M  V30 13291 N 1254.91 0.036755 -1.57557 0
M  V30 13292 C 1256.16 0.728107 -1.881 0
M  V30 13293 C 1256.47 1.7693 -0.833974 0
M  V30 13294 O 1257.67 2.5127 -1.02837 0
M  V30 13295 C 1256.13 1.34604 -3.33781 0
M  V30 13296 C 1255.74 0.341599 -4.46696 0
M  V30 13297 C 1257.48 2.01772 -3.73481 0
M  V30 13298 C 1255.39 0.967444 -5.83433 0
M  V30 13299 H 1254.32 0.275695 -0.701789 0
M  V30 13300 H 1256.97 -0.0177555 -1.83491 0
M  V30 13301 H 1255.35 2.14135 -3.3311 0
M  V30 13302 H 1256.53 -0.426441 -4.58823 0
M  V30 13303 H 1254.84 -0.227558 -4.15778 0
M  V30 13304 H 1257.44 2.49435 -4.72955 0
M  V30 13305 H 1257.78 2.83255 -3.05077 0
M  V30 13306 H 1258.31 1.29026 -3.76294 0
M  V30 13307 H 1255.05 0.19219 -6.55218 0
M  V30 13308 H 1254.57 1.70551 -5.75041 0
M  V30 13309 H 1256.25 1.47705 -6.29914 0
M  V30 13310 N 1256.39 1.54543 0.308881 0
M  V30 13311 C 1257.61 1.77753 1.06857 0
M  V30 13312 C 1258.04 0.531616 1.80431 0
M  V30 13313 O 1257.39 -0.517513 1.73757 0
M  V30 13314 C 1257.44 2.97968 2.03094 0
M  V30 13315 O 1256.55 2.70541 3.11257 0
M  V30 13316 H 1255.89 0.588576 0.307368 0
M  V30 13317 H 1258.42 2.01607 0.348703 0
M  V30 13318 H 1258.43 3.25722 2.45702 0
M  V30 13319 H 1257.1 3.88314 1.48948 0
M  V30 13320 H 1255.68 2.53781 2.7322 0
M  V30 13321 N 1257.86 -0.571685 1.46866 0
M  V30 13322 C 1258.8 -1.69502 1.52788 0
M  V30 13323 C 1259.77 -1.58071 0.381109 0
M  V30 13324 O 1260.96 -1.79132 0.586844 0
M  V30 13325 C 1258.09 -3.07642 1.41682 0
M  V30 13326 C 1257.13 -3.37562 2.6068 0
M  V30 13327 S 1257.96 -3.28413 4.22971 0
M  V30 13328 C 1259.12 -4.69073 4.14393 0
M  V30 13329 H 1259.35 -1.64221 2.47828 0
M  V30 13330 H 1256.89 -0.751334 1.34886 0
M  V30 13331 H 1258.84 -3.8733 1.35962 0
M  V30 13332 H 1257.51 -3.10403 0.480517 0
M  V30 13333 H 1256.7 -4.38233 2.48933 0
M  V30 13334 H 1256.3 -2.65464 2.63448 0
M  V30 13335 H 1258.59 -5.59706 3.81754 0
M  V30 13336 H 1259.54 -4.85877 5.15101 0
M  V30 13337 H 1259.94 -4.4644 3.45473 0
M  V30 13338 N 1259.34 -1.34755 -0.817236 0
M  V30 13339 C 1260.59 -1.2718 -1.57066 0
M  V30 13340 C 1260.91 0.156531 -1.94371 0
M  V30 13341 O 1260.18 1.09049 -1.62742 0
M  V30 13342 H 1258.76 -0.467755 -0.582421 0
M  V30 13343 H 1261.42 -1.68734 -0.975438 0
M  V30 13344 H 1260.52 -1.88043 -2.49091 0
M  V30 13345 N 1260.82 1.03812 -1.18578 0
M  V30 13346 C 1261.77 2.13994 -0.911563 0
M  V30 13347 C 1262.76 1.68907 0.129131 0
M  V30 13348 O 1263.97 1.7999 -0.0192557 0
M  V30 13349 H 1260.34 0.698996 -0.277324 0
M  V30 13350 H 1262.31 2.34318 -1.84763 0
M  V30 13351 C 1261.06 3.44689 -0.456591 0
M  V30 13352 H 1260.39 3.79793 -1.2489 0
M  V30 13353 H 1261.83 4.22911 -0.303738 0
M  V30 13354 C 1260.28 3.26568 0.827961 0
M  V30 13355 O 1260.81 3.54376 1.89158 0
M  V30 13356 N 1259.02 2.79893 0.781567 0
M  V30 13357 H 1258.57 2.57462 -0.0842145 0
M  V30 13358 H 1258.53 2.68148 1.64146 0
M  V30 13359 N 1262.3 0.988223 1.22768 0
M  V30 13360 C 1263.21 0.543407 2.2822 0
M  V30 13361 C 1264.22 -0.405563 1.69208 0
M  V30 13362 O 1265.4 -0.273551 1.99534 0
M  V30 13363 C 1262.46 -0.139495 3.46419 0
M  V30 13364 C 1261.53 0.851853 4.20764 0
M  V30 13365 C 1260.76 0.201446 5.3332 0
M  V30 13366 O 1260.98 -1.00573 5.61464 0
M  V30 13367 O 1259.92 0.903956 5.95073 0
M  V30 13368 H 1263.74 1.42059 2.68427 0
M  V30 13369 H 1261.33 0.756239 1.28846 0
M  V30 13370 H 1263.21 -0.522226 4.18152 0
M  V30 13371 H 1261.88 -0.991315 3.08147 0
M  V30 13372 H 1260.79 1.28543 3.51322 0
M  V30 13373 H 1262.12 1.67273 4.62905 0
M  V30 13374 N 1263.78 -1.38018 0.760839 0
M  V30 13375 C 1264.72 -2.32251 0.127425 0
M  V30 13376 C 1265.72 -1.54387 -0.69722 0
M  V30 13377 O 1266.92 -1.69864 -0.595505 0
M  V30 13378 H 1263.3 -0.751666 0.0224141 0
M  V30 13379 H 1265.27 -2.8327 0.93813 0
M  V30 13380 C 1264.02 -3.39606 -0.745849 0
M  V30 13381 H 1263.34 -3.99618 -0.120679 0
M  V30 13382 H 1264.78 -4.07931 -1.15621 0
M  V30 13383 C 1263.24 -2.78778 -1.89167 0
M  V30 13384 O 1263.77 -2.68661 -2.98637 0
M  V30 13385 N 1261.98 -2.36481 -1.68894 0
M  V30 13386 H 1261.52 -2.4491 -0.798551 0
M  V30 13387 H 1261.48 -1.96126 -2.45728 0
M  V30 13388 N 1265.25 -0.510493 -1.49103 0
M  V30 13389 C 1266.5 0.030689 -2.02777 0
M  V30 13390 C 1266.83 1.35765 -1.38858 0
M  V30 13391 O 1266.11 1.87209 -0.527528 0
M  V30 13392 C 1266.39 0.173261 -3.59683 0
M  V30 13393 C 1266.24 -1.17749 -4.34114 0
M  V30 13394 C 1267.56 0.909395 -4.30602 0
M  V30 13395 H 1264.68 0.0096789 -0.736936 0
M  V30 13396 H 1267.32 -0.663746 -1.78029 0
M  V30 13397 H 1265.47 0.764721 -3.80899 0
M  V30 13398 H 1267.15 -1.80856 -4.24369 0
M  V30 13399 H 1265.39 -1.76438 -3.96298 0
M  V30 13400 H 1266.06 -1.03094 -5.42287 0
M  V30 13401 H 1268.54 0.407677 -4.14098 0
M  V30 13402 H 1267.41 0.978012 -5.40117 0
M  V30 13403 H 1267.67 1.9553 -3.96511 0
M  V30 13404 N 1266.73 1.55688 -0.24474 0
M  V30 13405 C 1267.66 2.24272 0.64995 0
M  V30 13406 C 1268.64 1.22226 1.183 0
M  V30 13407 O 1269.83 1.50873 1.22274 0
M  V30 13408 C 1266.96 2.94053 1.84798 0
M  V30 13409 C 1265.91 4.02769 1.44779 0
M  V30 13410 C 1265.24 4.59965 2.72647 0
M  V30 13411 C 1266.54 5.18601 0.62047 0
M  V30 13412 H 1268.23 2.99298 0.0780654 0
M  V30 13413 H 1265.78 1.43955 0.0361069 0
M  V30 13414 H 1267.73 3.40732 2.47951 0
M  V30 13415 H 1266.45 2.16511 2.44521 0
M  V30 13416 H 1265.11 3.56856 0.839609 0
M  V30 13417 H 1264.76 3.79126 3.30564 0
M  V30 13418 H 1264.46 5.33352 2.46596 0
M  V30 13419 H 1265.99 5.09376 3.36703 0
M  V30 13420 H 1267.4 5.61519 1.15625 0
M  V30 13421 H 1265.8 5.98364 0.456097 0
M  V30 13422 H 1266.87 4.83503 -0.367798 0
M  V30 13423 N 1268.21 -0.0283989 1.57574 0
M  V30 13424 C 1269.12 -1.04575 2.10003 0
M  V30 13425 C 1270.14 -1.39588 1.03881 0
M  V30 13426 O 1271.31 -1.48894 1.35619 0
M  V30 13427 C 1268.38 -2.32755 2.56955 0
M  V30 13428 C 1267.44 -2.04317 3.77562 0
M  V30 13429 C 1266.67 -3.26385 4.22266 0
M  V30 13430 O 1266.89 -4.37082 3.66491 0
M  V30 13431 O 1265.83 -3.12046 5.14695 0
M  V30 13432 H 1269.65 -0.630183 2.9709 0
M  V30 13433 H 1267.24 -0.245423 1.4737 0
M  V30 13434 H 1269.12 -3.08111 2.87482 0
M  V30 13435 H 1267.8 -2.73605 1.72979 0
M  V30 13436 H 1266.7 -1.26527 3.52054 0
M  V30 13437 H 1268.04 -1.68321 4.62524 0
M  V30 13438 N 1269.69 -1.54705 -0.300681 0
M  V30 13439 C 1270.94 -1.73211 -1.03349 0
M  V30 13440 C 1271.25 -0.52518 -1.88418 0
M  V30 13441 O 1272.46 -0.592049 -2.64966 0
M  V30 13442 C 1270.91 -3.06453 -1.88717 0
M  V30 13443 C 1270.52 -4.34625 -1.0865 0
M  V30 13444 C 1272.26 -3.34317 -2.61595 0
M  V30 13445 C 1270.17 -5.58919 -1.93297 0
M  V30 13446 H 1269.1 -0.64556 -0.389574 0
M  V30 13447 H 1271.75 -1.81186 -0.290472 0
M  V30 13448 H 1270.13 -2.92443 -2.67008 0
M  V30 13449 H 1271.31 -4.59471 -0.349707 0
M  V30 13450 H 1269.62 -4.13699 -0.473521 0
M  V30 13451 H 1272.22 -4.2438 -3.25278 0
M  V30 13452 H 1272.56 -2.53207 -3.30442 0
M  V30 13453 H 1273.1 -3.493 -1.90354 0
M  V30 13454 H 1269.83 -6.42697 -1.2892 0
M  V30 13455 H 1269.35 -5.38258 -2.64647 0
M  V30 13456 H 1271.03 -5.96187 -2.51336 0
M  V30 13457 N 1271.17 0.563888 -1.47167 0
M  V30 13458 C 1272.11 1.67151 -1.59152 0
M  V30 13459 C 1273.08 1.60307 -0.434852 0
M  V30 13460 O 1274.27 1.7924 -0.654049 0
M  V30 13461 C 1271.41 3.0548 -1.60549 0
M  V30 13462 C 1270.52 3.2281 -2.87085 0
M  V30 13463 C 1269.66 4.51498 -2.79862 0
M  V30 13464 C 1268.7 4.62237 -4.01252 0
M  V30 13465 N 1267.83 5.82273 -3.92305 0
M  V30 13466 H 1272.67 1.56245 -2.53755 0
M  V30 13467 H 1270.21 0.761219 -1.25872 0
M  V30 13468 H 1272.17 3.85572 -1.59343 0
M  V30 13469 H 1270.8 3.15237 -0.69464 0
M  V30 13470 H 1269.85 2.36196 -2.98188 0
M  V30 13471 H 1271.16 3.2661 -3.76997 0
M  V30 13472 H 1270.32 5.39842 -2.76867 0
M  V30 13473 H 1269.05 4.50166 -1.87621 0
M  V30 13474 H 1268.06 3.72307 -4.04558 0
M  V30 13475 H 1269.28 4.65334 -4.94612 0
M  V30 13476 H 1267.23 5.81902 -3.02862 0
M  V30 13477 H 1267.15 5.87422 -4.7589 0
M  V30 13478 H 1268.42 6.72996 -3.93315 0
M  V30 13479 N 1272.64 1.35187 0.810078 0
M  V30 13480 C 1273.89 1.28011 1.56389 0
M  V30 13481 C 1274.21 -0.14622 1.94451 0
M  V30 13482 O 1273.48 -1.08185 1.63318 0
M  V30 13483 H 1272.06 0.470837 0.579932 0
M  V30 13484 H 1274.73 1.69249 0.966476 0
M  V30 13485 H 1273.82 1.89362 2.4809 0
M  V30 13486 N 1274.12 -1.03182 1.19127 0
M  V30 13487 C 1275.07 -2.13507 0.922899 0
M  V30 13488 C 1276.06 -1.68973 -0.120171 0
M  V30 13489 O 1277.27 -1.79977 0.0288007 0
M  V30 13490 H 1273.65 -0.697516 0.281027 0
M  V30 13491 H 1275.62 -2.33335 1.86003 0
M  V30 13492 C 1274.37 -3.44442 0.474864 0
M  V30 13493 H 1273.69 -3.79125 1.26902 0
M  V30 13494 H 1275.13 -4.22744 0.326162 0
M  V30 13495 C 1273.59 -3.27002 -0.81063 0
M  V30 13496 O 1274.12 -3.55374 -1.87276 0
M  V30 13497 N 1272.32 -2.80303 -0.766713 0
M  V30 13498 H 1271.87 -2.57414 0.0978672 0
M  V30 13499 H 1271.83 -2.69015 -1.62721 0
M  V30 13500 N 1275.6 -0.99472 -1.22242 0
M  V30 13501 C 1276.88 -0.587481 -1.86569 0
M  V30 13502 C 1277.26 0.935174 -1.89256 0
M  V30 13503 O 1276.61 1.81787 -1.3844 0
M  V30 13504 C 1276.82 -1.21001 -3.27353 0
M  V30 13505 C 1278.16 -1.31167 -4.03832 0
M  V30 13506 O 1279.19 -1.16454 -3.36626 0
M  V30 13507 O 1278.05 -1.54731 -5.24138 0
M  V30 13508 H 1275.14 -0.199838 -0.802492 0
M  V30 13509 H 1277.69 -1.09071 -1.30006 0
M  V30 13510 H 1276.46 -2.25143 -3.20041 0
M  V30 13511 H 1276.08 -0.692479 -3.91523 0
M  V30 13512 N 1277.08 1.37613 -0.768148 0
M  V30 13513 C 1278.33 1.99023 -0.327543 0
M  V30 13514 C 1278.64 1.61669 1.10103 0
M  V30 13515 O 1279.85 2.16155 1.64284 0
M  V30 13516 C 1278.3 3.55906 -0.534674 0
M  V30 13517 C 1277.91 4.02201 -1.97327 0
M  V30 13518 C 1279.65 4.24208 -0.157512 0
M  V30 13519 C 1277.56 5.51781 -2.12819 0
M  V30 13520 H 1276.49 0.744595 -0.118722 0
M  V30 13521 H 1279.14 1.5719 -0.946764 0
M  V30 13522 H 1277.52 3.95701 0.153951 0
M  V30 13523 H 1278.7 3.73661 -2.69655 0
M  V30 13524 H 1277.01 3.46671 -2.30669 0
M  V30 13525 H 1279.61 5.34107 -0.251824 0
M  V30 13526 H 1279.95 4.06636 0.89177 0
M  V30 13527 H 1280.49 3.89703 -0.798546 0
M  V30 13528 H 1277.23 5.74274 -3.16053 0
M  V30 13529 H 1276.75 5.82017 -1.4497 0
M  V30 13530 H 1278.42 6.17697 -1.92508 0
M  V30 13531 N 1278.56 0.518393 1.4883 0
M  V30 13532 C 1279.83 -0.0837498 1.95421 0
M  V30 13533 C 1280.21 -1.52435 1.46037 0
M  V30 13534 O 1279.56 -2.18093 0.681736 0
M  V30 13535 C 1279.77 0.0215333 3.48993 0
M  V30 13536 C 1281.12 -0.143615 4.24357 0
M  V30 13537 O 1282.14 -0.0528223 3.56161 0
M  V30 13538 O 1281 -0.332231 5.45489 0
M  V30 13539 H 1278.1 -0.0857132 0.822546 0
M  V30 13540 H 1280.64 0.582169 1.59402 0
M  V30 13541 H 1279.41 1.02549 3.77623 0
M  V30 13542 H 1279.04 -0.683756 3.91677 0
M  V30 13543 N 1280.03 -1.55556 0.252993 0
M  V30 13544 C 1281.45 -1.85032 -0.249011 0
M  V30 13545 C 1281.8 -1.17488 -1.57134 0
M  V30 13546 O 1280.92 -0.455387 -2.11554 0
M  V30 13547 C 1281.52 -3.35682 -0.458589 0
M  V30 13548 C 1280.08 -3.65362 -0.90485 0
M  V30 13549 C 1279.22 -2.77296 0.0144927 0
M  V30 13550 H 1282.17 -1.51412 0.475394 0
M  V30 13551 H 1282.19 -3.57591 -1.30034 0
M  V30 13552 H 1281.71 -3.84814 0.503981 0
M  V30 13553 H 1279.81 -3.21713 -1.87967 0
M  V30 13554 H 1279.92 -4.73074 -0.757492 0
M  V30 13555 H 1278.28 -2.49785 -0.497954 0
M  V30 13556 H 1279.07 -3.29236 0.972546 0
M  V30 13557 N 1281.51 0.0200419 -1.57587 0
M  V30 13558 C 1282.42 1.0346 -2.10555 0
M  V30 13559 C 1283.44 1.39035 -1.0462 0
M  V30 13560 O 1284.61 1.48172 -1.36407 0
M  V30 13561 C 1281.68 2.31389 -2.58186 0
M  V30 13562 C 1280.74 2.02311 -3.7864 0
M  V30 13563 C 1279.97 3.24141 -4.23991 0
M  V30 13564 O 1280.2 4.35132 -3.68803 0
M  V30 13565 O 1279.13 3.09312 -5.16342 0
M  V30 13566 H 1282.96 0.614419 -2.9742 0
M  V30 13567 H 1280.54 0.237604 -1.47498 0
M  V30 13568 H 1282.42 3.06582 -2.89112 0
M  V30 13569 H 1281.1 2.72684 -1.74428 0
M  V30 13570 H 1280.01 1.24658 -3.5272 0
M  V30 13571 H 1281.34 1.65866 -4.6341 0
M  V30 13572 N 1282.99 1.54862 0.292472 0
M  V30 13573 C 1283.95 1.8565 1.34413 0
M  V30 13574 C 1284.95 0.729868 1.43281 0
M  V30 13575 O 1286.14 0.998128 1.42769 0
M  V30 13576 C 1283.28 2.0444 2.72795 0
M  V30 13577 H 1284.47 2.79642 1.08354 0
M  V30 13578 H 1282.02 1.47055 0.529574 0
M  V30 13579 H 1282.76 1.12765 3.04063 0
M  V30 13580 H 1282.54 2.86451 2.67747 0
M  V30 13581 H 1284.03 2.296 3.48817 0
M  V30 13582 N 1284.47 -0.556076 1.47464 0
M  V30 13583 C 1285.71 -1.31515 1.54375 0
M  V30 13584 C 1286.05 -1.93106 0.205837 0
M  V30 13585 O 1285.32 -1.77927 -0.785643 0
M  V30 13586 C 1285.61 -2.4244 2.66261 0
M  V30 13587 C 1285.46 -1.8571 4.09673 0
M  V30 13588 C 1286.78 -3.4436 2.74051 0
M  V30 13589 H 1283.9 -0.476817 0.561974 0
M  V30 13590 H 1286.54 -0.622157 1.79525 0
M  V30 13591 H 1284.69 -3.01551 2.44948 0
M  V30 13592 H 1286.36 -1.30851 4.42353 0
M  V30 13593 H 1284.6 -1.16379 4.17898 0
M  V30 13594 H 1285.27 -2.65904 4.83735 0
M  V30 13595 H 1287.75 -2.95169 2.93282 0
M  V30 13596 H 1286.63 -4.194 3.54111 0
M  V30 13597 H 1286.89 -4.03281 1.81155 0
M  V30 13598 N 1285.95 -1.35615 -0.802897 0
M  V30 13599 C 1286.89 -1.28839 -1.91492 0
M  V30 13600 C 1287.86 -0.159621 -1.65331 0
M  V30 13601 O 1289.05 -0.343931 -1.87675 0
M  V30 13602 C 1286.19 -1.06999 -3.28093 0
M  V30 13603 C 1285.3 -2.28831 -3.66416 0
M  V30 13604 C 1284.44 -2.00111 -4.92066 0
M  V30 13605 C 1283.48 -3.17977 -5.23027 0
M  V30 13606 N 1282.61 -2.89009 -6.39858 0
M  V30 13607 H 1287.45 -2.2393 -1.96619 0
M  V30 13608 H 1284.99 -1.1131 -0.961687 0
M  V30 13609 H 1286.95 -0.923673 -4.06847 0
M  V30 13610 H 1285.58 -0.155684 -3.22424 0
M  V30 13611 H 1284.63 -2.54314 -2.82893 0
M  V30 13612 H 1285.94 -3.1683 -3.85253 0
M  V30 13613 H 1285.1 -1.82331 -5.78654 0
M  V30 13614 H 1283.84 -1.09402 -4.75271 0
M  V30 13615 H 1282.84 -3.3633 -4.34928 0
M  V30 13616 H 1284.07 -4.09493 -5.41749 0
M  V30 13617 H 1282.01 -2.00898 -6.24481 0
M  V30 13618 H 1281.93 -3.70544 -6.58964 0
M  V30 13619 H 1283.2 -2.74779 -7.29463 0
M  V30 13620 N 1287.43 1.02549 -1.19673 0
M  V30 13621 C 1288.67 1.75656 -0.999463 0
M  V30 13622 C 1288.99 1.89238 0.470517 0
M  V30 13623 O 1288.26 1.42843 1.34062 0
M  V30 13624 H 1286.84 0.650732 -0.366821 0
M  V30 13625 H 1289.51 1.23684 -1.50627 0
M  V30 13626 H 1288.6 2.76353 -1.45035 0
M  V30 13627 N 1288.9 1.00119 1.21713 0
M  V30 13628 C 1289.81 0.567582 2.27631 0
M  V30 13629 C 1290.83 -0.387593 1.69628 0
M  V30 13630 O 1292.01 -0.252372 1.99813 0
M  V30 13631 C 1289.07 -0.102745 3.46548 0
M  V30 13632 C 1288.13 0.896433 4.19836 0
M  V30 13633 C 1287.36 0.258 5.33076 0
M  V30 13634 O 1287.59 -0.946118 5.62499 0
M  V30 13635 O 1286.52 0.967021 5.94081 0
M  V30 13636 H 1290.35 1.44898 2.66905 0
M  V30 13637 H 1287.93 0.769862 1.28037 0
M  V30 13638 H 1289.81 -0.477846 4.18682 0
M  V30 13639 H 1288.49 -0.958576 3.09181 0
M  V30 13640 H 1287.4 1.32262 3.49939 0
M  V30 13641 H 1288.73 1.72173 4.61104 0
M  V30 13642 N 1290.38 -1.37203 0.775435 0
M  V30 13643 C 1291.63 -1.99897 0.341936 0
M  V30 13644 C 1291.96 -1.61414 -1.07978 0
M  V30 13645 O 1291.24 -0.862108 -1.7435 0
M  V30 13646 C 1291.52 -3.56755 0.489715 0
M  V30 13647 C 1291.37 -4.05135 1.95411 0
M  V30 13648 C 1292.69 -4.39978 -0.103779 0
M  V30 13649 H 1289.81 -0.726199 0.125717 0
M  V30 13650 H 1292.45 -1.62826 0.979167 0
M  V30 13651 H 1290.6 -3.88464 -0.0527684 0
M  V30 13652 H 1292.27 -3.83975 2.55658 0
M  V30 13653 H 1290.52 -3.57192 2.46164 0
M  V30 13654 H 1291.19 -5.14161 2.00855 0
M  V30 13655 H 1293.66 -4.14547 0.359134 0
M  V30 13656 H 1292.54 -5.48892 0.0297337 0
M  V30 13657 H 1292.8 -4.25658 -1.19448 0
M  V30 13658 N 1291.86 -0.526279 -1.48553 0
M  V30 13659 C 1292.79 0.227364 -2.3239 0
M  V30 13660 C 1293.77 0.93862 -1.41859 0
M  V30 13661 O 1294.96 0.925119 -1.70749 0
M  V30 13662 C 1292.09 1.277 -3.22971 0
M  V30 13663 C 1291.04 0.684107 -4.22497 0
M  V30 13664 C 1290.37 1.83612 -5.02186 0
M  V30 13665 C 1291.67 -0.341723 -5.21181 0
M  V30 13666 H 1293.36 -0.472486 -2.95648 0
M  V30 13667 H 1290.91 -0.228669 -1.42173 0
M  V30 13668 H 1292.86 1.81215 -3.80446 0
M  V30 13669 H 1291.58 2.00638 -2.57705 0
M  V30 13670 H 1290.24 0.170505 -3.66203 0
M  V30 13671 H 1289.89 2.55379 -4.33348 0
M  V30 13672 H 1289.59 1.44536 -5.69547 0
M  V30 13673 H 1291.11 2.37513 -5.62512 0
M  V30 13674 H 1292.53 0.106207 -5.73202 0
M  V30 13675 H 1290.92 -0.649673 -5.96573 0
M  V30 13676 H 1291.99 -1.2488 -4.68543 0
M  V30 13677 N 1293.34 1.5542 -0.261239 0
M  V30 13678 C 1294.28 2.21972 0.632216 0
M  V30 13679 C 1295.25 1.18843 1.16041 0
M  V30 13680 O 1296.44 1.47339 1.21226 0
M  V30 13681 C 1293.58 2.93397 1.81693 0
M  V30 13682 C 1292.69 4.11214 1.3239 0
M  V30 13683 C 1291.83 4.70318 2.46931 0
M  V30 13684 C 1290.87 5.80355 1.94561 0
M  V30 13685 N 1290 6.33581 3.02523 0
M  V30 13686 H 1294.84 2.97944 0.058018 0
M  V30 13687 H 1292.38 1.4709 0.0168725 0
M  V30 13688 H 1294.34 3.33015 2.5131 0
M  V30 13689 H 1292.97 2.19874 2.36337 0
M  V30 13690 H 1292.02 3.76811 0.521292 0
M  V30 13691 H 1293.33 4.90609 0.900214 0
M  V30 13692 H 1292.49 5.12584 3.24565 0
M  V30 13693 H 1291.23 3.90169 2.92608 0
M  V30 13694 H 1290.23 5.37552 1.15402 0
M  V30 13695 H 1291.46 6.62364 1.49836 0
M  V30 13696 H 1289.4 5.56332 3.47608 0
M  V30 13697 H 1289.32 7.08209 2.64529 0
M  V30 13698 H 1290.59 6.80506 3.80174 0
M  V30 13699 N 1294.82 -0.0116844 1.57596 0
M  V30 13700 C 1296.06 -0.699994 1.90336 0
M  V30 13701 C 1296.39 -1.74067 0.861072 0
M  V30 13702 O 1295.67 -1.94119 -0.121712 0
M  V30 13703 C 1295.95 -1.35377 3.33684 0
M  V30 13704 C 1295.81 -0.325434 4.48621 0
M  V30 13705 C 1297.12 -2.28312 3.76247 0
M  V30 13706 H 1294.24 -0.253002 0.692213 0
M  V30 13707 H 1296.89 0.037211 1.89964 0
M  V30 13708 H 1295.04 -1.98212 3.34132 0
M  V30 13709 H 1296.71 0.302331 4.60308 0
M  V30 13710 H 1294.95 0.353527 4.32357 0
M  V30 13711 H 1295.62 -0.8217 5.4585 0
M  V30 13712 H 1298.1 -1.75505 3.77276 0
M  V30 13713 H 1296.97 -2.71028 4.77321 0
M  V30 13714 H 1297.23 -3.15727 3.09465 0
M  V30 13715 N 1296.29 -1.55015 -0.284256 0
M  V30 13716 C 1297.54 -1.74744 -1.01532 0
M  V30 13717 C 1297.86 -0.545334 -1.87219 0
M  V30 13718 O 1297.13 0.440046 -1.90894 0
M  V30 13719 H 1295.71 -0.644382 -0.377864 0
M  V30 13720 H 1298.37 -1.92399 -0.311199 0
M  V30 13721 H 1297.47 -2.64369 -1.65878 0
M  V30 13722 N 1297.77 0.548248 -1.47757 0
M  V30 13723 C 1298.72 1.67553 -1.61335 0
M  V30 13724 C 1299.71 1.62447 -0.480335 0
M  V30 13725 O 1300.92 1.67525 -0.658445 0
M  V30 13726 H 1297.29 0.55457 -0.507894 0
M  V30 13727 H 1299.27 1.53239 -2.56047 0
M  V30 13728 C 1298.01 3.05883 -1.6532 0
M  V30 13729 H 1297.34 3.10497 -2.51856 0
M  V30 13730 H 1298.78 3.84424 -1.78868 0
M  V30 13731 C 1297.24 3.34656 -0.388238 0
M  V30 13732 O 1297.77 3.9849 0.506816 0
M  V30 13733 N 1295.97 2.89384 -0.265514 0
M  V30 13734 H 1295.52 2.37615 -0.994819 0
M  V30 13735 H 1295.48 3.09006 0.579889 0
M  V30 13736 N 1299.25 1.36039 0.795694 0
M  V30 13737 C 1300.2 1.29853 1.90806 0
M  V30 13738 C 1301.17 0.168387 1.65244 0
M  V30 13739 O 1302.35 0.353879 1.8749 0
M  V30 13740 C 1299.49 1.08737 3.27521 0
M  V30 13741 C 1298.6 2.30771 3.65197 0
M  V30 13742 C 1297.74 2.02718 4.90998 0
M  V30 13743 C 1296.78 3.20746 5.21333 0
M  V30 13744 N 1295.92 2.92399 6.38316 0
M  V30 13745 H 1300.76 2.2497 1.95429 0
M  V30 13746 H 1298.29 1.11819 0.955771 0
M  V30 13747 H 1300.25 0.945236 4.06351 0
M  V30 13748 H 1298.88 0.172781 3.22337 0
M  V30 13749 H 1297.93 2.5581 2.81541 0
M  V30 13750 H 1299.24 3.18869 3.83568 0
M  V30 13751 H 1298.4 1.85398 5.77679 0
M  V30 13752 H 1297.14 1.11921 4.74684 0
M  V30 13753 H 1296.14 3.38632 4.33138 0
M  V30 13754 H 1297.37 4.1236 5.3957 0
M  V30 13755 H 1295.31 2.04207 6.23406 0
M  V30 13756 H 1295.23 3.74034 6.56989 0
M  V30 13757 H 1296.5 2.78643 7.27996 0
M  V30 13758 N 1300.73 -1.01913 1.20215 0
M  V30 13759 C 1301.95 -1.79613 1.03702 0
M  V30 13760 C 1302.38 -1.83591 -0.409374 0
M  V30 13761 O 1301.74 -1.26911 -1.29473 0
M  V30 13762 C 1301.78 -3.22052 1.62219 0
M  V30 13763 O 1300.89 -4.03374 0.858106 0
M  V30 13764 H 1300.23 -0.554095 0.365889 0
M  V30 13765 H 1302.76 -1.28203 1.59452 0
M  V30 13766 H 1302.77 -3.72772 1.65847 0
M  V30 13767 H 1301.44 -3.18471 2.67487 0
M  V30 13768 H 1300.02 -3.6198 0.895835 0
M  V30 13769 N 1302.21 -1.00763 -1.2118 0
M  V30 13770 C 1303.45 -0.700238 -1.92031 0
M  V30 13771 C 1303.81 0.755344 -1.76518 0
M  V30 13772 O 1305.01 1.17484 -2.41766 0
M  V30 13773 C 1303.28 -1.11294 -3.3963 0
M  V30 13774 S 1304.84 -0.926151 -4.28915 0
M  V30 13775 H 1301.66 -0.255559 -0.663484 0
M  V30 13776 H 1304.26 -1.29301 -1.46634 0
M  V30 13777 H 1302.97 -2.16838 -3.48439 0
M  V30 13778 H 1302.5 -0.51257 -3.90047 0
M  V30 13779 H 1304.51 0.175301 -4.9589 0
M  V30 13780 N 1303.68 1.3679 -0.7827 0
M  V30 13781 C 1304.59 2.33928 -0.17747 0
M  V30 13782 C 1305.61 1.60716 0.666802 0
M  V30 13783 O 1306.79 1.92742 0.584162 0
M  V30 13784 C 1303.85 3.39907 0.68294 0
M  V30 13785 C 1302.91 4.28926 -0.179053 0
M  V30 13786 C 1302.15 5.29844 0.640386 0
M  V30 13787 O 1302.37 5.38639 1.87681 0
M  V30 13788 O 1301.3 6.01884 0.0438164 0
M  V30 13789 H 1305.13 2.87439 -0.980441 0
M  V30 13790 H 1302.71 1.39142 -0.54404 0
M  V30 13791 H 1304.6 4.04722 1.17379 0
M  V30 13792 H 1303.27 2.88706 1.46391 0
M  V30 13793 H 1302.18 3.67174 -0.716512 0
M  V30 13794 H 1303.51 4.83461 -0.923377 0
M  V30 13795 N 1305.16 0.53415 1.48272 0
M  V30 13796 C 1306.11 -0.239672 2.31362 0
M  V30 13797 C 1307.1 -0.931501 1.4149 0
M  V30 13798 O 1308.31 -0.855411 1.58375 0
M  V30 13799 H 1304.69 -0.09616 0.745827 0
M  V30 13800 H 1306.66 0.480638 2.94504 0
M  V30 13801 C 1305.41 -1.27102 3.23636 0
M  V30 13802 H 1304.73 -0.748082 3.92739 0
M  V30 13803 H 1306.17 -1.78379 3.84652 0
M  V30 13804 C 1304.63 -2.30683 2.45534 0
M  V30 13805 O 1305.16 -3.37197 2.18314 0
M  V30 13806 N 1303.36 -2.04006 2.06954 0
M  V30 13807 H 1302.91 -1.17403 2.29291 0
M  V30 13808 H 1302.87 -2.73531 1.5501 0
M  V30 13809 N 1306.64 -1.55279 0.269478 0
M  V30 13810 C 1307.89 -1.98649 -0.349522 0
M  V30 13811 C 1308.2 -1.16125 -1.57399 0
M  V30 13812 O 1309.41 -1.49612 -2.26558 0
M  V30 13813 C 1307.86 -3.53547 -0.673224 0
M  V30 13814 C 1307.47 -4.44841 0.531119 0
M  V30 13815 C 1309.22 -4.05519 -1.25516 0
M  V30 13816 C 1307.12 -5.91119 0.182317 0
M  V30 13817 H 1306.05 -0.74193 -0.13437 0
M  V30 13818 H 1308.7 -1.79664 0.373246 0
M  V30 13819 H 1307.09 -3.68311 -1.45474 0
M  V30 13820 H 1308.26 -4.41843 1.3081 0
M  V30 13821 H 1306.58 -4.03472 1.02952 0
M  V30 13822 H 1309.17 -5.12347 -1.52984 0
M  V30 13823 H 1309.52 -3.54215 -2.18718 0
M  V30 13824 H 1310.05 -3.94172 -0.536059 0
M  V30 13825 H 1306.79 -6.46507 1.08206 0
M  V30 13826 H 1306.31 -5.97199 -0.558008 0
M  V30 13827 H 1307.99 -6.466 -0.227484 0
M  V30 13828 N 1308.12 0.00332656 -1.576 0
M  V30 13829 C 1309.07 1.00425 -2.04692 0
M  V30 13830 C 1310.05 1.30514 -0.941011 0
M  V30 13831 O 1311.24 1.29667 -1.2048 0
M  V30 13832 C 1308.37 2.29731 -2.55105 0
M  V30 13833 C 1307.46 2.02621 -3.72566 0
M  V30 13834 N 1307.85 1.45657 -4.84373 0
M  V30 13835 C 1306.15 2.3278 -3.80433 0
M  V30 13836 C 1306.85 1.34942 -5.65832 0
M  V30 13837 N 1305.83 1.83389 -5.11732 0
M  V30 13838 H 1309.63 0.558262 -2.88549 0
M  V30 13839 H 1307.14 0.209094 -1.61048 0
M  V30 13840 H 1309.14 3.02274 -2.87116 0
M  V30 13841 H 1307.8 2.74985 -1.72665 0
M  V30 13842 H 1308.81 1.13582 -5.05291 0
M  V30 13843 H 1305.49 2.80932 -3.08842 0
M  V30 13844 H 1306.88 0.911707 -6.65686 0
M  V30 13845 N 1309.6 1.55164 0.276031 0
M  V30 13846 C 1310.53 1.90844 1.34539 0
M  V30 13847 C 1311.51 0.769968 1.51676 0
M  V30 13848 O 1312.69 1.02785 1.64769 0
M  V30 13849 C 1309.82 2.17769 2.70543 0
M  V30 13850 C 1308.78 3.33592 2.68142 0
M  V30 13851 C 1308.1 3.45991 4.07669 0
M  V30 13852 C 1309.4 4.70064 2.27678 0
M  V30 13853 H 1311.1 2.80412 1.04926 0
M  V30 13854 H 1308.64 1.34918 0.503303 0
M  V30 13855 H 1310.6 2.41317 3.45462 0
M  V30 13856 H 1309.32 1.24997 3.01734 0
M  V30 13857 H 1307.98 3.10007 1.95681 0
M  V30 13858 H 1307.63 2.50691 4.36077 0
M  V30 13859 H 1307.33 4.23862 4.06958 0
M  V30 13860 H 1308.85 3.71828 4.84331 0
M  V30 13861 H 1310.26 4.93176 2.92319 0
M  V30 13862 H 1308.66 5.50829 2.38134 0
M  V30 13863 H 1309.73 4.69091 1.22808 0
M  V30 13864 N 1311.07 -0.540404 1.48045 0
M  V30 13865 C 1312.02 -1.64191 1.58194 0
M  V30 13866 C 1313.01 -1.54775 0.439703 0
M  V30 13867 O 1314.2 -1.62973 0.690572 0
M  V30 13868 C 1311.33 -3.02937 1.61505 0
M  V30 13869 C 1310.42 -3.17495 2.81172 0
M  V30 13870 N 1310.81 -3.02061 4.05701 0
M  V30 13871 C 1309.1 -3.4853 2.78286 0
M  V30 13872 C 1309.81 -3.19757 4.85932 0
M  V30 13873 N 1308.78 -3.46859 4.18557 0
M  V30 13874 H 1312.58 -1.50852 2.52232 0
M  V30 13875 H 1310.1 -0.745602 1.44272 0
M  V30 13876 H 1312.09 -3.82048 1.66868 0
M  V30 13877 H 1310.75 -3.17376 0.685753 0
M  V30 13878 H 1311.77 -2.79038 4.363 0
M  V30 13879 H 1308.44 -3.69391 1.94567 0
M  V30 13880 H 1309.83 -3.1265 5.94727 0
M  V30 13881 N 1312.55 -1.36459 -0.788468 0
M  V30 13882 C 1313.78 -1.34063 -1.58246 0
M  V30 13883 C 1314.2 0.0754933 -1.87948 0
M  V30 13884 O 1313.56 1.04772 -1.47961 0
M  V30 13885 C 1313.61 -2.17038 -2.8797 0
M  V30 13886 O 1312.71 -1.56353 -3.81612 0
M  V30 13887 H 1312.05 -0.458816 -0.479983 0
M  V30 13888 H 1314.58 -1.79755 -0.977207 0
M  V30 13889 H 1314.59 -2.29651 -3.3723 0
M  V30 13890 H 1313.27 -3.19981 -2.65678 0
M  V30 13891 H 1311.85 -1.52685 -3.40208 0
M  V30 13892 N 1314.03 1.01274 -1.20754 0
M  V30 13893 C 1314.94 2.1335 -0.975656 0
M  V30 13894 C 1315.96 1.7386 0.0697364 0
M  V30 13895 O 1317.13 2.01051 -0.118578 0
M  V30 13896 C 1314.2 3.42548 -0.534931 0
M  V30 13897 C 1313.26 3.96257 -1.65163 0
M  V30 13898 C 1312.49 5.19289 -1.23184 0
M  V30 13899 O 1312.71 5.70309 -0.102158 0
M  V30 13900 O 1311.65 5.66248 -2.04076 0
M  V30 13901 H 1315.47 2.35783 -1.91415 0
M  V30 13902 H 1313.06 1.11736 -0.991743 0
M  V30 13903 H 1314.94 4.20341 -0.298568 0
M  V30 13904 H 1313.62 3.21521 0.374937 0
M  V30 13905 H 1312.52 3.19726 -1.94232 0
M  V30 13906 H 1313.86 4.2168 -2.53864 0
M  V30 13907 N 1315.51 1.01404 1.20644 0
M  V30 13908 C 1316.47 0.586941 2.21557 0
M  V30 13909 C 1317.47 -0.341543 1.57131 0
M  V30 13910 O 1318.66 -0.130585 1.7371 0
M  V30 13911 C 1315.79 -0.143248 3.40599 0
M  V30 13912 H 1316.99 1.47964 2.60858 0
M  V30 13913 H 1314.54 0.803551 1.34063 0
M  V30 13914 H 1315.28 -1.05097 3.06798 0
M  V30 13915 H 1315.06 0.523716 3.88587 0
M  V30 13916 H 1316.55 -0.429504 4.15385 0
M  V30 13917 N 1316.99 -1.36373 0.789944 0
M  V30 13918 C 1318.23 -1.99523 0.363119 0
M  V30 13919 C 1318.57 -1.6255 -1.0626 0
M  V30 13920 O 1317.84 -0.880551 -1.73426 0
M  V30 13921 C 1318.12 -3.56215 0.527526 0
M  V30 13922 C 1317.98 -4.0304 1.99697 0
M  V30 13923 C 1319.3 -4.40063 -0.0571079 0
M  V30 13924 H 1316.42 -0.724824 0.133412 0
M  V30 13925 H 1319.06 -1.61778 0.996381 0
M  V30 13926 H 1317.21 -3.88498 -0.0115636 0
M  V30 13927 H 1318.88 -3.81241 2.59717 0
M  V30 13928 H 1317.12 -3.54561 2.49939 0
M  V30 13929 H 1317.79 -5.12001 2.06297 0
M  V30 13930 H 1320.27 -4.14143 0.403082 0
M  V30 13931 H 1319.15 -5.4883 0.0879494 0
M  V30 13932 H 1319.41 -4.26901 -1.14926 0
M  V30 13933 N 1318.47 -0.542005 -1.47987 0
M  V30 13934 C 1319.4 0.202703 -2.32618 0
M  V30 13935 C 1320.38 0.923521 -1.42846 0
M  V30 13936 O 1321.56 0.906957 -1.7172 0
M  V30 13937 C 1318.69 1.24267 -3.24307 0
M  V30 13938 C 1317.65 0.639257 -4.23199 0
M  V30 13939 C 1316.97 1.78275 -5.04105 0
M  V30 13940 C 1318.27 -0.396982 -5.20789 0
M  V30 13941 H 1319.97 -0.503817 -2.95131 0
M  V30 13942 H 1317.51 -0.243736 -1.41922 0
M  V30 13943 H 1319.46 1.7717 -3.82347 0
M  V30 13944 H 1318.19 1.97893 -2.59819 0
M  V30 13945 H 1316.85 0.131655 -3.66364 0
M  V30 13946 H 1316.5 2.50768 -4.36032 0
M  V30 13947 H 1316.2 1.38487 -5.71047 0
M  V30 13948 H 1317.72 2.31533 -5.65 0
M  V30 13949 H 1319.13 0.0454057 -5.73282 0
M  V30 13950 H 1317.53 -0.712911 -5.9585 0
M  V30 13951 H 1318.6 -1.29843 -4.67193 0
M  V30 13952 N 1319.94 1.55134 -0.277709 0
M  V30 13953 C 1321.18 2.01561 0.339489 0
M  V30 13954 C 1321.55 1.16185 1.52856 0
M  V30 13955 O 1322.75 1.52204 2.21556 0
M  V30 13956 C 1321.02 3.50285 0.709567 0
M  V30 13957 S 1322.58 4.18697 1.31293 0
M  V30 13958 H 1319.4 0.703137 0.105452 0
M  V30 13959 H 1322 1.91361 -0.400148 0
M  V30 13960 H 1320.7 4.10069 -0.164675 0
M  V30 13961 H 1320.23 3.64475 1.4806 0
M  V30 13962 H 1322.25 4.22539 2.60145 0
M  V30 13963 N 1321.42 0.00503138 1.57599 0
M  V30 13964 C 1322.65 -0.689609 1.95069 0
M  V30 13965 C 1323.06 -1.67028 0.880183 0
M  V30 13966 O 1322.42 -1.81959 -0.140406 0
M  V30 13967 C 1322.47 -1.41709 3.32567 0
M  V30 13968 O 1322.19 -0.475746 4.35509 0
M  V30 13969 C 1323.69 -2.20578 3.84526 0
M  V30 13970 H 1320.91 -0.19175 0.643019 0
M  V30 13971 H 1323.46 0.057646 2.04419 0
M  V30 13972 H 1321.61 -2.11593 3.2451 0
M  V30 13973 H 1322.03 -0.989573 5.1508 0
M  V30 13974 H 1323.5 -2.66969 4.83148 0
M  V30 13975 H 1323.98 -3.03467 3.17497 0
M  V30 13976 H 1324.58 -1.557 3.95775 0
M  V30 13977 N 1322.9 -1.55308 -0.267798 0
M  V30 13978 C 1324.15 -1.7642 -1.00019 0
M  V30 13979 C 1324.48 -0.566559 -1.85752 0
M  V30 13980 O 1323.75 0.435752 -1.89556 0
M  V30 13981 C 1324.04 -3.07229 -1.87836 0
M  V30 13982 C 1323.89 -4.37358 -1.05061 0
M  V30 13983 C 1325.21 -3.34113 -2.86455 0
M  V30 13984 H 1322.33 -0.641859 -0.362197 0
M  V30 13985 H 1324.97 -1.8804 -0.272188 0
M  V30 13986 H 1323.12 -2.97454 -2.49907 0
M  V30 13987 H 1324.79 -4.59098 -0.450208 0
M  V30 13988 H 1323.03 -4.32351 -0.354242 0
M  V30 13989 H 1323.71 -5.25223 -1.69838 0
M  V30 13990 H 1326.18 -3.43715 -2.34519 0
M  V30 13991 H 1325.06 -4.26896 -3.45038 0
M  V30 13992 H 1325.32 -2.54005 -3.61848 0
M  V30 13993 N 1324.38 0.532545 -1.4833 0
M  V30 13994 C 1325.79 1.11451 -1.49785 0
M  V30 13995 C 1326.14 1.94386 -0.266207 0
M  V30 13996 O 1325.26 2.07121 0.62688 0
M  V30 13997 C 1325.86 2.0279 -2.71407 0
M  V30 13998 C 1324.42 2.56209 -2.75742 0
M  V30 13999 C 1323.57 1.33114 -2.43261 0
M  V30 14000 H 1326.52 0.317924 -1.55483 0
M  V30 14001 H 1326.54 2.87038 -2.49779 0
M  V30 14002 H 1326.05 1.42401 -3.61031 0
M  V30 14003 H 1324.15 3.20327 -1.9032 0
M  V30 14004 H 1324.26 2.95518 -3.77102 0
M  V30 14005 H 1322.63 1.64607 -1.94362 0
M  V30 14006 H 1323.41 0.744809 -3.35123 0
M  V30 14007 N 1325.86 1.36875 0.78122 0
M  V30 14008 C 1326.8 1.31941 1.91557 0
M  V30 14009 C 1327.8 0.209783 1.68096 0
M  V30 14010 O 1329 0.377266 1.76002 0
M  V30 14011 H 1325.38 0.410955 0.629778 0
M  V30 14012 H 1327.35 2.27721 1.92836 0
M  V30 14013 C 1326.1 1.13379 3.28695 0
M  V30 14014 H 1325.42 1.98013 3.47319 0
M  V30 14015 H 1326.86 1.13976 4.08394 0
M  V30 14016 C 1325.32 -0.161119 3.36515 0
M  V30 14017 O 1325.85 -1.14806 3.84945 0
M  V30 14018 N 1324.06 -0.208594 2.8985 0
M  V30 14019 H 1323.6 0.595187 2.5063 0
M  V30 14020 H 1323.56 -1.07465 2.95463 0
M  V30 14021 N 1327.33 -1.00632 1.21289 0
M  V30 14022 C 1328.61 -1.71635 0.938124 0
M  V30 14023 C 1328.99 -2.03798 -0.550416 0
M  V30 14024 O 1328.34 -1.71065 -1.5149 0
M  V30 14025 C 1328.55 -2.97674 1.82184 0
M  V30 14026 C 1329.9 -3.7073 2.06989 0
M  V30 14027 O 1330.92 -3.07653 1.79522 0
M  V30 14028 O 1329.78 -4.84183 2.53435 0
M  V30 14029 H 1326.87 -0.748506 0.351664 0
M  V30 14030 H 1329.42 -1.06387 1.32212 0
M  V30 14031 H 1328.19 -2.70306 2.82931 0
M  V30 14032 H 1327.81 -3.70663 1.43858 0
M  V30 14033 N 1328.81 -1.02043 -1.20104 0
M  V30 14034 C 1329.74 -0.614421 -2.25271 0
M  V30 14035 C 1330.72 0.37242 -1.65973 0
M  V30 14036 O 1331.91 0.257005 -1.92492 0
M  V30 14037 C 1329.04 0.0442085 -3.47272 0
M  V30 14038 C 1327.99 -0.864019 -4.19188 0
M  V30 14039 C 1327.32 -0.0709551 -5.34653 0
M  V30 14040 C 1328.62 -2.17385 -4.74912 0
M  V30 14041 H 1330.31 -1.49355 -2.59487 0
M  V30 14042 H 1327.86 -0.719591 -1.24731 0
M  V30 14043 H 1329.81 0.339825 -4.20028 0
M  V30 14044 H 1328.53 0.958082 -3.12231 0
M  V30 14045 H 1327.19 -1.1437 -3.48303 0
M  V30 14046 H 1326.84 0.844688 -4.95857 0
M  V30 14047 H 1326.54 -0.67583 -5.83701 0
M  V30 14048 H 1328.07 0.218118 -6.1021 0
M  V30 14049 H 1329.48 -1.94034 -5.39466 0
M  V30 14050 H 1327.88 -2.72991 -5.34412 0
M  V30 14051 H 1328.95 -2.83427 -3.93443 0
M  V30 14052 N 1330.29 1.35952 -0.797165 0
M  V30 14053 C 1331.22 2.32506 -0.215277 0
M  V30 14054 C 1332.2 1.57023 0.654046 0
M  V30 14055 O 1333.39 1.85139 0.586268 0
M  V30 14056 C 1330.52 3.41266 0.644557 0
M  V30 14057 C 1329.47 4.27816 -0.125501 0
M  V30 14058 C 1328.8 5.27813 0.855428 0
M  V30 14059 C 1330.1 5.05367 -1.31913 0
M  V30 14060 H 1331.79 2.8142 -1.02193 0
M  V30 14061 H 1329.34 1.35303 -0.492862 0
M  V30 14062 H 1331.29 4.07808 1.06163 0
M  V30 14063 H 1330.01 2.90938 1.484 0
M  V30 14064 H 1328.67 3.62841 -0.523639 0
M  V30 14065 H 1328.32 4.73755 1.69011 0
M  V30 14066 H 1328.02 5.86589 0.344566 0
M  V30 14067 H 1329.54 5.97227 1.2709 0
M  V30 14068 H 1330.96 5.64907 -0.977418 0
M  V30 14069 H 1329.36 5.73593 -1.76382 0
M  V30 14070 H 1330.43 4.36558 -2.11057 0
M  V30 14071 N 1331.77 0.549846 1.47697 0
M  V30 14072 C 1332.72 -0.201961 2.29915 0
M  V30 14073 C 1333.69 -0.915287 1.38606 0
M  V30 14074 O 1334.87 -0.912427 1.67569 0
M  V30 14075 C 1332.01 -1.2306 3.22413 0
M  V30 14076 C 1331.12 -0.524091 4.28809 0
M  V30 14077 C 1330.26 -1.53738 5.08466 0
M  V30 14078 C 1329.3 -0.815437 6.06644 0
M  V30 14079 N 1328.43 -1.77521 6.79287 0
M  V30 14080 H 1333.27 0.505289 2.93685 0
M  V30 14081 H 1330.81 0.261012 1.44766 0
M  V30 14082 H 1332.77 -1.83949 3.74458 0
M  V30 14083 H 1331.4 -1.90597 2.60523 0
M  V30 14084 H 1330.45 0.199174 3.79878 0
M  V30 14085 H 1331.76 0.0418145 4.98782 0
M  V30 14086 H 1330.92 -2.22001 5.64624 0
M  V30 14087 H 1329.66 -2.1372 4.38378 0
M  V30 14088 H 1328.66 -0.11884 5.49672 0
M  V30 14089 H 1329.89 -0.221462 6.78739 0
M  V30 14090 H 1327.83 -2.36374 6.11934 0
M  V30 14091 H 1327.75 -1.26126 7.45405 0
M  V30 14092 H 1329.02 -2.44921 7.40023 0
M  V30 14093 N 1333.25 -1.54984 0.285932 0
M  V30 14094 C 1334.18 -2.25916 -0.590259 0
M  V30 14095 C 1335.16 -1.25319 -1.15018 0
M  V30 14096 O 1336.34 -1.54062 -1.18231 0
M  V30 14097 C 1333.47 -2.98849 -1.76936 0
M  V30 14098 C 1332.43 -4.06466 -1.3405 0
M  V30 14099 C 1331.75 -4.67032 -2.60356 0
M  V30 14100 C 1333.05 -5.20064 -0.482754 0
M  V30 14101 H 1334.75 -2.994 0.00131571 0
M  V30 14102 H 1332.29 -1.44 0.00207281 0
M  V30 14103 H 1334.25 -3.47186 -2.3883 0
M  V30 14104 H 1332.97 -2.22918 -2.38694 0
M  V30 14105 H 1331.63 -3.58957 -0.7447 0
M  V30 14106 H 1331.28 -3.87757 -3.20396 0
M  V30 14107 H 1330.98 -5.39703 -2.32368 0
M  V30 14108 H 1332.5 -5.18124 -3.23079 0
M  V30 14109 H 1333.91 -5.64387 -1.00697 0
M  V30 14110 H 1332.31 -5.99363 -0.297291 0
M  V30 14111 H 1333.38 -4.82358 0.495861 0
M  V30 14112 N 1334.72 -0.0133892 -1.57594 0
M  V30 14113 C 1335.67 0.991796 -2.10395 0
M  V30 14114 C 1336.67 1.34724 -1.02693 0
M  V30 14115 O 1337.87 1.33131 -1.21145 0
M  V30 14116 H 1334.25 0.337553 -0.671984 0
M  V30 14117 H 1336.22 0.52102 -2.93816 0
M  V30 14118 C 1334.97 2.27039 -2.63341 0
M  V30 14119 H 1334.29 2.00559 -3.45855 0
M  V30 14120 H 1335.73 2.95619 -3.0395 0
M  V30 14121 C 1334.19 2.98939 -1.55362 0
M  V30 14122 O 1334.72 3.90444 -0.944282 0
M  V30 14123 N 1332.93 2.60997 -1.27784 0
M  V30 14124 H 1332.47 1.86666 -1.77521 0
M  V30 14125 H 1332.43 3.09416 -0.557585 0
M  V30 14126 N 1336.2 1.55448 0.259558 0
M  V30 14127 C 1337.43 1.81063 1.01148 0
M  V30 14128 C 1337.85 0.58875 1.78649 0
M  V30 14129 O 1337.21 -0.461971 1.75315 0
M  V30 14130 C 1337.26 3.04279 1.93512 0
M  V30 14131 O 1336.36 2.80307 3.02493 0
M  V30 14132 H 1335.7 0.598056 0.288487 0
M  V30 14133 H 1338.23 2.02614 0.284387 0
M  V30 14134 H 1338.24 3.33373 2.35215 0
M  V30 14135 H 1336.92 3.92856 1.36518 0
M  V30 14136 H 1335.5 2.62345 2.65008 0
M  V30 14137 N 1337.68 -0.524672 1.4861 0
M  V30 14138 C 1338.59 -1.65554 1.6622 0
M  V30 14139 C 1339.61 -1.65254 0.54471 0
M  V30 14140 O 1340.78 -1.84109 0.816454 0
M  V30 14141 C 1337.85 -3.02003 1.7028 0
M  V30 14142 C 1336.91 -3.13116 2.93695 0
M  V30 14143 C 1336.14 -4.43055 2.97553 0
M  V30 14144 O 1336.36 -5.30468 2.09667 0
M  V30 14145 O 1335.3 -4.58646 3.89779 0
M  V30 14146 H 1339.12 -1.53633 2.61974 0
M  V30 14147 H 1336.71 -0.698354 1.32073 0
M  V30 14148 H 1338.59 -3.83143 1.75441 0
M  V30 14149 H 1337.27 -3.14236 0.777002 0
M  V30 14150 H 1336.17 -2.31251 2.94064 0
M  V30 14151 H 1337.51 -3.058 3.85677 0
M  V30 14152 N 1339.16 -1.37287 -0.77395 0
M  V30 14153 C 1340.09 -1.35569 -1.90114 0
M  V30 14154 C 1341.07 -0.224658 -1.6861 0
M  V30 14155 O 1342.25 -0.424676 -1.895 0
M  V30 14156 C 1339.38 -1.15971 -3.27365 0
M  V30 14157 C 1338.34 -2.26063 -3.63427 0
M  V30 14158 C 1337.66 -1.9159 -4.99197 0
M  V30 14159 C 1338.96 -3.68236 -3.70405 0
M  V30 14160 H 1340.66 -2.29891 -1.91808 0
M  V30 14161 H 1338.2 -1.10661 -0.92142 0
M  V30 14162 H 1340.16 -1.134 -4.05855 0
M  V30 14163 H 1338.88 -0.181043 -3.26098 0
M  V30 14164 H 1337.54 -2.27786 -2.87244 0
M  V30 14165 H 1337.19 -0.922586 -4.94467 0
M  V30 14166 H 1336.89 -2.65309 -5.24294 0
M  V30 14167 H 1338.41 -1.90602 -5.80089 0
M  V30 14168 H 1339.83 -3.68655 -4.39052 0
M  V30 14169 H 1338.22 -4.4099 -4.06999 0
M  V30 14170 H 1339.29 -4.02021 -2.71122 0
M  V30 14171 N 1340.64 0.999871 -1.21821 0
M  V30 14172 C 1341.58 2.10985 -0.979183 0
M  V30 14173 C 1342.58 1.69232 0.0753287 0
M  V30 14174 O 1343.78 1.79837 -0.0765083 0
M  V30 14175 H 1340.16 0.689819 -0.299421 0
M  V30 14176 H 1342.13 2.28322 -1.92124 0
M  V30 14177 C 1340.88 3.43062 -0.56602 0
M  V30 14178 H 1340.2 3.75627 -1.36909 0
M  V30 14179 H 1341.64 4.2173 -0.43813 0
M  V30 14180 C 1340.1 3.29036 0.723647 0
M  V30 14181 O 1340.63 3.60214 1.77788 0
M  V30 14182 N 1338.84 2.82237 0.692126 0
M  V30 14183 H 1338.38 2.57064 -0.166082 0
M  V30 14184 H 1338.34 2.73235 1.55532 0
M  V30 14185 N 1342.11 1.02678 1.19562 0
M  V30 14186 C 1343.36 0.717279 1.88515 0
M  V30 14187 C 1343.68 -0.757063 1.80355 0
M  V30 14188 O 1344.88 -1.17953 2.44539 0
M  V30 14189 C 1343.34 1.23265 3.38133 0
M  V30 14190 C 1342.95 2.73462 3.54856 0
M  V30 14191 C 1344.69 0.99904 4.12577 0
M  V30 14192 C 1342.6 3.18428 4.98355 0
M  V30 14193 H 1341.53 0.264608 0.706044 0
M  V30 14194 H 1344.18 1.2408 1.3519 0
M  V30 14195 H 1342.56 0.637052 3.90842 0
M  V30 14196 H 1343.73 3.38659 3.12485 0
M  V30 14197 H 1342.05 2.95079 2.93798 0
M  V30 14198 H 1344.65 1.3103 5.18397 0
M  V30 14199 H 1344.99 -0.064217 4.1625 0
M  V30 14200 H 1345.52 1.55853 3.65998 0
M  V30 14201 H 1342.26 4.24074 4.99842 0
M  V30 14202 H 1341.78 2.57958 5.41496 0
M  V30 14203 H 1343.46 3.11649 5.66996 0
M  V30 14204 N 1343.59 -1.35528 0.804364 0
M  V30 14205 C 1344.5 -2.33616 0.214663 0
M  V30 14206 C 1345.52 -1.61757 -0.64115 0
M  V30 14207 O 1346.69 -1.93647 -0.553424 0
M  V30 14208 C 1343.76 -3.40951 -0.628778 0
M  V30 14209 C 1342.82 -4.28587 0.247269 0
M  V30 14210 C 1342.05 -5.30796 -0.556012 0
M  V30 14211 O 1342.28 -5.41557 -1.79088 0
M  V30 14212 O 1341.21 -6.01878 0.0519437 0
M  V30 14213 H 1345.04 -2.85843 1.02605 0
M  V30 14214 H 1342.62 -1.38259 0.566108 0
M  V30 14215 H 1344.5 -4.06538 -1.10926 0
M  V30 14216 H 1343.18 -2.90999 -1.4178 0
M  V30 14217 H 1342.09 -3.65988 0.774835 0
M  V30 14218 H 1343.42 -4.81931 1.00017 0
M  V30 14219 N 1345.07 -0.557671 -1.47404 0
M  V30 14220 C 1346.32 -0.0420731 -2.03356 0
M  V30 14221 C 1346.67 1.29351 -1.42429 0
M  V30 14222 O 1345.97 1.82901 -0.570759 0
M  V30 14223 C 1346.16 0.108324 -3.57236 0
M  V30 14224 C 1345.99 -1.21113 -4.33084 0
M  V30 14225 C 1344.76 -1.77856 -4.72964 0
M  V30 14226 C 1346.96 -2.12846 -4.68189 0
M  V30 14227 N 1344.94 -3.03801 -5.33458 0
M  V30 14228 C 1346.31 -3.23371 -5.2899 0
M  V30 14229 C 1348.36 -2.12835 -4.50118 0
M  V30 14230 C 1347.07 -4.33985 -5.73629 0
M  V30 14231 C 1349.09 -3.2246 -4.95755 0
M  V30 14232 C 1348.46 -4.31705 -5.56606 0
M  V30 14233 H 1344.55 -0.0575706 -0.779878 0
M  V30 14234 H 1347.14 -0.745062 -1.7988 0
M  V30 14235 H 1345.31 0.780437 -3.80478 0
M  V30 14236 H 1347.04 0.62603 -3.99829 0
M  V30 14237 H 1343.8 -1.31649 -4.54934 0
M  V30 14238 H 1344.22 -3.67998 -5.68249 0
M  V30 14239 H 1348.86 -1.29658 -4.02429 0
M  V30 14240 H 1346.58 -5.17921 -6.20309 0
M  V30 14241 H 1350.17 -3.23539 -4.83543 0
M  V30 14242 H 1349.05 -5.15133 -5.91276 0
M  V30 14243 N 1346.55 1.54831 -0.294147 0
M  V30 14244 C 1347.5 2.23263 0.58499 0
M  V30 14245 C 1348.47 1.21278 1.13494 0
M  V30 14246 O 1349.65 1.49878 1.18073 0
M  V30 14247 C 1346.79 2.97185 1.75429 0
M  V30 14248 C 1345.9 4.1393 1.23638 0
M  V30 14249 C 1345.04 4.7545 2.36899 0
M  V30 14250 C 1344.08 5.84352 1.82207 0
M  V30 14251 N 1343.22 6.39855 2.89015 0
M  V30 14252 H 1348.06 2.98 -0.00519329 0
M  V30 14253 H 1345.59 1.47093 -0.0143313 0
M  V30 14254 H 1347.55 3.38271 2.4419 0
M  V30 14255 H 1346.18 2.24837 2.3162 0
M  V30 14256 H 1345.23 3.77832 0.441247 0
M  V30 14257 H 1346.54 4.92409 0.795946 0
M  V30 14258 H 1345.7 5.19353 3.1362 0
M  V30 14259 H 1344.44 3.96288 2.84266 0
M  V30 14260 H 1343.44 5.39879 1.03974 0
M  V30 14261 H 1344.67 6.65393 1.35753 0
M  V30 14262 H 1342.61 5.6358 3.35729 0
M  V30 14263 H 1342.53 7.13661 2.49447 0
M  V30 14264 H 1343.8 6.88417 3.65654 0
M  V30 14265 N 1348.03 0.0217466 1.57585 0
M  V30 14266 C 1348.96 -0.99116 2.06661 0
M  V30 14267 C 1349.97 -1.29346 0.988604 0
M  V30 14268 O 1351.16 -1.25941 1.26496 0
M  V30 14269 C 1348.26 -2.32047 2.46997 0
M  V30 14270 C 1347.43 -2.20441 3.77789 0
M  V30 14271 C 1346.49 -3.36243 4.04755 0
M  V30 14272 O 1345.52 -3.13458 4.75114 0
M  V30 14273 N 1346.72 -4.598 3.54351 0
M  V30 14274 H 1349.49 -0.572486 2.94181 0
M  V30 14275 H 1347.05 -0.165175 1.61055 0
M  V30 14276 H 1349.04 -3.0833 2.62135 0
M  V30 14277 H 1347.61 -2.65581 1.64881 0
M  V30 14278 H 1346.83 -1.28931 3.72519 0
M  V30 14279 H 1348.12 -2.09882 4.63494 0
M  V30 14280 H 1347.52 -4.81207 2.97416 0
M  V30 14281 H 1346.07 -5.33276 3.7478 0
M  V30 14282 N 1349.51 -1.55583 -0.251311 0
M  V30 14283 C 1350.47 -1.89148 -1.29443 0
M  V30 14284 C 1351.47 -0.7676 -1.41296 0
M  V30 14285 O 1352.66 -1.03563 -1.40073 0
M  V30 14286 C 1349.79 -2.11601 -2.67279 0
M  V30 14287 H 1350.98 -2.82416 -1.00901 0
M  V30 14288 H 1348.54 -1.48407 -0.490398 0
M  V30 14289 H 1349.27 -1.20787 -3.00967 0
M  V30 14290 H 1349.06 -2.93449 -2.60058 0
M  V30 14291 H 1350.55 -2.38768 -3.42607 0
M  V30 14292 N 1350.98 0.516783 -1.48886 0
M  V30 14293 C 1352.23 1.26841 -1.56825 0
M  V30 14294 C 1352.55 1.93957 -0.252998 0
M  V30 14295 O 1353.75 2.70681 -0.210765 0
M  V30 14296 C 1352.21 2.30223 -2.76633 0
M  V30 14297 C 1351.82 1.69117 -4.14853 0
M  V30 14298 C 1353.56 3.06313 -2.93893 0
M  V30 14299 C 1351.47 2.70516 -5.25904 0
M  V30 14300 H 1350.4 0.477087 -0.58387 0
M  V30 14301 H 1353.05 0.544187 -1.75245 0
M  V30 14302 H 1351.43 3.05739 -2.51674 0
M  V30 14303 H 1352.6 0.997003 -4.49885 0
M  V30 14304 H 1350.92 1.05473 -4.0282 0
M  V30 14305 H 1353.52 3.8211 -3.74027 0
M  V30 14306 H 1353.86 3.62976 -2.03848 0
M  V30 14307 H 1354.39 2.37911 -3.18815 0
M  V30 14308 H 1351.13 2.18655 -6.17956 0
M  V30 14309 H 1350.65 3.38221 -4.95345 0
M  V30 14310 H 1352.33 3.3325 -5.54575 0
M  V30 14311 N 1352.46 1.37696 0.766659 0
M  V30 14312 C 1353.69 1.36564 1.56093 0
M  V30 14313 C 1354.11 -0.0455828 1.88045 0
M  V30 14314 O 1353.47 -1.02405 1.49609 0
M  V30 14315 C 1353.52 2.21592 2.84481 0
M  V30 14316 O 1352.62 1.62404 3.79076 0
M  V30 14317 H 1351.96 0.466394 0.472623 0
M  V30 14318 H 1354.49 1.81287 0.948486 0
M  V30 14319 H 1354.5 2.34987 3.33534 0
M  V30 14320 H 1353.18 3.24167 2.60554 0
M  V30 14321 H 1351.75 1.58078 3.37736 0
M  V30 14322 N 1353.94 -0.993397 1.22349 0
M  V30 14323 C 1355.16 -1.77373 1.07488 0
M  V30 14324 C 1355.59 -1.84418 -0.37034 0
M  V30 14325 O 1354.95 -1.29629 -1.26752 0
M  V30 14326 C 1355 -3.18538 1.69014 0
M  V30 14327 O 1354.1 -4.01463 0.943474 0
M  V30 14328 H 1353.44 -0.546209 0.37756 0
M  V30 14329 H 1355.97 -1.24792 1.62136 0
M  V30 14330 H 1355.98 -3.6917 1.73717 0
M  V30 14331 H 1354.66 -3.12725 2.74182 0
M  V30 14332 H 1353.23 -3.59998 0.972415 0
M  V30 14333 N 1355.42 -1.03311 -1.19015 0
M  V30 14334 C 1356.65 -0.751802 -1.92758 0
M  V30 14335 C 1357.06 0.689982 -1.7574 0
M  V30 14336 O 1356.42 1.46961 -1.08207 0
M  V30 14337 C 1356.47 -1.09892 -3.44392 0
M  V30 14338 O 1356.19 -2.48409 -3.60866 0
M  V30 14339 C 1357.69 -0.841029 -4.35249 0
M  V30 14340 H 1354.91 -0.274757 -0.612168 0
M  V30 14341 H 1357.45 -1.37873 -1.51034 0
M  V30 14342 H 1355.61 -0.517092 -3.83933 0
M  V30 14343 H 1356.02 -2.61468 -4.54681 0
M  V30 14344 H 1357.5 -1.13383 -5.4023 0
M  V30 14345 H 1357.97 0.224434 -4.38626 0
M  V30 14346 H 1358.58 -1.40579 -4.01395 0
M  V30 14347 N 1356.9 1.35099 -0.81154 0
M  V30 14348 C 1358.14 1.9892 -0.394815 0
M  V30 14349 C 1358.47 1.6422 1.0366 0
M  V30 14350 O 1357.75 0.908031 1.72003 0
M  V30 14351 C 1358.03 3.55331 -0.58413 0
M  V30 14352 C 1357.89 3.99812 -2.06084 0
M  V30 14353 C 1359.2 4.40098 -0.0129096 0
M  V30 14354 H 1356.32 0.72261 -0.144926 0
M  V30 14355 H 1358.97 1.60173 -1.02199 0
M  V30 14356 H 1357.12 3.88468 -0.0502446 0
M  V30 14357 H 1358.79 3.77061 -2.65749 0
M  V30 14358 H 1357.03 3.50539 -2.55548 0
M  V30 14359 H 1357.7 5.08655 -2.14416 0
M  V30 14360 H 1360.18 4.13449 -0.468917 0
M  V30 14361 H 1359.05 5.4862 -0.175252 0
M  V30 14362 H 1359.31 4.28675 1.0812 0
M  V30 14363 N 1358.37 0.56548 1.47106 0
M  V30 14364 C 1359.3 -0.16567 2.32912 0
M  V30 14365 C 1360.28 -0.900678 1.44298 0
M  V30 14366 O 1361.47 -0.879523 1.73142 0
M  V30 14367 C 1358.6 -1.19092 3.26243 0
M  V30 14368 C 1357.55 -0.571849 4.24163 0
M  V30 14369 C 1356.88 -1.70233 5.06878 0
M  V30 14370 C 1358.18 0.479785 5.20092 0
M  V30 14371 H 1359.87 0.550705 2.94292 0
M  V30 14372 H 1357.42 0.266284 1.41517 0
M  V30 14373 H 1359.37 -1.71064 3.85117 0
M  V30 14374 H 1358.1 -1.93734 2.62934 0
M  V30 14375 H 1356.76 -0.073353 3.66527 0
M  V30 14376 H 1356.4 -2.438 4.39967 0
M  V30 14377 H 1356.1 -1.29384 5.73178 0
M  V30 14378 H 1357.63 -2.22515 5.68612 0
M  V30 14379 H 1359.04 0.0458042 5.73282 0
M  V30 14380 H 1357.44 0.807615 5.94641 0
M  V30 14381 H 1358.51 1.37259 4.65068 0
M  V30 14382 N 1359.85 -1.54672 0.302354 0
M  V30 14383 C 1361.1 -1.99771 -0.305919 0
M  V30 14384 C 1361.42 -1.19225 -1.54306 0
M  V30 14385 O 1360.69 -0.288569 -1.93763 0
M  V30 14386 H 1359.27 -0.737934 -0.116026 0
M  V30 14387 H 1361.93 -1.90452 0.413997 0
M  V30 14388 H 1361.03 -3.06719 -0.577024 0
M  V30 14389 N 1361.33 -0.0301034 -1.57571 0
M  V30 14390 C 1362.28 0.951421 -2.10277 0
M  V30 14391 C 1363.25 1.3224 -1.00508 0
M  V30 14392 O 1364.43 1.41554 -1.27934 0
M  V30 14393 C 1361.57 2.2282 -2.63525 0
M  V30 14394 C 1360.69 1.91359 -3.87306 0
M  V30 14395 C 1359.82 3.13339 -4.28943 0
M  V30 14396 C 1358.86 2.77701 -5.4548 0
M  V30 14397 N 1358 3.9231 -5.82269 0
M  V30 14398 H 1362.84 0.495049 -2.93859 0
M  V30 14399 H 1360.37 0.232756 -1.45247 0
M  V30 14400 H 1362.33 2.97502 -2.92487 0
M  V30 14401 H 1360.96 2.66072 -1.82772 0
M  V30 14402 H 1360.01 1.06915 -3.65066 0
M  V30 14403 H 1361.33 1.61112 -4.72064 0
M  V30 14404 H 1360.48 3.9634 -4.59347 0
M  V30 14405 H 1359.22 3.46747 -3.42954 0
M  V30 14406 H 1358.22 1.93113 -5.14769 0
M  V30 14407 H 1359.45 2.45508 -6.33169 0
M  V30 14408 H 1357.39 4.25559 -4.99235 0
M  V30 14409 H 1357.31 3.65691 -6.61669 0
M  V30 14410 H 1358.58 4.76012 -6.17279 0
M  V30 14411 N 1362.81 1.55714 0.243056 0
M  V30 14412 C 1364.05 1.77989 0.971993 0
M  V30 14413 C 1364.39 0.596038 1.84827 0
M  V30 14414 O 1363.66 -0.40554 1.90225 0
M  V30 14415 C 1363.95 3.10178 1.82925 0
M  V30 14416 C 1363.8 4.38974 0.9809 0
M  V30 14417 C 1365.12 3.38628 2.81103 0
M  V30 14418 H 1362.24 0.64754 0.35194 0
M  V30 14419 H 1364.88 1.88449 0.242237 0
M  V30 14420 H 1363.03 3.01392 2.45143 0
M  V30 14421 H 1364.7 4.59756 0.377113 0
M  V30 14422 H 1362.94 4.3286 0.285414 0
M  V30 14423 H 1363.61 5.27858 1.61461 0
M  V30 14424 H 1366.09 3.47403 2.29021 0
M  V30 14425 H 1364.97 4.32331 3.38203 0
M  V30 14426 H 1365.23 2.5973 3.57761 0
M  V30 14427 N 1364.29 -0.50888 1.49158 0
M  V30 14428 C 1365.54 -1.26008 1.57496 0
M  V30 14429 C 1365.85 -1.9382 0.263281 0
M  V30 14430 O 1367.05 -2.70565 0.225117 0
M  V30 14431 C 1365.51 -2.28752 2.7785 0
M  V30 14432 C 1365.12 -1.66915 4.15744 0
M  V30 14433 C 1366.86 -3.0475 2.95513 0
M  V30 14434 C 1364.77 -2.67724 5.27331 0
M  V30 14435 H 1363.7 -0.473984 0.586392 0
M  V30 14436 H 1366.35 -0.534886 1.75531 0
M  V30 14437 H 1364.73 -3.044 2.53292 0
M  V30 14438 H 1365.91 -0.973131 4.50407 0
M  V30 14439 H 1364.22 -1.03336 4.03374 0
M  V30 14440 H 1366.82 -3.80121 3.76048 0
M  V30 14441 H 1367.16 -3.6189 2.05771 0
M  V30 14442 H 1367.69 -2.36217 3.20072 0
M  V30 14443 H 1364.43 -2.15375 6.19107 0
M  V30 14444 H 1363.95 -3.35589 4.97132 0
M  V30 14445 H 1365.63 -3.30304 5.56335 0
M  V30 14446 N 1365.76 -1.381 -0.759346 0
M  V30 14447 C 1367.01 -1.3419 -1.52055 0
M  V30 14448 C 1367.34 0.0697657 -1.94075 0
M  V30 14449 O 1366.62 1.02975 -1.65004 0
M  V30 14450 C 1366.9 -2.29236 -2.7771 0
M  V30 14451 C 1366.75 -3.79237 -2.41866 0
M  V30 14452 C 1368.07 -2.22511 -3.79706 0
M  V30 14453 H 1365.19 -0.488768 -0.551611 0
M  V30 14454 H 1367.83 -1.68902 -0.870174 0
M  V30 14455 H 1365.98 -1.99764 -3.33206 0
M  V30 14456 H 1367.66 -4.19358 -1.92189 0
M  V30 14457 H 1365.9 -3.97199 -1.74399 0
M  V30 14458 H 1366.57 -4.41193 -3.31742 0
M  V30 14459 H 1369.05 -2.48516 -3.33735 0
M  V30 14460 H 1367.92 -2.91134 -4.6533 0
M  V30 14461 H 1368.18 -1.22206 -4.24874 0
M  V30 14462 N 1367.24 0.986894 -1.22875 0
M  V30 14463 C 1368.17 2.08035 -0.961971 0
M  V30 14464 C 1369.19 1.62683 0.0616475 0
M  V30 14465 O 1370.38 1.77659 -0.173094 0
M  V30 14466 C 1367.48 3.36208 -0.426302 0
M  V30 14467 C 1366.65 4.10562 -1.50856 0
M  V30 14468 C 1365.71 5.17014 -0.97891 0
M  V30 14469 O 1364.73 5.44259 -1.66645 0
M  V30 14470 N 1365.94 5.80167 0.196613 0
M  V30 14471 H 1368.7 2.315 -1.90336 0
M  V30 14472 H 1366.26 1.1531 -1.13645 0
M  V30 14473 H 1368.25 4.0466 -0.0571577 0
M  V30 14474 H 1366.82 3.09761 0.420345 0
M  V30 14475 H 1366.04 3.36656 -2.05076 0
M  V30 14476 H 1367.33 4.57007 -2.23655 0
M  V30 14477 H 1366.73 5.60409 0.771892 0
M  V30 14478 H 1365.29 6.49825 0.507083 0
M  V30 14479 N 1368.72 1.0394 1.18466 0
M  V30 14480 C 1370.13 0.77011 1.70077 0
M  V30 14481 C 1370.48 -0.70916 1.82935 0
M  V30 14482 O 1369.61 -1.55209 1.50795 0
M  V30 14483 C 1370.2 1.39132 3.08914 0
M  V30 14484 C 1368.76 1.17037 3.57742 0
M  V30 14485 C 1367.91 1.48279 2.34326 0
M  V30 14486 H 1370.86 1.20598 1.03159 0
M  V30 14487 H 1370.88 0.793861 3.72126 0
M  V30 14488 H 1370.39 2.46795 2.99523 0
M  V30 14489 H 1368.49 0.112435 3.7243 0
M  V30 14490 H 1368.61 1.8665 4.41247 0
M  V30 14491 H 1366.97 0.902438 2.38177 0
M  V30 14492 H 1367.75 2.57047 2.27556 0
M  V30 14493 N 1370.2 -1.34667 0.818693 0
M  V30 14494 C 1371.48 -1.92838 0.327521 0
M  V30 14495 C 1371.86 -1.74732 -1.18457 0
M  V30 14496 O 1371.2 -1.12352 -1.98971 0
M  V30 14497 C 1371.41 -3.40797 0.752207 0
M  V30 14498 C 1372.76 -4.17948 0.748613 0
M  V30 14499 O 1373.79 -3.49364 0.694517 0
M  V30 14500 O 1372.64 -5.40344 0.817958 0
M  V30 14501 H 1369.74 -0.822249 0.0885148 0
M  V30 14502 H 1372.28 -1.43668 0.9032 0
M  V30 14503 H 1371.06 -3.47759 1.79387 0
M  V30 14504 H 1370.68 -3.97309 0.151992 0
M  V30 14505 N 1371.68 -0.573274 -1.46804 0
M  V30 14506 C 1372.61 0.20305 -2.28299 0
M  V30 14507 C 1373.62 0.864367 -1.37958 0
M  V30 14508 O 1374.81 0.735516 -1.62642 0
M  V30 14509 C 1371.91 1.30633 -3.12711 0
M  V30 14510 C 1371.08 0.738741 -4.31116 0
M  V30 14511 C 1370.14 1.72853 -4.96999 0
M  V30 14512 O 1369.17 1.2683 -5.5489 0
M  V30 14513 N 1370.37 3.06239 -4.93151 0
M  V30 14514 H 1373.14 -0.496086 -2.95566 0
M  V30 14515 H 1370.7 -0.410411 -1.56612 0
M  V30 14516 H 1372.69 1.96755 -3.53652 0
M  V30 14517 H 1371.26 1.90846 -2.47581 0
M  V30 14518 H 1370.48 -0.0996941 -3.94074 0
M  V30 14519 H 1371.77 0.339154 -5.07668 0
M  V30 14520 H 1371.16 3.46262 -4.47347 0
M  V30 14521 H 1369.72 3.67876 -5.38062 0
M  V30 14522 N 1373.15 1.5451 -0.310553 0
M  V30 14523 C 1374.1 2.25332 0.576928 0
M  V30 14524 C 1375.1 1.26272 1.12924 0
M  V30 14525 O 1376.3 1.44092 1.07878 0
M  V30 14526 H 1372.68 0.723611 0.204674 0
M  V30 14527 H 1374.65 2.98369 -0.0428167 0
M  V30 14528 C 1373.4 3.01455 1.73263 0
M  V30 14529 H 1372.72 3.7749 1.31688 0
M  V30 14530 H 1374.16 3.54276 2.32947 0
M  V30 14531 C 1372.62 2.08984 2.64248 0
M  V30 14532 O 1373.15 1.66414 3.65608 0
M  V30 14533 N 1371.36 1.74742 2.32193 0
M  V30 14534 H 1370.9 2.09558 1.49811 0
M  V30 14535 H 1370.86 1.13148 2.93334 0
M  V30 14536 N 1374.63 0.0384594 1.57553 0
M  V30 14537 C 1375.88 -0.63814 1.92182 0
M  V30 14538 C 1376.21 -1.71595 0.915714 0
M  V30 14539 O 1375.46 -1.9556 -0.0739533 0
M  V30 14540 C 1375.76 -1.28439 3.33524 0
M  V30 14541 C 1375.43 -0.336034 4.49646 0
M  V30 14542 C 1374.09 -0.0750373 4.81141 0
M  V30 14543 C 1376.44 0.314642 5.20249 0
M  V30 14544 C 1373.77 0.844286 5.80593 0
M  V30 14545 C 1376.12 1.22208 6.20684 0
M  V30 14546 C 1374.79 1.49187 6.50615 0
M  V30 14547 H 1374.06 -0.233512 0.703245 0
M  V30 14548 H 1376.7 0.102223 1.91227 0
M  V30 14549 H 1375.01 -2.09973 3.30785 0
M  V30 14550 H 1376.71 -1.81462 3.57593 0
M  V30 14551 H 1373.3 -0.549638 4.25061 0
M  V30 14552 H 1377.48 0.126074 4.9614 0
M  V30 14553 H 1372.74 1.06092 6.02125 0
M  V30 14554 H 1376.91 1.7324 6.74508 0
M  V30 14555 H 1374.54 2.20588 7.27492 0
M  V30 14556 N 1376.11 -1.55841 -0.234795 0
M  V30 14557 C 1377.34 -1.82307 -0.978355 0
M  V30 14558 C 1377.75 -0.615825 -1.78474 0
M  V30 14559 O 1377.11 0.4156 -1.77705 0
M  V30 14560 C 1377.16 -3.07136 -1.90655 0
M  V30 14561 O 1376.88 -4.23202 -1.13278 0
M  V30 14562 C 1378.38 -3.46492 -2.76511 0
M  V30 14563 H 1375.6 -0.606361 -0.287345 0
M  V30 14564 H 1378.15 -2.02916 -0.254023 0
M  V30 14565 H 1376.3 -2.88542 -2.58501 0
M  V30 14566 H 1376.72 -4.94029 -1.76168 0
M  V30 14567 H 1378.19 -4.36908 -3.37366 0
M  V30 14568 H 1378.67 -2.67633 -3.48238 0
M  V30 14569 H 1379.27 -3.6748 -2.14099 0
M  V30 14570 N 1377.59 0.500963 -1.49426 0
M  V30 14571 C 1378.84 1.25261 -1.58601 0
M  V30 14572 C 1379.16 1.93056 -0.274647 0
M  V30 14573 O 1378.43 1.82736 0.706003 0
M  V30 14574 H 1377.01 0.465328 -0.584362 0
M  V30 14575 H 1379.67 0.580588 -1.86052 0
M  V30 14576 H 1378.77 2.01652 -2.38208 0
M  V30 14577 N 1379.07 1.38501 0.752011 0
M  V30 14578 C 1380 1.38577 1.87933 0
M  V30 14579 C 1380.98 0.251454 1.68231 0
M  V30 14580 O 1382.16 0.45477 1.888 0
M  V30 14581 C 1379.29 1.21164 3.25479 0
M  V30 14582 C 1378.25 2.31816 3.59785 0
M  V30 14583 C 1377.57 1.99508 4.96085 0
M  V30 14584 C 1378.87 3.74082 3.645 0
M  V30 14585 H 1380.57 2.32913 1.88127 0
M  V30 14586 H 1378.11 1.12113 0.903698 0
M  V30 14587 H 1380.07 1.19842 4.04 0
M  V30 14588 H 1378.79 0.232899 3.25769 0
M  V30 14589 H 1377.45 2.32327 2.83584 0
M  V30 14590 H 1377.1 1.00114 4.92936 0
M  V30 14591 H 1376.8 2.73617 5.20007 0
M  V30 14592 H 1378.32 1.99807 5.76983 0
M  V30 14593 H 1379.74 3.75593 4.33131 0
M  V30 14594 H 1378.13 4.47409 3.99931 0
M  V30 14595 H 1379.2 4.06284 2.64692 0
M  V30 14596 N 1380.55 -0.980364 1.23396 0
M  V30 14597 C 1381.79 -1.71592 1.06015 0
M  V30 14598 C 1382.11 -1.91401 -0.403103 0
M  V30 14599 O 1383.31 -2.62405 -0.696853 0
M  V30 14600 C 1381.77 -3.08795 1.84861 0
M  V30 14601 C 1381.38 -2.96873 3.35515 0
M  V30 14602 C 1383.12 -3.8631 1.75968 0
M  V30 14603 C 1381.03 -4.29308 4.06753 0
M  V30 14604 H 1379.96 -0.643423 0.393095 0
M  V30 14605 H 1382.61 -1.09345 1.47363 0
M  V30 14606 H 1380.99 -3.71797 1.36318 0
M  V30 14607 H 1382.17 -2.4296 3.91544 0
M  V30 14608 H 1380.48 -2.32833 3.45221 0
M  V30 14609 H 1383.08 -4.84355 2.26504 0
M  V30 14610 H 1383.42 -4.09983 0.722464 0
M  V30 14611 H 1383.95 -3.3001 2.22122 0
M  V30 14612 H 1380.69 -4.10831 5.10782 0
M  V30 14613 H 1380.21 -4.83086 3.55511 0
M  V30 14614 H 1381.89 -4.97995 4.1305 0
M  V30 14615 N 1382.02 -1.04567 -1.17913 0
M  V30 14616 C 1382.99 -0.645476 -2.19923 0
M  V30 14617 C 1383.99 0.299763 -1.57981 0
M  V30 14618 O 1385.18 0.0844825 -1.73995 0
M  V30 14619 C 1382.31 0.0528935 -3.40859 0
M  V30 14620 H 1383.5 -1.54828 -2.56843 0
M  V30 14621 H 1381.05 -0.838812 -1.31885 0
M  V30 14622 H 1381.79 0.969261 -3.09477 0
M  V30 14623 H 1381.57 -0.626558 -3.87062 0
M  V30 14624 H 1383.06 0.319221 -4.16378 0
M  V30 14625 N 1383.5 1.34231 -0.825823 0
M  V30 14626 C 1384.75 1.97805 -0.414456 0
M  V30 14627 C 1385.07 1.65786 1.02664 0
M  V30 14628 O 1384.34 0.950069 1.7132 0
M  V30 14629 H 1382.92 0.73173 -0.150265 0
M  V30 14630 H 1385.58 1.63819 -1.05591 0
M  V30 14631 H 1384.68 3.07466 -0.535829 0
M  V30 14632 N 1384.98 0.581051 1.46498 0
M  V30 14633 C 1386.23 0.0660934 2.02692 0
M  V30 14634 C 1386.56 -1.28985 1.45178 0
M  V30 14635 O 1385.83 -1.84479 0.616247 0
M  V30 14636 C 1386.12 -0.00145411 3.601 0
M  V30 14637 C 1385.97 1.38327 4.28002 0
M  V30 14638 C 1387.29 -0.702914 4.3445 0
M  V30 14639 H 1384.41 0.0254923 0.736559 0
M  V30 14640 H 1387.05 0.74793 1.7466 0
M  V30 14641 H 1385.2 -0.582118 3.84114 0
M  V30 14642 H 1386.87 2.00897 4.15257 0
M  V30 14643 H 1385.11 1.95144 3.87429 0
M  V30 14644 H 1385.79 1.28849 5.36751 0
M  V30 14645 H 1388.26 -0.209641 4.15572 0
M  V30 14646 H 1387.14 -0.719202 5.44168 0
M  V30 14647 H 1387.4 -1.76389 4.05388 0
M  V30 14648 N 1386.46 -1.54343 0.318742 0
M  V30 14649 C 1387.7 -2.00777 -0.285699 0
M  V30 14650 C 1388.04 -1.20664 -1.52164 0
M  V30 14651 O 1387.31 -0.287674 -1.92361 0
M  V30 14652 C 1387.59 -3.54641 -0.624649 0
M  V30 14653 C 1387.45 -4.45483 0.621663 0
M  V30 14654 C 1388.77 -4.15729 -1.4442 0
M  V30 14655 H 1385.89 -0.729856 -0.102367 0
M  V30 14656 H 1388.53 -1.84968 0.434364 0
M  V30 14657 H 1386.68 -3.68243 -1.23811 0
M  V30 14658 H 1388.35 -4.43759 1.25998 0
M  V30 14659 H 1386.59 -4.15356 1.25148 0
M  V30 14660 H 1387.26 -5.50951 0.340106 0
M  V30 14661 H 1389.74 -4.05672 -0.925699 0
M  V30 14662 H 1388.62 -5.23509 -1.65013 0
M  V30 14663 H 1388.88 -3.68743 -2.43887 0
M  V30 14664 N 1387.94 -0.0468143 -1.5753 0
M  V30 14665 C 1389.16 0.641161 -1.97241 0
M  V30 14666 C 1389.59 1.6384 -0.92401 0
M  V30 14667 O 1388.94 1.80946 0.113229 0
M  V30 14668 C 1388.99 1.30832 -3.36029 0
M  V30 14669 O 1388.1 2.42394 -3.33645 0
M  V30 14670 H 1387.44 0.167035 -0.642647 0
M  V30 14671 H 1389.97 -0.113921 -2.04283 0
M  V30 14672 H 1389.98 1.66102 -3.72658 0
M  V30 14673 H 1388.65 0.57744 -4.11872 0
M  V30 14674 H 1387.23 2.09104 -3.08756 0
M  V30 14675 N 1389.41 1.55964 0.226527 0
M  V30 14676 C 1390.66 1.77944 0.94967 0
M  V30 14677 C 1390.98 0.614478 1.85697 0
M  V30 14678 O 1392.18 0.717793 2.6184 0
M  V30 14679 C 1390.64 3.15108 1.73881 0
M  V30 14680 C 1390.25 4.39314 0.877894 0
M  V30 14681 C 1391.99 3.46418 2.45347 0
M  V30 14682 C 1389.9 5.67505 1.6641 0
M  V30 14683 H 1388.83 0.663412 0.35833 0
M  V30 14684 H 1391.48 1.82366 0.203695 0
M  V30 14685 H 1389.86 3.04849 2.52751 0
M  V30 14686 H 1391.03 4.60616 0.130089 0
M  V30 14687 H 1389.35 4.15487 0.2756 0
M  V30 14688 H 1391.95 4.39416 3.0466 0
M  V30 14689 H 1392.29 2.68685 3.17985 0
M  V30 14690 H 1392.82 3.57984 1.73471 0
M  V30 14691 H 1389.56 6.48116 0.981089 0
M  V30 14692 H 1389.08 5.50272 2.38665 0
M  V30 14693 H 1390.76 6.075 2.22605 0
M  V30 14694 N 1390.89 -0.493031 1.4969 0
M  V30 14695 C 1392.12 -1.27517 1.63567 0
M  V30 14696 C 1392.54 -1.85526 0.310105 0
M  V30 14697 O 1391.9 -1.66246 -0.723314 0
M  V30 14698 C 1391.95 -2.37551 2.71296 0
M  V30 14699 O 1391.05 -3.41617 2.31023 0
M  V30 14700 H 1390.39 -0.376116 0.547205 0
M  V30 14701 H 1392.92 -0.589328 1.95929 0
M  V30 14702 H 1392.93 -2.83196 2.93708 0
M  V30 14703 H 1391.61 -1.94697 3.67513 0
M  V30 14704 H 1390.19 -3.01836 2.18974 0
M  V30 14705 N 1392.37 -1.38898 -0.744656 0
M  V30 14706 C 1393.6 -1.38848 -1.53391 0
M  V30 14707 C 1394.01 0.0194949 -1.8879 0
M  V30 14708 O 1393.37 0.988399 -1.53417 0
M  V30 14709 C 1393.42 -2.25243 -2.8275 0
M  V30 14710 O 1393.14 -3.60557 -2.48858 0
M  V30 14711 C 1394.64 -2.33471 -3.76837 0
M  V30 14712 H 1391.86 -0.4746 -0.474338 0
M  V30 14713 H 1394.41 -1.82591 -0.920902 0
M  V30 14714 H 1392.56 -1.84938 -3.40407 0
M  V30 14715 H 1392.98 -4.06142 -3.31887 0
M  V30 14716 H 1394.45 -2.9819 -4.64528 0
M  V30 14717 H 1394.93 -1.351 -4.17905 0
M  V30 14718 H 1395.53 -2.74205 -3.25103 0
M  V30 14719 N 1393.85 0.973806 -1.23914 0
M  V30 14720 C 1394.81 2.04892 -1.02723 0
M  V30 14721 C 1395.81 1.60795 0.0132972 0
M  V30 14722 O 1397 1.72714 -0.227084 0
M  V30 14723 C 1394.13 3.36341 -0.555667 0
M  V30 14724 H 1395.33 2.25124 -1.98139 0
M  V30 14725 H 1392.88 1.14817 -1.06051 0
M  V30 14726 H 1393.61 3.21799 0.40197 0
M  V30 14727 H 1393.4 3.69689 -1.30661 0
M  V30 14728 H 1394.89 4.15398 -0.428248 0
M  V30 14729 N 1395.33 1.05191 1.17357 0
M  V30 14730 C 1396.26 0.673931 2.23563 0
M  V30 14731 C 1397.24 -0.328284 1.66902 0
M  V30 14732 O 1398.42 -0.205878 1.93106 0
M  V30 14733 C 1395.55 0.0478801 3.47267 0
M  V30 14734 C 1394.51 0.974855 4.1675 0
M  V30 14735 C 1393.83 0.212684 5.34277 0
M  V30 14736 C 1395.13 2.299 4.68981 0
M  V30 14737 H 1396.83 1.56183 2.55436 0
M  V30 14738 H 1394.37 0.752408 1.2278 0
M  V30 14739 H 1396.33 -0.228343 4.20781 0
M  V30 14740 H 1395.05 -0.874963 3.14662 0
M  V30 14741 H 1393.71 1.23564 3.45148 0
M  V30 14742 H 1393.36 -0.712924 4.97922 0
M  V30 14743 H 1393.06 0.830351 5.81703 0
M  V30 14744 H 1394.58 -0.056255 6.10574 0
M  V30 14745 H 1395.99 2.08269 5.34132 0
M  V30 14746 H 1394.39 2.87064 5.26986 0
M  V30 14747 H 1395.46 2.93759 3.8579 0
M  V30 14748 N 1396.8 -1.33791 0.83293 0
M  V30 14749 C 1397.73 -2.31853 0.276846 0
M  V30 14750 C 1398.72 -1.58702 -0.612184 0
M  V30 14751 O 1399.9 -1.86629 -0.536975 0
M  V30 14752 C 1397.03 -3.42855 -0.55385 0
M  V30 14753 C 1395.98 -4.27333 0.238884 0
M  V30 14754 C 1395.31 -5.29895 -0.715187 0
M  V30 14755 C 1396.61 -5.01692 1.45265 0
M  V30 14756 H 1398.3 -2.78611 1.09618 0
M  V30 14757 H 1395.85 -1.33949 0.528562 0
M  V30 14758 H 1397.8 -4.10479 -0.953133 0
M  V30 14759 H 1396.53 -2.94771 -1.40634 0
M  V30 14760 H 1395.19 -3.61325 0.619656 0
M  V30 14761 H 1394.83 -4.7807 -1.56391 0
M  V30 14762 H 1394.53 -5.87296 -0.188921 0
M  V30 14763 H 1396.06 -6.00387 -1.11211 0
M  V30 14764 H 1397.47 -5.62117 1.12685 0
M  V30 14765 H 1395.87 -5.68715 1.91528 0
M  V30 14766 H 1396.94 -4.30809 2.22558 0
M  V30 14767 N 1398.28 -0.588812 -1.46187 0
M  V30 14768 C 1399.21 0.128595 -2.33146 0
M  V30 14769 C 1400.19 0.877608 -1.45712 0
M  V30 14770 O 1401.38 0.851866 -1.74519 0
M  V30 14771 C 1398.51 1.13886 -3.28096 0
M  V30 14772 C 1397.46 0.504296 -4.25019 0
M  V30 14773 C 1396.79 1.62147 -5.09522 0
M  V30 14774 C 1398.09 -0.562466 -5.19263 0
M  V30 14775 H 1399.78 -0.597455 -2.93378 0
M  V30 14776 H 1397.33 -0.288764 -1.41075 0
M  V30 14777 H 1399.28 1.64916 -3.8779 0
M  V30 14778 H 1398.01 1.89527 -2.65983 0
M  V30 14779 H 1396.66 0.0150325 -3.66597 0
M  V30 14780 H 1396.31 2.36769 -4.4379 0
M  V30 14781 H 1396.01 1.20249 -5.75164 0
M  V30 14782 H 1397.54 2.13441 -5.7208 0
M  V30 14783 H 1398.95 -0.137003 -5.73136 0
M  V30 14784 H 1397.35 -0.902115 -5.93281 0
M  V30 14785 H 1398.42 -1.4464 -4.62825 0
M  V30 14786 N 1399.76 1.54172 -0.326923 0
M  V30 14787 C 1400.69 2.27402 0.530154 0
M  V30 14788 C 1401.67 1.28325 1.11655 0
M  V30 14789 O 1402.86 1.57142 1.14105 0
M  V30 14790 C 1399.99 3.03435 1.68951 0
M  V30 14791 C 1398.94 4.09877 1.23226 0
M  V30 14792 C 1398.27 4.7377 2.47882 0
M  V30 14793 C 1399.57 5.21161 0.344698 0
M  V30 14794 H 1401.26 2.99291 -0.0806959 0
M  V30 14795 H 1398.81 1.43944 -0.0402511 0
M  V30 14796 H 1400.76 3.53396 2.29541 0
M  V30 14797 H 1399.48 2.29169 2.327 0
M  V30 14798 H 1398.14 3.60805 0.649267 0
M  V30 14799 H 1397.79 3.96116 3.10002 0
M  V30 14800 H 1397.49 5.45674 2.17977 0
M  V30 14801 H 1399.01 5.26507 3.09229 0
M  V30 14802 H 1400.43 5.66859 0.856979 0
M  V30 14803 H 1398.83 5.99941 0.138276 0
M  V30 14804 H 1399.9 4.80874 -0.623575 0
M  V30 14805 N 1401.24 0.0551678 1.57503 0
M  V30 14806 C 1402.17 -0.915714 2.14795 0
M  V30 14807 C 1403.15 -1.32179 1.07065 0
M  V30 14808 O 1404.33 -1.39579 1.35023 0
M  V30 14809 C 1401.46 -2.18916 2.69616 0
M  V30 14810 C 1400.42 -1.92303 3.82366 0
M  V30 14811 C 1399.74 -3.26136 4.23721 0
M  V30 14812 C 1401.04 -1.24146 5.07331 0
M  V30 14813 H 1402.74 -0.438499 2.96171 0
M  V30 14814 H 1400.28 -0.209477 1.42468 0
M  V30 14815 H 1402.24 -2.87239 3.08337 0
M  V30 14816 H 1400.96 -2.6885 1.85437 0
M  V30 14817 H 1399.62 -1.26391 3.44123 0
M  V30 14818 H 1399.27 -3.73879 3.36487 0
M  V30 14819 H 1398.97 -3.09126 4.99715 0
M  V30 14820 H 1400.49 -3.95684 4.65045 0
M  V30 14821 H 1401.91 -1.8251 5.43473 0
M  V30 14822 H 1400.3 -1.17449 5.88494 0
M  V30 14823 H 1401.37 -0.218073 4.84409 0
M  V30 14824 N 1402.72 -1.56081 -0.218252 0
M  V30 14825 C 1403.96 -1.78893 -0.940296 0
M  V30 14826 C 1404.29 -0.62425 -1.84738 0
M  V30 14827 O 1403.56 0.358686 -1.92588 0
M  V30 14828 H 1402.14 -0.659828 -0.350193 0
M  V30 14829 H 1404.8 -1.93546 -0.229316 0
M  V30 14830 H 1403.89 -2.71167 -1.54516 0
M  V30 14831 N 1404.2 0.485086 -1.49949 0
M  V30 14832 C 1405.44 1.23816 -1.60237 0
M  V30 14833 C 1405.77 1.9223 -0.296274 0
M  V30 14834 O 1405.03 1.82095 0.716939 0
M  V30 14835 C 1405.32 2.31573 -2.72229 0
M  V30 14836 C 1404.99 1.80508 -4.13192 0
M  V30 14837 C 1403.65 1.66301 -4.5155 0
M  V30 14838 C 1406 1.42471 -5.0135 0
M  V30 14839 C 1403.33 1.1246 -5.75821 0
M  V30 14840 C 1405.68 0.900757 -6.26154 0
M  V30 14841 C 1404.35 0.74521 -6.63327 0
M  V30 14842 H 1403.62 0.453075 -0.586348 0
M  V30 14843 H 1406.27 0.536349 -1.83836 0
M  V30 14844 H 1404.57 3.07606 -2.42663 0
M  V30 14845 H 1406.27 2.89574 -2.77395 0
M  V30 14846 H 1402.86 1.92529 -3.82924 0
M  V30 14847 H 1407.04 1.52287 -4.72358 0
M  V30 14848 H 1402.3 0.991422 -6.03308 0
M  V30 14849 H 1406.47 0.5973 -6.93834 0
M  V30 14850 H 1404.1 0.325838 -7.59501 0
M  V30 14851 N 1405.67 1.39291 0.737279 0
M  V30 14852 C 1406.92 1.3639 1.49679 0
M  V30 14853 C 1407.25 -0.0408859 1.94457 0
M  V30 14854 O 1406.5 -1.02127 1.66939 0
M  V30 14855 C 1406.8 2.28043 2.75193 0
M  V30 14856 C 1406.47 3.75717 2.49294 0
M  V30 14857 C 1405.13 4.15955 2.41941 0
M  V30 14858 C 1407.48 4.69127 2.27088 0
M  V30 14859 C 1404.81 5.47669 2.10419 0
M  V30 14860 C 1407.16 6.01116 1.97084 0
M  V30 14861 C 1405.83 6.4042 1.88197 0
M  V30 14862 H 1405.1 0.499088 0.547716 0
M  V30 14863 H 1407.74 1.71779 0.846416 0
M  V30 14864 H 1406.05 1.85765 3.44962 0
M  V30 14865 H 1407.75 2.23093 3.33212 0
M  V30 14866 H 1404.34 3.43825 2.55896 0
M  V30 14867 H 1408.52 4.38875 2.31739 0
M  V30 14868 H 1403.78 5.77046 2.02059 0
M  V30 14869 H 1407.95 6.73026 1.78909 0
M  V30 14870 H 1405.58 7.42401 1.63537 0
M  V30 14871 N 1407.15 -0.967221 1.24429 0
M  V30 14872 C 1408.08 -2.07966 1.06172 0
M  V30 14873 C 1409.06 -1.70081 -0.0254566 0
M  V30 14874 O 1410.25 -1.93682 0.141705 0
M  V30 14875 C 1407.38 -3.4085 0.666251 0
M  V30 14876 C 1406.33 -3.92692 1.70225 0
M  V30 14877 C 1405.66 -5.21925 1.16183 0
M  V30 14878 C 1406.96 -4.20478 3.09831 0
M  V30 14879 H 1408.65 -2.23497 1.99222 0
M  V30 14880 H 1406.2 -1.07398 0.959255 0
M  V30 14881 H 1408.15 -4.1811 0.52552 0
M  V30 14882 H 1406.87 -3.2522 -0.299939 0
M  V30 14883 H 1405.53 -3.17588 1.83121 0
M  V30 14884 H 1405.18 -5.02655 0.186237 0
M  V30 14885 H 1404.88 -5.57579 1.85416 0
M  V30 14886 H 1406.41 -6.01795 1.03323 0
M  V30 14887 H 1407.82 -4.88442 3.00162 0
M  V30 14888 H 1406.22 -4.67362 3.7642 0
M  V30 14889 H 1407.29 -3.27235 3.57834 0
M  V30 14890 N 1408.63 -1.05812 -1.16797 0
M  V30 14891 C 1409.88 -0.782869 -1.8773 0
M  V30 14892 C 1410.23 0.683013 -1.79869 0
M  V30 14893 O 1409.52 1.49357 -1.20012 0
M  V30 14894 C 1409.72 -1.20565 -3.3645 0
M  V30 14895 C 1409.55 -2.71109 -3.58789 0
M  V30 14896 C 1408.32 -3.38506 -3.75155 0
M  V30 14897 C 1410.51 -3.69327 -3.57914 0
M  V30 14898 N 1408.5 -4.77851 -3.85398 0
M  V30 14899 C 1409.87 -4.94431 -3.74082 0
M  V30 14900 C 1411.92 -3.62707 -3.41099 0
M  V30 14901 C 1410.63 -6.13707 -3.75175 0
M  V30 14902 C 1412.65 -4.81429 -3.43483 0
M  V30 14903 C 1412.01 -6.0536 -3.60165 0
M  V30 14904 H 1408.11 -0.338798 -0.704798 0
M  V30 14905 H 1410.7 -1.3513 -1.40171 0
M  V30 14906 H 1408.87 -0.665104 -3.82663 0
M  V30 14907 H 1410.6 -0.879581 -3.95026 0
M  V30 14908 H 1407.35 -2.88907 -3.75273 0
M  V30 14909 H 1407.78 -5.50324 -3.943 0
M  V30 14910 H 1412.42 -2.67851 -3.27133 0
M  V30 14911 H 1410.14 -7.08901 -3.87925 0
M  V30 14912 H 1413.72 -4.77966 -3.31722 0
M  V30 14913 H 1412.6 -6.95688 -3.61923 0
M  V30 14914 N 1410.11 1.33347 -0.840014 0
M  V30 14915 C 1411.04 2.31703 -0.289138 0
M  V30 14916 C 1412.02 1.59024 0.603759 0
M  V30 14917 O 1413.2 1.86911 0.527071 0
M  V30 14918 C 1410.33 3.43144 0.53566 0
M  V30 14919 C 1409.29 4.272 -0.261544 0
M  V30 14920 C 1408.61 5.30267 0.687075 0
M  V30 14921 C 1409.91 5.00915 -1.47924 0
M  V30 14922 H 1411.61 2.78026 -1.11094 0
M  V30 14923 H 1409.15 1.33666 -0.535658 0
M  V30 14924 H 1411.11 4.10979 0.931351 0
M  V30 14925 H 1409.83 2.95512 1.39069 0
M  V30 14926 H 1408.49 3.60991 -0.638809 0
M  V30 14927 H 1408.14 4.78893 1.53853 0
M  V30 14928 H 1407.84 5.87388 0.157773 0
M  V30 14929 H 1409.36 6.00968 1.08026 0
M  V30 14930 H 1410.78 5.61511 -1.15664 0
M  V30 14931 H 1409.17 5.67692 -1.94541 0
M  V30 14932 H 1410.24 4.29622 -2.24839 0
M  V30 14933 N 1411.59 0.596556 1.45873 0
M  V30 14934 C 1412.53 -0.128713 2.30441 0
M  V30 14935 C 1413.5 -0.870727 1.41448 0
M  V30 14936 O 1414.69 -0.858654 1.70387 0
M  V30 14937 C 1411.83 -1.1274 3.26165 0
M  V30 14938 C 1410.94 -0.387403 4.30259 0
M  V30 14939 C 1410.08 -1.37484 5.131 0
M  V30 14940 C 1409.11 -0.622025 6.08931 0
M  V30 14941 N 1408.25 -1.5582 6.84591 0
M  V30 14942 H 1413.09 0.598466 2.91929 0
M  V30 14943 H 1410.63 0.306936 1.43862 0
M  V30 14944 H 1412.59 -1.71943 3.8012 0
M  V30 14945 H 1411.22 -1.82213 2.66455 0
M  V30 14946 H 1410.27 0.319929 3.79052 0
M  V30 14947 H 1411.58 0.200477 4.98397 0
M  V30 14948 H 1410.73 -2.03926 5.71401 0
M  V30 14949 H 1409.47 -1.99665 4.44955 0
M  V30 14950 H 1408.48 0.0560936 5.49771 0
M  V30 14951 H 1409.7 -0.00541426 6.791 0
M  V30 14952 H 1407.65 -2.16786 6.19145 0
M  V30 14953 H 1407.57 -1.02347 7.4904 0
M  V30 14954 H 1408.83 -2.21254 7.4744 0
M  V30 14955 N 1413.06 -1.53996 0.335095 0
M  V30 14956 C 1414.01 -2.24736 -0.52559 0
M  V30 14957 C 1414.98 -1.24244 -1.10239 0
M  V30 14958 O 1416.17 -1.52955 -1.14058 0
M  V30 14959 C 1413.31 -3.01732 -1.67487 0
M  V30 14960 C 1412.42 -4.17062 -1.1262 0
M  V30 14961 C 1411.55 -4.81563 -2.2421 0
M  V30 14962 C 1410.59 -5.88977 -1.6665 0
M  V30 14963 N 1409.73 -6.47293 -2.71949 0
M  V30 14964 H 1414.57 -2.97881 0.0842008 0
M  V30 14965 H 1412.11 -1.47003 0.0533254 0
M  V30 14966 H 1414.06 -3.44626 -2.35135 0
M  V30 14967 H 1412.69 -2.30899 -2.25578 0
M  V30 14968 H 1411.75 -3.78869 -0.340917 0
M  V30 14969 H 1413.06 -4.94346 -0.665113 0
M  V30 14970 H 1412.21 -5.27486 -2.9974 0
M  V30 14971 H 1410.95 -4.03685 -2.73659 0
M  V30 14972 H 1409.96 -5.42446 -0.89623 0
M  V30 14973 H 1411.18 -6.68758 -1.18064 0
M  V30 14974 H 1409.13 -5.72283 -3.20668 0
M  V30 14975 H 1409.04 -7.20024 -2.30438 0
M  V30 14976 H 1410.31 -6.97869 -3.47273 0
M  V30 14977 N 1414.54 -0.0635198 -1.57472 0
M  V30 14978 C 1415.96 0.293084 -1.56886 0
M  V30 14979 C 1416.16 1.70603 -1.07224 0
M  V30 14980 O 1415.21 2.41584 -0.734388 0
M  V30 14981 C 1416.53 0.110286 -3.00498 0
M  V30 14982 C 1418.07 0.180453 -3.12479 0
M  V30 14983 C 1418.55 0.0260354 -4.57993 0
M  V30 14984 N 1420.04 0.0819109 -4.63128 0
M  V30 14985 C 1420.78 -0.0132764 -5.73398 0
M  V30 14986 N 1420.27 -0.161514 -6.92612 0
M  V30 14987 N 1422.06 0.0431948 -5.62083 0
M  V30 14988 H 1414.22 -0.98706 -1.88072 0
M  V30 14989 H 1416.48 -0.384232 -0.866643 0
M  V30 14990 H 1416.18 -0.864378 -3.40913 0
M  V30 14991 H 1416.06 0.866117 -3.67122 0
M  V30 14992 H 1418.45 1.1456 -2.71956 0
M  V30 14993 H 1418.53 -0.606342 -2.4851 0
M  V30 14994 H 1418.17 -0.935839 -4.99204 0
M  V30 14995 H 1418.1 0.832131 -5.19984 0
M  V30 14996 H 1420.59 0.195229 -3.77395 0
M  V30 14997 H 1420.9 -0.226517 -7.72468 0
M  V30 14998 H 1419.25 -0.196766 -6.94721 0
M  V30 14999 H 1422.44 0.157648 -4.67834 0
M  V30 15000 H 1422.61 -0.0344435 -6.47991 0
M  V30 15001 N 1416.02 1.56195 0.209972 0
M  V30 15002 C 1416.97 1.93355 1.26026 0
M  V30 15003 C 1417.94 0.792195 1.45991 0
M  V30 15004 O 1419.12 1.04909 1.5937 0
M  V30 15005 C 1416.26 2.26558 2.60318 0
M  V30 15006 C 1415.37 3.53685 2.48055 0
M  V30 15007 C 1414.51 3.76279 3.7495 0
M  V30 15008 C 1413.55 4.96881 3.57457 0
M  V30 15009 N 1412.69 5.15806 4.76328 0
M  V30 15010 H 1417.53 2.82907 0.936357 0
M  V30 15011 H 1415.06 1.40015 0.451022 0
M  V30 15012 H 1417.02 2.43821 3.38537 0
M  V30 15013 H 1415.65 1.40165 2.90781 0
M  V30 15014 H 1414.7 3.44551 1.61211 0
M  V30 15015 H 1416.01 4.42057 2.31056 0
M  V30 15016 H 1415.17 3.93702 4.6161 0
M  V30 15017 H 1413.91 2.86209 3.94887 0
M  V30 15018 H 1412.91 4.79397 2.69181 0
M  V30 15019 H 1414.14 5.88447 3.38979 0
M  V30 15020 H 1412.08 4.28681 4.96557 0
M  V30 15021 H 1412 5.98332 4.62099 0
M  V30 15022 H 1413.27 5.37674 5.64382 0
M  V30 15023 N 1417.5 -0.477127 1.50204 0
M  V30 15024 C 1418.43 -1.59319 1.64773 0
M  V30 15025 C 1419.44 -1.53951 0.529427 0
M  V30 15026 O 1420.63 -1.59449 0.802388 0
M  V30 15027 C 1417.73 -2.98185 1.61055 0
M  V30 15028 C 1416.9 -3.28486 2.88817 0
M  V30 15029 C 1415.96 -4.46878 2.77825 0
M  V30 15030 O 1414.99 -4.47483 3.51778 0
M  V30 15031 N 1416.19 -5.48187 1.90974 0
M  V30 15032 H 1418.96 -1.4724 2.61037 0
M  V30 15033 H 1416.52 -0.66544 1.47592 0
M  V30 15034 H 1418.51 -3.75345 1.51323 0
M  V30 15035 H 1417.08 -3.04064 0.725509 0
M  V30 15036 H 1416.3 -2.39997 3.12722 0
M  V30 15037 H 1417.59 -3.4554 3.7347 0
M  V30 15038 H 1416.99 -5.50515 1.30192 0
M  V30 15039 H 1415.54 -6.24355 1.87148 0
M  V30 15040 N 1418.98 -1.3968 -0.729882 0
M  V30 15041 C 1420.23 -1.36492 -1.48502 0
M  V30 15042 C 1420.54 0.0346572 -1.95569 0
M  V30 15043 O 1421.74 0.189135 -2.7084 0
M  V30 15044 C 1420.2 -2.39813 -2.68361 0
M  V30 15045 C 1419.81 -3.85511 -2.28222 0
M  V30 15046 C 1421.55 -2.45709 -3.46161 0
M  V30 15047 C 1419.46 -4.80462 -3.44834 0
M  V30 15048 H 1418.39 -0.507455 -0.557679 0
M  V30 15049 H 1421.04 -1.6535 -0.795708 0
M  V30 15050 H 1419.42 -2.04033 -3.39392 0
M  V30 15051 H 1420.6 -4.30359 -1.64704 0
M  V30 15052 H 1418.91 -3.82957 -1.63501 0
M  V30 15053 H 1421.51 -3.1384 -4.32907 0
M  V30 15054 H 1421.85 -1.48318 -3.88983 0
M  V30 15055 H 1422.38 -2.80409 -2.82163 0
M  V30 15056 H 1419.12 -5.79134 -3.07057 0
M  V30 15057 H 1418.64 -4.40289 -4.07315 0
M  V30 15058 H 1420.32 -4.99607 -4.11098 0
M  V30 15059 N 1420.45 0.960609 -1.2494 0
M  V30 15060 C 1421.4 2.05634 -1.04801 0
M  V30 15061 C 1422.37 1.66049 0.0409611 0
M  V30 15062 O 1423.56 1.90453 -0.115053 0
M  V30 15063 C 1420.7 3.38604 -0.666444 0
M  V30 15064 C 1419.81 3.91341 -1.82964 0
M  V30 15065 C 1418.94 5.1261 -1.39299 0
M  V30 15066 C 1417.98 5.57562 -2.52569 0
M  V30 15067 N 1417.12 6.70046 -2.09722 0
M  V30 15068 H 1421.96 2.22194 -1.9858 0
M  V30 15069 H 1419.5 1.08892 -0.988981 0
M  V30 15070 H 1421.46 4.15017 -0.426205 0
M  V30 15071 H 1420.09 3.21948 0.23435 0
M  V30 15072 H 1419.14 3.11502 -2.18335 0
M  V30 15073 H 1420.45 4.20656 -2.68049 0
M  V30 15074 H 1419.6 5.96421 -1.11205 0
M  V30 15075 H 1418.34 4.84997 -0.512779 0
M  V30 15076 H 1417.35 4.72319 -2.81415 0
M  V30 15077 H 1418.57 5.87186 -3.41159 0
M  V30 15078 H 1416.52 6.44153 -1.24109 0
M  V30 15079 H 1416.44 6.98846 -2.88357 0
M  V30 15080 H 1417.7 7.57281 -1.84787 0
M  V30 15081 N 1421.93 1.0643 1.16234 0
M  V30 15082 C 1423.21 0.695256 1.82827 0
M  V30 15083 C 1423.59 -0.823242 1.94386 0
M  V30 15084 O 1422.94 -1.73406 1.48804 0
M  V30 15085 C 1423.15 1.3988 3.19741 0
M  V30 15086 C 1424.5 1.54489 3.95498 0
M  V30 15087 O 1425.52 1.35882 3.29264 0
M  V30 15088 O 1424.38 1.85027 5.14225 0
M  V30 15089 H 1421.47 0.246285 0.789476 0
M  V30 15090 H 1424.02 1.16466 1.23426 0
M  V30 15091 H 1422.79 2.43419 3.06371 0
M  V30 15092 H 1422.41 0.91957 3.8682 0
M  V30 15093 N 1423.41 -1.329 0.847073 0
M  V30 15094 C 1424.34 -2.31546 0.301422 0
M  V30 15095 C 1425.32 -1.59342 -0.595317 0
M  V30 15096 O 1426.51 -1.87188 -0.517151 0
M  V30 15097 C 1423.64 -3.43423 -0.517454 0
M  V30 15098 C 1422.59 -4.27055 0.284195 0
M  V30 15099 C 1421.92 -5.30624 -0.658944 0
M  V30 15100 C 1423.22 -5.00123 1.50578 0
M  V30 15101 H 1424.91 -2.77433 1.12567 0
M  V30 15102 H 1422.46 -1.3338 0.542739 0
M  V30 15103 H 1424.41 -4.11467 -0.909543 0
M  V30 15104 H 1423.13 -2.96246 -1.37499 0
M  V30 15105 H 1421.79 -3.60648 0.657944 0
M  V30 15106 H 1421.44 -4.79702 -1.51311 0
M  V30 15107 H 1421.14 -5.87464 -0.12662 0
M  V30 15108 H 1422.66 -6.01533 -1.04837 0
M  V30 15109 H 1424.08 -5.6089 1.18641 0
M  V30 15110 H 1422.48 -5.66652 1.97549 0
M  V30 15111 H 1423.55 -4.28424 2.27115 0
M  V30 15112 N 1424.89 -0.604284 -1.45555 0
M  V30 15113 C 1426.14 -0.0979922 -2.01862 0
M  V30 15114 C 1426.46 1.27476 -1.47563 0
M  V30 15115 O 1425.73 1.84137 -0.668612 0
M  V30 15116 H 1424.31 -0.033235 -0.74626 0
M  V30 15117 H 1426.97 -0.784936 -1.78395 0
M  V30 15118 H 1426.07 -0.0452716 -3.12067 0
M  V30 15119 N 1426.37 1.53816 -0.343257 0
M  V30 15120 C 1427.59 2.05796 0.257418 0
M  V30 15121 C 1428.02 1.2166 1.43459 0
M  V30 15122 O 1427.37 0.230278 1.79832 0
M  V30 15123 C 1427.42 3.54681 0.65068 0
M  V30 15124 O 1426.53 3.73394 1.75074 0
M  V30 15125 H 1425.87 0.662622 0.042757 0
M  V30 15126 H 1428.4 1.98462 -0.497386 0
M  V30 15127 H 1428.41 3.97308 0.927914 0
M  V30 15128 H 1427.08 4.15368 -0.210199 0
M  V30 15129 H 1425.66 3.42669 1.4708 0
M  V30 15130 N 1427.84 0.0718701 1.57436 0
M  V30 15131 C 1428.75 -0.910077 2.16229 0
M  V30 15132 C 1429.77 -1.32699 1.12548 0
M  V30 15133 O 1430.95 -1.39967 1.44814 0
M  V30 15134 C 1428.01 -2.15942 2.71238 0
M  V30 15135 C 1427.07 -1.79891 3.89792 0
M  V30 15136 C 1426.31 -2.9887 4.42168 0
M  V30 15137 O 1426.53 -4.1289 3.93545 0
M  V30 15138 O 1425.46 -2.78682 5.33498 0
M  V30 15139 H 1429.29 -0.439969 3.00496 0
M  V30 15140 H 1426.87 -0.151204 1.48633 0
M  V30 15141 H 1428.76 -2.89204 3.06494 0
M  V30 15142 H 1427.43 -2.62051 1.90029 0
M  V30 15143 H 1426.34 -1.03881 3.59388 0
M  V30 15144 H 1427.67 -1.38566 4.72293 0
M  V30 15145 N 1429.32 -1.56304 -0.201686 0
M  V30 15146 C 1430.25 -1.97046 -1.25281 0
M  V30 15147 C 1431.23 -0.841458 -1.47829 0
M  V30 15148 O 1432.42 -1.10529 -1.59678 0
M  V30 15149 C 1429.55 -2.30429 -2.59845 0
M  V30 15150 C 1428.5 -3.46006 -2.5192 0
M  V30 15151 C 1427.83 -3.65047 -3.90697 0
M  V30 15152 C 1429.13 -4.80391 -2.04992 0
M  V30 15153 H 1430.82 -2.85099 -0.914272 0
M  V30 15154 H 1428.37 -1.37166 -0.438359 0
M  V30 15155 H 1430.32 -2.57525 -3.33555 0
M  V30 15156 H 1429.05 -1.39251 -2.95426 0
M  V30 15157 H 1427.7 -3.18991 -1.80667 0
M  V30 15158 H 1427.35 -2.71211 -4.2362 0
M  V30 15159 H 1427.05 -4.42796 -3.86271 0
M  V30 15160 H 1428.58 -3.94512 -4.66039 0
M  V30 15161 H 1429.99 -5.06561 -2.68456 0
M  V30 15162 H 1428.39 -5.61563 -2.11582 0
M  V30 15163 H 1429.46 -4.74416 -1.00288 0
M  V30 15164 N 1430.8 0.469154 -1.50455 0
M  V30 15165 C 1432.05 1.2229 -1.6178 0
M  V30 15166 C 1432.38 1.91577 -0.318073 0
M  V30 15167 O 1431.65 1.82205 0.68057 0
M  V30 15168 C 1431.94 2.26504 -2.79943 0
M  V30 15169 C 1431.79 1.61509 -4.19804 0
M  V30 15170 C 1433.11 3.27796 -2.93662 0
M  V30 15171 H 1430.23 0.443241 -0.588817 0
M  V30 15172 H 1432.87 0.516431 -1.82847 0
M  V30 15173 H 1431.02 2.86757 -2.62112 0
M  V30 15174 H 1432.69 1.04838 -4.49229 0
M  V30 15175 H 1430.94 0.918162 -4.23972 0
M  V30 15176 H 1431.61 2.37248 -4.98415 0
M  V30 15177 H 1434.08 2.77568 -3.09992 0
M  V30 15178 H 1432.96 3.98041 -3.77961 0
M  V30 15179 H 1433.22 3.92033 -2.04359 0
M  V30 15180 N 1432.28 1.40065 0.722464 0
M  V30 15181 C 1433.69 1.21944 1.02965 0
M  V30 15182 C 1433.89 0.0898069 2.013 0
M  V30 15183 O 1432.95 -0.554519 2.46336 0
M  V30 15184 C 1434.26 2.55848 1.57995 0
M  V30 15185 C 1435.81 2.62801 1.70013 0
M  V30 15186 C 1436.29 3.96957 2.2845 0
M  V30 15187 N 1437.78 3.98662 2.35844 0
M  V30 15188 C 1438.51 4.99248 2.82026 0
M  V30 15189 N 1438.01 6.1023 3.28012 0
M  V30 15190 N 1439.8 4.8662 2.81349 0
M  V30 15191 H 1431.95 2.12283 0.0705301 0
M  V30 15192 H 1434.22 0.943338 0.0938991 0
M  V30 15193 H 1433.92 3.39125 0.932034 0
M  V30 15194 H 1433.8 2.76452 2.5662 0
M  V30 15195 H 1436.18 1.799 2.33923 0
M  V30 15196 H 1436.26 2.46034 0.700062 0
M  V30 15197 H 1435.91 4.80295 1.65164 0
M  V30 15198 H 1435.84 4.1105 3.29158 0
M  V30 15199 H 1438.33 3.18518 2.03358 0
M  V30 15200 H 1438.64 6.82878 3.61797 0
M  V30 15201 H 1436.99 6.13805 3.25988 0
M  V30 15202 H 1440.18 3.99015 2.44755 0
M  V30 15203 H 1440.35 5.65155 3.17024 0
M  V30 15204 N 1433.76 -0.95397 1.25448 0
M  V30 15205 C 1434.99 -1.7308 1.12814 0
M  V30 15206 C 1435.4 -1.86461 -0.320764 0
M  V30 15207 O 1434.74 -1.3623 -1.23236 0
M  V30 15208 C 1434.8 -3.16239 1.70976 0
M  V30 15209 C 1434.46 -3.26286 3.19979 0
M  V30 15210 C 1435.46 -3.10547 4.16961 0
M  V30 15211 C 1433.15 -3.50085 3.60202 0
M  V30 15212 C 1435.14 -3.18456 5.52146 0
M  V30 15213 C 1432.83 -3.5763 4.95524 0
M  V30 15214 C 1433.83 -3.4183 5.91305 0
M  V30 15215 O 1433.51 -3.49058 7.24164 0
M  V30 15216 H 1433.25 -0.549143 0.394231 0
M  V30 15217 H 1435.8 -1.20538 1.66312 0
M  V30 15218 H 1434.03 -3.70148 1.11926 0
M  V30 15219 H 1435.72 -3.75784 1.53432 0
M  V30 15220 H 1436.48 -2.92029 3.87226 0
M  V30 15221 H 1432.36 -3.61445 2.86145 0
M  V30 15222 H 1435.91 -3.0604 6.26885 0
M  V30 15223 H 1431.8 -3.75665 5.24925 0
M  V30 15224 H 1432.57 -3.65684 7.32269 0
M  V30 15225 N 1435.24 -1.07045 -1.15668 0
M  V30 15226 C 1436.51 -0.704942 -1.82455 0
M  V30 15227 C 1436.89 0.812921 -1.9482 0
M  V30 15228 O 1436.24 1.72615 -1.49721 0
M  V30 15229 C 1436.45 -1.41574 -3.18995 0
M  V30 15230 C 1437.8 -1.56584 -3.94673 0
M  V30 15231 O 1438.82 -1.37626 -3.28538 0
M  V30 15232 O 1437.68 -1.87751 -5.13237 0
M  V30 15233 H 1434.78 -0.250469 -0.788159 0
M  V30 15234 H 1437.32 -1.17118 -1.22806 0
M  V30 15235 H 1436.09 -2.4504 -3.05075 0
M  V30 15236 H 1435.72 -0.940071 -3.86327 0
M  V30 15237 N 1436.71 1.32449 -0.85411 0
M  V30 15238 C 1437.68 2.27183 -0.303377 0
M  V30 15239 C 1438.68 1.51582 0.536622 0
M  V30 15240 O 1439.87 1.70684 0.348211 0
M  V30 15241 C 1437 3.36086 0.570852 0
M  V30 15242 H 1438.19 2.77408 -1.1395 0
M  V30 15243 H 1435.74 1.43111 -0.628402 0
M  V30 15244 H 1436.48 2.91128 1.42881 0
M  V30 15245 H 1436.26 3.92088 -0.030399 0
M  V30 15246 H 1437.75 4.06675 0.948972 0
M  V30 15247 N 1438.19 0.611994 1.45232 0
M  V30 15248 C 1439.61 0.276005 1.57195 0
M  V30 15249 C 1439.81 -1.22136 1.60266 0
M  V30 15250 O 1438.86 -2.00459 1.53533 0
M  V30 15251 C 1440.18 0.951064 2.85263 0
M  V30 15252 C 1441.72 0.927398 2.98945 0
M  V30 15253 C 1442.2 1.58255 4.2979 0
M  V30 15254 N 1443.69 1.54825 4.36559 0
M  V30 15255 C 1444.43 2.02428 5.3648 0
M  V30 15256 N 1443.92 2.58137 6.42913 0
M  V30 15257 N 1445.71 1.9317 5.27865 0
M  V30 15258 H 1437.87 1.58418 1.41483 0
M  V30 15259 H 1440.13 0.663879 0.676734 0
M  V30 15260 H 1439.83 2.00557 2.88912 0
M  V30 15261 H 1439.71 0.477044 3.74171 0
M  V30 15262 H 1442.1 -0.118571 2.94862 0
M  V30 15263 H 1442.18 1.43973 2.11437 0
M  V30 15264 H 1441.82 2.62787 4.34632 0
M  V30 15265 H 1441.75 1.04521 5.16123 0
M  V30 15266 H 1444.24 1.14133 3.60253 0
M  V30 15267 H 1444.55 2.92243 7.15412 0
M  V30 15268 H 1442.9 2.62179 6.43652 0
M  V30 15269 H 1446.09 1.49384 4.43624 0
M  V30 15270 H 1446.26 2.30582 6.05587 0
M  V30 15271 N 1439.67 -1.53632 0.351409 0
M  V30 15272 C 1440.92 -2.01338 -0.243047 0
M  V30 15273 C 1441.25 -1.23864 -1.4957 0
M  V30 15274 O 1440.52 -0.328412 -1.91707 0
M  V30 15275 C 1440.81 -3.55886 -0.549284 0
M  V30 15276 C 1440.66 -4.44064 0.716016 0
M  V30 15277 C 1441.98 -4.18699 -1.35569 0
M  V30 15278 H 1439.1 -0.731863 -0.0868627 0
M  V30 15279 H 1441.74 -1.84005 0.473501 0
M  V30 15280 H 1439.89 -3.70787 -1.15972 0
M  V30 15281 H 1441.56 -4.40987 1.35383 0
M  V30 15282 H 1439.8 -4.12608 1.3393 0
M  V30 15283 H 1440.48 -5.50106 0.456895 0
M  V30 15284 H 1442.95 -4.07545 -0.839441 0
M  V30 15285 H 1441.83 -5.26892 -1.53871 0
M  V30 15286 H 1442.09 -3.73834 -2.3601 0
M  V30 15287 N 1441.15 -0.0802183 -1.57396 0
M  V30 15288 C 1442.1 0.894334 -2.09728 0
M  V30 15289 C 1443.08 1.25342 -1.00887 0
M  V30 15290 O 1444.27 1.23099 -1.27184 0
M  V30 15291 C 1441.4 2.15885 -2.66924 0
M  V30 15292 C 1440.49 1.82587 -3.82783 0
M  V30 15293 N 1440.88 1.19777 -4.91413 0
M  V30 15294 C 1439.18 2.12287 -3.92237 0
M  V30 15295 C 1439.88 1.04758 -5.72189 0
M  V30 15296 N 1438.85 1.56005 -5.20733 0
M  V30 15297 H 1442.66 0.404523 -2.91103 0
M  V30 15298 H 1440.17 0.123432 -1.6193 0
M  V30 15299 H 1442.17 2.8663 -3.02736 0
M  V30 15300 H 1440.83 2.65446 -1.86998 0
M  V30 15301 H 1441.84 0.866384 -5.10602 0
M  V30 15302 H 1438.52 2.64166 -3.23299 0
M  V30 15303 H 1439.91 0.55756 -6.69583 0
M  V30 15304 N 1442.63 1.56409 0.193394 0
M  V30 15305 C 1443.85 1.84837 0.929676 0
M  V30 15306 C 1444.27 0.662928 1.76779 0
M  V30 15307 O 1443.63 -0.368339 1.78744 0
M  V30 15308 C 1443.68 3.12083 1.82445 0
M  V30 15309 O 1443.4 4.26056 1.02018 0
M  V30 15310 C 1444.9 3.53701 2.67227 0
M  V30 15311 H 1442.12 0.613766 0.271168 0
M  V30 15312 H 1444.66 2.03518 0.200134 0
M  V30 15313 H 1442.82 2.95294 2.5076 0
M  V30 15314 H 1443.23 4.98526 1.63008 0
M  V30 15315 H 1444.71 4.45699 3.25663 0
M  V30 15316 H 1445.18 2.76771 3.41019 0
M  V30 15317 H 1445.79 3.73027 2.04281 0
M  V30 15318 N 1444.1 -0.461169 1.50702 0
M  V30 15319 C 1445.51 -1.04177 1.54932 0
M  V30 15320 C 1445.87 -1.92894 0.358648 0
M  V30 15321 O 1444.99 -2.09876 -0.527346 0
M  V30 15322 C 1445.59 -1.8961 2.80773 0
M  V30 15323 C 1444.14 -2.42761 2.87652 0
M  V30 15324 C 1443.29 -1.21356 2.49335 0
M  V30 15325 H 1446.24 -0.243379 1.56823 0
M  V30 15326 H 1446.26 -2.74794 2.63189 0
M  V30 15327 H 1445.78 -1.25014 3.67414 0
M  V30 15328 H 1443.88 -3.10881 2.05386 0
M  V30 15329 H 1443.99 -2.77189 3.90772 0
M  V30 15330 H 1442.35 -1.55146 2.01995 0
M  V30 15331 H 1443.14 -0.584069 3.38295 0
M  V30 15332 N 1445.58 -1.40446 -0.715026 0
M  V30 15333 C 1446.53 -1.37235 -1.82073 0
M  V30 15334 C 1447.52 -0.249808 -1.58949 0
M  V30 15335 O 1448.71 -0.488958 -1.70112 0
M  V30 15336 C 1445.84 -1.23786 -3.20206 0
M  V30 15337 C 1444.92 -2.40824 -3.49091 0
M  V30 15338 N 1445.31 -3.66305 -3.4879 0
M  V30 15339 C 1443.61 -2.34215 -3.79551 0
M  V30 15340 C 1444.31 -4.43817 -3.76034 0
M  V30 15341 N 1443.29 -3.73664 -3.94811 0
M  V30 15342 H 1447.09 -2.32195 -1.80174 0
M  V30 15343 H 1444.6 -1.34226 -0.914175 0
M  V30 15344 H 1446.6 -1.19568 -3.99386 0
M  V30 15345 H 1445.26 -0.297938 -3.2333 0
M  V30 15346 H 1446.27 -3.99458 -3.29626 0
M  V30 15347 H 1442.95 -1.48592 -3.90162 0
M  V30 15348 H 1444.34 -5.52674 -3.82101 0
M  V30 15349 N 1447.06 0.947303 -1.25952 0
M  V30 15350 C 1447.99 2.0625 -1.09467 0
M  V30 15351 C 1448.97 1.701 -0.00160498 0
M  V30 15352 O 1450.16 1.93432 -0.172501 0
M  V30 15353 C 1447.29 3.39746 -0.720392 0
M  V30 15354 C 1446.24 3.89935 -1.76451 0
M  V30 15355 C 1445.57 5.2001 -1.24472 0
M  V30 15356 C 1446.87 4.15496 -3.16481 0
M  V30 15357 H 1448.56 2.203 -2.02752 0
M  V30 15358 H 1446.11 1.05858 -0.97622 0
M  V30 15359 H 1448.06 4.17221 -0.591972 0
M  V30 15360 H 1446.78 3.25656 0.248161 0
M  V30 15361 H 1445.44 3.14635 -1.8815 0
M  V30 15362 H 1445.09 5.02295 -0.266182 0
M  V30 15363 H 1444.79 5.54559 -1.94263 0
M  V30 15364 H 1446.31 6.00075 -1.12884 0
M  V30 15365 H 1447.73 4.83605 -3.07894 0
M  V30 15366 H 1446.12 4.61315 -3.83808 0
M  V30 15367 H 1447.19 3.21501 -3.62995 0
M  V30 15368 N 1448.54 1.07657 1.15099 0
M  V30 15369 C 1449.82 0.714608 1.82079 0
M  V30 15370 C 1450.2 -0.802578 1.95248 0
M  V30 15371 O 1449.54 -1.71818 1.50634 0
M  V30 15372 C 1449.75 1.43264 3.1824 0
M  V30 15373 C 1451.1 1.58675 3.93837 0
M  V30 15374 O 1452.13 1.39367 3.27804 0
M  V30 15375 O 1450.98 1.9047 5.12234 0
M  V30 15376 H 1448.08 0.254645 0.786819 0
M  V30 15377 H 1450.62 1.17768 1.22183 0
M  V30 15378 H 1449.4 2.46655 3.03772 0
M  V30 15379 H 1449.02 0.960546 3.85823 0
M  V30 15380 N 1450.02 -1.31994 0.861122 0
M  V30 15381 C 1451.43 -1.49756 0.551844 0
M  V30 15382 C 1451.63 -1.79473 -0.916056 0
M  V30 15383 O 1450.69 -1.86813 -1.69874 0
M  V30 15384 C 1452 -2.63737 1.44442 0
M  V30 15385 C 1453.55 -2.77621 1.44552 0
M  V30 15386 C 1454.02 -3.94689 2.32346 0
M  V30 15387 N 1455.52 -4.01961 2.30177 0
M  V30 15388 C 1456.25 -4.91794 2.94833 0
M  V30 15389 N 1455.75 -5.86589 3.68626 0
M  V30 15390 N 1457.54 -4.84968 2.84188 0
M  V30 15391 H 1449.69 -1.10972 1.81105 0
M  V30 15392 H 1451.95 -0.54753 0.773896 0
M  V30 15393 H 1451.66 -2.48526 2.48853 0
M  V30 15394 H 1451.53 -3.59671 1.13651 0
M  V30 15395 H 1453.92 -2.92251 0.409034 0
M  V30 15396 H 1454 -1.8238 1.79363 0
M  V30 15397 H 1453.65 -3.80817 3.36067 0
M  V30 15398 H 1453.58 -4.89219 1.94865 0
M  V30 15399 H 1456.07 -3.34132 1.76533 0
M  V30 15400 H 1456.38 -6.51846 4.15111 0
M  V30 15401 H 1454.72 -5.86596 3.72734 0
M  V30 15402 H 1457.92 -4.09883 2.26084 0
M  V30 15403 H 1458.09 -5.54774 3.34857 0
M  V30 15404 N 1451.49 -0.619688 -1.44906 0
M  V30 15405 C 1452.42 0.0791121 -2.33366 0
M  V30 15406 C 1453.41 0.846503 -1.47541 0
M  V30 15407 O 1454.59 0.814657 -1.76287 0
M  V30 15408 C 1451.72 1.06901 -3.30438 0
M  V30 15409 C 1450.67 0.41403 -4.25993 0
M  V30 15410 C 1450 1.51303 -5.12846 0
M  V30 15411 C 1451.3 -0.672483 -5.17953 0
M  V30 15412 H 1452.99 -0.659551 -2.92045 0
M  V30 15413 H 1450.54 -0.318623 -1.40431 0
M  V30 15414 H 1452.49 1.56653 -3.912 0
M  V30 15415 H 1451.22 1.83842 -2.69944 0
M  V30 15416 H 1449.88 -0.0627315 -3.66546 0
M  V30 15417 H 1449.52 2.27303 -4.48712 0
M  V30 15418 H 1449.22 1.08022 -5.77586 0
M  V30 15419 H 1450.75 2.01258 -5.76479 0
M  V30 15420 H 1452.16 -0.258542 -5.72717 0
M  V30 15421 H 1450.56 -1.02776 -5.91234 0
M  V30 15422 H 1451.63 -1.54425 -4.59653 0
M  V30 15423 N 1452.97 1.53444 -0.359552 0
M  V30 15424 C 1454.22 2.01464 0.232366 0
M  V30 15425 C 1454.55 1.24656 1.48911 0
M  V30 15426 O 1453.83 0.338574 1.9153 0
M  V30 15427 C 1454.11 3.56172 0.530403 0
M  V30 15428 C 1453.96 4.43678 -0.739556 0
M  V30 15429 C 1455.28 4.19412 1.33347 0
M  V30 15430 H 1452.4 0.732314 0.0829802 0
M  V30 15431 H 1455.04 1.83752 -0.483253 0
M  V30 15432 H 1453.19 3.71396 1.14004 0
M  V30 15433 H 1454.86 4.40263 -1.37719 0
M  V30 15434 H 1453.11 4.11892 -1.36117 0
M  V30 15435 H 1453.78 5.49856 -0.486062 0
M  V30 15436 H 1456.25 4.07984 0.817816 0
M  V30 15437 H 1455.13 5.277 1.51075 0
M  V30 15438 H 1455.39 3.7508 2.34024 0
M  V30 15439 N 1454.45 0.0885642 1.57351 0
M  V30 15440 C 1455.68 -0.588641 1.98871 0
M  V30 15441 C 1456.1 -1.61333 0.967125 0
M  V30 15442 O 1455.46 -1.81183 -0.0652149 0
M  V30 15443 C 1455.51 -1.21877 3.39379 0
M  V30 15444 O 1454.61 -2.33462 3.39955 0
M  V30 15445 H 1453.95 -0.149938 0.64685 0
M  V30 15446 H 1456.48 0.168043 2.03909 0
M  V30 15447 H 1456.49 -1.56163 3.76931 0
M  V30 15448 H 1455.17 -0.468037 4.13258 0
M  V30 15449 H 1453.74 -2.00844 3.14191 0
M  V30 15450 N 1455.93 -1.56509 -0.185096 0
M  V30 15451 C 1456.89 -1.94468 -1.21305 0
M  V30 15452 C 1457.89 -0.826838 -1.37913 0
M  V30 15453 O 1459.08 -1.09411 -1.35554 0
M  V30 15454 C 1456.21 -2.22747 -2.58063 0
M  V30 15455 H 1457.41 -2.86442 -0.888323 0
M  V30 15456 H 1454.96 -1.50354 -0.427012 0
M  V30 15457 H 1455.69 -1.33443 -2.95573 0
M  V30 15458 H 1455.48 -3.04215 -2.47378 0
M  V30 15459 H 1456.97 -2.53084 -3.32172 0
M  V30 15460 N 1457.41 0.45317 -1.50944 0
M  V30 15461 C 1458.82 0.788393 -1.38768 0
M  V30 15462 C 1459.02 1.96233 -0.457676 0
M  V30 15463 O 1458.08 2.52328 0.0930651 0
M  V30 15464 C 1459.39 1.08363 -2.80496 0
M  V30 15465 C 1460.94 1.18901 -2.89537 0
M  V30 15466 C 1461.41 1.51727 -4.32138 0
M  V30 15467 N 1462.91 1.58683 -4.35171 0
M  V30 15468 C 1463.64 1.85623 -5.42523 0
M  V30 15469 N 1463.14 2.10462 -6.60059 0
M  V30 15470 N 1464.93 1.87274 -5.29986 0
M  V30 15471 H 1457.08 -0.320216 -2.09972 0
M  V30 15472 H 1459.34 -0.0808021 -0.94455 0
M  V30 15473 H 1459.05 0.293897 -3.5047 0
M  V30 15474 H 1458.92 2.01532 -3.18849 0
M  V30 15475 H 1461.31 1.96939 -2.19771 0
M  V30 15476 H 1461.39 0.236691 -2.54703 0
M  V30 15477 H 1461.04 0.74223 -5.02447 0
M  V30 15478 H 1460.97 2.48139 -4.64472 0
M  V30 15479 H 1463.46 1.41455 -3.50427 0
M  V30 15480 H 1463.77 2.30343 -7.37673 0
M  V30 15481 H 1462.11 2.07817 -6.63202 0
M  V30 15482 H 1465.31 1.67377 -4.37153 0
M  V30 15483 H 1465.48 2.07933 -6.13733 0
M  V30 15484 N 1458.88 1.40823 0.707568 0
M  V30 15485 C 1460.11 1.43061 1.50161 0
M  V30 15486 C 1460.53 0.0342144 1.88069 0
M  V30 15487 O 1459.89 -0.959674 1.53818 0
M  V30 15488 C 1459.94 2.33459 2.74826 0
M  V30 15489 O 1459.04 1.78336 3.71847 0
M  V30 15490 H 1458.39 0.48602 0.452417 0
M  V30 15491 H 1460.92 1.85147 0.870742 0
M  V30 15492 H 1460.93 2.48922 3.23267 0
M  V30 15493 H 1459.6 3.34927 2.46571 0
M  V30 15494 H 1458.18 1.7226 3.30728 0
M  V30 15495 N 1460.36 -0.94061 1.26453 0
M  V30 15496 C 1461.61 -1.68937 1.12197 0
M  V30 15497 C 1461.94 -1.91309 -0.33382 0
M  V30 15498 O 1461.22 -1.49417 -1.24518 0
M  V30 15499 C 1461.5 -3.06381 1.89215 0
M  V30 15500 C 1461.35 -2.91331 3.42704 0
M  V30 15501 C 1462.67 -4.06507 1.68642 0
M  V30 15502 H 1459.79 -0.613121 0.408964 0
M  V30 15503 H 1462.43 -1.09242 1.55455 0
M  V30 15504 H 1460.58 -3.57339 1.5245 0
M  V30 15505 H 1462.25 -2.47591 3.89226 0
M  V30 15506 H 1460.5 -2.26945 3.697 0
M  V30 15507 H 1461.17 -3.88818 3.91822 0
M  V30 15508 H 1463.64 -3.64512 2.00674 0
M  V30 15509 H 1462.52 -5.0069 2.24945 0
M  V30 15510 H 1462.78 -4.37572 0.631131 0
M  V30 15511 N 1461.84 -1.08266 -1.14527 0
M  V30 15512 C 1463.07 -0.832994 -1.89937 0
M  V30 15513 C 1463.49 0.608985 -1.77969 0
M  V30 15514 O 1462.85 1.42657 -1.11887 0
M  V30 15515 C 1462.9 -1.25782 -3.37952 0
M  V30 15516 O 1462 -0.408853 -4.10368 0
M  V30 15517 H 1461.34 -0.30267 -0.591005 0
M  V30 15518 H 1463.87 -1.44371 -1.44977 0
M  V30 15519 H 1463.88 -1.23804 -3.88763 0
M  V30 15520 H 1462.56 -2.30804 -3.4598 0
M  V30 15521 H 1461.13 -0.49192 -3.69641 0
M  V30 15522 N 1463.32 1.31536 -0.86811 0
M  V30 15523 C 1464.73 1.78991 -0.530937 0
M  V30 15524 C 1465.08 1.71553 0.952046 0
M  V30 15525 O 1464.21 1.28216 1.74326 0
M  V30 15526 C 1464.8 3.25004 -0.956981 0
M  V30 15527 C 1463.36 3.70362 -0.671495 0
M  V30 15528 C 1462.51 2.52361 -1.14932 0
M  V30 15529 H 1465.46 1.18644 -1.05401 0
M  V30 15530 H 1465.48 3.79477 -0.278883 0
M  V30 15531 H 1464.99 3.30385 -2.03635 0
M  V30 15532 H 1463.09 3.70483 0.39659 0
M  V30 15533 H 1463.21 4.62581 -1.24722 0
M  V30 15534 H 1461.57 2.4826 -0.569144 0
M  V30 15535 H 1462.35 2.60489 -2.23608 0
M  V30 15536 N 1464.8 0.627364 1.44575 0
M  V30 15537 C 1466.03 0.137313 2.06444 0
M  V30 15538 C 1466.44 -1.18655 1.46855 0
M  V30 15539 O 1465.8 -1.72699 0.590018 0
M  V30 15540 C 1465.85 0.0123481 3.61498 0
M  V30 15541 O 1465.57 1.28385 4.18866 0
M  V30 15542 C 1467.07 -0.506841 4.40393 0
M  V30 15543 H 1464.29 0.0779387 0.666458 0
M  V30 15544 H 1466.83 0.860701 1.85505 0
M  V30 15545 H 1464.99 -0.66146 3.81711 0
M  V30 15546 H 1465.4 1.12626 5.12265 0
M  V30 15547 H 1466.88 -0.543304 5.4932 0
M  V30 15548 H 1467.35 -1.53314 4.11572 0
M  V30 15549 H 1467.96 0.133589 4.2509 0
M  V30 15550 N 1466.28 -1.53251 0.367684 0
M  V30 15551 C 1467.5 -2.05705 -0.222047 0
M  V30 15552 C 1467.92 -1.24104 -1.4228 0
M  V30 15553 O 1467.28 -0.282228 -1.80305 0
M  V30 15554 C 1467.33 -3.56257 -0.613475 0
M  V30 15555 O 1467.05 -4.34765 0.539558 0
M  V30 15556 C 1468.55 -4.24976 -1.26137 0
M  V30 15557 H 1465.77 -0.66989 -0.0385799 0
M  V30 15558 H 1468.31 -1.97602 0.526663 0
M  V30 15559 H 1466.47 -3.64503 -1.3121 0
M  V30 15560 H 1466.88 -5.24027 0.222699 0
M  V30 15561 H 1468.36 -5.31628 -1.4858 0
M  V30 15562 H 1468.83 -3.78828 -2.2223 0
M  V30 15563 H 1469.44 -4.20987 -0.604121 0
M  V30 15564 N 1467.75 -0.0969077 -1.57302 0
M  V30 15565 C 1468.66 0.875561 -2.17649 0
M  V30 15566 C 1469.68 1.30892 -1.14645 0
M  V30 15567 O 1470.86 1.37646 -1.47022 0
M  V30 15568 C 1467.92 2.116 -2.74639 0
M  V30 15569 C 1466.98 1.73667 -3.92604 0
M  V30 15570 C 1466.21 2.91798 -4.46867 0
M  V30 15571 O 1466.44 4.06577 -4.00064 0
M  V30 15572 O 1465.37 2.70159 -5.37864 0
M  V30 15573 H 1469.2 0.392107 -3.01158 0
M  V30 15574 H 1466.78 0.127539 -1.48855 0
M  V30 15575 H 1468.66 2.84292 -3.11057 0
M  V30 15576 H 1467.34 2.58994 -1.94174 0
M  V30 15577 H 1466.25 0.981505 -3.60995 0
M  V30 15578 H 1467.58 1.31035 -4.74437 0
M  V30 15579 N 1469.23 1.56605 0.176793 0
M  V30 15580 C 1470.16 1.91079 1.24756 0
M  V30 15581 C 1471.14 0.772947 1.43053 0
M  V30 15582 O 1472.33 1.02573 1.58149 0
M  V30 15583 C 1469.45 2.15695 2.61139 0
M  V30 15584 C 1468.5 3.38387 2.59609 0
M  V30 15585 S 1469.33 4.92933 2.09231 0
M  V30 15586 C 1470.49 5.20637 3.47402 0
M  V30 15587 H 1470.72 2.81602 0.953291 0
M  V30 15588 H 1468.25 1.49622 0.381117 0
M  V30 15589 H 1470.21 2.30558 3.39637 0
M  V30 15590 H 1468.87 1.25889 2.87769 0
M  V30 15591 H 1468.07 3.52794 3.59934 0
M  V30 15592 H 1467.67 3.22611 1.89203 0
M  V30 15593 H 1469.96 5.12279 4.4337 0
M  V30 15594 H 1470.9 6.22292 3.37874 0
M  V30 15595 H 1471.31 4.4822 3.4316 0
M  V30 15596 N 1470.71 -0.445159 1.51182 0
M  V30 15597 C 1471.96 -1.19701 1.63705 0
M  V30 15598 C 1472.29 -1.91047 0.348511 0
M  V30 15599 O 1471.56 -1.83264 -0.651497 0
M  V30 15600 C 1471.85 -2.22021 2.83511 0
M  V30 15601 C 1471.7 -1.54809 4.2232 0
M  V30 15602 C 1473.02 -3.23083 2.9884 0
M  V30 15603 H 1470.14 -0.433818 0.595795 0
M  V30 15604 H 1472.78 -0.487276 1.83645 0
M  V30 15605 H 1470.93 -2.82551 2.66641 0
M  V30 15606 H 1472.6 -0.976774 4.5084 0
M  V30 15607 H 1470.84 -0.850596 4.25379 0
M  V30 15608 H 1471.52 -2.29289 5.02126 0
M  V30 15609 H 1473.99 -2.72601 3.14369 0
M  V30 15610 H 1472.87 -3.91978 3.84246 0
M  V30 15611 H 1473.13 -3.88732 2.1057 0
M  V30 15612 N 1472.19 -1.41197 -0.700089 0
M  V30 15613 C 1473.41 -1.43856 -1.494 0
M  V30 15614 C 1473.84 -0.0441877 -1.88048 0
M  V30 15615 O 1473.2 0.951503 -1.54325 0
M  V30 15616 C 1473.24 -2.34913 -2.73584 0
M  V30 15617 O 1472.35 -1.80305 -3.70896 0
M  V30 15618 H 1471.69 -0.488412 -0.449833 0
M  V30 15619 H 1474.22 -1.85606 -0.860911 0
M  V30 15620 H 1474.23 -2.50633 -3.21943 0
M  V30 15621 H 1472.9 -3.36229 -2.44791 0
M  V30 15622 H 1471.48 -1.74012 -3.29809 0
M  V30 15623 N 1473.67 0.933891 -1.2695 0
M  V30 15624 C 1474.61 2.05498 -1.08964 0
M  V30 15625 C 1475.61 1.69394 -0.0144837 0
M  V30 15626 O 1476.81 1.79179 -0.171729 0
M  V30 15627 H 1473.19 0.672978 -0.335566 0
M  V30 15628 H 1475.16 2.17817 -2.03957 0
M  V30 15629 C 1473.91 3.39579 -0.747074 0
M  V30 15630 H 1473.23 3.67842 -1.56628 0
M  V30 15631 H 1474.67 4.18815 -0.661064 0
M  V30 15632 C 1473.13 3.3241 0.548214 0
M  V30 15633 O 1473.66 3.69132 1.58443 0
M  V30 15634 N 1471.87 2.85509 0.541545 0
M  V30 15635 H 1471.41 2.55822 -0.302112 0
M  V30 15636 H 1471.37 2.81095 1.4083 0
M  V30 15637 N 1475.14 1.08871 1.13951 0
M  V30 15638 C 1476.05 0.734869 2.22793 0
M  V30 15639 C 1477.07 -0.260699 1.72036 0
M  V30 15640 O 1478.25 -0.103461 2.01134 0
M  V30 15641 C 1475.31 0.154599 3.46355 0
M  V30 15642 C 1474.37 1.20539 4.1203 0
M  V30 15643 C 1473.6 0.652712 5.29694 0
M  V30 15644 O 1473.83 -0.526264 5.67967 0
M  V30 15645 O 1472.76 1.40503 5.85271 0
M  V30 15646 H 1476.59 1.64297 2.55422 0
M  V30 15647 H 1474.17 0.862716 1.21974 0
M  V30 15648 H 1476.05 -0.165962 4.21073 0
M  V30 15649 H 1474.73 -0.726592 3.1544 0
M  V30 15650 H 1473.64 1.57855 3.39164 0
M  V30 15651 H 1474.97 2.05902 4.47063 0
M  V30 15652 N 1476.62 -1.31073 0.875073 0
M  V30 15653 C 1477.85 -2.01223 0.502383 0
M  V30 15654 C 1478.27 -1.65223 -0.899053 0
M  V30 15655 O 1477.63 -0.863559 -1.59412 0
M  V30 15656 C 1477.68 -3.54269 0.672747 0
M  V30 15657 O 1476.78 -4.11409 -0.285718 0
M  V30 15658 H 1476.12 -0.633422 0.199181 0
M  V30 15659 H 1478.65 -1.67152 1.17989 0
M  V30 15660 H 1478.66 -4.04027 0.567973 0
M  V30 15661 H 1477.34 -3.79811 1.69459 0
M  V30 15662 H 1475.91 -3.72654 -0.135472 0
M  V30 15663 N 1478.1 -0.635022 -1.4424 0
M  V30 15664 C 1479.35 -0.141276 -2.02307 0
M  V30 15665 C 1479.68 1.23508 -1.49865 0
M  V30 15666 O 1478.95 1.82065 -0.684291 0
M  V30 15667 C 1479.24 -0.132196 -3.59857 0
M  V30 15668 C 1479.09 -1.54117 -4.22573 0
M  V30 15669 C 1480.41 0.541186 -4.3676 0
M  V30 15670 H 1477.53 -0.0528117 -0.735105 0
M  V30 15671 H 1480.17 -0.812239 -1.71763 0
M  V30 15672 H 1478.32 0.439156 -3.8601 0
M  V30 15673 H 1479.99 -2.16171 -4.07514 0
M  V30 15674 H 1478.24 -2.09389 -3.79919 0
M  V30 15675 H 1478.91 -1.48682 -5.31599 0
M  V30 15676 H 1481.38 0.0552603 -4.16063 0
M  V30 15677 H 1480.26 0.516742 -5.46462 0
M  V30 15678 H 1480.52 1.61222 -4.11655 0
M  V30 15679 N 1479.58 1.53054 -0.375806 0
M  V30 15680 C 1480.86 1.93761 0.26757 0
M  V30 15681 C 1481.24 1.31019 1.65521 0
M  V30 15682 O 1480.58 0.473138 2.23548 0
M  V30 15683 C 1480.79 3.47643 0.307505 0
M  V30 15684 C 1482.14 4.21114 0.542951 0
M  V30 15685 O 1483.17 3.54077 0.388285 0
M  V30 15686 O 1482.02 5.39929 0.8449 0
M  V30 15687 H 1479.12 0.810805 0.16286 0
M  V30 15688 H 1481.66 1.64179 -0.429334 0
M  V30 15689 H 1480.44 3.85608 -0.665001 0
M  V30 15690 H 1480.06 3.83488 1.04988 0
M  V30 15691 N 1481.06 0.105248 1.57248 0
M  V30 15692 C 1482.29 -0.563339 1.98771 0
M  V30 15693 C 1482.69 -1.6163 0.98348 0
M  V30 15694 O 1482.04 -1.83669 -0.0337474 0
M  V30 15695 C 1482.1 -1.26026 3.36686 0
M  V30 15696 C 1481.76 -0.356865 4.55605 0
M  V30 15697 C 1482.76 0.399055 5.18366 0
M  V30 15698 C 1480.45 -0.271954 5.01563 0
M  V30 15699 C 1482.44 1.22776 6.25464 0
M  V30 15700 C 1480.13 0.560395 6.08525 0
M  V30 15701 C 1481.12 1.30889 6.70341 0
M  V30 15702 O 1480.81 2.12745 7.75239 0
M  V30 15703 H 1480.54 -0.154882 0.658018 0
M  V30 15704 H 1483.1 0.184266 2.04572 0
M  V30 15705 H 1481.33 -2.05465 3.27599 0
M  V30 15706 H 1483.02 -1.82439 3.62589 0
M  V30 15707 H 1483.78 0.343247 4.83784 0
M  V30 15708 H 1479.66 -0.844224 4.53204 0
M  V30 15709 H 1483.21 1.81248 6.73643 0
M  V30 15710 H 1479.1 0.617647 6.42538 0
M  V30 15711 H 1479.87 2.05537 7.92273 0
M  V30 15712 N 1482.53 -1.56697 -0.168486 0
M  V30 15713 C 1483.95 -1.50879 -0.52036 0
M  V30 15714 C 1484.15 -0.810001 -1.84503 0
M  V30 15715 O 1483.21 -0.371549 -2.49751 0
M  V30 15716 C 1484.52 -2.95618 -0.550502 0
M  V30 15717 C 1486.07 -3.06439 -0.637508 0
M  V30 15718 C 1486.54 -4.52642 -0.698516 0
M  V30 15719 N 1488.03 -4.569 -0.761328 0
M  V30 15720 C 1488.77 -5.67373 -0.829155 0
M  V30 15721 N 1488.26 -6.87471 -0.857642 0
M  V30 15722 N 1490.06 -5.55352 -0.868392 0
M  V30 15723 H 1482.21 -2.00531 0.700087 0
M  V30 15724 H 1484.47 -0.913683 0.252759 0
M  V30 15725 H 1484.18 -3.49912 0.354222 0
M  V30 15726 H 1484.05 -3.50416 -1.396 0
M  V30 15727 H 1486.44 -2.52178 -1.53266 0
M  V30 15728 H 1486.52 -2.54721 0.234719 0
M  V30 15729 H 1486.16 -5.07535 0.192387 0
M  V30 15730 H 1486.09 -5.0212 -1.58693 0
M  V30 15731 H 1488.58 -3.70434 -0.747482 0
M  V30 15732 H 1488.9 -7.67416 -0.910648 0
M  V30 15733 H 1487.24 -6.90076 -0.825872 0
M  V30 15734 H 1490.43 -4.60444 -0.843158 0
M  V30 15735 H 1490.61 -6.41468 -0.917789 0
M  V30 15736 N 1484.01 0.437135 -1.51416 0
M  V30 15737 C 1484.98 1.51313 -1.72154 0
M  V30 15738 C 1485.98 1.49523 -0.59157 0
M  V30 15739 O 1487.17 1.51541 -0.859118 0
M  V30 15740 C 1484.3 2.9085 -1.77818 0
M  V30 15741 H 1485.49 1.34229 -2.68184 0
M  V30 15742 H 1483.04 0.665822 -1.41409 0
M  V30 15743 H 1483.78 3.13338 -0.836033 0
M  V30 15744 H 1483.56 2.93554 -2.59939 0
M  V30 15745 H 1485.05 3.68905 -1.957 0
M  V30 15746 N 1485.49 1.41566 0.692592 0
M  V30 15747 C 1486.72 1.44445 1.48132 0
M  V30 15748 C 1487.13 0.0505867 1.88732 0
M  V30 15749 O 1486.49 -0.930779 1.5698 0
M  V30 15750 C 1486.54 2.35582 2.74196 0
M  V30 15751 O 1486.26 3.69545 2.35305 0
M  V30 15752 C 1487.76 2.47296 3.67912 0
M  V30 15753 H 1484.98 0.491877 0.456396 0
M  V30 15754 H 1487.53 1.85884 0.852499 0
M  V30 15755 H 1485.68 1.97445 3.33308 0
M  V30 15756 H 1486.1 4.1818 3.16584 0
M  V30 15757 H 1487.57 3.15225 4.53141 0
M  V30 15758 H 1488.05 1.50517 4.12603 0
M  V30 15759 H 1488.65 2.86082 3.14702 0
M  V30 15760 N 1486.97 -0.927146 1.27443 0
M  V30 15761 C 1488.22 -1.67489 1.13814 0
M  V30 15762 C 1488.54 -1.91917 -0.315914 0
M  V30 15763 O 1487.8 -1.5079 -1.24743 0
M  V30 15764 C 1488.1 -3.0472 1.86764 0
M  V30 15765 C 1487.76 -3 3.36617 0
M  V30 15766 C 1486.43 -2.9842 3.77491 0
M  V30 15767 C 1488.78 -2.91249 4.32231 0
M  V30 15768 C 1486.11 -2.85872 5.12342 0
M  V30 15769 C 1488.46 -2.80242 5.67139 0
M  V30 15770 C 1487.12 -2.77013 6.07306 0
M  V30 15771 H 1486.39 -0.612887 0.416474 0
M  V30 15772 H 1489.04 -1.0812 1.58058 0
M  V30 15773 H 1487.34 -3.67797 1.35029 0
M  V30 15774 H 1489.04 -3.61453 1.73646 0
M  V30 15775 H 1485.63 -3.02017 3.04111 0
M  V30 15776 H 1489.81 -2.91567 4.01625 0
M  V30 15777 H 1485.07 -2.81758 5.42607 0
M  V30 15778 H 1489.24 -2.72437 6.40899 0
M  V30 15779 H 1486.87 -2.67047 7.11751 0
M  V30 15780 N 1488.45 -1.09474 -1.13372 0
M  V30 15781 C 1489.86 -0.850378 -1.66209 0
M  V30 15782 C 1490.21 0.621071 -1.86111 0
M  V30 15783 O 1489.33 1.47837 -1.58029 0
M  V30 15784 C 1489.93 -1.53713 -3.01924 0
M  V30 15785 C 1488.49 -1.33972 -3.5175 0
M  V30 15786 C 1487.63 -1.5929 -2.26985 0
M  V30 15787 H 1490.59 -1.25383 -0.972874 0
M  V30 15788 H 1490.61 -0.970503 -3.67915 0
M  V30 15789 H 1490.12 -2.60804 -2.87407 0
M  V30 15790 H 1488.22 -0.289998 -3.7147 0
M  V30 15791 H 1488.33 -2.0749 -4.31839 0
M  V30 15792 H 1486.7 -1.01505 -2.336 0
M  V30 15793 H 1487.48 -2.67611 -2.15033 0
M  V30 15794 N 1489.92 1.30607 -0.882012 0
M  V30 15795 C 1490.83 2.31967 -0.350503 0
M  V30 15796 C 1491.85 1.6522 0.54575 0
M  V30 15797 O 1493.03 1.96544 0.439581 0
M  V30 15798 C 1490.09 3.44037 0.428924 0
M  V30 15799 C 1489.15 4.26417 -0.496727 0
M  V30 15800 C 1488.39 5.33135 0.245597 0
M  V30 15801 O 1488.61 5.51077 1.47209 0
M  V30 15802 O 1487.54 6.00551 -0.402767 0
M  V30 15803 H 1491.37 2.79374 -1.19095 0
M  V30 15804 H 1488.95 1.34723 -0.645754 0
M  V30 15805 H 1490.84 4.12314 0.870346 0
M  V30 15806 H 1489.51 2.9877 1.24573 0
M  V30 15807 H 1488.42 3.60848 -0.986899 0
M  V30 15808 H 1489.75 4.7528 -1.27945 0
M  V30 15809 N 1491.4 0.642663 1.43901 0
M  V30 15810 C 1492.68 0.0821715 1.95427 0
M  V30 15811 C 1493.06 -1.3951 1.58431 0
M  V30 15812 O 1492.41 -2.11531 0.864118 0
M  V30 15813 C 1492.62 0.317229 3.47555 0
M  V30 15814 C 1493.97 0.216547 4.24047 0
M  V30 15815 O 1494.99 0.249216 3.55327 0
M  V30 15816 O 1493.85 0.131269 5.46342 0
M  V30 15817 H 1490.94 -0.0156936 0.826851 0
M  V30 15818 H 1493.49 0.715168 1.53894 0
M  V30 15819 H 1492.26 1.34184 3.67574 0
M  V30 15820 H 1491.88 -0.349348 3.96062 0
M  V30 15821 N 1492.88 -1.52852 0.383918 0
M  V30 15822 C 1493.81 -2.23927 -0.488816 0
M  V30 15823 C 1494.83 -1.2598 -1.03115 0
M  V30 15824 O 1496.02 -1.5209 -0.934398 0
M  V30 15825 C 1493.12 -2.9378 -1.68957 0
M  V30 15826 C 1492.29 -4.18388 -1.27555 0
M  V30 15827 C 1491.35 -4.71287 -2.3404 0
M  V30 15828 O 1490.37 -5.34511 -1.9567 0
M  V30 15829 N 1491.58 -4.50679 -3.65881 0
M  V30 15830 H 1494.34 -2.99459 0.120084 0
M  V30 15831 H 1491.9 -1.60532 0.210004 0
M  V30 15832 H 1493.89 -3.26071 -2.39707 0
M  V30 15833 H 1492.46 -2.21588 -2.20493 0
M  V30 15834 H 1491.68 -3.92194 -0.397157 0
M  V30 15835 H 1492.97 -4.99361 -0.975506 0
M  V30 15836 H 1492.37 -4.00201 -3.9982 0
M  V30 15837 H 1490.93 -4.87473 -4.32681 0
M  V30 15838 N 1494.36 -0.113586 -1.5719 0
M  V30 15839 C 1495.61 0.54572 -1.95008 0
M  V30 15840 C 1495.93 1.67031 -0.996541 0
M  V30 15841 O 1495.19 1.9569 -0.0194353 0
M  V30 15842 C 1495.49 1.1238 -3.39272 0
M  V30 15843 C 1495.15 0.12112 -4.50737 0
M  V30 15844 C 1493.82 -0.154607 -4.80952 0
M  V30 15845 C 1496.17 -0.562502 -5.18156 0
M  V30 15846 C 1493.5 -1.12033 -5.75904 0
M  V30 15847 C 1495.85 -1.51682 -6.14146 0
M  V30 15848 C 1494.51 -1.80059 -6.42756 0
M  V30 15849 H 1493.78 0.199693 -0.713585 0
M  V30 15850 H 1496.43 -0.193344 -1.90521 0
M  V30 15851 H 1494.73 1.93951 -3.40426 0
M  V30 15852 H 1496.43 1.64195 -3.65843 0
M  V30 15853 H 1493.02 0.34621 -4.27199 0
M  V30 15854 H 1497.21 -0.362645 -4.94973 0
M  V30 15855 H 1492.46 -1.34699 -5.96377 0
M  V30 15856 H 1496.64 -2.05225 -6.65474 0
M  V30 15857 H 1494.26 -2.55046 -7.16139 0
M  V30 15858 N 1495.84 1.56784 0.160173 0
M  V30 15859 C 1497.25 1.72193 0.721552 0
M  V30 15860 C 1497.6 0.725901 1.82278 0
M  V30 15861 O 1496.72 -0.110343 2.16118 0
M  V30 15862 C 1497.32 3.12212 1.31563 0
M  V30 15863 C 1495.88 3.29268 1.82371 0
M  V30 15864 C 1495.03 2.68136 0.70701 0
M  V30 15865 H 1497.98 1.58565 -0.0653521 0
M  V30 15866 H 1498 3.11481 2.1854 0
M  V30 15867 H 1497.51 3.84682 0.513917 0
M  V30 15868 H 1495.61 2.61774 2.65152 0
M  V30 15869 H 1495.72 4.37107 1.96149 0
M  V30 15870 H 1494.09 2.28246 1.1303 0
M  V30 15871 H 1494.87 3.432 -0.0830407 0
M  V30 15872 N 1497.32 -0.429099 1.51646 0
M  V30 15873 C 1498.26 -1.54202 1.74139 0
M  V30 15874 C 1499.26 -1.58117 0.607905 0
M  V30 15875 O 1500.46 -1.61763 0.789486 0
M  V30 15876 H 1496.84 -0.512456 0.550357 0
M  V30 15877 H 1498.81 -1.32408 2.67415 0
M  V30 15878 C 1497.56 -2.91779 1.89104 0
M  V30 15879 H 1496.88 -2.89502 2.75733 0
M  V30 15880 H 1498.32 -3.68995 2.08851 0
M  V30 15881 C 1496.78 -3.30512 0.652945 0
M  V30 15882 O 1497.31 -4.01257 -0.188553 0
M  V30 15883 N 1495.52 -2.86359 0.494634 0
M  V30 15884 H 1495.06 -2.28959 1.18049 0
M  V30 15885 H 1495.02 -3.12637 -0.332503 0
M  V30 15886 N 1498.79 -1.41931 -0.685074 0
M  V30 15887 C 1500.02 -1.45432 -1.47866 0
M  V30 15888 C 1500.44 -0.0641302 -1.87991 0
M  V30 15889 O 1499.8 0.935081 -1.55325 0
M  V30 15890 C 1499.85 -2.37801 -2.71077 0
M  V30 15891 O 1498.95 -1.84229 -3.68963 0
M  V30 15892 H 1498.29 -0.493156 -0.444627 0
M  V30 15893 H 1500.82 -1.86508 -0.841177 0
M  V30 15894 H 1500.83 -2.54033 -3.19266 0
M  V30 15895 H 1499.51 -3.38807 -2.41211 0
M  V30 15896 H 1498.09 -1.775 -3.27945 0
M  V30 15897 N 1500.27 0.920374 -1.27933 0
M  V30 15898 C 1501.5 1.70804 -1.17647 0
M  V30 15899 C 1501.92 1.86264 0.262189 0
M  V30 15900 O 1501.28 1.36798 1.18979 0
M  V30 15901 C 1501.33 3.08142 -1.87298 0
M  V30 15902 O 1500.43 3.95279 -1.17593 0
M  V30 15903 H 1499.77 0.523267 -0.408763 0
M  V30 15904 H 1502.3 1.15127 -1.69136 0
M  V30 15905 H 1502.31 3.58414 -1.94945 0
M  V30 15906 H 1500.99 2.96208 -2.91948 0
M  V30 15907 H 1499.56 3.53716 -1.18065 0
M  V30 15908 N 1501.75 1.10074 1.1279 0
M  V30 15909 C 1502.68 0.704023 2.1812 0
M  V30 15910 C 1503.69 -0.25742 1.60752 0
M  V30 15911 O 1504.88 -0.0424559 1.7845 0
M  V30 15912 C 1501.98 0.0176666 3.38895 0
M  V30 15913 C 1501.16 1.00234 4.2576 0
M  V30 15914 C 1500.22 0.348158 5.25047 0
M  V30 15915 O 1499.24 0.997821 5.60386 0
M  V30 15916 N 1500.44 -0.894955 5.7356 0
M  V30 15917 H 1503.21 1.61024 2.52767 0
M  V30 15918 H 1500.77 0.989068 1.28176 0
M  V30 15919 H 1502.76 -0.431346 4.02395 0
M  V30 15920 H 1501.33 -0.7909 3.02429 0
M  V30 15921 H 1500.55 1.62972 3.58934 0
M  V30 15922 H 1501.84 1.669 4.80647 0
M  V30 15923 H 1501.24 -1.4422 5.47007 0
M  V30 15924 H 1499.79 -1.28718 6.38964 0
M  V30 15925 N 1503.23 -1.30138 0.888926 0
M  V30 15926 C 1504.18 -2.29979 0.348212 0
M  V30 15927 C 1505.17 -1.60329 -0.546894 0
M  V30 15928 O 1506.38 -1.74767 -0.43089 0
M  V30 15929 H 1502.75 -0.746107 0.0939563 0
M  V30 15930 H 1504.72 -2.73038 1.20385 0
M  V30 15931 C 1503.47 -3.45169 -0.418762 0
M  V30 15932 H 1502.79 -3.98949 0.260761 0
M  V30 15933 H 1504.23 -4.17094 -0.762133 0
M  V30 15934 C 1502.69 -2.95539 -1.61734 0
M  V30 15935 O 1503.22 -2.95902 -2.7167 0
M  V30 15936 N 1501.43 -2.51502 -1.45585 0
M  V30 15937 H 1500.98 -2.51406 -0.561483 0
M  V30 15938 H 1500.93 -2.18654 -2.25916 0
M  V30 15939 N 1504.71 -0.650285 -1.43559 0
M  V30 15940 C 1505.95 -0.162164 -2.01448 0
M  V30 15941 C 1506.27 1.22717 -1.51544 0
M  V30 15942 O 1505.54 1.81917 -0.726855 0
M  V30 15943 H 1504.12 -0.0569599 -0.744825 0
M  V30 15944 H 1506.79 -0.841294 -1.75807 0
M  V30 15945 H 1505.88 -0.144531 -3.11765 0
M  V30 15946 N 1506.18 1.52647 -0.392018 0
M  V30 15947 C 1507.41 2.06511 0.191815 0
M  V30 15948 C 1507.83 1.26162 1.39516 0
M  V30 15949 O 1507.19 0.287373 1.79008 0
M  V30 15950 C 1507.24 3.56571 0.537512 0
M  V30 15951 O 1506.34 3.78774 1.63106 0
M  V30 15952 H 1505.68 0.663647 0.0216546 0
M  V30 15953 H 1508.21 1.96779 -0.560274 0
M  V30 15954 H 1508.22 4.00059 0.801044 0
M  V30 15955 H 1506.9 4.14489 -0.342239 0
M  V30 15956 H 1505.48 3.47175 1.36103 0
M  V30 15957 N 1507.66 0.121921 1.57128 0
M  V30 15958 C 1508.9 -0.538423 1.97181 0
M  V30 15959 C 1509.27 -1.63661 1.00394 0
M  V30 15960 O 1510.47 -2.35606 1.29396 0
M  V30 15961 C 1508.74 -1.05469 3.41484 0
M  V30 15962 S 1510.3 -1.72315 4.0355 0
M  V30 15963 H 1507.12 -0.174913 0.689149 0
M  V30 15964 H 1509.72 0.207694 1.94394 0
M  V30 15965 H 1508.42 -0.244297 4.09672 0
M  V30 15966 H 1507.95 -1.83602 3.47928 0
M  V30 15967 H 1509.97 -3.0091 3.94547 0
M  V30 15968 N 1509.14 -1.56867 -0.151857 0
M  V30 15969 C 1510.56 -1.51422 -0.504328 0
M  V30 15970 C 1510.76 -0.829524 -1.83633 0
M  V30 15971 O 1509.81 -0.398018 -2.49343 0
M  V30 15972 C 1511.13 -2.96185 -0.519117 0
M  V30 15973 C 1512.67 -3.07098 -0.60497 0
M  V30 15974 C 1513.15 -4.53357 -0.650468 0
M  V30 15975 N 1514.64 -4.57682 -0.712825 0
M  V30 15976 C 1515.37 -5.68221 -0.768931 0
M  V30 15977 N 1514.87 -6.88342 -0.784678 0
M  V30 15978 N 1516.66 -5.56241 -0.809441 0
M  V30 15979 H 1508.81 -1.99777 0.721316 0
M  V30 15980 H 1511.08 -0.910951 0.262436 0
M  V30 15981 H 1510.78 -3.49516 0.391315 0
M  V30 15982 H 1510.66 -3.51877 -1.35876 0
M  V30 15983 H 1513.04 -2.53789 -1.50582 0
M  V30 15984 H 1513.13 -2.54458 0.261722 0
M  V30 15985 H 1512.77 -5.07303 0.246207 0
M  V30 15986 H 1512.7 -5.03775 -1.53358 0
M  V30 15987 H 1515.19 -3.71206 -0.708151 0
M  V30 15988 H 1515.5 -7.68339 -0.829202 0
M  V30 15989 H 1513.85 -6.90913 -0.752634 0
M  V30 15990 H 1517.04 -4.61312 -0.794274 0
M  V30 15991 H 1517.21 -6.42405 -0.849701 0
M  V30 15992 N 1510.62 0.421051 -1.51871 0
M  V30 15993 C 1511.55 1.53094 -1.70572 0
M  V30 15994 C 1512.56 1.5188 -0.586201 0
M  V30 15995 O 1513.75 1.56361 -0.861013 0
M  V30 15996 C 1510.85 2.92002 -1.72011 0
M  V30 15997 C 1510.03 3.17541 -3.0081 0
M  V30 15998 C 1509.08 4.36259 -2.94219 0
M  V30 15999 O 1508.11 4.34118 -3.68144 0
M  V30 16000 N 1509.31 5.40722 -2.11188 0
M  V30 16001 H 1512.08 1.3745 -2.66322 0
M  V30 16002 H 1509.64 0.610204 -1.4996 0
M  V30 16003 H 1511.63 3.6947 -1.65149 0
M  V30 16004 H 1510.2 3.01162 -0.837861 0
M  V30 16005 H 1509.42 2.28225 -3.21414 0
M  V30 16006 H 1510.71 3.3144 -3.86037 0
M  V30 16007 H 1510.11 5.45304 -1.50534 0
M  V30 16008 H 1508.66 6.16979 -2.10192 0
M  V30 16009 N 1512.1 1.42293 0.677538 0
M  V30 16010 C 1513.34 1.42827 1.43973 0
M  V30 16011 C 1513.68 0.0435041 1.94151 0
M  V30 16012 O 1512.95 -0.931794 1.70727 0
M  V30 16013 C 1513.23 2.45037 2.63873 0
M  V30 16014 C 1513.09 3.92694 2.19344 0
M  V30 16015 C 1514.41 2.4427 3.66087 0
M  V30 16016 H 1511.52 0.520097 0.522176 0
M  V30 16017 H 1514.17 1.73688 0.770219 0
M  V30 16018 H 1512.32 2.18851 3.20993 0
M  V30 16019 H 1513.99 4.2985 1.67412 0
M  V30 16020 H 1512.23 4.06692 1.50944 0
M  V30 16021 H 1512.9 4.59784 3.05455 0
M  V30 16022 H 1515.38 2.67551 3.18678 0
M  V30 16023 H 1514.25 3.17769 4.47564 0
M  V30 16024 H 1514.52 1.46769 4.17027 0
M  V30 16025 N 1513.57 -0.913576 1.28419 0
M  V30 16026 C 1514.51 -2.02073 1.08163 0
M  V30 16027 C 1515.52 -1.62766 0.0333064 0
M  V30 16028 O 1516.71 -1.76347 0.27638 0
M  V30 16029 C 1513.81 -3.33151 0.621596 0
M  V30 16030 C 1512.98 -4.01068 1.74536 0
M  V30 16031 C 1512.04 -5.10428 1.27868 0
M  V30 16032 O 1511.07 -5.33617 1.98094 0
M  V30 16033 N 1512.27 -5.80326 0.141976 0
M  V30 16034 H 1515.03 -2.20009 2.0351 0
M  V30 16035 H 1512.59 -1.08488 1.20174 0
M  V30 16036 H 1514.59 -4.03638 0.292989 0
M  V30 16037 H 1513.16 -3.11685 -0.239031 0
M  V30 16038 H 1512.38 -3.24127 2.24355 0
M  V30 16039 H 1513.66 -4.4319 2.49919 0
M  V30 16040 H 1513.06 -5.63956 -0.443845 0
M  V30 16041 H 1511.62 -6.51676 -0.127354 0
M  V30 16042 N 1515.05 -1.1067 -1.12204 0
M  V30 16043 C 1516.28 -0.871601 -1.87314 0
M  V30 16044 C 1516.69 0.581644 -1.80038 0
M  V30 16045 O 1516.03 1.4129 -1.17401 0
M  V30 16046 C 1516.1 -1.24458 -3.37269 0
M  V30 16047 C 1515.76 -2.70536 -3.6832 0
M  V30 16048 C 1516.76 -3.68769 -3.66477 0
M  V30 16049 C 1514.44 -3.06982 -3.97577 0
M  V30 16050 C 1516.44 -5.01471 -3.93454 0
M  V30 16051 C 1514.12 -4.39871 -4.24213 0
M  V30 16052 C 1515.12 -5.36924 -4.22139 0
M  V30 16053 O 1514.81 -6.6742 -4.48113 0
M  V30 16054 H 1514.54 -0.312472 -0.599447 0
M  V30 16055 H 1517.09 -1.47562 -1.4288 0
M  V30 16056 H 1515.32 -0.583674 -3.8227 0
M  V30 16057 H 1517.01 -0.986569 -3.93728 0
M  V30 16058 H 1517.78 -3.41957 -3.43934 0
M  V30 16059 H 1513.66 -2.32062 -3.98332 0
M  V30 16060 H 1517.2 -5.77215 -3.9175 0
M  V30 16061 H 1513.1 -4.6642 -4.46231 0
M  V30 16062 H 1513.87 -6.73088 -4.6572 0
M  V30 16063 N 1516.53 1.29665 -0.895815 0
M  V30 16064 C 1517.94 1.77825 -0.568784 0
M  V30 16065 C 1518.29 1.73534 0.915443 0
M  V30 16066 O 1517.42 1.31885 1.71567 0
M  V30 16067 C 1518.01 3.22901 -1.0257 0
M  V30 16068 C 1516.57 3.68854 -0.749903 0
M  V30 16069 C 1515.72 2.49866 -1.20259 0
M  V30 16070 H 1518.67 1.16381 -1.07894 0
M  V30 16071 H 1518.69 3.788 -0.359312 0
M  V30 16072 H 1518.2 3.25991 -2.10597 0
M  V30 16073 H 1516.3 3.71241 0.317916 0
M  V30 16074 H 1516.42 4.59831 -1.34506 0
M  V30 16075 H 1514.78 2.46997 -0.621676 0
M  V30 16076 H 1515.56 2.55687 -2.29083 0
M  V30 16077 N 1518.01 0.657889 1.43212 0
M  V30 16078 C 1518.94 -0.0172114 2.33494 0
M  V30 16079 C 1519.92 -0.807087 1.49733 0
M  V30 16080 O 1521.1 -0.767631 1.78385 0
M  V30 16081 C 1518.23 -0.981029 3.33156 0
M  V30 16082 C 1517.19 -0.30094 4.26941 0
M  V30 16083 C 1516.51 -1.37653 5.16678 0
M  V30 16084 C 1517.81 0.809572 5.15988 0
M  V30 16085 H 1519.51 0.736749 2.90194 0
M  V30 16086 H 1517.05 0.355744 1.39537 0
M  V30 16087 H 1519.01 -1.46226 3.95216 0
M  V30 16088 H 1517.73 -1.76621 2.74723 0
M  V30 16089 H 1516.39 0.159893 3.66251 0
M  V30 16090 H 1516.04 -2.15326 4.54581 0
M  V30 16091 H 1515.74 -0.926704 5.80246 0
M  V30 16092 H 1517.26 -1.85903 5.81612 0
M  V30 16093 H 1518.68 0.410297 5.7183 0
M  V30 16094 H 1517.07 1.18415 5.88301 0
M  V30 16095 H 1518.14 1.66558 4.55397 0
M  V30 16096 N 1519.49 -1.52437 0.400108 0
M  V30 16097 C 1520.71 -2.0613 -0.178364 0
M  V30 16098 C 1521.13 -1.27094 -1.39616 0
M  V30 16099 O 1520.49 -0.320409 -1.79665 0
M  V30 16100 C 1520.54 -3.57478 -0.53777 0
M  V30 16101 O 1520.26 -4.33522 0.631657 0
M  V30 16102 C 1521.76 -4.27556 -1.17094 0
M  V30 16103 H 1518.98 -0.670558 -0.0243619 0
M  V30 16104 H 1521.52 -1.9644 0.568459 0
M  V30 16105 H 1519.68 -3.67205 -1.23449 0
M  V30 16106 H 1520.09 -5.23437 0.333803 0
M  V30 16107 H 1521.57 -5.3466 -1.3727 0
M  V30 16108 H 1522.04 -3.83456 -2.14145 0
M  V30 16109 H 1522.65 -4.22174 -0.514687 0
M  V30 16110 N 1520.96 -0.130252 -1.57061 0
M  V30 16111 C 1522.24 0.569171 -1.87136 0
M  V30 16112 C 1522.62 1.84078 -1.03337 0
M  V30 16113 O 1521.97 2.28208 -0.11543 0
M  V30 16114 C 1522.18 0.850782 -3.38471 0
M  V30 16115 C 1523.53 1.19892 -4.07322 0
M  V30 16116 O 1524.55 0.940682 -3.43554 0
M  V30 16117 O 1523.41 1.6841 -5.19904 0
M  V30 16118 H 1520.5 0.288433 -0.775071 0
M  V30 16119 H 1523.05 -0.165603 -1.6889 0
M  V30 16120 H 1521.82 -0.0498562 -3.91268 0
M  V30 16121 H 1521.45 1.64032 -3.62187 0
M  V30 16122 N 1522.44 1.56945 0.143535 0
M  V30 16123 C 1523.38 1.93682 1.20675 0
M  V30 16124 C 1524.35 0.803117 1.41382 0
M  V30 16125 O 1525.54 1.05905 1.55937 0
M  V30 16126 C 1522.67 2.21185 2.56505 0
M  V30 16127 C 1521.71 3.43817 2.52372 0
M  V30 16128 S 1522.54 4.9726 1.98728 0
M  V30 16129 C 1523.7 5.27889 3.3628 0
M  V30 16130 H 1523.93 2.83561 0.893345 0
M  V30 16131 H 1521.47 1.50397 0.349294 0
M  V30 16132 H 1523.42 2.3771 3.3467 0
M  V30 16133 H 1522.09 1.31964 2.85034 0
M  V30 16134 H 1521.28 3.60349 3.5237 0
M  V30 16135 H 1520.88 3.26552 1.82318 0
M  V30 16136 H 1523.17 5.21568 4.32404 0
M  V30 16137 H 1524.12 6.29318 3.24598 0
M  V30 16138 H 1524.52 4.55398 3.33576 0
M  V30 16139 N 1523.92 -0.412991 1.52093 0
M  V30 16140 C 1525.15 -1.18667 1.70096 0
M  V30 16141 C 1525.57 -1.83622 0.408012 0
M  V30 16142 O 1524.93 -1.69847 -0.634174 0
M  V30 16143 C 1524.98 -2.22837 2.83507 0
M  V30 16144 O 1524.08 -3.2889 2.48807 0
M  V30 16145 H 1523.42 -0.346581 0.566373 0
M  V30 16146 H 1525.95 -0.484642 1.98777 0
M  V30 16147 H 1525.96 -2.67229 3.08306 0
M  V30 16148 H 1524.64 -1.74942 3.77317 0
M  V30 16149 H 1523.21 -2.89804 2.34665 0
M  V30 16150 N 1525.4 -1.4265 -0.669982 0
M  V30 16151 C 1526.81 -1.38614 -1.25072 0
M  V30 16152 C 1527.16 -0.0818051 -1.96029 0
M  V30 16153 O 1526.29 0.81931 -2.0029 0
M  V30 16154 C 1526.88 -2.51085 -2.27469 0
M  V30 16155 C 1525.44 -2.50366 -2.81059 0
M  V30 16156 C 1524.59 -2.29632 -1.5545 0
M  V30 16157 H 1527.54 -1.51794 -0.463058 0
M  V30 16158 H 1527.56 -2.21612 -3.09303 0
M  V30 16159 H 1527.07 -3.46002 -1.75796 0
M  V30 16160 H 1525.17 -1.5928 -3.36839 0
M  V30 16161 H 1525.29 -3.47569 -3.29746 0
M  V30 16162 H 1523.65 -1.77982 -1.82193 0
M  V30 16163 H 1524.43 -3.26611 -1.05736 0
M  V30 16164 N 1526.88 0.906753 -1.28902 0
M  V30 16165 C 1528.13 1.65119 -1.15839 0
M  V30 16166 C 1528.44 1.93426 0.290825 0
M  V30 16167 O 1529.65 2.66021 0.542678 0
M  V30 16168 C 1528.1 2.97492 -2.0255 0
M  V30 16169 C 1527.71 2.76807 -3.52253 0
M  V30 16170 C 1529.45 3.75393 -1.98192 0
M  V30 16171 C 1527.36 4.04863 -4.31091 0
M  V30 16172 H 1526.29 0.619409 -0.429939 0
M  V30 16173 H 1528.94 1.00567 -1.53488 0
M  V30 16174 H 1527.32 3.63217 -1.57763 0
M  V30 16175 H 1528.5 2.19719 -4.05044 0
M  V30 16176 H 1526.81 2.1231 -3.58209 0
M  V30 16177 H 1529.41 4.70325 -2.54358 0
M  V30 16178 H 1529.75 4.05074 -0.960267 0
M  V30 16179 H 1530.29 3.16498 -2.40985 0
M  V30 16180 H 1527.02 3.80353 -5.33865 0
M  V30 16181 H 1526.54 4.61537 -3.83072 0
M  V30 16182 H 1528.22 4.73066 -4.41381 0
M  V30 16183 N 1528.36 1.11264 1.11616 0
M  V30 16184 C 1529.29 0.79149 2.19676 0
M  V30 16185 C 1530.27 -0.239351 1.68408 0
M  V30 16186 O 1531.45 -0.103228 1.93925 0
M  V30 16187 C 1528.58 0.231891 3.46525 0
M  V30 16188 C 1527.54 1.19439 4.10997 0
M  V30 16189 C 1526.86 0.495593 5.32398 0
M  V30 16190 C 1528.16 2.54437 4.56135 0
M  V30 16191 H 1529.86 1.69503 2.46797 0
M  V30 16192 H 1527.4 0.816433 1.18619 0
M  V30 16193 H 1529.35 -0.00497468 4.214 0
M  V30 16194 H 1528.08 -0.706938 3.18857 0
M  V30 16195 H 1526.74 1.41686 3.38113 0
M  V30 16196 H 1526.39 -0.447984 5.01001 0
M  V30 16197 H 1526.09 1.13753 5.76484 0
M  V30 16198 H 1527.61 0.267476 6.10014 0
M  V30 16199 H 1529.02 2.36289 5.22341 0
M  V30 16200 H 1527.42 3.14595 5.11028 0
M  V30 16201 H 1528.49 3.13795 3.69676 0
M  V30 16202 N 1529.83 -1.29188 0.902679 0
M  V30 16203 C 1531.06 -1.99576 0.545635 0
M  V30 16204 C 1531.48 -1.67541 -0.870372 0
M  V30 16205 O 1530.83 -0.922082 -1.57493 0
M  V30 16206 C 1530.88 -3.54013 0.731916 0
M  V30 16207 O 1530.61 -3.84914 2.09219 0
M  V30 16208 C 1532.11 -4.41666 0.38022 0
M  V30 16209 H 1529.33 -0.637593 0.209083 0
M  V30 16210 H 1531.87 -1.64652 1.21284 0
M  V30 16211 H 1530.03 -3.87239 0.111849 0
M  V30 16212 H 1530.44 -4.79581 2.12373 0
M  V30 16213 H 1531.91 -5.49138 0.561382 0
M  V30 16214 H 1532.39 -4.33858 -0.682915 0
M  V30 16215 H 1533 -4.13918 0.977354 0
M  V30 16216 N 1531.31 -0.665475 -1.42861 0
M  V30 16217 C 1532.54 -0.190399 -2.06524 0
M  V30 16218 C 1532.96 1.13995 -1.49622 0
M  V30 16219 O 1532.32 1.70695 -0.610981 0
M  V30 16220 C 1532.37 -0.12594 -3.6038 0
M  V30 16221 O 1531.47 0.908299 -4.02273 0
M  V30 16222 H 1530.81 -0.100495 -0.656351 0
M  V30 16223 H 1533.34 -0.911858 -1.83156 0
M  V30 16224 H 1533.35 0.0533153 -4.07965 0
M  V30 16225 H 1532.03 -1.09703 -4.01171 0
M  V30 16226 H 1530.6 0.700841 -3.66255 0
M  V30 16227 N 1532.79 1.52222 -0.408187 0
M  V30 16228 C 1534.04 2.01404 0.167574 0
M  V30 16229 C 1534.36 1.29572 1.45726 0
M  V30 16230 O 1533.63 0.421363 1.91315 0
M  V30 16231 H 1532.21 0.744174 0.0649156 0
M  V30 16232 H 1534.87 1.87148 -0.544212 0
M  V30 16233 H 1533.97 3.09966 0.36436 0
M  V30 16234 N 1534.27 0.138579 1.5699 0
M  V30 16235 C 1535.54 -0.559239 1.87435 0
M  V30 16236 C 1535.92 -1.83527 1.04312 0
M  V30 16237 O 1535.27 -2.28144 0.127531 0
M  V30 16238 C 1535.48 -0.83282 3.38918 0
M  V30 16239 C 1536.83 -1.1773 4.07952 0
M  V30 16240 O 1537.85 -0.92245 3.44048 0
M  V30 16241 O 1536.71 -1.6565 5.2079 0
M  V30 16242 H 1533.81 -0.284318 0.77659 0
M  V30 16243 H 1536.35 0.174558 1.688 0
M  V30 16244 H 1535.13 0.0706054 3.91236 0
M  V30 16245 H 1534.75 -1.62109 3.63051 0
M  V30 16246 N 1535.75 -1.57019 -0.13521 0
M  V30 16247 C 1536.97 -1.88528 -0.864399 0
M  V30 16248 C 1537.4 -0.728852 -1.73405 0
M  V30 16249 O 1536.75 0.321196 -1.78432 0
M  V30 16250 C 1536.8 -3.18694 -1.6872 0
M  V30 16251 O 1535.91 -3.03458 -2.79262 0
M  V30 16252 H 1535.25 -0.61909 -0.24005 0
M  V30 16253 H 1537.78 -2.04233 -0.12248 0
M  V30 16254 H 1537.79 -3.51011 -2.0798 0
M  V30 16255 H 1536.46 -4.02462 -1.04868 0
M  V30 16256 H 1535.04 -2.82575 -2.43323 0
M  V30 16257 N 1537.22 0.404919 -1.52309 0
M  V30 16258 C 1538.5 1.16473 -1.57142 0
M  V30 16259 C 1538.88 2.08094 -0.354967 0
M  V30 16260 O 1538.23 2.18825 0.65788 0
M  V30 16261 C 1538.44 1.93834 -2.90223 0
M  V30 16262 C 1539.79 2.49754 -3.43378 0
M  V30 16263 O 1540.81 2.04009 -2.91991 0
M  V30 16264 O 1539.67 3.33271 -4.3312 0
M  V30 16265 H 1536.76 0.532036 -0.633141 0
M  V30 16266 H 1539.31 0.411359 -1.64639 0
M  V30 16267 H 1538.08 1.2674 -3.70206 0
M  V30 16268 H 1537.71 2.76167 -2.86038 0
M  V30 16269 N 1538.7 1.43003 0.662408 0
M  V30 16270 C 1539.95 1.43422 1.41821 0
M  V30 16271 C 1540.26 0.0586909 1.95512 0
M  V30 16272 O 1541.47 -0.0596978 2.71434 0
M  V30 16273 C 1539.93 2.52344 2.56613 0
M  V30 16274 C 1539.53 3.95961 2.09569 0
M  V30 16275 C 1541.28 2.61945 3.34044 0
M  V30 16276 C 1539.19 4.96367 3.21518 0
M  V30 16277 H 1538.12 0.533485 0.532832 0
M  V30 16278 H 1540.77 1.68958 0.715911 0
M  V30 16279 H 1539.15 2.19993 3.2927 0
M  V30 16280 H 1540.32 4.37728 1.43984 0
M  V30 16281 H 1538.64 3.90322 1.45044 0
M  V30 16282 H 1541.23 3.34137 4.17441 0
M  V30 16283 H 1541.58 1.66708 3.81463 0
M  V30 16284 H 1542.11 2.93552 2.68463 0
M  V30 16285 H 1538.85 5.93124 2.79077 0
M  V30 16286 H 1538.37 4.59221 3.85845 0
M  V30 16287 H 1540.05 5.18652 3.86793 0
M  V30 16288 N 1540.18 -0.899904 1.29381 0
M  V30 16289 C 1541.41 -1.68911 1.20349 0
M  V30 16290 C 1541.83 -1.86657 -0.232523 0
M  V30 16291 O 1541.19 -1.38674 -1.16787 0
M  V30 16292 C 1541.24 -3.05124 1.92177 0
M  V30 16293 O 1540.34 -3.93358 1.23867 0
M  V30 16294 H 1539.68 -0.516698 0.417036 0
M  V30 16295 H 1542.21 -1.12422 1.70946 0
M  V30 16296 H 1542.22 -3.55267 2.00623 0
M  V30 16297 H 1540.9 -2.91525 2.96624 0
M  V30 16298 H 1539.47 -3.51793 1.23677 0
M  V30 16299 N 1541.66 -1.11854 -1.11024 0
M  V30 16300 C 1542.88 -0.892999 -1.8719 0
M  V30 16301 C 1543.31 0.552058 -1.79816 0
M  V30 16302 O 1542.67 1.39025 -1.16369 0
M  V30 16303 C 1542.71 -1.3647 -3.33779 0
M  V30 16304 O 1541.82 -0.539202 -4.0886 0
M  V30 16305 H 1541.16 -0.321319 -0.581076 0
M  V30 16306 H 1543.69 -1.4891 -1.4031 0
M  V30 16307 H 1543.7 -1.3611 -3.84627 0
M  V30 16308 H 1542.37 -2.41694 -3.38462 0
M  V30 16309 H 1540.95 -0.60927 -3.67889 0
M  V30 16310 N 1543.14 1.28707 -0.909517 0
M  V30 16311 C 1544.55 1.77212 -0.587613 0
M  V30 16312 C 1544.9 1.74495 0.896986 0
M  V30 16313 O 1544.02 1.33698 1.70158 0
M  V30 16314 C 1544.62 3.21794 -1.05989 0
M  V30 16315 C 1543.18 3.68038 -0.788983 0
M  V30 16316 C 1542.32 2.48576 -1.22903 0
M  V30 16317 H 1545.28 1.1523 -1.09122 0
M  V30 16318 H 1545.3 3.78397 -0.399469 0
M  V30 16319 H 1544.81 3.23739 -2.14043 0
M  V30 16320 H 1542.91 3.71558 0.278523 0
M  V30 16321 H 1543.02 4.58379 -1.39376 0
M  V30 16322 H 1541.39 2.46323 -0.647838 0
M  V30 16323 H 1542.17 2.53243 -2.31782 0
M  V30 16324 N 1544.61 0.673042 1.42506 0
M  V30 16325 C 1545.54 0.00755467 2.33499 0
M  V30 16326 C 1546.53 -0.791161 1.50581 0
M  V30 16327 O 1547.71 -0.748668 1.79189 0
M  V30 16328 C 1544.84 -0.945638 3.34178 0
M  V30 16329 C 1543.79 -0.25564 4.27236 0
M  V30 16330 C 1543.12 -1.32165 5.18109 0
M  V30 16331 C 1544.42 0.864254 5.151 0
M  V30 16332 H 1546.11 0.767487 2.89396 0
M  V30 16333 H 1543.66 0.370524 1.39151 0
M  V30 16334 H 1545.61 -1.42026 3.96745 0
M  V30 16335 H 1544.34 -1.73697 2.76581 0
M  V30 16336 H 1543 0.19873 3.66061 0
M  V30 16337 H 1542.64 -2.10492 4.56839 0
M  V30 16338 H 1542.34 -0.865109 5.81197 0
M  V30 16339 H 1543.87 -1.79724 5.83551 0
M  V30 16340 H 1545.28 0.470924 5.71363 0
M  V30 16341 H 1543.68 1.24648 5.87012 0
M  V30 16342 H 1544.75 1.71378 4.53605 0
M  V30 16343 N 1546.09 -1.52004 0.416254 0
M  V30 16344 C 1547.02 -2.30106 -0.396671 0
M  V30 16345 C 1548 -1.34616 -1.03983 0
M  V30 16346 O 1549.19 -1.63528 -1.04749 0
M  V30 16347 C 1546.32 -3.12769 -1.50972 0
M  V30 16348 C 1545.27 -4.16365 -0.99119 0
M  V30 16349 C 1544.6 -4.87417 -2.19838 0
M  V30 16350 C 1545.9 -5.22284 -0.0402599 0
M  V30 16351 H 1547.59 -2.98312 0.255054 0
M  V30 16352 H 1545.14 -1.43464 0.124106 0
M  V30 16353 H 1547.09 -3.66178 -2.08547 0
M  V30 16354 H 1545.82 -2.42346 -2.18943 0
M  V30 16355 H 1544.47 -3.63976 -0.437803 0
M  V30 16356 H 1544.12 -4.13516 -2.8638 0
M  V30 16357 H 1543.82 -5.57454 -1.85792 0
M  V30 16358 H 1545.35 -5.43641 -2.78006 0
M  V30 16359 H 1546.76 -5.70891 -0.525027 0
M  V30 16360 H 1545.16 -5.99726 0.211742 0
M  V30 16361 H 1546.23 -4.7642 0.902877 0
M  V30 16362 N 1547.57 -0.146903 -1.56914 0
M  V30 16363 C 1548.5 0.823803 -2.13883 0
M  V30 16364 C 1549.52 1.21081 -1.08826 0
M  V30 16365 O 1550.7 1.15491 -1.36103 0
M  V30 16366 C 1547.8 2.11686 -2.64655 0
M  V30 16367 C 1546.98 1.89723 -3.94112 0
M  V30 16368 C 1546.04 3.03016 -4.30195 0
M  V30 16369 O 1545.06 2.74711 -4.9852 0
M  V30 16370 N 1546.26 4.30187 -3.89768 0
M  V30 16371 H 1549.03 0.336904 -2.978 0
M  V30 16372 H 1546.59 0.0366704 -1.61858 0
M  V30 16373 H 1548.58 2.86525 -2.85807 0
M  V30 16374 H 1547.15 2.51639 -1.85464 0
M  V30 16375 H 1546.37 0.989208 -3.81587 0
M  V30 16376 H 1547.66 1.72387 -4.78707 0
M  V30 16377 H 1547.06 4.56051 -3.34715 0
M  V30 16378 H 1545.62 5.01807 -4.15972 0
M  V30 16379 N 1549.05 1.57088 0.126881 0
M  V30 16380 C 1550 2.00736 1.17506 0
M  V30 16381 C 1550.99 0.902986 1.43327 0
M  V30 16382 O 1552.2 1.08819 1.43382 0
M  V30 16383 H 1548.57 0.639285 0.396003 0
M  V30 16384 H 1550.54 2.88015 0.780373 0
M  V30 16385 C 1549.29 2.42096 2.49569 0
M  V30 16386 H 1548.61 3.26639 2.30536 0
M  V30 16387 H 1550.05 2.76442 3.2149 0
M  V30 16388 C 1548.51 1.28148 3.11576 0
M  V30 16389 O 1549.04 0.593145 3.97297 0
M  V30 16390 N 1547.25 1.04055 2.71332 0
M  V30 16391 H 1546.8 1.60208 2.0172 0
M  V30 16392 H 1546.75 0.280075 3.1315 0
M  V30 16393 N 1550.53 -0.396836 1.52522 0
M  V30 16394 C 1551.75 -1.16404 1.71049 0
M  V30 16395 C 1552.17 -1.83946 0.425378 0
M  V30 16396 O 1551.53 -1.7237 -0.599561 0
M  V30 16397 C 1551.58 -2.21796 2.85463 0
M  V30 16398 O 1551.3 -1.57009 4.08998 0
M  V30 16399 C 1552.8 -3.11303 3.15603 0
M  V30 16400 H 1550.02 -0.349314 0.572905 0
M  V30 16401 H 1552.56 -0.465297 1.99136 0
M  V30 16402 H 1550.72 -2.87318 2.59859 0
M  V30 16403 H 1551.13 -2.26977 4.72844 0
M  V30 16404 H 1552.61 -3.81299 3.99143 0
M  V30 16405 H 1553.08 -3.7437 2.2966 0
M  V30 16406 H 1553.69 -2.51435 3.43017 0
M  V30 16407 N 1552.01 -1.43353 -0.654814 0
M  V30 16408 C 1553.25 -1.451 -1.41682 0
M  V30 16409 C 1553.58 -0.0743864 -1.94057 0
M  V30 16410 O 1552.86 0.904515 -1.72188 0
M  V30 16411 C 1553.14 -2.49204 -2.59941 0
M  V30 16412 C 1553 -3.96134 -2.13069 0
M  V30 16413 C 1554.31 -2.50064 -3.62155 0
M  V30 16414 H 1551.43 -0.528339 -0.513836 0
M  V30 16415 H 1554.08 -1.74892 -0.742489 0
M  V30 16416 H 1552.23 -2.2393 -3.1747 0
M  V30 16417 H 1553.9 -4.32459 -1.60552 0
M  V30 16418 H 1552.14 -4.09042 -1.44455 0
M  V30 16419 H 1552.81 -4.64585 -2.98101 0
M  V30 16420 H 1555.29 -2.72587 -3.14382 0
M  V30 16421 H 1554.16 -3.24849 -4.42452 0
M  V30 16422 H 1554.42 -1.53385 -4.14639 0
M  V30 16423 N 1553.48 0.89303 -1.29857 0
M  V30 16424 C 1554.43 1.98497 -1.12173 0
M  V30 16425 C 1555.42 1.60852 -0.039207 0
M  V30 16426 O 1556.61 1.75055 -0.261652 0
M  V30 16427 C 1553.74 3.33674 -0.807259 0
M  V30 16428 C 1552.82 3.77658 -1.92965 0
M  V30 16429 N 1553.22 3.93814 -3.17402 0
M  V30 16430 C 1551.51 4.06988 -1.82419 0
M  V30 16431 C 1552.21 4.30988 -3.90671 0
M  V30 16432 N 1551.19 4.40403 -3.18662 0
M  V30 16433 H 1554.99 2.09068 -2.06562 0
M  V30 16434 H 1552.51 1.0823 -1.21078 0
M  V30 16435 H 1554.5 4.11617 -0.661603 0
M  V30 16436 H 1553.16 3.24445 0.128646 0
M  V30 16437 H 1554.17 3.79164 -3.52782 0
M  V30 16438 H 1550.85 4.06279 -0.961436 0
M  V30 16439 H 1552.24 4.51278 -4.97793 0
M  V30 16440 N 1554.96 1.12442 1.10429 0
M  V30 16441 C 1556.21 0.874466 1.81758 0
M  V30 16442 C 1556.52 -0.601487 1.86122 0
M  V30 16443 O 1557.73 -0.968037 2.53656 0
M  V30 16444 C 1556.19 1.51478 3.2647 0
M  V30 16445 C 1555.79 3.02552 3.30403 0
M  V30 16446 C 1557.54 1.34511 4.02625 0
M  V30 16447 C 1555.44 3.59518 4.69575 0
M  V30 16448 H 1554.37 0.323494 0.681078 0
M  V30 16449 H 1557.03 1.35091 1.24188 0
M  V30 16450 H 1555.41 0.966 3.84037 0
M  V30 16451 H 1556.58 3.63924 2.82659 0
M  V30 16452 H 1554.9 3.18917 2.67733 0
M  V30 16453 H 1557.49 1.74492 5.05427 0
M  V30 16454 H 1557.84 0.288788 4.15297 0
M  V30 16455 H 1558.37 1.86311 3.51473 0
M  V30 16456 H 1555.11 4.6491 4.62103 0
M  V30 16457 H 1554.63 3.02922 5.17686 0
M  V30 16458 H 1556.31 3.58581 5.38543 0
M  V30 16459 N 1556.44 -1.28223 0.91633 0
M  V30 16460 C 1557.72 -1.89878 0.469661 0
M  V30 16461 C 1558.1 -1.83037 -1.05169 0
M  V30 16462 O 1557.44 -1.26801 -1.90088 0
M  V30 16463 C 1557.65 -3.34279 1.00293 0
M  V30 16464 C 1559 -4.11244 1.05657 0
M  V30 16465 O 1560.03 -3.43249 0.951753 0
M  V30 16466 O 1558.89 -5.32788 1.21652 0
M  V30 16467 H 1555.98 -0.813418 0.149263 0
M  V30 16468 H 1558.53 -1.36572 1.00728 0
M  V30 16469 H 1557.3 -3.33494 2.04688 0
M  V30 16470 H 1556.92 -3.95087 0.446287 0
M  V30 16471 N 1557.92 -0.68059 -1.42147 0
M  V30 16472 C 1558.85 -0.0199376 -2.33491 0
M  V30 16473 C 1559.83 0.783164 -1.50999 0
M  V30 16474 O 1561.01 0.739154 -1.79583 0
M  V30 16475 C 1558.14 0.927902 -3.34675 0
M  V30 16476 C 1557.1 0.232979 -4.27365 0
M  V30 16477 C 1556.42 1.29415 -5.18802 0
M  V30 16478 C 1557.72 -0.891559 -5.14634 0
M  V30 16479 H 1559.42 -0.782823 -2.88985 0
M  V30 16480 H 1556.96 -0.377898 -1.38953 0
M  V30 16481 H 1558.92 1.3992 -3.97493 0
M  V30 16482 H 1557.64 1.72228 -2.77498 0
M  V30 16483 H 1556.3 -0.21814 -3.6595 0
M  V30 16484 H 1555.95 2.08067 -4.57949 0
M  V30 16485 H 1555.65 0.834274 -5.81647 0
M  V30 16486 H 1557.17 1.76627 -5.84496 0
M  V30 16487 H 1558.59 -0.501219 -5.71105 0
M  V30 16488 H 1556.98 -1.27759 -5.86343 0
M  V30 16489 H 1558.05 -1.73781 -4.5269 0
M  V30 16490 N 1559.4 1.51781 -0.424309 0
M  V30 16491 C 1560.62 2.06871 0.147968 0
M  V30 16492 C 1561.05 1.29093 1.36808 0
M  V30 16493 O 1560.4 0.325279 1.78358 0
M  V30 16494 C 1560.45 3.57631 0.461757 0
M  V30 16495 O 1559.56 3.82149 1.55035 0
M  V30 16496 H 1558.9 0.663957 0.00757275 0
M  V30 16497 H 1561.43 1.95547 -0.601888 0
M  V30 16498 H 1561.44 4.01668 0.716005 0
M  V30 16499 H 1560.11 4.1367 -0.430081 0
M  V30 16500 H 1558.69 3.49984 1.28709 0
M  V30 16501 N 1560.87 0.155222 1.56834 0
M  V30 16502 C 1561.84 -0.767266 2.15976 0
M  V30 16503 C 1562.84 -1.16946 1.10364 0
M  V30 16504 O 1564.03 -1.08905 1.35961 0
M  V30 16505 C 1561.16 -2.04226 2.72956 0
M  V30 16506 H 1562.35 -0.252662 2.98834 0
M  V30 16507 H 1559.9 -0.0942677 1.56015 0
M  V30 16508 H 1560.64 -2.60033 1.93787 0
M  V30 16509 H 1560.42 -1.76299 3.5023 0
M  V30 16510 H 1561.91 -2.70093 3.18495 0
M  V30 16511 N 1562.35 -1.57153 -0.118549 0
M  V30 16512 C 1563.28 -2.03409 -1.1466 0
M  V30 16513 C 1564.26 -0.918636 -1.43161 0
M  V30 16514 O 1565.45 -1.18838 -1.53594 0
M  V30 16515 C 1562.58 -2.43879 -2.47265 0
M  V30 16516 C 1561.53 -3.58873 -2.33225 0
M  V30 16517 C 1560.86 -3.85244 -3.70798 0
M  V30 16518 C 1562.16 -4.90582 -1.79239 0
M  V30 16519 H 1563.85 -2.89545 -0.761862 0
M  V30 16520 H 1561.4 -1.39296 -0.365034 0
M  V30 16521 H 1563.35 -2.74844 -3.19435 0
M  V30 16522 H 1562.07 -1.54715 -2.8763 0
M  V30 16523 H 1560.73 -3.28119 -1.63504 0
M  V30 16524 H 1560.38 -2.93285 -4.08648 0
M  V30 16525 H 1560.08 -4.62649 -3.62257 0
M  V30 16526 H 1561.61 -4.18661 -4.44472 0
M  V30 16527 H 1563.02 -5.20079 -2.41227 0
M  V30 16528 H 1561.42 -5.71989 -1.81518 0
M  V30 16529 H 1562.49 -4.79065 -0.74999 0
M  V30 16530 N 1563.83 0.388742 -1.5273 0
M  V30 16531 C 1564.78 1.49531 -1.78166 0
M  V30 16532 C 1565.77 1.56449 -0.649613 0
M  V30 16533 O 1566.98 1.59612 -0.832097 0
M  V30 16534 H 1563.35 0.497684 -0.56375 0
M  V30 16535 H 1565.32 1.25271 -2.70831 0
M  V30 16536 C 1564.07 2.86663 -1.96774 0
M  V30 16537 H 1563.4 2.82089 -2.83312 0
M  V30 16538 H 1564.84 3.63328 -2.18561 0
M  V30 16539 C 1563.29 3.28665 -0.740345 0
M  V30 16540 O 1563.82 4.01616 0.0821005 0
M  V30 16541 N 1562.03 2.84947 -0.570383 0
M  V30 16542 H 1561.58 2.25748 -1.24078 0
M  V30 16543 H 1561.54 3.13408 0.249496 0
M  V30 16544 N 1565.31 1.43698 0.647203 0
M  V30 16545 C 1566.72 1.40586 1.22851 0
M  V30 16546 C 1567.07 0.112981 1.95874 0
M  V30 16547 O 1566.19 -0.787342 2.01569 0
M  V30 16548 C 1566.79 2.54672 2.23445 0
M  V30 16549 C 1565.35 2.54806 2.7704 0
M  V30 16550 C 1564.5 2.32076 1.51777 0
M  V30 16551 H 1567.45 1.52512 0.43885 0
M  V30 16552 H 1567.47 2.26505 3.05738 0
M  V30 16553 H 1566.98 3.48755 1.70269 0
M  V30 16554 H 1565.08 1.64619 3.34262 0
M  V30 16555 H 1565.19 3.52771 3.24175 0
M  V30 16556 H 1563.56 1.80858 1.79339 0
M  V30 16557 H 1564.34 3.28252 1.00527 0
M  V30 16558 N 1566.79 -0.886131 1.30328 0
M  V30 16559 C 1567.7 -2.02453 1.18532 0
M  V30 16560 C 1568.71 -1.7368 0.105506 0
M  V30 16561 O 1569.89 -1.98838 0.320217 0
M  V30 16562 C 1566.95 -3.3543 0.876792 0
M  V30 16563 C 1566.01 -3.77633 2.04185 0
M  V30 16564 C 1565.25 -5.04264 1.74795 0
M  V30 16565 O 1565.47 -5.66388 0.675323 0
M  V30 16566 O 1564.4 -5.42847 2.60001 0
M  V30 16567 H 1568.23 -2.15333 2.14162 0
M  V30 16568 H 1565.82 -1.01193 1.09911 0
M  V30 16569 H 1567.7 -4.15206 0.719882 0
M  V30 16570 H 1566.37 -3.23662 -0.0496117 0
M  V30 16571 H 1565.28 -2.98567 2.25408 0
M  V30 16572 H 1566.61 -3.94004 2.94994 0
M  V30 16573 N 1568.26 -1.13026 -1.09832 0
M  V30 16574 C 1569.19 -0.826338 -2.18389 0
M  V30 16575 C 1570.18 0.212529 -1.68767 0
M  V30 16576 O 1571.36 0.072363 -1.94065 0
M  V30 16577 C 1568.49 -0.286991 -3.46112 0
M  V30 16578 C 1567.44 -1.25963 -4.09044 0
M  V30 16579 C 1566.77 -0.580231 -5.31542 0
M  V30 16580 C 1568.07 -2.61661 -4.5203 0
M  V30 16581 H 1569.76 -1.73408 -2.4407 0
M  V30 16582 H 1567.31 -0.835201 -1.17305 0
M  V30 16583 H 1569.26 -0.062067 -4.21354 0
M  V30 16584 H 1567.99 0.656121 -3.19942 0
M  V30 16585 H 1566.65 -1.47047 -3.35816 0
M  V30 16586 H 1566.29 0.368222 -5.0165 0
M  V30 16587 H 1565.99 -1.2291 -5.74601 0
M  V30 16588 H 1567.52 -0.36449 -6.09511 0
M  V30 16589 H 1568.93 -2.44569 -5.18516 0
M  V30 16590 H 1567.33 -3.22685 -5.05959 0
M  V30 16591 H 1568.4 -3.19637 -3.64637 0
M  V30 16592 N 1569.74 1.27735 -0.923117 0
M  V30 16593 C 1570.99 1.94858 -0.56198 0
M  V30 16594 C 1571.32 1.72414 0.893698 0
M  V30 16595 O 1570.6 1.05054 1.63689 0
M  V30 16596 C 1570.88 3.49102 -0.883173 0
M  V30 16597 C 1570.73 3.80908 -2.39227 0
M  V30 16598 C 1572.05 4.38405 -0.385848 0
M  V30 16599 H 1569.17 0.707728 -0.205646 0
M  V30 16600 H 1571.81 1.50935 -1.15406 0
M  V30 16601 H 1569.96 3.86644 -0.379292 0
M  V30 16602 H 1571.63 3.53182 -2.96749 0
M  V30 16603 H 1569.88 3.2762 -2.84337 0
M  V30 16604 H 1570.55 4.88653 -2.56754 0
M  V30 16605 H 1573.02 4.07988 -0.817631 0
M  V30 16606 H 1571.9 5.45161 -0.63958 0
M  V30 16607 H 1572.16 4.36296 0.714009 0
M  V30 16608 N 1571.22 0.688118 1.41784 0
M  V30 16609 C 1572.15 -0.02099 2.2919 0
M  V30 16610 C 1573.17 -0.752005 1.44391 0
M  V30 16611 O 1574.35 -0.603947 1.67972 0
M  V30 16612 C 1571.45 -1.0537 3.22103 0
M  V30 16613 C 1570.63 -0.393817 4.35624 0
M  V30 16614 C 1569.69 -1.32812 5.09163 0
M  V30 16615 O 1568.71 -0.823341 5.63214 0
M  V30 16616 N 1569.91 -2.66083 5.15927 0
M  V30 16617 H 1572.68 0.729389 2.90689 0
M  V30 16618 H 1570.24 0.533564 1.52855 0
M  V30 16619 H 1572.23 -1.6803 3.68169 0
M  V30 16620 H 1570.8 -1.70568 2.61964 0
M  V30 16621 H 1570.02 0.41253 3.92035 0
M  V30 16622 H 1571.31 0.065338 5.08758 0
M  V30 16623 H 1570.71 -3.09619 4.73448 0
M  V30 16624 H 1569.27 -3.23956 5.65593 0
M  V30 16625 N 1572.7 -1.51554 0.432352 0
M  V30 16626 C 1573.66 -2.26195 -0.369912 0
M  V30 16627 C 1574.66 -1.29446 -0.953961 0
M  V30 16628 O 1575.85 -1.53199 -0.829193 0
M  V30 16629 C 1572.98 -3.04993 -1.52289 0
M  V30 16630 H 1574.18 -2.98551 0.284173 0
M  V30 16631 H 1571.73 -1.55197 0.1854 0
M  V30 16632 H 1572.46 -2.37043 -2.21317 0
M  V30 16633 H 1572.25 -3.76051 -1.11032 0
M  V30 16634 H 1573.74 -3.61547 -2.08982 0
M  V30 16635 N 1574.18 -0.163538 -1.56749 0
M  V30 16636 C 1575.42 0.48412 -1.96937 0
M  V30 16637 C 1575.76 1.63418 -1.04919 0
M  V30 16638 O 1575.03 1.94269 -0.094783 0
M  V30 16639 C 1575.31 0.974532 -3.46663 0
M  V30 16640 C 1575.17 -0.175173 -4.49459 0
M  V30 16641 C 1576.49 1.85082 -3.9929 0
M  V30 16642 H 1573.6 0.174503 -0.716043 0
M  V30 16643 H 1576.25 -0.248103 -1.88373 0
M  V30 16644 H 1574.4 1.59849 -3.54091 0
M  V30 16645 H 1576.07 -0.812038 -4.54096 0
M  V30 16646 H 1574.31 -0.831853 -4.2575 0
M  V30 16647 H 1574.98 0.20996 -5.51601 0
M  V30 16648 H 1577.46 1.32488 -3.94444 0
M  V30 16649 H 1576.33 2.163 -5.04485 0
M  V30 16650 H 1576.6 2.79378 -3.42638 0
M  V30 16651 N 1575.65 1.57214 0.110213 0
M  V30 16652 C 1576.59 1.97641 1.16064 0
M  V30 16653 C 1577.6 0.876886 1.37166 0
M  V30 16654 O 1578.79 1.15512 1.36086 0
M  V30 16655 C 1575.89 2.2671 2.51904 0
M  V30 16656 C 1575.06 3.58015 2.51285 0
M  V30 16657 C 1574.12 3.75195 3.68938 0
M  V30 16658 O 1573.15 4.47214 3.5212 0
M  V30 16659 N 1574.35 3.14627 4.87842 0
M  V30 16660 H 1577.11 2.88358 0.816679 0
M  V30 16661 H 1574.67 1.59108 0.299383 0
M  V30 16662 H 1576.67 2.35411 3.29187 0
M  V30 16663 H 1575.24 1.42076 2.78448 0
M  V30 16664 H 1574.46 3.60422 1.59655 0
M  V30 16665 H 1575.74 4.44303 2.47936 0
M  V30 16666 H 1575.14 2.56101 5.0441 0
M  V30 16667 H 1573.7 3.28836 5.6277 0
M  V30 16668 N 1577.13 -0.380637 1.52934 0
M  V30 16669 C 1578.08 -1.46521 1.74687 0
M  V30 16670 C 1579.07 -1.49251 0.601087 0
M  V30 16671 O 1580.26 -1.54746 0.859224 0
M  V30 16672 C 1577.39 -2.84137 1.92668 0
M  V30 16673 C 1576.47 -2.85944 3.13204 0
M  V30 16674 N 1576.86 -2.57413 4.35399 0
M  V30 16675 C 1575.16 -3.1711 3.13619 0
M  V30 16676 C 1575.86 -2.66516 5.17053 0
M  V30 16677 N 1574.84 -3.00598 4.52926 0
M  V30 16678 H 1578.64 -1.23301 2.66785 0
M  V30 16679 H 1576.16 -0.588675 1.51355 0
M  V30 16680 H 1578.15 -3.62236 2.06376 0
M  V30 16681 H 1576.81 -3.08333 1.01789 0
M  V30 16682 H 1577.82 -2.31281 4.63389 0
M  V30 16683 H 1574.5 -3.46717 2.3258 0
M  V30 16684 H 1575.89 -2.47931 6.24484 0
M  V30 16685 N 1578.61 -1.44039 -0.639573 0
M  V30 16686 C 1579.86 -1.46594 -1.40136 0
M  V30 16687 C 1580.19 -0.0949646 -1.93968 0
M  V30 16688 O 1579.46 0.886201 -1.73138 0
M  V30 16689 C 1579.75 -2.51947 -2.57283 0
M  V30 16690 C 1579.6 -3.98371 -2.08855 0
M  V30 16691 C 1580.92 -2.53891 -3.59482 0
M  V30 16692 H 1578.04 -0.533759 -0.508203 0
M  V30 16693 H 1580.68 -1.75669 -0.723898 0
M  V30 16694 H 1578.83 -2.27285 -3.15077 0
M  V30 16695 H 1580.5 -4.34137 -1.55956 0
M  V30 16696 H 1578.75 -4.10551 -1.40109 0
M  V30 16697 H 1579.42 -4.67721 -2.93157 0
M  V30 16698 H 1581.89 -2.75906 -3.11473 0
M  V30 16699 H 1580.77 -3.29524 -4.38982 0
M  V30 16700 H 1581.03 -1.57774 -4.12989 0
M  V30 16701 N 1580.09 0.879207 -1.30796 0
M  V30 16702 C 1581.33 1.63392 -1.20129 0
M  V30 16703 C 1581.67 1.92684 0.242164 0
M  V30 16704 O 1580.94 1.55188 1.17247 0
M  V30 16705 C 1581.23 2.97005 -2.03618 0
M  V30 16706 C 1581.08 2.74649 -3.56214 0
M  V30 16707 C 1582.4 3.97998 -1.87845 0
M  V30 16708 H 1579.52 0.592911 -0.437751 0
M  V30 16709 H 1582.16 1.017 -1.6049 0
M  V30 16710 H 1580.31 3.49659 -1.69326 0
M  V30 16711 H 1581.98 2.28738 -4.00595 0
M  V30 16712 H 1580.22 2.09048 -3.80107 0
M  V30 16713 H 1580.89 3.69681 -4.09927 0
M  V30 16714 H 1583.37 3.54523 -2.17836 0
M  V30 16715 H 1582.25 4.89388 -2.48578 0
M  V30 16716 H 1582.51 4.34062 -0.839183 0
M  V30 16717 N 1581.57 1.13606 1.09231 0
M  V30 16718 C 1582.82 0.893694 1.8082 0
M  V30 16719 C 1583.13 -0.581713 1.8675 0
M  V30 16720 O 1584.34 -0.941079 2.54668 0
M  V30 16721 C 1582.79 1.54932 3.24845 0
M  V30 16722 C 1582.4 3.0604 3.27175 0
M  V30 16723 C 1584.14 1.38773 4.01176 0
M  V30 16724 C 1582.05 3.64478 4.65735 0
M  V30 16725 H 1580.98 0.330699 0.677609 0
M  V30 16726 H 1583.63 1.36401 1.22748 0
M  V30 16727 H 1582.01 1.00668 3.82991 0
M  V30 16728 H 1583.19 3.66901 2.78783 0
M  V30 16729 H 1581.5 3.21739 2.64335 0
M  V30 16730 H 1584.1 1.79843 5.03548 0
M  V30 16731 H 1584.44 0.33282 4.14967 0
M  V30 16732 H 1584.98 1.90028 3.49477 0
M  V30 16733 H 1581.71 4.69785 4.57146 0
M  V30 16734 H 1581.23 3.08396 5.14444 0
M  V30 16735 H 1582.91 3.64272 5.3471 0
M  V30 16736 N 1583.05 -1.27244 0.929878 0
M  V30 16737 C 1584.29 -1.93886 0.570331 0
M  V30 16738 C 1584.61 -1.7342 -0.891656 0
M  V30 16739 O 1583.88 -1.0832 -1.63228 0
M  V30 16740 H 1582.46 -0.717476 0.207937 0
M  V30 16741 H 1585.13 -1.5491 1.18275 0
M  V30 16742 H 1584.22 -3.02236 0.778463 0
M  V30 16743 N 1584.52 -0.695628 -1.41417 0
M  V30 16744 C 1585.93 -0.3014 -1.84251 0
M  V30 16745 C 1586.29 1.16042 -1.58204 0
M  V30 16746 O 1585.41 1.89079 -1.05253 0
M  V30 16747 C 1586.01 -0.540256 -3.34465 0
M  V30 16748 C 1584.56 -0.199944 -3.75869 0
M  V30 16749 C 1583.71 -0.822511 -2.64821 0
M  V30 16750 H 1586.66 -0.896278 -1.30968 0
M  V30 16751 H 1586.68 0.201019 -3.79969 0
M  V30 16752 H 1586.2 -1.60427 -3.53391 0
M  V30 16753 H 1584.3 0.859798 -3.62544 0
M  V30 16754 H 1584.41 -0.655005 -4.74601 0
M  V30 16755 H 1582.77 -0.252109 -2.53449 0
M  V30 16756 H 1583.56 -1.89039 -2.86564 0
M  V30 16757 N 1586 1.51322 -0.440383 0
M  V30 16758 C 1587.23 2.07017 0.126018 0
M  V30 16759 C 1587.65 1.30537 1.35431 0
M  V30 16760 O 1587.01 0.344178 1.78003 0
M  V30 16761 C 1587.06 3.58101 0.4238 0
M  V30 16762 O 1586.16 3.83772 1.50973 0
M  V30 16763 H 1585.5 0.664 0.000530178 0
M  V30 16764 H 1588.03 1.94897 -0.622594 0
M  V30 16765 H 1588.04 4.02405 0.673363 0
M  V30 16766 H 1586.72 4.13191 -0.473932 0
M  V30 16767 H 1585.29 3.51329 1.24989 0
M  V30 16768 N 1587.48 0.171848 1.5666 0
M  V30 16769 C 1588.7 -0.482396 2.01712 0
M  V30 16770 C 1589.13 -1.5598 1.05128 0
M  V30 16771 O 1588.49 -1.81274 0.0309178 0
M  V30 16772 C 1588.54 -1.03716 3.45363 0
M  V30 16773 O 1587.64 -2.15114 3.51852 0
M  V30 16774 H 1586.98 -0.115439 0.653888 0
M  V30 16775 H 1589.51 0.275895 2.02731 0
M  V30 16776 H 1589.52 -1.35964 3.84679 0
M  V30 16777 H 1588.2 -0.24832 4.15158 0
M  V30 16778 H 1586.77 -1.83907 3.24396 0
M  V30 16779 N 1588.96 -1.5727 -0.101874 0
M  V30 16780 C 1589.89 -2.04614 -1.12496 0
M  V30 16781 C 1590.87 -0.933768 -1.42179 0
M  V30 16782 O 1592.05 -1.2046 -1.52325 0
M  V30 16783 C 1589.18 -2.46488 -2.44665 0
M  V30 16784 C 1588.14 -3.61327 -2.29406 0
M  V30 16785 C 1587.46 -3.89155 -3.66691 0
M  V30 16786 C 1588.76 -4.92455 -1.74026 0
M  V30 16787 H 1590.46 -2.90336 -0.731109 0
M  V30 16788 H 1588 -1.39676 -0.350239 0
M  V30 16789 H 1589.96 -2.78216 -3.16502 0
M  V30 16790 H 1588.68 -1.57757 -2.85972 0
M  V30 16791 H 1587.34 -3.29835 -1.60015 0
M  V30 16792 H 1586.99 -2.97603 -4.05514 0
M  V30 16793 H 1586.69 -4.66465 -3.57329 0
M  V30 16794 H 1588.21 -4.23352 -4.40006 0
M  V30 16795 H 1589.63 -5.22609 -2.35697 0
M  V30 16796 H 1588.02 -5.73882 -1.75441 0
M  V30 16797 H 1589.09 -4.79833 -0.699136 0
M  V30 16798 N 1590.44 0.372521 -1.53134 0
M  V30 16799 C 1591.68 1.11316 -1.68201 0
M  V30 16800 C 1592 1.90662 -0.436714 0
M  V30 16801 O 1593.2 2.67439 -0.467802 0
M  V30 16802 C 1591.66 2.02808 -2.97317 0
M  V30 16803 C 1591.27 1.28806 -4.29084 0
M  V30 16804 C 1593.01 2.76906 -3.2175 0
M  V30 16805 C 1590.92 2.19159 -5.49294 0
M  V30 16806 H 1589.85 0.419264 -0.626685 0
M  V30 16807 H 1592.5 0.374677 -1.79634 0
M  V30 16808 H 1590.88 2.80359 -2.79669 0
M  V30 16809 H 1592.06 0.563661 -4.5734 0
M  V30 16810 H 1590.37 0.665989 -4.1104 0
M  V30 16811 H 1592.97 3.44721 -4.08744 0
M  V30 16812 H 1593.31 3.41894 -2.37517 0
M  V30 16813 H 1593.84 2.06441 -3.4004 0
M  V30 16814 H 1590.58 1.5876 -6.35984 0
M  V30 16815 H 1590.1 2.89468 -5.25327 0
M  V30 16816 H 1591.78 2.78874 -5.83814 0
M  V30 16817 N 1591.91 1.44376 0.631925 0
M  V30 16818 C 1593.16 1.47335 1.39356 0
M  V30 16819 C 1593.49 0.10525 1.93915 0
M  V30 16820 O 1592.77 -0.877006 1.73605 0
M  V30 16821 C 1593.05 2.53308 2.55943 0
M  V30 16822 C 1592.9 3.99473 2.06739 0
M  V30 16823 C 1594.22 2.55794 3.58131 0
M  V30 16824 H 1591.34 0.536447 0.505365 0
M  V30 16825 H 1593.98 1.76051 0.714572 0
M  V30 16826 H 1592.13 2.28953 3.13868 0
M  V30 16827 H 1593.81 4.34958 1.53652 0
M  V30 16828 H 1592.05 4.11288 1.37929 0
M  V30 16829 H 1592.72 4.69269 2.90672 0
M  V30 16830 H 1595.2 2.77554 3.10005 0
M  V30 16831 H 1594.07 3.31847 4.37228 0
M  V30 16832 H 1594.33 1.59962 4.12146 0
M  V30 16833 N 1593.39 -0.872258 1.31261 0
M  V30 16834 C 1594.34 -1.96688 1.15317 0
M  V30 16835 C 1595.33 -1.60769 0.0647922 0
M  V30 16836 O 1596.52 -1.74617 0.289469 0
M  V30 16837 C 1593.65 -3.32347 0.860242 0
M  V30 16838 C 1592.73 -3.7454 1.98948 0
M  V30 16839 N 1593.12 -3.88715 3.23627 0
M  V30 16840 C 1591.42 -4.04035 1.88871 0
M  V30 16841 C 1592.12 -4.24718 3.97478 0
M  V30 16842 N 1591.1 -4.35278 3.25629 0
M  V30 16843 H 1594.9 -2.05755 2.09862 0
M  V30 16844 H 1592.41 -1.0629 1.22785 0
M  V30 16845 H 1594.41 -4.10512 0.727004 0
M  V30 16846 H 1593.07 -3.24609 -0.0770132 0
M  V30 16847 H 1594.08 -3.73504 3.58769 0
M  V30 16848 H 1590.76 -4.04698 1.02595 0
M  V30 16849 H 1592.15 -4.43302 5.04909 0
M  V30 16850 N 1594.87 -1.14184 -1.08627 0
M  V30 16851 C 1596.12 -0.908664 -1.80968 0
M  V30 16852 C 1596.44 0.564864 -1.86117 0
M  V30 16853 O 1595.7 1.4344 -1.33129 0
M  V30 16854 C 1596 -1.4519 -3.2658 0
M  V30 16855 C 1595.66 -2.94368 -3.41552 0
M  V30 16856 C 1594.33 -3.35096 -3.45346 0
M  V30 16857 C 1596.68 -3.90304 -3.45416 0
M  V30 16858 C 1594.01 -4.70428 -3.50591 0
M  V30 16859 C 1596.36 -5.25491 -3.52196 0
M  V30 16860 C 1595.02 -5.65734 -3.54262 0
M  V30 16861 H 1594.29 -0.332504 -0.66221 0
M  V30 16862 H 1596.94 -1.42514 -1.27914 0
M  V30 16863 H 1595.24 -0.856308 -3.82328 0
M  V30 16864 H 1596.94 -1.24746 -3.81103 0
M  V30 16865 H 1593.53 -2.61879 -3.3929 0
M  V30 16866 H 1597.72 -3.59921 -3.41718 0
M  V30 16867 H 1592.97 -5.00971 -3.50482 0
M  V30 16868 H 1597.15 -5.99637 -3.54131 0
M  V30 16869 H 1594.77 -6.70585 -3.58079 0
M  V30 16870 N 1596.35 1.26749 -0.936613 0
M  V30 16871 C 1597.3 2.28528 -0.433328 0
M  V30 16872 C 1598.29 1.62248 0.487012 0
M  V30 16873 O 1599.5 1.76245 0.36573 0
M  V30 16874 H 1595.87 0.742106 -0.121583 0
M  V30 16875 H 1597.84 2.68382 -1.30436 0
M  V30 16876 C 1596.59 3.46485 0.290366 0
M  V30 16877 H 1595.91 3.97706 -0.408649 0
M  V30 16878 H 1597.35 4.19635 0.606807 0
M  V30 16879 C 1595.81 3.01339 1.50654 0
M  V30 16880 O 1596.34 3.05781 2.60501 0
M  V30 16881 N 1594.55 2.56732 1.3615 0
M  V30 16882 H 1594.1 2.53317 0.467788 0
M  V30 16883 H 1594.05 2.26888 2.17645 0
M  V30 16884 N 1597.83 0.703118 1.41046 0
M  V30 16885 C 1598.74 0.0432777 2.3456 0
M  V30 16886 C 1599.75 -0.757704 1.56636 0
M  V30 16887 O 1600.93 -0.693531 1.89082 0
M  V30 16888 C 1597.99 -0.876385 3.35441 0
M  V30 16889 C 1597.05 -0.06676 4.29248 0
M  V30 16890 C 1596.29 -0.942622 5.2531 0
M  V30 16891 O 1596.51 -2.18205 5.27013 0
M  V30 16892 O 1595.44 -0.388266 6.00646 0
M  V30 16893 H 1599.27 0.814302 2.9258 0
M  V30 16894 H 1596.86 0.463503 1.42028 0
M  V30 16895 H 1598.74 -1.40353 3.9734 0
M  V30 16896 H 1597.41 -1.62677 2.79853 0
M  V30 16897 H 1596.32 0.505165 3.70674 0
M  V30 16898 H 1597.65 0.645128 4.87954 0
M  V30 16899 N 1599.3 -1.51086 0.448402 0
M  V30 16900 C 1600.55 -2.02476 -0.114511 0
M  V30 16901 C 1600.88 -1.33126 -1.4139 0
M  V30 16902 O 1600.16 -0.449665 -1.89231 0
M  V30 16903 C 1600.44 -3.58659 -0.321842 0
M  V30 16904 C 1600.29 -4.38612 0.996975 0
M  V30 16905 C 1601.61 -4.26473 -1.08667 0
M  V30 16906 H 1598.73 -0.735906 -0.0401431 0
M  V30 16907 H 1601.37 -1.80622 0.589563 0
M  V30 16908 H 1599.52 -3.77411 -0.92157 0
M  V30 16909 H 1601.2 -4.31484 1.63154 0
M  V30 16910 H 1599.44 -4.03255 1.599 0
M  V30 16911 H 1600.11 -5.46087 0.805817 0
M  V30 16912 H 1602.59 -4.12058 -0.578559 0
M  V30 16913 H 1601.46 -5.35611 -1.20051 0
M  V30 16914 H 1601.72 -3.88086 -2.11758 0
M  V30 16915 N 1600.78 -0.180154 -1.56567 0
M  V30 16916 C 1602.03 0.462656 -1.96322 0
M  V30 16917 C 1602.34 1.63788 -1.06925 0
M  V30 16918 O 1603.55 2.34751 -1.36398 0
M  V30 16919 C 1602.01 0.874492 -3.49114 0
M  V30 16920 C 1601.61 -0.27562 -4.47151 0
M  V30 16921 C 1603.36 1.48522 -3.9767 0
M  V30 16922 C 1601.27 0.156341 -5.91193 0
M  V30 16923 H 1600.2 0.176619 -0.733022 0
M  V30 16924 H 1602.85 -0.269793 -1.81506 0
M  V30 16925 H 1601.23 1.66318 -3.59381 0
M  V30 16926 H 1602.4 -1.05304 -4.48606 0
M  V30 16927 H 1600.72 -0.796878 -4.08704 0
M  V30 16928 H 1603.31 1.8206 -5.02751 0
M  V30 16929 H 1603.66 2.38634 -3.41115 0
M  V30 16930 H 1604.19 0.760806 -3.90457 0
M  V30 16931 H 1600.93 -0.710221 -6.51641 0
M  V30 16932 H 1600.45 0.898933 -5.93025 0
M  V30 16933 H 1602.13 0.597228 -6.44238 0
M  V30 16934 N 1602.26 1.57322 0.0935319 0
M  V30 16935 C 1603.51 1.858 0.795165 0
M  V30 16936 C 1603.83 0.769078 1.79193 0
M  V30 16937 O 1603.1 -0.204511 1.9483 0
M  V30 16938 H 1601.68 0.68557 0.296653 0
M  V30 16939 H 1604.34 1.94756 0.0747892 0
M  V30 16940 H 1603.44 2.82588 1.32479 0
M  V30 16941 N 1603.74 -0.364395 1.53329 0
M  V30 16942 C 1605.15 -0.706147 1.43128 0
M  V30 16943 C 1605.35 -1.93231 0.571307 0
M  V30 16944 O 1604.41 -2.52442 0.0542079 0
M  V30 16945 C 1605.72 -0.918245 2.86337 0
M  V30 16946 C 1607.27 -1.01818 2.95976 0
M  V30 16947 C 1607.75 -1.26274 4.40249 0
M  V30 16948 N 1609.24 -1.33042 4.43683 0
M  V30 16949 C 1609.97 -1.53677 5.52423 0
M  V30 16950 N 1609.47 -1.7162 6.71207 0
M  V30 16951 N 1611.26 -1.56056 5.40003 0
M  V30 16952 H 1603.41 0.442091 2.07748 0
M  V30 16953 H 1605.68 0.135735 0.938232 0
M  V30 16954 H 1605.38 -0.0890628 3.51587 0
M  V30 16955 H 1605.26 -1.826 3.30056 0
M  V30 16956 H 1607.64 -1.83791 2.30879 0
M  V30 16957 H 1607.72 -0.0877892 2.55649 0
M  V30 16958 H 1607.37 -0.448026 5.0592 0
M  V30 16959 H 1607.3 -2.20637 4.78149 0
M  V30 16960 H 1609.79 -1.20784 3.58078 0
M  V30 16961 H 1610.1 -1.86942 7.49848 0
M  V30 16962 H 1608.45 -1.68797 6.7419 0
M  V30 16963 H 1611.64 -1.41605 4.46168 0
M  V30 16964 H 1611.81 -1.71796 6.24812 0
M  V30 16965 N 1605.22 -1.44709 -0.62426 0
M  V30 16966 C 1606.46 -1.47561 -1.38094 0
M  V30 16967 C 1606.79 -0.112115 -1.94677 0
M  V30 16968 O 1606.06 0.856458 -1.76186 0
M  V30 16969 H 1604.64 -0.543368 -0.512601 0
M  V30 16970 H 1607.3 -1.8054 -0.734258 0
M  V30 16971 H 1606.39 -2.20496 -2.2088 0
M  V30 16972 N 1606.69 0.865285 -1.31722 0
M  V30 16973 C 1607.64 1.96073 -1.16358 0
M  V30 16974 C 1608.63 1.60733 -0.0733173 0
M  V30 16975 O 1609.82 1.74461 -0.298725 0
M  V30 16976 C 1606.95 3.31886 -0.877855 0
M  V30 16977 C 1606.04 3.7348 -2.00932 0
M  V30 16978 N 1606.43 3.86993 -3.25684 0
M  V30 16979 C 1604.72 4.03027 -1.91011 0
M  V30 16980 C 1605.43 4.22605 -3.99725 0
M  V30 16981 N 1604.4 4.33545 -3.27932 0
M  V30 16982 H 1608.2 2.04639 -2.1095 0
M  V30 16983 H 1605.72 1.05638 -1.23347 0
M  V30 16984 H 1607.71 4.10121 -0.748764 0
M  V30 16985 H 1606.37 3.24645 0.0597974 0
M  V30 16986 H 1607.39 3.71596 -3.60745 0
M  V30 16987 H 1604.06 4.04148 -1.0474 0
M  V30 16988 H 1605.45 4.40618 -5.07253 0
M  V30 16989 N 1608.17 1.14759 1.0802 0
M  V30 16990 C 1609.42 0.918248 1.80484 0
M  V30 16991 C 1609.75 -0.554986 1.86414 0
M  V30 16992 O 1609 -1.42732 1.33888 0
M  V30 16993 C 1609.3 1.4692 3.25805 0
M  V30 16994 C 1608.97 2.96176 3.39987 0
M  V30 16995 C 1607.63 3.36923 3.43564 0
M  V30 16996 C 1609.98 3.92131 3.43341 0
M  V30 16997 C 1607.31 4.72281 3.48092 0
M  V30 16998 C 1609.66 5.27351 3.49404 0
M  V30 16999 C 1608.33 5.67605 3.51256 0
M  V30 17000 H 1607.6 0.336011 0.660437 0
M  V30 17001 H 1610.24 1.43191 1.27156 0
M  V30 17002 H 1608.55 0.876571 3.81868 0
M  V30 17003 H 1610.24 1.26765 3.80436 0
M  V30 17004 H 1606.83 2.63675 3.37896 0
M  V30 17005 H 1611.02 3.61728 3.39804 0
M  V30 17006 H 1606.27 5.02823 3.4782 0
M  V30 17007 H 1610.45 6.01507 3.50946 0
M  V30 17008 H 1608.08 6.72474 3.54517 0
M  V30 17009 N 1609.65 -1.26251 0.943322 0
M  V30 17010 C 1610.9 -1.9327 0.590863 0
M  V30 17011 C 1611.22 -1.74356 -0.873212 0
M  V30 17012 O 1610.49 -1.10046 -1.6207 0
M  V30 17013 H 1609.07 -0.71523 0.215535 0
M  V30 17014 H 1611.73 -1.53647 1.19911 0
M  V30 17015 H 1610.83 -3.01393 0.810475 0
M  V30 17016 N 1611.13 -0.710588 -1.40671 0
M  V30 17017 C 1612.37 -0.252303 -2.02837 0
M  V30 17018 C 1612.73 1.13154 -1.55113 0
M  V30 17019 O 1613.93 1.68653 -2.09307 0
M  V30 17020 C 1612.21 -0.323902 -3.55929 0
M  V30 17021 S 1613.76 0.0581316 -4.38761 0
M  V30 17022 H 1610.58 -0.100448 -0.703869 0
M  V30 17023 H 1613.18 -0.931699 -1.71871 0
M  V30 17024 H 1611.89 -1.33279 -3.88156 0
M  V30 17025 H 1611.42 0.37414 -3.91617 0
M  V30 17026 H 1613.43 1.28162 -4.79363 0
M  V30 17027 N 1612.61 1.50847 -0.456408 0
M  V30 17028 C 1613.85 2.02534 0.103772 0
M  V30 17029 C 1614.19 1.33874 1.40682 0
M  V30 17030 O 1613.46 0.459695 1.8899 0
M  V30 17031 C 1613.74 3.58825 0.302817 0
M  V30 17032 C 1613.6 4.38077 -1.02022 0
M  V30 17033 C 1614.92 4.27044 1.06404 0
M  V30 17034 H 1612.04 0.736108 0.0362398 0
M  V30 17035 H 1614.68 1.80306 -0.599134 0
M  V30 17036 H 1612.83 3.77895 0.901542 0
M  V30 17037 H 1614.5 4.30613 -1.6544 0
M  V30 17038 H 1612.74 4.02401 -1.62036 0
M  V30 17039 H 1613.41 5.45652 -0.834766 0
M  V30 17040 H 1615.89 4.12359 0.556698 0
M  V30 17041 H 1614.77 5.3624 1.17209 0
M  V30 17042 H 1615.03 3.89204 2.09697 0
M  V30 17043 N 1614.09 0.188454 1.56469 0
M  V30 17044 C 1615.32 -0.457182 2.01478 0
M  V30 17045 C 1615.72 -1.5619 1.06777 0
M  V30 17046 O 1615.07 -1.8359 0.063659 0
M  V30 17047 C 1615.13 -1.08002 3.42893 0
M  V30 17048 C 1614.79 -0.114858 4.56856 0
M  V30 17049 C 1615.79 0.673269 5.15522 0
M  V30 17050 C 1613.47 -0.00570411 5.023 0
M  V30 17051 C 1615.47 1.55758 6.18076 0
M  V30 17052 C 1613.16 0.882173 6.04699 0
M  V30 17053 C 1614.15 1.66239 6.6246 0
M  V30 17054 O 1613.84 2.5354 7.62871 0
M  V30 17055 H 1613.57 -0.119784 0.665303 0
M  V30 17056 H 1616.13 0.292446 2.03307 0
M  V30 17057 H 1614.36 -1.87811 3.3803 0
M  V30 17058 H 1616.05 -1.62962 3.7175 0
M  V30 17059 H 1616.81 0.599207 4.81284 0
M  V30 17060 H 1612.69 -0.602804 4.57042 0
M  V30 17061 H 1616.24 2.16701 6.63088 0
M  V30 17062 H 1612.13 0.957375 6.38361 0
M  V30 17063 H 1612.9 2.47245 7.80264 0
M  V30 17064 N 1615.56 -1.5737 -0.0851874 0
M  V30 17065 C 1616.51 -1.99199 -1.10922 0
M  V30 17066 C 1617.5 -0.871945 -1.35225 0
M  V30 17067 O 1618.69 -1.13581 -1.35751 0
M  V30 17068 C 1615.82 -2.42827 -2.42672 0
M  V30 17069 C 1614.9 -3.61538 -2.217 0
M  V30 17070 N 1615.3 -4.76153 -1.70622 0
M  V30 17071 C 1613.59 -3.67828 -2.52228 0
M  V30 17072 C 1614.29 -5.58058 -1.64152 0
M  V30 17073 N 1613.27 -5.01515 -2.09723 0
M  V30 17074 H 1617.07 -2.8526 -0.707395 0
M  V30 17075 H 1614.59 -1.59745 -0.292468 0
M  V30 17076 H 1616.58 -2.71027 -3.16781 0
M  V30 17077 H 1615.24 -1.58147 -2.83583 0
M  V30 17078 H 1616.25 -4.98709 -1.39677 0
M  V30 17079 H 1612.93 -2.93832 -2.96596 0
M  V30 17080 H 1614.32 -6.60051 -1.25627 0
M  V30 17081 N 1617.04 0.356258 -1.53521 0
M  V30 17082 C 1618.29 1.09573 -1.69818 0
M  V30 17083 C 1618.61 1.89559 -0.457406 0
M  V30 17084 O 1617.88 1.88633 0.528616 0
M  V30 17085 H 1616.46 0.407512 -0.626054 0
M  V30 17086 H 1619.12 0.400612 -1.90738 0
M  V30 17087 H 1618.22 1.7803 -2.56343 0
M  V30 17088 N 1618.52 1.45038 0.616577 0
M  V30 17089 C 1619.75 1.52094 1.40267 0
M  V30 17090 C 1620.16 0.150558 1.88199 0
M  V30 17091 O 1619.52 -0.846258 1.61693 0
M  V30 17092 C 1619.57 2.49786 2.61322 0
M  V30 17093 O 1619.29 3.81498 2.15385 0
M  V30 17094 C 1620.79 2.66451 3.54286 0
M  V30 17095 H 1618.01 0.515378 0.429681 0
M  V30 17096 H 1620.56 1.90141 0.752768 0
M  V30 17097 H 1618.71 2.14835 3.22373 0
M  V30 17098 H 1619.13 4.34374 2.93972 0
M  V30 17099 H 1620.6 3.38802 4.35795 0
M  V30 17100 H 1621.08 1.72177 4.04044 0
M  V30 17101 H 1621.68 3.02362 2.99095 0
M  V30 17102 N 1620 -0.858287 1.32179 0
M  V30 17103 C 1620.93 -1.98219 1.23415 0
M  V30 17104 C 1621.91 -1.69685 0.118779 0
M  V30 17105 O 1623.09 -1.91785 0.305342 0
M  V30 17106 C 1620.22 -3.33977 0.952725 0
M  V30 17107 C 1619.18 -3.76853 2.02894 0
M  V30 17108 C 1618.5 -5.10201 1.59999 0
M  V30 17109 C 1619.8 -3.92707 3.44352 0
M  V30 17110 H 1621.5 -2.05809 2.17446 0
M  V30 17111 H 1619.04 -0.988817 1.04682 0
M  V30 17112 H 1621 -4.12152 0.87798 0
M  V30 17113 H 1619.72 -3.26592 -0.023234 0
M  V30 17114 H 1618.38 -3.00926 2.09378 0
M  V30 17115 H 1618.03 -4.99268 0.61157 0
M  V30 17116 H 1617.73 -5.39859 2.32004 0
M  V30 17117 H 1619.25 -5.90873 1.53954 0
M  V30 17118 H 1620.67 -4.61246 3.40477 0
M  V30 17119 H 1619.06 -4.33779 4.14675 0
M  V30 17120 H 1620.13 -2.95731 3.8428 0
M  V30 17121 N 1621.48 -1.1533 -1.07409 0
M  V30 17122 C 1622.41 -0.872476 -2.16587 0
M  V30 17123 C 1623.39 0.176683 -1.6918 0
M  V30 17124 O 1624.57 0.0311826 -1.94175 0
M  V30 17125 C 1621.7 -0.360342 -3.45426 0
M  V30 17126 C 1620.66 -1.34611 -4.06281 0
M  V30 17127 C 1619.98 -0.692848 -5.30192 0
M  V30 17128 C 1621.28 -2.71191 -4.46378 0
M  V30 17129 H 1622.98 -1.78546 -2.40336 0
M  V30 17130 H 1620.52 -0.859895 -1.15507 0
M  V30 17131 H 1622.47 -0.151429 -4.21128 0
M  V30 17132 H 1621.2 0.588109 -3.21261 0
M  V30 17133 H 1619.86 -1.54137 -3.32622 0
M  V30 17134 H 1619.51 0.261732 -5.02319 0
M  V30 17135 H 1619.21 -1.35071 -5.71865 0
M  V30 17136 H 1620.73 -0.493695 -6.08601 0
M  V30 17137 H 1622.14 -2.55513 -5.13212 0
M  V30 17138 H 1620.54 -3.33345 -4.99 0
M  V30 17139 H 1621.61 -3.273 -3.57775 0
M  V30 17140 N 1622.95 1.25748 -0.950004 0
M  V30 17141 C 1624.23 1.88566 -0.519839 0
M  V30 17142 C 1624.61 1.85761 1.00279 0
M  V30 17143 O 1623.96 1.31797 1.8666 0
M  V30 17144 C 1624.17 3.31502 -1.09121 0
M  V30 17145 C 1625.52 4.08298 -1.16524 0
M  V30 17146 O 1626.54 3.40605 -1.04243 0
M  V30 17147 O 1625.4 5.29375 -1.35735 0
M  V30 17148 H 1622.49 0.809175 -0.170777 0
M  V30 17149 H 1625.04 1.33853 -1.04314 0
M  V30 17150 H 1623.81 3.2795 -2.13458 0
M  V30 17151 H 1623.43 3.93765 -0.550881 0
M  V30 17152 N 1624.43 0.718038 1.40292 0
M  V30 17153 C 1625.38 0.0559466 2.32533 0
M  V30 17154 C 1626.37 -0.744365 1.5217 0
M  V30 17155 O 1627.58 -0.647458 1.67952 0
M  V30 17156 H 1623.95 -0.000710627 0.752 0
M  V30 17157 H 1625.93 0.850579 2.8602 0
M  V30 17158 C 1624.67 -0.849927 3.37152 0
M  V30 17159 H 1624 -0.243507 3.99058 0
M  V30 17160 H 1625.44 -1.28111 4.04183 0
M  V30 17161 C 1623.9 -1.9765 2.7283 0
M  V30 17162 O 1624.43 -3.06757 2.59351 0
M  V30 17163 N 1622.63 -1.76086 2.31176 0
M  V30 17164 H 1622.18 -0.873485 2.42339 0
M  V30 17165 H 1622.14 -2.51643 1.88477 0
M  V30 17166 N 1625.91 -1.50602 0.464402 0
M  V30 17167 C 1627.19 -1.94992 -0.154146 0
M  V30 17168 C 1627.57 -1.40447 -1.57601 0
M  V30 17169 O 1626.92 -0.602668 -2.20409 0
M  V30 17170 C 1627.13 -3.48844 -0.104296 0
M  V30 17171 C 1628.47 -4.23563 -0.296506 0
M  V30 17172 O 1629.5 -3.55739 -0.181187 0
M  V30 17173 O 1628.36 -5.43937 -0.528668 0
M  V30 17174 H 1625.45 -0.818921 -0.115311 0
M  V30 17175 H 1628 -1.61397 0.524324 0
M  V30 17176 H 1626.77 -3.81075 0.88869 0
M  V30 17177 H 1626.39 -3.88957 -0.824514 0
M  V30 17178 N 1627.39 -0.19675 -1.56367 0
M  V30 17179 C 1628.64 0.440711 -1.97236 0
M  V30 17180 C 1628.96 1.62037 -1.08485 0
M  V30 17181 O 1628.23 1.95274 -0.156483 0
M  V30 17182 H 1626.81 0.16581 -0.728365 0
M  V30 17183 H 1629.47 -0.283867 -1.92822 0
M  V30 17184 H 1628.57 0.783731 -3.02099 0
M  V30 17185 N 1628.87 1.57413 0.0768405 0
M  V30 17186 C 1629.81 2.0334 1.09185 0
M  V30 17187 C 1630.78 0.913073 1.38752 0
M  V30 17188 O 1631.97 1.18038 1.49906 0
M  V30 17189 C 1629.11 2.47805 2.40181 0
M  V30 17190 C 1628.22 3.73435 2.17188 0
M  V30 17191 C 1627.36 4.06703 3.41711 0
M  V30 17192 C 1626.4 5.25388 3.1406 0
M  V30 17193 N 1625.53 5.54319 4.309 0
M  V30 17194 H 1630.37 2.89825 0.693223 0
M  V30 17195 H 1627.91 1.43334 0.330736 0
M  V30 17196 H 1629.87 2.71635 3.16655 0
M  V30 17197 H 1628.5 1.64305 2.77856 0
M  V30 17198 H 1627.55 3.56974 1.3143 0
M  V30 17199 H 1628.86 4.60049 1.9276 0
M  V30 17200 H 1628.02 4.31407 4.26583 0
M  V30 17201 H 1626.75 3.18646 3.6921 0
M  V30 17202 H 1625.76 5.00486 2.27583 0
M  V30 17203 H 1626.98 6.15059 2.87888 0
M  V30 17204 H 1624.93 4.69222 4.5844 0
M  V30 17205 H 1624.85 6.35342 4.09727 0
M  V30 17206 H 1626.12 5.83571 5.16783 0
M  V30 17207 N 1630.34 -0.348112 1.53707 0
M  V30 17208 C 1631.29 -1.42729 1.81375 0
M  V30 17209 C 1632.26 -1.52461 0.659159 0
M  V30 17210 O 1633.45 -1.68072 0.903129 0
M  V30 17211 C 1630.59 -2.79443 2.02498 0
M  V30 17212 C 1629.7 -2.7854 3.30211 0
M  V30 17213 C 1628.83 -4.06942 3.41426 0
M  V30 17214 C 1627.87 -4.00248 4.63106 0
M  V30 17215 N 1627.01 -5.20332 4.7138 0
M  V30 17216 H 1631.85 -1.18436 2.73454 0
M  V30 17217 H 1629.39 -0.573809 1.35447 0
M  V30 17218 H 1631.35 -3.58888 2.12733 0
M  V30 17219 H 1629.98 -3.02099 1.13737 0
M  V30 17220 H 1629.03 -1.91227 3.28841 0
M  V30 17221 H 1630.34 -2.69471 4.19746 0
M  V30 17222 H 1629.49 -4.94808 3.51069 0
M  V30 17223 H 1628.23 -4.18786 2.49939 0
M  V30 17224 H 1627.24 -3.10767 4.53546 0
M  V30 17225 H 1628.46 -3.89991 5.55953 0
M  V30 17226 H 1626.41 -5.32729 3.828 0
M  V30 17227 H 1626.33 -5.13502 5.54844 0
M  V30 17228 H 1627.59 -6.09982 4.85326 0
M  V30 17229 N 1631.82 -1.45363 -0.608876 0
M  V30 17230 C 1633.07 -1.48586 -1.364 0
M  V30 17231 C 1633.38 -0.131213 -1.95159 0
M  V30 17232 O 1634.59 -0.0410845 -2.71469 0
M  V30 17233 C 1633.05 -2.61694 -2.47071 0
M  V30 17234 C 1632.65 -4.03466 -1.94729 0
M  V30 17235 C 1634.4 -2.74162 -3.24091 0
M  V30 17236 C 1632.31 -5.07958 -3.02874 0
M  V30 17237 H 1631.24 -0.552893 -0.512665 0
M  V30 17238 H 1633.89 -1.71499 -0.65271 0
M  V30 17239 H 1632.27 -2.32062 -3.20879 0
M  V30 17240 H 1633.44 -4.4277 -1.27638 0
M  V30 17241 H 1631.76 -3.95436 -1.30457 0
M  V30 17242 H 1634.35 -3.494 -4.04752 0
M  V30 17243 H 1634.7 -1.80751 -3.75013 0
M  V30 17244 H 1635.23 -3.03313 -2.57383 0
M  V30 17245 H 1631.97 -6.03073 -2.56871 0
M  V30 17246 H 1631.49 -4.73225 -3.68535 0
M  V30 17247 H 1633.17 -5.3265 -3.67277 0
M  V30 17248 N 1633.3 0.851265 -1.32632 0
M  V30 17249 C 1634.25 1.94828 -1.18431 0
M  V30 17250 C 1635.23 1.60646 -0.090361 0
M  V30 17251 O 1636.43 1.74134 -0.317212 0
M  V30 17252 C 1633.56 3.30937 -0.913006 0
M  V30 17253 C 1632.64 3.71328 -2.04882 0
M  V30 17254 N 1633.03 3.83517 -3.2977 0
M  V30 17255 C 1631.33 4.00979 -1.95274 0
M  V30 17256 C 1632.03 4.18341 -4.04185 0
M  V30 17257 N 1631.01 4.30043 -3.32512 0
M  V30 17258 H 1634.81 2.0239 -2.13109 0
M  V30 17259 H 1632.32 1.04323 -1.2446 0
M  V30 17260 H 1634.32 4.09304 -0.792221 0
M  V30 17261 H 1632.98 3.2469 0.0253611 0
M  V30 17262 H 1633.99 3.67749 -3.64666 0
M  V30 17263 H 1630.67 4.03015 -1.0902 0
M  V30 17264 H 1632.06 4.35213 -5.11898 0
M  V30 17265 N 1634.78 1.15898 1.06796 0
M  V30 17266 C 1636.02 0.947946 1.81089 0
M  V30 17267 C 1636.38 -0.51537 1.84954 0
M  V30 17268 O 1637.58 -0.844928 2.55175 0
M  V30 17269 C 1635.85 1.55214 3.21937 0
M  V30 17270 S 1637.41 1.48502 4.12907 0
M  V30 17271 H 1634.23 0.341025 0.623877 0
M  V30 17272 H 1636.83 1.4755 1.28254 0
M  V30 17273 H 1635.54 2.60996 3.16716 0
M  V30 17274 H 1635.07 1.02369 3.79848 0
M  V30 17275 H 1637.08 0.481773 4.93856 0
M  V30 17276 N 1636.26 -1.25243 0.956659 0
M  V30 17277 C 1637.22 -2.24054 0.482949 0
M  V30 17278 C 1638.22 -1.55367 -0.41447 0
M  V30 17279 O 1639.41 -1.72912 -0.211475 0
M  V30 17280 C 1636.54 -3.3956 -0.301975 0
M  V30 17281 H 1637.73 -2.67476 1.35634 0
M  V30 17282 H 1635.29 -1.37665 0.740138 0
M  V30 17283 H 1636.02 -3.01561 -1.19294 0
M  V30 17284 H 1635.81 -3.90607 0.341876 0
M  V30 17285 H 1637.3 -4.1293 -0.622807 0
M  V30 17286 N 1637.73 -0.725468 -1.3991 0
M  V30 17287 C 1638.98 -0.26965 -2.00999 0
M  V30 17288 C 1639.31 1.13727 -1.57416 0
M  V30 17289 O 1638.59 1.77345 -0.798693 0
M  V30 17290 C 1638.87 -0.360784 -3.58288 0
M  V30 17291 C 1638.72 -1.80679 -4.11916 0
M  V30 17292 C 1640.04 0.262328 -4.39317 0
M  V30 17293 H 1637.16 -0.0994547 -0.730259 0
M  V30 17294 H 1639.8 -0.91983 -1.6625 0
M  V30 17295 H 1637.95 0.192779 -3.88021 0
M  V30 17296 H 1639.63 -2.4165 -3.92942 0
M  V30 17297 H 1637.87 -2.33127 -3.65834 0
M  V30 17298 H 1638.54 -1.82189 -5.21068 0
M  V30 17299 H 1641.02 -0.209452 -4.15573 0
M  V30 17300 H 1639.89 0.168166 -5.48642 0
M  V30 17301 H 1640.15 1.34716 -4.21075 0
M  V30 17302 N 1639.21 1.50354 -0.472382 0
M  V30 17303 C 1640.16 2.28555 0.321118 0
M  V30 17304 C 1641.13 1.33665 0.98605 0
M  V30 17305 O 1642.31 1.62603 0.998239 0
M  V30 17306 C 1639.45 3.15586 1.39641 0
M  V30 17307 C 1638.57 4.25508 0.746129 0
M  V30 17308 C 1637.7 4.99794 1.79943 0
M  V30 17309 C 1636.74 6.01589 1.12946 0
M  V30 17310 N 1635.88 6.69149 2.12567 0
M  V30 17311 H 1640.72 2.95913 -0.352051 0
M  V30 17312 H 1638.26 1.45926 -0.185461 0
M  V30 17313 H 1640.21 3.64397 2.03152 0
M  V30 17314 H 1638.84 2.50271 2.03873 0
M  V30 17315 H 1637.9 3.804 -0.00157718 0
M  V30 17316 H 1639.21 4.98326 0.217335 0
M  V30 17317 H 1638.36 5.5233 2.51031 0
M  V30 17318 H 1637.1 4.26684 2.36203 0
M  V30 17319 H 1636.11 5.48312 0.404207 0
M  V30 17320 H 1637.33 6.76672 0.573735 0
M  V30 17321 H 1635.28 5.9883 2.67841 0
M  V30 17322 H 1635.19 7.37847 1.64676 0
M  V30 17323 H 1636.46 7.26301 2.83031 0
M  V30 17324 N 1640.69 0.205039 1.56261 0
M  V30 17325 C 1641.92 -0.439502 2.0269 0
M  V30 17326 C 1642.34 -1.53715 1.08413 0
M  V30 17327 O 1641.7 -1.81167 0.0693616 0
M  V30 17328 C 1641.75 -0.963672 3.47485 0
M  V30 17329 O 1640.85 -2.07602 3.56336 0
M  V30 17330 H 1640.19 -0.101543 0.65619 0
M  V30 17331 H 1642.72 0.318835 2.021 0
M  V30 17332 H 1642.73 -1.27773 3.87476 0
M  V30 17333 H 1641.41 -0.160203 4.15591 0
M  V30 17334 H 1639.98 -1.76985 3.28224 0
M  V30 17335 N 1642.17 -1.57451 -0.0684915 0
M  V30 17336 C 1643.1 -2.06954 -1.0813 0
M  V30 17337 C 1644.08 -0.963716 -1.40166 0
M  V30 17338 O 1645.27 -1.23664 -1.49736 0
M  V30 17339 C 1642.4 -2.51622 -2.39381 0
M  V30 17340 C 1641.35 -3.66111 -2.2169 0
M  V30 17341 C 1640.68 -3.96846 -3.58354 0
M  V30 17342 C 1641.98 -4.96036 -1.63541 0
M  V30 17343 H 1643.67 -2.91822 -0.66936 0
M  V30 17344 H 1641.22 -1.40387 -0.320533 0
M  V30 17345 H 1643.17 -2.84867 -3.1053 0
M  V30 17346 H 1641.89 -1.63788 -2.82562 0
M  V30 17347 H 1640.55 -3.33155 -1.52982 0
M  V30 17348 H 1640.2 -3.06137 -3.9911 0
M  V30 17349 H 1639.9 -4.73939 -3.47354 0
M  V30 17350 H 1641.42 -4.3259 -4.30927 0
M  V30 17351 H 1642.84 -5.27491 -2.24559 0
M  V30 17352 H 1641.23 -5.77474 -1.63228 0
M  V30 17353 H 1642.3 -4.81208 -0.597199 0
M  V30 17354 N 1643.65 0.339955 -1.5389 0
M  V30 17355 C 1644.6 1.43787 -1.82833 0
M  V30 17356 C 1645.59 1.54303 -0.699058 0
M  V30 17357 O 1646.8 1.56884 -0.882455 0
M  V30 17358 H 1643.17 0.479497 -0.579298 0
M  V30 17359 H 1645.14 1.16592 -2.7468 0
M  V30 17360 C 1643.89 2.80257 -2.05794 0
M  V30 17361 H 1643.21 2.72933 -2.92143 0
M  V30 17362 H 1644.65 3.56191 -2.30009 0
M  V30 17363 C 1643.11 3.26143 -0.844532 0
M  V30 17364 O 1643.64 4.01674 -0.0457121 0
M  V30 17365 N 1641.85 2.82988 -0.660748 0
M  V30 17366 H 1641.4 2.21687 -1.31198 0
M  V30 17367 H 1641.35 3.14044 0.149661 0
M  V30 17368 N 1645.13 1.45684 0.601159 0
M  V30 17369 C 1646.54 1.30232 0.922598 0
M  V30 17370 C 1646.74 0.260086 1.99814 0
M  V30 17371 O 1645.8 -0.343753 2.50149 0
M  V30 17372 C 1647.11 2.68318 1.35743 0
M  V30 17373 C 1648.66 2.76264 1.47129 0
M  V30 17374 C 1649.13 4.1489 1.93986 0
M  V30 17375 N 1650.62 4.17216 2.01209 0
M  V30 17376 C 1651.36 5.21354 2.387 0
M  V30 17377 N 1650.86 6.35833 2.75114 0
M  V30 17378 N 1652.65 5.08714 2.39095 0
M  V30 17379 H 1644.8 2.12117 -0.109634 0
M  V30 17380 H 1647.06 0.947902 0.0136129 0
M  V30 17381 H 1646.77 3.45804 0.64127 0
M  V30 17382 H 1646.64 2.97206 2.32268 0
M  V30 17383 H 1649.03 1.99077 2.17835 0
M  V30 17384 H 1649.11 2.51082 0.489028 0
M  V30 17385 H 1648.75 4.92565 1.23864 0
M  V30 17386 H 1648.68 4.37468 2.93137 0
M  V30 17387 H 1651.18 3.34607 1.75632 0
M  V30 17388 H 1651.49 7.11084 3.02622 0
M  V30 17389 H 1649.83 6.39224 2.72795 0
M  V30 17390 H 1653.02 4.18322 2.10057 0
M  V30 17391 H 1653.2 5.89989 2.67987 0
M  V30 17392 N 1646.6 -0.84422 1.33082 0
M  V30 17393 C 1647.85 -1.59404 1.23585 0
M  V30 17394 C 1648.17 -1.94593 -0.198208 0
M  V30 17395 O 1649.37 -2.68307 -0.415138 0
M  V30 17396 C 1647.83 -2.87489 2.16513 0
M  V30 17397 C 1647.44 -2.59685 3.65059 0
M  V30 17398 C 1649.18 -3.6551 2.15877 0
M  V30 17399 C 1647.09 -3.83834 4.49917 0
M  V30 17400 H 1646.02 -0.598191 0.459003 0
M  V30 17401 H 1648.67 -0.931299 1.58111 0
M  V30 17402 H 1647.05 -3.55276 1.74913 0
M  V30 17403 H 1648.22 -2.00143 4.15065 0
M  V30 17404 H 1646.54 -1.94977 3.6793 0
M  V30 17405 H 1649.14 -4.57654 2.76509 0
M  V30 17406 H 1649.48 -4.00031 1.15244 0
M  V30 17407 H 1650.01 -3.0464 2.55811 0
M  V30 17408 H 1646.75 -3.54448 5.51404 0
M  V30 17409 H 1646.27 -4.42734 4.04656 0
M  V30 17410 H 1647.95 -4.51468 4.63449 0
M  V30 17411 N 1648.08 -1.16463 -1.0618 0
M  V30 17412 C 1649.31 -0.971075 -1.82696 0
M  V30 17413 C 1649.72 0.480716 -1.82578 0
M  V30 17414 O 1649.08 1.33366 -1.24579 0
M  V30 17415 C 1649.13 -1.49235 -3.29259 0
M  V30 17416 O 1648.85 -2.88728 -3.29496 0
M  V30 17417 C 1650.35 -1.34197 -4.225 0
M  V30 17418 H 1647.57 -0.34415 -0.576023 0
M  V30 17419 H 1650.12 -1.54517 -1.33958 0
M  V30 17420 H 1648.27 -0.960503 -3.75304 0
M  V30 17421 H 1648.69 -3.12618 -4.21153 0
M  V30 17422 H 1650.16 -1.75499 -5.23358 0
M  V30 17423 H 1650.64 -0.287685 -4.38257 0
M  V30 17424 H 1651.24 -1.86349 -3.82301 0
M  V30 17425 N 1649.56 1.24734 -0.963288 0
M  V30 17426 C 1650.84 1.88004 -0.539809 0
M  V30 17427 C 1651.22 1.86814 0.983035 0
M  V30 17428 O 1650.56 1.33769 1.85251 0
M  V30 17429 C 1650.77 3.30326 -1.1263 0
M  V30 17430 C 1652.12 4.07039 -1.20848 0
M  V30 17431 O 1653.15 3.3948 -1.07849 0
M  V30 17432 O 1652.01 5.27906 -1.41342 0
M  V30 17433 H 1649.1 0.807318 -0.17935 0
M  V30 17434 H 1651.65 1.3274 -1.05727 0
M  V30 17435 H 1650.42 3.25668 -2.16925 0
M  V30 17436 H 1650.04 3.93159 -0.592614 0
M  V30 17437 N 1651.04 0.732878 1.39523 0
M  V30 17438 C 1652.29 0.276787 1.99792 0
M  V30 17439 C 1652.6 -1.14181 1.58814 0
M  V30 17440 O 1653.81 -1.69731 2.11905 0
M  V30 17441 C 1652.26 0.443924 3.57152 0
M  V30 17442 C 1651.87 1.87027 4.07093 0
M  V30 17443 C 1653.61 0.0495022 4.24471 0
M  V30 17444 C 1651.52 1.98708 5.57018 0
M  V30 17445 H 1650.45 0.0997337 0.747375 0
M  V30 17446 H 1653.1 0.906454 1.59548 0
M  V30 17447 H 1651.48 -0.254605 3.95181 0
M  V30 17448 H 1652.66 2.60059 3.80403 0
M  V30 17449 H 1650.97 2.21772 3.52429 0
M  V30 17450 H 1653.57 0.115815 5.34575 0
M  V30 17451 H 1653.91 -0.994967 4.04235 0
M  V30 17452 H 1654.45 0.69911 3.91609 0
M  V30 17453 H 1651.18 3.01336 5.82131 0
M  V30 17454 H 1650.7 1.30111 5.85518 0
M  V30 17455 H 1652.38 1.76725 6.22396 0
M  V30 17456 N 1652.52 -1.50101 0.480349 0
M  V30 17457 C 1653.76 -2.01974 -0.0712904 0
M  V30 17458 C 1654.08 -1.36377 -1.39378 0
M  V30 17459 O 1653.35 -0.512162 -1.89087 0
M  V30 17460 H 1651.93 -0.746424 -0.0293362 0
M  V30 17461 H 1654.6 -1.84338 0.632883 0
M  V30 17462 H 1653.69 -3.11351 -0.216057 0
M  V30 17463 N 1653.99 -0.213323 -1.5615 0
M  V30 17464 C 1654.9 0.711703 -2.23544 0
M  V30 17465 C 1655.92 1.22027 -1.24038 0
M  V30 17466 O 1657.1 1.26361 -1.56828 0
M  V30 17467 C 1654.16 1.90645 -2.89578 0
M  V30 17468 C 1653.22 1.44066 -4.04405 0
M  V30 17469 C 1652.45 2.57846 -4.6728 0
M  V30 17470 O 1652.68 3.75781 -4.29121 0
M  V30 17471 O 1651.61 2.29518 -5.56422 0
M  V30 17472 H 1655.44 0.167635 -3.03237 0
M  V30 17473 H 1653.02 0.016771 -1.49391 0
M  V30 17474 H 1654.9 2.60435 -3.31288 0
M  V30 17475 H 1653.58 2.43877 -2.12851 0
M  V30 17476 H 1652.49 0.711024 -3.67281 0
M  V30 17477 H 1653.82 0.954809 -4.8285 0
M  V30 17478 N 1655.47 1.57485 0.0601405 0
M  V30 17479 C 1656.72 1.88094 0.758192 0
M  V30 17480 C 1657.05 0.807138 1.76632 0
M  V30 17481 O 1656.33 -0.181347 1.93653 0
M  V30 17482 C 1656.61 3.29363 1.45574 0
M  V30 17483 C 1656.46 4.47408 0.463233 0
M  V30 17484 C 1657.78 3.69048 2.39773 0
M  V30 17485 H 1654.9 0.684106 0.274169 0
M  V30 17486 H 1657.54 1.89988 0.0212215 0
M  V30 17487 H 1655.69 3.27879 2.08393 0
M  V30 17488 H 1657.36 4.6102 -0.160641 0
M  V30 17489 H 1655.61 4.3324 -0.220408 0
M  V30 17490 H 1656.28 5.43065 0.989164 0
M  V30 17491 H 1658.75 3.71701 1.87024 0
M  V30 17492 H 1657.63 4.68761 2.85577 0
M  V30 17493 H 1657.89 2.9961 3.25094 0
M  V30 17494 N 1656.95 -0.331789 1.54068 0
M  V30 17495 C 1658.18 -1.09484 1.76148 0
M  V30 17496 C 1658.6 -1.81201 0.504772 0
M  V30 17497 O 1657.96 -1.7297 -0.54325 0
M  V30 17498 C 1658.01 -2.07495 2.94921 0
M  V30 17499 O 1657.11 -3.15239 2.65891 0
M  V30 17500 H 1656.45 -0.316071 0.583948 0
M  V30 17501 H 1658.98 -0.378593 2.01067 0
M  V30 17502 H 1658.99 -2.5051 3.22038 0
M  V30 17503 H 1657.67 -1.54696 3.8606 0
M  V30 17504 H 1656.24 -2.76958 2.49697 0
M  V30 17505 N 1658.43 -1.46001 -0.593424 0
M  V30 17506 C 1659.36 -1.51774 -1.71748 0
M  V30 17507 C 1660.37 -0.407093 -1.57628 0
M  V30 17508 O 1661.56 -0.674903 -1.65249 0
M  V30 17509 C 1658.66 -1.3718 -3.09895 0
M  V30 17510 C 1657.84 -2.62173 -3.5012 0
M  V30 17511 C 1656.89 -2.41933 -4.67285 0
M  V30 17512 O 1655.92 -3.15611 -4.73686 0
M  V30 17513 N 1657.12 -1.47405 -5.61473 0
M  V30 17514 H 1659.89 -2.48689 -1.67253 0
M  V30 17515 H 1657.45 -1.41921 -0.779111 0
M  V30 17516 H 1659.44 -1.21428 -3.86054 0
M  V30 17517 H 1658.01 -0.484876 -3.08817 0
M  V30 17518 H 1657.23 -2.92943 -2.63777 0
M  V30 17519 H 1658.52 -3.45229 -3.73758 0
M  V30 17520 H 1657.92 -0.866282 -5.59028 0
M  V30 17521 H 1656.47 -1.3762 -6.37106 0
M  V30 17522 N 1659.91 0.83715 -1.33527 0
M  V30 17523 C 1661.15 1.59251 -1.25081 0
M  V30 17524 C 1661.48 1.93638 0.182956 0
M  V30 17525 O 1660.74 1.59025 1.14059 0
M  V30 17526 C 1661.04 2.9113 -2.07312 0
M  V30 17527 C 1660.7 2.76098 -3.56484 0
M  V30 17528 C 1659.36 2.71706 -3.97151 0
M  V30 17529 C 1661.72 2.60781 -4.51268 0
M  V30 17530 C 1659.04 2.49899 -5.30818 0
M  V30 17531 C 1661.4 2.40507 -5.85097 0
M  V30 17532 C 1660.06 2.34519 -6.24946 0
M  V30 17533 H 1659.33 0.582741 -0.457705 0
M  V30 17534 H 1661.98 0.969749 -1.65131 0
M  V30 17535 H 1660.28 3.57621 -1.60045 0
M  V30 17536 H 1661.98 3.48632 -1.98133 0
M  V30 17537 H 1658.57 2.8035 -3.24194 0
M  V30 17538 H 1662.75 2.63207 -4.20756 0
M  V30 17539 H 1658.01 2.4371 -5.60728 0
M  V30 17540 H 1662.18 2.27639 -6.58144 0
M  V30 17541 H 1659.81 2.17381 -7.28457 0
M  V30 17542 N 1661.38 1.17024 1.05561 0
M  V30 17543 C 1662.31 0.906823 2.15172 0
M  V30 17544 C 1663.3 -0.149745 1.6944 0
M  V30 17545 O 1664.48 -0.000287092 1.942 0
M  V30 17546 C 1661.61 0.415251 3.44809 0
M  V30 17547 C 1660.56 1.41058 4.04088 0
M  V30 17548 C 1659.89 0.777109 5.29023 0
M  V30 17549 C 1661.19 2.78258 4.42007 0
M  V30 17550 H 1662.88 1.82347 2.37466 0
M  V30 17551 H 1660.43 0.878162 1.14124 0
M  V30 17552 H 1662.38 0.218407 4.20834 0
M  V30 17553 H 1661.11 -0.536924 3.22156 0
M  V30 17554 H 1659.77 1.5941 3.30127 0
M  V30 17555 H 1659.41 -0.181784 5.02671 0
M  V30 17556 H 1659.11 1.44151 5.69644 0
M  V30 17557 H 1660.64 0.590455 6.07738 0
M  V30 17558 H 1662.05 2.63645 5.09082 0
M  V30 17559 H 1660.45 3.41241 4.93634 0
M  V30 17560 H 1661.52 3.3295 3.52523 0
M  V30 17561 N 1662.86 -1.24221 0.969889 0
M  V30 17562 C 1664.09 -1.96403 0.650658 0
M  V30 17563 C 1664.51 -1.71919 -0.780339 0
M  V30 17564 O 1663.86 -1.00427 -1.52383 0
M  V30 17565 C 1663.91 -3.49636 0.918542 0
M  V30 17566 O 1663.63 -3.73283 2.29328 0
M  V30 17567 C 1665.14 -4.3903 0.613803 0
M  V30 17568 H 1662.36 -0.625614 0.242587 0
M  V30 17569 H 1664.9 -1.57992 1.29842 0
M  V30 17570 H 1663.05 -3.86101 0.316959 0
M  V30 17571 H 1663.47 -4.67649 2.37496 0
M  V30 17572 H 1664.94 -5.4539 0.851679 0
M  V30 17573 H 1665.42 -4.36868 -0.451976 0
M  V30 17574 H 1666.03 -4.08155 1.19539 0
M  V30 17575 N 1664.34 -0.740267 -1.39132 0
M  V30 17576 C 1665.25 -0.105452 -2.34363 0
M  V30 17577 C 1666.27 0.715908 -1.5859 0
M  V30 17578 O 1667.44 0.643155 -1.90855 0
M  V30 17579 C 1664.51 0.787141 -3.37646 0
M  V30 17580 C 1663.57 -0.047071 -4.29274 0
M  V30 17581 C 1662.8 0.803014 -5.27624 0
M  V30 17582 O 1663.02 2.04155 -5.32613 0
M  V30 17583 O 1661.96 0.228879 -6.01465 0
M  V30 17584 H 1665.78 -0.891588 -2.90318 0
M  V30 17585 H 1663.37 -0.500996 -1.40749 0
M  V30 17586 H 1665.25 1.29769 -4.00921 0
M  V30 17587 H 1663.93 1.552 -2.84068 0
M  V30 17588 H 1662.83 -0.603265 -3.69204 0
M  V30 17589 H 1664.17 -0.774273 -4.86072 0
M  V30 17590 N 1665.82 1.49844 -0.488302 0
M  V30 17591 C 1667.07 2.02009 0.0605782 0
M  V30 17592 C 1667.39 1.37114 1.38653 0
M  V30 17593 O 1666.66 0.522182 1.88812 0
M  V30 17594 H 1665.24 0.746569 0.0253773 0
M  V30 17595 H 1667.9 1.84 -0.64265 0
M  V30 17596 H 1667 3.11461 0.199542 0
M  V30 17597 N 1667.3 0.221601 1.56034 0
M  V30 17598 C 1668.55 -0.410442 1.9748 0
M  V30 17599 C 1668.86 -1.60895 1.1123 0
M  V30 17600 O 1670.06 -2.31052 1.42574 0
M  V30 17601 C 1668.52 -0.781624 3.5131 0
M  V30 17602 C 1668.13 0.394077 4.46263 0
M  V30 17603 C 1669.87 -1.37927 4.01468 0
M  V30 17604 C 1667.78 0.000458181 5.914 0
M  V30 17605 H 1666.71 -0.157122 0.737447 0
M  V30 17606 H 1669.36 0.317821 1.80727 0
M  V30 17607 H 1667.74 -1.56731 3.63664 0
M  V30 17608 H 1668.92 1.17161 4.45657 0
M  V30 17609 H 1667.23 0.904959 4.06447 0
M  V30 17610 H 1669.83 -1.68667 5.07401 0
M  V30 17611 H 1670.17 -2.29507 3.47322 0
M  V30 17612 H 1670.7 -0.657015 3.92337 0
M  V30 17613 H 1667.44 0.882743 6.49529 0
M  V30 17614 H 1666.96 -0.741386 5.952 0
M  V30 17615 H 1668.64 -0.42621 6.45595 0
M  V30 17616 N 1668.77 -1.57515 -0.0517878 0
M  V30 17617 C 1670.02 -1.87396 -0.746022 0
M  V30 17618 C 1670.34 -0.817053 -1.77718 0
M  V30 17619 O 1671.54 -1.00435 -2.5224 0
M  V30 17620 C 1670 -3.32481 -1.37783 0
M  V30 17621 C 1669.61 -4.46349 -0.384208 0
M  V30 17622 C 1671.35 -3.71539 -2.05327 0
M  V30 17623 C 1669.26 -5.82484 -1.02307 0
M  V30 17624 H 1668.19 -0.699127 -0.282379 0
M  V30 17625 H 1670.84 -1.835 0.000245524 0
M  V30 17626 H 1669.22 -3.31051 -2.17304 0
M  V30 17627 H 1670.39 -4.59209 0.382639 0
M  V30 17628 H 1668.71 -4.15976 0.187873 0
M  V30 17629 H 1671.31 -4.70553 -2.53936 0
M  V30 17630 H 1671.65 -3.02361 -2.86153 0
M  V30 17631 H 1672.18 -3.75046 -1.32611 0
M  V30 17632 H 1668.92 -6.55005 -0.254704 0
M  V30 17633 H 1668.44 -5.73388 -1.7603 0
M  V30 17634 H 1670.12 -6.28476 -1.5371 0
M  V30 17635 N 1670.25 0.323614 -1.54242 0
M  V30 17636 C 1671.19 1.42211 -1.78469 0
M  V30 17637 C 1672.16 1.49702 -0.634671 0
M  V30 17638 O 1673.35 1.67113 -0.872103 0
M  V30 17639 C 1670.48 2.80306 -1.90121 0
M  V30 17640 C 1669.52 2.90347 -3.12411 0
M  V30 17641 S 1670.35 2.54761 -4.71017 0
M  V30 17642 C 1671.51 3.94928 -4.85575 0
M  V30 17643 H 1671.74 1.21447 -2.71363 0
M  V30 17644 H 1669.28 0.520446 -1.45364 0
M  V30 17645 H 1671.23 3.59856 -1.97519 0
M  V30 17646 H 1669.9 2.98353 -0.982048 0
M  V30 17647 H 1669.09 3.91584 -3.17298 0
M  V30 17648 H 1668.69 2.18769 -3.03342 0
M  V30 17649 H 1670.98 4.8968 -4.68209 0
M  V30 17650 H 1671.93 3.95024 -5.87675 0
M  V30 17651 H 1672.33 3.8388 -4.1388 0
M  V30 17652 N 1671.73 1.46313 0.585673 0
M  V30 17653 C 1672.68 1.56653 1.69495 0
M  V30 17654 C 1673.65 0.411007 1.60935 0
M  V30 17655 O 1674.83 0.627369 1.80191 0
M  V30 17656 C 1671.97 1.55996 3.0783 0
M  V30 17657 C 1671.09 2.82261 3.27036 0
M  V30 17658 C 1670.22 2.73129 4.55603 0
M  V30 17659 C 1669.26 3.94346 4.68143 0
M  V30 17660 N 1668.4 3.83617 5.88032 0
M  V30 17661 H 1673.24 2.51407 1.59995 0
M  V30 17662 H 1670.77 1.24729 0.779821 0
M  V30 17663 H 1672.73 1.53602 3.87895 0
M  V30 17664 H 1671.36 0.647766 3.16234 0
M  V30 17665 H 1670.41 2.94648 2.40596 0
M  V30 17666 H 1671.73 3.72107 3.32171 0
M  V30 17667 H 1670.88 2.68823 5.43893 0
M  V30 17668 H 1669.62 1.80917 4.52902 0
M  V30 17669 H 1668.62 3.98987 3.78272 0
M  V30 17670 H 1669.85 4.8765 4.72625 0
M  V30 17671 H 1667.8 2.9419 5.86334 0
M  V30 17672 H 1667.71 4.67117 5.94422 0
M  V30 17673 H 1668.98 3.83281 6.7876 0
M  V30 17674 N 1673.21 -0.830057 1.33969 0
M  V30 17675 C 1674.49 -1.57112 1.16513 0
M  V30 17676 C 1674.87 -2.09429 -0.265075 0
M  V30 17677 O 1674.21 -1.90263 -1.26539 0
M  V30 17678 C 1674.42 -2.69808 2.2137 0
M  V30 17679 C 1675.77 -3.38761 2.55981 0
M  V30 17680 O 1676.8 -2.80058 2.20104 0
M  V30 17681 O 1675.66 -4.44753 3.1758 0
M  V30 17682 H 1672.75 -0.693066 0.451207 0
M  V30 17683 H 1675.3 -0.872048 1.4558 0
M  V30 17684 H 1674.07 -2.28852 3.17399 0
M  V30 17685 H 1673.69 -3.47372 1.93439 0
M  V30 17686 N 1674.69 -1.17582 -1.04939 0
M  V30 17687 C 1675.93 -0.965778 -1.77986 0
M  V30 17688 C 1676.26 0.505366 -1.8782 0
M  V30 17689 O 1675.52 1.39132 -1.37625 0
M  V30 17690 C 1675.82 -1.55507 -3.21796 0
M  V30 17691 C 1675.48 -3.05086 -3.32014 0
M  V30 17692 C 1674.14 -3.45914 -3.3451 0
M  V30 17693 C 1676.5 -4.01096 -3.32824 0
M  V30 17694 C 1673.82 -4.81344 -3.35447 0
M  V30 17695 C 1676.18 -5.3643 -3.353 0
M  V30 17696 C 1674.84 -5.76718 -3.36084 0
M  V30 17697 H 1674.11 -0.353403 -0.651297 0
M  V30 17698 H 1676.76 -1.46512 -1.23315 0
M  V30 17699 H 1675.06 -0.977509 -3.7941 0
M  V30 17700 H 1676.76 -1.36807 -3.76941 0
M  V30 17701 H 1673.35 -2.72541 -3.30786 0
M  V30 17702 H 1677.53 -3.7061 -3.30094 0
M  V30 17703 H 1672.79 -5.11868 -3.34366 0
M  V30 17704 H 1676.96 -6.106 -3.34874 0
M  V30 17705 H 1674.59 -6.81637 -3.36563 0
M  V30 17706 N 1676.17 1.23705 -0.976463 0
M  V30 17707 C 1677.39 1.96595 -0.660697 0
M  V30 17708 C 1677.82 1.71845 0.764916 0
M  V30 17709 O 1677.17 0.987506 1.52046 0
M  V30 17710 C 1677.22 3.47803 -0.95214 0
M  V30 17711 O 1676.33 4.12378 -0.0421126 0
M  V30 17712 H 1675.67 0.615591 -0.248886 0
M  V30 17713 H 1678.2 1.57247 -1.30899 0
M  V30 17714 H 1678.21 3.98236 -0.887238 0
M  V30 17715 H 1676.88 3.65144 -1.99105 0
M  V30 17716 H 1675.46 3.72552 -0.161087 0
M  V30 17717 N 1677.64 0.747635 1.38738 0
M  V30 17718 C 1678.59 0.0917864 2.27815 0
M  V30 17719 C 1679.58 -0.699471 1.44901 0
M  V30 17720 O 1680.77 -0.566404 1.67693 0
M  V30 17721 C 1677.9 -0.805131 3.33725 0
M  V30 17722 C 1676.98 -0.00734503 4.24099 0
M  V30 17723 N 1677.38 1.02602 4.95284 0
M  V30 17724 C 1675.67 -0.235075 4.4538 0
M  V30 17725 C 1676.37 1.50818 5.61808 0
M  V30 17726 N 1675.35 0.824534 5.3731 0
M  V30 17727 H 1679.15 0.883313 2.80312 0
M  V30 17728 H 1676.67 0.583125 1.5157 0
M  V30 17729 H 1678.66 -1.29056 3.96422 0
M  V30 17730 H 1677.32 -1.59568 2.82787 0
M  V30 17731 H 1678.33 1.40768 4.98402 0
M  V30 17732 H 1675.01 -0.99943 4.05361 0
M  V30 17733 H 1676.4 2.36862 6.28766 0
M  V30 17734 N 1679.12 -1.49583 0.496242 0
M  V30 17735 C 1680.53 -1.8664 0.0472756 0
M  V30 17736 C 1680.88 -1.40898 -1.36536 0
M  V30 17737 O 1680.01 -0.784796 -2.01668 0
M  V30 17738 C 1680.6 -3.38708 0.079016 0
M  V30 17739 C 1679.16 -3.75083 -0.314587 0
M  V30 17740 C 1678.31 -2.73565 0.453624 0
M  V30 17741 H 1681.26 -1.41969 0.709269 0
M  V30 17742 H 1681.28 -3.73676 -0.717396 0
M  V30 17743 H 1680.79 -3.71969 1.10727 0
M  V30 17744 H 1678.89 -3.47429 -1.34625 0
M  V30 17745 H 1679.01 -4.791 0.00155427 0
M  V30 17746 H 1677.37 -2.54519 -0.095937 0
M  V30 17747 H 1678.15 -3.0967 1.48186 0
M  V30 17748 N 1680.6 -0.229873 -1.55915 0
M  V30 17749 C 1681.55 0.693198 -2.2203 0
M  V30 17750 C 1682.54 1.1933 -1.20236 0
M  V30 17751 O 1683.75 1.15217 -1.38294 0
M  V30 17752 H 1680.12 0.241986 -0.712002 0
M  V30 17753 H 1682.09 0.112229 -2.98189 0
M  V30 17754 C 1680.84 1.88688 -2.92048 0
M  V30 17755 H 1680.17 1.51119 -3.70139 0
M  V30 17756 H 1681.61 2.51036 -3.41697 0
M  V30 17757 C 1680.06 2.74747 -1.94976 0
M  V30 17758 O 1680.59 3.73759 -1.47198 0
M  V30 17759 N 1678.8 2.40956 -1.62445 0
M  V30 17760 H 1678.35 1.60494 -2.01493 0
M  V30 17761 H 1678.31 2.98816 -0.977581 0
M  V30 17762 N 1682.08 1.5754 0.0434337 0
M  V30 17763 C 1683.32 1.88887 0.7382 0
M  V30 17764 C 1683.66 0.825827 1.75766 0
M  V30 17765 O 1682.93 -0.160797 1.93834 0
M  V30 17766 C 1683.21 3.30889 1.42072 0
M  V30 17767 C 1683.07 4.47874 0.415754 0
M  V30 17768 C 1684.39 3.71571 2.35846 0
M  V30 17769 H 1681.51 0.686975 0.266897 0
M  V30 17770 H 1684.15 1.9 0.00106957 0
M  V30 17771 H 1682.3 3.30071 2.04903 0
M  V30 17772 H 1683.97 4.60824 -0.209529 0
M  V30 17773 H 1682.21 4.32982 -0.266346 0
M  V30 17774 H 1682.88 5.44084 0.931509 0
M  V30 17775 H 1685.36 3.73663 1.83071 0
M  V30 17776 H 1684.24 4.71763 2.80589 0
M  V30 17777 H 1684.5 3.03041 3.21898 0
M  V30 17778 N 1683.56 -0.31543 1.54411 0
M  V30 17779 C 1684.49 -1.39353 1.87358 0
M  V30 17780 C 1685.47 -1.53586 0.731118 0
M  V30 17781 O 1686.65 -1.67332 0.98558 0
M  V30 17782 C 1683.78 -2.75998 2.10814 0
M  V30 17783 C 1682.74 -2.76545 3.2666 0
M  V30 17784 C 1682.06 -4.16343 3.35504 0
M  V30 17785 C 1683.36 -2.39567 4.64117 0
M  V30 17786 H 1685.06 -1.12028 2.77651 0
M  V30 17787 H 1682.6 -0.537476 1.33593 0
M  V30 17788 H 1684.55 -3.51491 2.32447 0
M  V30 17789 H 1683.28 -3.04817 1.17278 0
M  V30 17790 H 1681.94 -2.03507 3.04927 0
M  V30 17791 H 1681.59 -4.42316 2.39512 0
M  V30 17792 H 1681.29 -4.17613 4.13368 0
M  V30 17793 H 1682.81 -4.93637 3.59381 0
M  V30 17794 H 1684.22 -3.04775 4.85577 0
M  V30 17795 H 1682.62 -2.52075 5.4459 0
M  V30 17796 H 1683.69 -1.34707 4.65813 0
M  V30 17797 N 1685.03 -1.46622 -0.577906 0
M  V30 17798 C 1686.26 -1.56 -1.36671 0
M  V30 17799 C 1686.68 -0.2034 -1.86997 0
M  V30 17800 O 1686.04 0.817288 -1.61834 0
M  V30 17801 C 1686.09 -2.57254 -2.52691 0
M  V30 17802 O 1685.19 -2.1109 -3.54281 0
M  V30 17803 H 1684.54 -0.524779 -0.406821 0
M  V30 17804 H 1687.07 -1.92234 -0.700512 0
M  V30 17805 H 1687.08 -2.77016 -2.99543 0
M  V30 17806 H 1685.75 -3.55766 -2.15415 0
M  V30 17807 H 1684.33 -2.01337 -3.13875 0
M  V30 17808 N 1686.51 0.822941 -1.34408 0
M  V30 17809 C 1687.44 1.94878 -1.28627 0
M  V30 17810 C 1688.42 1.6931 -0.163727 0
M  V30 17811 O 1689.61 1.90908 -0.356083 0
M  V30 17812 C 1686.74 3.31333 -1.04094 0
M  V30 17813 C 1685.69 3.71341 -2.12814 0
M  V30 17814 C 1685.02 5.05779 -1.73469 0
M  V30 17815 C 1686.32 3.83439 -3.54643 0
M  V30 17816 H 1688.01 1.99972 -2.22827 0
M  V30 17817 H 1685.56 0.960715 -1.07267 0
M  V30 17818 H 1687.51 4.0968 -0.986947 0
M  V30 17819 H 1686.24 3.26539 -0.0633642 0
M  V30 17820 H 1684.89 2.95269 -2.17282 0
M  V30 17821 H 1684.54 4.97471 -0.743727 0
M  V30 17822 H 1684.24 5.33518 -2.46236 0
M  V30 17823 H 1685.77 5.86583 -1.69566 0
M  V30 17824 H 1687.18 4.52057 -3.52587 0
M  V30 17825 H 1685.58 4.22632 -4.2603 0
M  V30 17826 H 1686.65 2.85439 -3.91986 0
M  V30 17827 N 1687.99 1.18137 1.04314 0
M  V30 17828 C 1688.92 0.929593 2.14198 0
M  V30 17829 C 1689.9 -0.131766 1.69589 0
M  V30 17830 O 1691.09 0.0203104 1.94189 0
M  V30 17831 C 1688.22 0.451799 3.44349 0
M  V30 17832 C 1687.17 1.45336 4.02569 0
M  V30 17833 C 1686.5 0.833176 5.28169 0
M  V30 17834 C 1687.8 2.8293 4.39031 0
M  V30 17835 H 1689.49 1.84856 2.35518 0
M  V30 17836 H 1687.04 0.890217 1.13186 0
M  V30 17837 H 1688.99 0.26303 4.20578 0
M  V30 17838 H 1687.71 -0.502725 3.22708 0
M  V30 17839 H 1686.37 1.62902 3.28418 0
M  V30 17840 H 1686.02 -0.128459 5.02836 0
M  V30 17841 H 1685.72 1.50185 5.68083 0
M  V30 17842 H 1687.24 0.654881 6.07078 0
M  V30 17843 H 1688.66 2.6903 5.06257 0
M  V30 17844 H 1687.06 3.46458 4.89987 0
M  V30 17845 H 1688.13 3.3667 3.48972 0
M  V30 17846 N 1689.47 -1.23186 0.98301 0
M  V30 17847 C 1690.72 -1.91292 0.652051 0
M  V30 17848 C 1691.04 -1.77046 -0.8173 0
M  V30 17849 O 1690.31 -1.15146 -1.58487 0
M  V30 17850 H 1688.89 -0.708011 0.23818 0
M  V30 17851 H 1691.55 -1.49754 1.24739 0
M  V30 17852 H 1690.65 -2.98662 0.905951 0
M  V30 17853 N 1690.95 -0.754982 -1.38339 0
M  V30 17854 C 1692.2 -0.308537 -1.99326 0
M  V30 17855 C 1692.51 1.1164 -1.60611 0
M  V30 17856 O 1693.71 1.66339 -2.14578 0
M  V30 17857 C 1692.17 -0.500688 -3.564 0
M  V30 17858 C 1691.78 -1.9348 -4.04066 0
M  V30 17859 C 1693.52 -0.117026 -4.24339 0
M  V30 17860 C 1691.43 -2.07544 -5.53786 0
M  V30 17861 H 1690.36 -0.111611 -0.745694 0
M  V30 17862 H 1693.01 -0.931722 -1.58086 0
M  V30 17863 H 1691.39 0.191702 -3.95536 0
M  V30 17864 H 1692.57 -2.66077 -3.76217 0
M  V30 17865 H 1690.88 -2.27351 -3.48856 0
M  V30 17866 H 1693.48 -0.200847 -5.34323 0
M  V30 17867 H 1693.82 0.930531 -4.05767 0
M  V30 17868 H 1694.35 -0.761323 -3.90447 0
M  V30 17869 H 1691.09 -3.10559 -5.77264 0
M  V30 17870 H 1690.61 -1.39409 -5.83374 0
M  V30 17871 H 1692.29 -1.86605 -6.19506 0
M  V30 17872 N 1692.42 1.49318 -0.504168 0
M  V30 17873 C 1693.66 2.04366 0.0375509 0
M  V30 17874 C 1694.03 1.37521 1.33985 0
M  V30 17875 O 1695.23 1.83308 1.966 0
M  V30 17876 C 1693.5 3.56928 0.183524 0
M  V30 17877 S 1695.06 4.33514 0.679034 0
M  V30 17878 H 1691.88 0.711 0.000264717 0
M  V30 17879 H 1694.48 1.83335 -0.678857 0
M  V30 17880 H 1693.18 4.03121 -0.769546 0
M  V30 17881 H 1692.71 3.82369 0.925078 0
M  V30 17882 H 1694.73 4.56376 1.9477 0
M  V30 17883 N 1693.9 0.238138 1.5579 0
M  V30 17884 C 1694.83 -0.659451 2.23994 0
M  V30 17885 C 1695.81 -1.18817 1.21723 0
M  V30 17886 O 1697 -1.22913 1.50353 0
M  V30 17887 C 1694.13 -1.86043 2.93267 0
M  V30 17888 C 1693.08 -1.46485 4.02152 0
M  V30 17889 C 1692.41 -2.74595 4.58805 0
M  V30 17890 C 1693.71 -0.642448 5.18334 0
M  V30 17891 H 1695.4 -0.0907522 2.99262 0
M  V30 17892 H 1692.95 -0.042209 1.43938 0
M  V30 17893 H 1694.9 -2.49393 3.39678 0
M  V30 17894 H 1693.63 -2.45436 2.15473 0
M  V30 17895 H 1692.28 -0.854729 3.56497 0
M  V30 17896 H 1691.93 -3.32168 3.77721 0
M  V30 17897 H 1691.63 -2.48854 5.32302 0
M  V30 17898 H 1693.16 -3.38859 5.07944 0
M  V30 17899 H 1694.57 -1.18005 5.61024 0
M  V30 17900 H 1692.97 -0.481458 5.98166 0
M  V30 17901 H 1694.04 0.347298 4.83655 0
M  V30 17902 N 1695.38 -1.57561 -0.0350783 0
M  V30 17903 C 1696.8 -1.54746 -0.390618 0
M  V30 17904 C 1697 -0.963454 -1.76974 0
M  V30 17905 O 1696.05 -0.581878 -2.45704 0
M  V30 17906 C 1697.37 -2.9922 -0.297984 0
M  V30 17907 C 1698.91 -3.10739 -0.375506 0
M  V30 17908 C 1699.39 -4.56933 -0.312387 0
M  V30 17909 N 1700.88 -4.61709 -0.371364 0
M  V30 17910 C 1701.61 -5.72359 -0.34532 0
M  V30 17911 N 1701.11 -6.92266 -0.271921 0
M  V30 17912 N 1702.9 -5.60713 -0.394605 0
M  V30 17913 H 1695.05 -1.93876 0.867519 0
M  V30 17914 H 1697.32 -0.888974 0.329285 0
M  V30 17915 H 1697.02 -3.45651 0.649499 0
M  V30 17916 H 1696.9 -3.60987 -1.094 0
M  V30 17917 H 1699.28 -2.6426 -1.31342 0
M  V30 17918 H 1699.37 -2.51815 0.449752 0
M  V30 17919 H 1699.01 -5.04079 0.621834 0
M  V30 17920 H 1698.94 -5.13762 -1.15567 0
M  V30 17921 H 1701.43 -3.75436 -0.430848 0
M  V30 17922 H 1701.74 -7.72373 -0.256983 0
M  V30 17923 H 1700.09 -6.94592 -0.238058 0
M  V30 17924 H 1703.28 -4.65933 -0.449896 0
M  V30 17925 H 1703.45 -6.46938 -0.37084 0
M  V30 17926 N 1696.86 0.307236 -1.54576 0
M  V30 17927 C 1698.08 1.06668 -1.77867 0
M  V30 17928 C 1698.51 1.80375 -0.533536 0
M  V30 17929 O 1697.87 1.73812 0.515663 0
M  V30 17930 C 1697.91 2.02777 -2.98184 0
M  V30 17931 O 1697.02 3.10969 -2.70872 0
M  V30 17932 H 1696.36 0.306741 -0.588902 0
M  V30 17933 H 1698.89 0.346557 -2.01644 0
M  V30 17934 H 1698.9 2.45355 -3.25983 0
M  V30 17935 H 1697.57 1.48534 -3.88472 0
M  V30 17936 H 1696.15 2.7295 -2.54072 0
M  V30 17937 N 1698.34 1.46926 0.570122 0
M  V30 17938 C 1699.25 1.6105 1.70587 0
M  V30 17939 C 1700.26 0.493636 1.66851 0
M  V30 17940 O 1701.44 0.759454 1.86532 0
M  V30 17941 C 1698.5 1.60913 3.07096 0
M  V30 17942 C 1697.56 2.83928 3.21999 0
M  V30 17943 C 1696.8 2.83788 4.51996 0
M  V30 17944 O 1697.02 1.93256 5.36664 0
M  V30 17945 O 1695.95 3.75491 4.70415 0
M  V30 17946 H 1699.78 2.57126 1.61616 0
M  V30 17947 H 1697.37 1.29863 0.738637 0
M  V30 17948 H 1699.25 1.63576 3.88356 0
M  V30 17949 H 1697.92 0.680005 3.16477 0
M  V30 17950 H 1696.83 2.86814 2.40185 0
M  V30 17951 H 1698.16 3.76091 3.17516 0
M  V30 17952 N 1699.82 -0.815801 1.34842 0
M  V30 17953 C 1701.06 -1.5693 1.27347 0
M  V30 17954 C 1701.38 -1.94387 -0.154462 0
M  V30 17955 O 1700.65 -1.62858 -1.08876 0
M  V30 17956 H 1699.23 -0.581923 0.468374 0
M  V30 17957 H 1701.9 -0.973642 1.68838 0
M  V30 17958 H 1700.99 -2.4889 1.88308 0
M  V30 17959 N 1701.29 -1.18689 -1.03686 0
M  V30 17960 C 1702.52 -1.01024 -1.81132 0
M  V30 17961 C 1702.94 0.436584 -1.82963 0
M  V30 17962 O 1702.3 1.31343 -1.24975 0
M  V30 17963 C 1702.35 -1.5742 -3.24424 0
M  V30 17964 O 1701.45 -0.79813 -4.04603 0
M  V30 17965 H 1700.79 -0.357623 -0.559465 0
M  V30 17966 H 1703.32 -1.57532 -1.30556 0
M  V30 17967 H 1703.33 -1.60295 -3.75193 0
M  V30 17968 H 1702.01 -2.6273 -3.22406 0
M  V30 17969 H 1700.59 -0.842 -3.6327 0
M  V30 17970 N 1702.77 1.22662 -0.989529 0
M  V30 17971 C 1704.18 1.73116 -0.699124 0
M  V30 17972 C 1704.53 1.79847 0.784197 0
M  V30 17973 O 1703.66 1.44248 1.61311 0
M  V30 17974 C 1704.25 3.14403 -1.2624 0
M  V30 17975 C 1702.81 3.62275 -1.02144 0
M  V30 17976 C 1701.96 2.40257 -1.38463 0
M  V30 17977 H 1704.91 1.08057 -1.1623 0
M  V30 17978 H 1704.93 3.75091 -0.639307 0
M  V30 17979 H 1704.44 3.09472 -2.34198 0
M  V30 17980 H 1702.54 3.72577 0.0416622 0
M  V30 17981 H 1702.66 4.48587 -1.68245 0
M  V30 17982 H 1701.02 2.41705 -0.803179 0
M  V30 17983 H 1701.8 2.3799 -2.47418 0
M  V30 17984 N 1704.25 0.762308 1.37937 0
M  V30 17985 C 1705.18 0.156036 2.32978 0
M  V30 17986 C 1706.16 -0.693795 1.55308 0
M  V30 17987 O 1707.35 -0.633195 1.83587 0
M  V30 17988 C 1704.48 -0.731199 3.39515 0
M  V30 17989 C 1703.43 0.0165834 4.27997 0
M  V30 17990 C 1702.76 -0.989476 5.25465 0
M  V30 17991 C 1704.06 1.19009 5.08561 0
M  V30 17992 H 1705.75 0.949978 2.83929 0
M  V30 17993 H 1703.3 0.458269 1.36513 0
M  V30 17994 H 1705.25 -1.16507 4.04974 0
M  V30 17995 H 1703.97 -1.55756 2.87067 0
M  V30 17996 H 1702.63 0.431128 3.64056 0
M  V30 17997 H 1702.28 -1.81013 4.69301 0
M  V30 17998 H 1701.98 -0.493738 5.85522 0
M  V30 17999 H 1703.5 -1.42248 5.93799 0
M  V30 18000 H 1704.92 0.833336 5.67211 0
M  V30 18001 H 1703.31 1.61727 5.77896 0
M  V30 18002 H 1704.38 1.99879 4.41788 0
M  V30 18003 N 1705.73 -1.49049 0.51208 0
M  V30 18004 C 1706.97 -2.0278 -0.0285311 0
M  V30 18005 C 1707.31 -1.39003 -1.35617 0
M  V30 18006 O 1706.58 -0.52952 -1.87153 0
M  V30 18007 C 1706.86 -3.59701 -0.169433 0
M  V30 18008 C 1706.72 -4.33989 1.18211 0
M  V30 18009 C 1708.04 -4.30698 -0.904812 0
M  V30 18010 H 1705.16 -0.736946 -0.00889467 0
M  V30 18011 H 1707.8 -1.77959 0.66564 0
M  V30 18012 H 1705.95 -3.8098 -0.760667 0
M  V30 18013 H 1707.62 -4.24176 1.81307 0
M  V30 18014 H 1705.86 -3.9611 1.76859 0
M  V30 18015 H 1706.53 -5.42177 1.03671 0
M  V30 18016 H 1709.01 -4.14141 -0.40327 0
M  V30 18017 H 1707.89 -5.40221 -0.972264 0
M  V30 18018 H 1708.15 -3.96718 -1.95108 0
M  V30 18019 N 1707.21 -0.246397 -1.55662 0
M  V30 18020 C 1708.45 0.379047 -1.99226 0
M  V30 18021 C 1708.78 1.57627 -1.13434 0
M  V30 18022 O 1708.06 1.93493 -0.197627 0
M  V30 18023 C 1708.34 0.789403 -3.51341 0
M  V30 18024 C 1708.2 -0.413176 -4.47898 0
M  V30 18025 C 1709.51 1.63656 -4.0854 0
M  V30 18026 H 1706.63 0.136302 -0.724286 0
M  V30 18027 H 1709.28 -0.347607 -1.86793 0
M  V30 18028 H 1707.43 1.40854 -3.62067 0
M  V30 18029 H 1709.1 -1.0516 -4.49154 0
M  V30 18030 H 1707.34 -1.05636 -4.20741 0
M  V30 18031 H 1708.01 -0.0827267 -5.51938 0
M  V30 18032 H 1710.49 1.11393 -4.00912 0
M  V30 18033 H 1709.36 1.89254 -5.15242 0
M  V30 18034 H 1709.62 2.60823 -3.56965 0
M  V30 18035 N 1708.68 1.57577 0.026722 0
M  V30 18036 C 1709.61 2.09748 1.02605 0
M  V30 18037 C 1710.59 1.00054 1.37562 0
M  V30 18038 O 1711.78 1.2759 1.46405 0
M  V30 18039 C 1708.91 2.57881 2.32626 0
M  V30 18040 C 1707.86 3.7186 2.11905 0
M  V30 18041 C 1707.19 4.06208 3.47706 0
M  V30 18042 C 1708.49 5.00198 1.50332 0
M  V30 18043 H 1710.18 2.93494 0.591753 0
M  V30 18044 H 1707.73 1.41188 0.283199 0
M  V30 18045 H 1709.68 2.93 3.02868 0
M  V30 18046 H 1708.41 1.71222 2.7812 0
M  V30 18047 H 1707.07 3.37094 1.44096 0
M  V30 18048 H 1706.71 3.16611 3.90853 0
M  V30 18049 H 1706.41 4.82982 3.34667 0
M  V30 18050 H 1707.94 4.43863 4.19306 0
M  V30 18051 H 1709.35 5.33259 2.10494 0
M  V30 18052 H 1707.75 5.81599 1.4786 0
M  V30 18053 H 1708.82 4.82623 0.469405 0
M  V30 18054 N 1710.16 -0.299034 1.54737 0
M  V30 18055 C 1711.57 -0.871897 1.6509 0
M  V30 18056 C 1711.92 -1.88013 0.560843 0
M  V30 18057 O 1711.05 -2.1428 -0.302194 0
M  V30 18058 C 1711.64 -1.5882 2.99269 0
M  V30 18059 C 1710.2 -2.10944 3.11736 0
M  V30 18060 C 1709.35 -0.942776 2.60782 0
M  V30 18061 H 1712.3 -0.0759883 1.58518 0
M  V30 18062 H 1712.32 -2.45387 2.90802 0
M  V30 18063 H 1711.83 -0.854144 3.78584 0
M  V30 18064 H 1709.93 -2.87391 2.37144 0
M  V30 18065 H 1710.05 -2.34262 4.17921 0
M  V30 18066 H 1708.41 -1.3289 2.17284 0
M  V30 18067 H 1709.19 -0.222646 3.42577 0
M  V30 18068 N 1711.64 -1.47227 -0.562322 0
M  V30 18069 C 1712.87 -1.56968 -1.34331 0
M  V30 18070 C 1713.28 -0.217012 -1.87951 0
M  V30 18071 O 1712.62 0.79911 -1.65408 0
M  V30 18072 C 1712.68 -2.53072 -2.55332 0
M  V30 18073 C 1712.35 -3.98879 -2.23035 0
M  V30 18074 C 1713.34 -4.87511 -1.80636 0
M  V30 18075 C 1711.03 -4.44174 -2.34551 0
M  V30 18076 C 1713.02 -6.19456 -1.50176 0
M  V30 18077 C 1710.71 -5.76149 -2.03704 0
M  V30 18078 C 1711.71 -6.63611 -1.61584 0
M  V30 18079 O 1711.4 -7.93134 -1.31125 0
M  V30 18080 H 1711.13 -0.532854 -0.415984 0
M  V30 18081 H 1713.68 -1.93515 -0.688552 0
M  V30 18082 H 1711.91 -2.11582 -3.23682 0
M  V30 18083 H 1713.6 -2.52996 -3.17408 0
M  V30 18084 H 1714.37 -4.53766 -1.71236 0
M  V30 18085 H 1710.25 -3.76308 -2.66295 0
M  V30 18086 H 1713.79 -6.8768 -1.17227 0
M  V30 18087 H 1709.69 -6.09438 -2.12735 0
M  V30 18088 H 1710.45 -8.0559 -1.44799 0
M  V30 18089 N 1713.12 0.808639 -1.35273 0
M  V30 18090 C 1714.05 1.92612 -1.22376 0
M  V30 18091 C 1715.03 1.62213 -0.112119 0
M  V30 18092 O 1716.21 1.86411 -0.279844 0
M  V30 18093 C 1713.34 3.26965 -0.883847 0
M  V30 18094 C 1712.39 3.76313 -2.00725 0
M  V30 18095 S 1713.22 3.94362 -3.62269 0
M  V30 18096 C 1714.37 5.3162 -3.3035 0
M  V30 18097 H 1714.61 2.03257 -2.16965 0
M  V30 18098 H 1712.14 0.96579 -1.20465 0
M  V30 18099 H 1714.1 4.04582 -0.69453 0
M  V30 18100 H 1712.76 3.14069 0.0439446 0
M  V30 18101 H 1711.95 4.73615 -1.72351 0
M  V30 18102 H 1711.55 3.05687 -2.1548 0
M  V30 18103 H 1713.85 6.15539 -2.83051 0
M  V30 18104 H 1714.79 5.64986 -4.26844 0
M  V30 18105 H 1715.2 4.97809 -2.66171 0
M  V30 18106 N 1714.6 1.19237 1.03055 0
M  V30 18107 C 1715.54 0.928588 2.11296 0
M  V30 18108 C 1716.51 -0.135941 1.65543 0
M  V30 18109 O 1717.7 0.00584847 1.90799 0
M  V30 18110 C 1714.84 0.471532 3.41863 0
M  V30 18111 C 1713.95 1.60264 4.01173 0
M  V30 18112 C 1713.09 1.09729 5.19743 0
M  V30 18113 C 1712.13 2.2024 5.71105 0
M  V30 18114 N 1711.26 1.71024 6.80952 0
M  V30 18115 H 1716.1 1.85536 2.33196 0
M  V30 18116 H 1713.64 0.925029 1.14375 0
M  V30 18117 H 1715.6 0.187949 4.16776 0
M  V30 18118 H 1714.23 -0.41825 3.20079 0
M  V30 18119 H 1713.28 2.00147 3.23489 0
M  V30 18120 H 1714.59 2.43531 4.35309 0
M  V30 18121 H 1713.75 0.768832 6.01809 0
M  V30 18122 H 1712.48 0.234324 4.87137 0
M  V30 18123 H 1711.49 2.53918 4.87653 0
M  V30 18124 H 1712.71 3.06989 6.05751 0
M  V30 18125 H 1710.66 0.870334 6.50201 0
M  V30 18126 H 1710.58 2.47882 7.14206 0
M  V30 18127 H 1711.85 1.41137 7.66616 0
M  V30 18128 N 1716.07 -1.22136 0.99602 0
M  V30 18129 C 1717.02 -2.2199 0.520059 0
M  V30 18130 C 1718.01 -1.55497 -0.413454 0
M  V30 18131 O 1719.2 -1.75369 -0.239765 0
M  V30 18132 C 1716.33 -3.42923 -0.160875 0
M  V30 18133 C 1715.42 -4.16618 0.793126 0
M  V30 18134 N 1715.81 -4.67022 1.94226 0
M  V30 18135 C 1714.1 -4.41814 0.609648 0
M  V30 18136 C 1714.81 -5.23252 2.5413 0
M  V30 18137 N 1713.78 -5.12096 1.8237 0
M  V30 18138 H 1717.58 -2.58606 1.39643 0
M  V30 18139 H 1715.1 -1.37842 0.858682 0
M  V30 18140 H 1717.09 -4.13654 -0.519266 0
M  V30 18141 H 1715.75 -3.07818 -1.03334 0
M  V30 18142 H 1716.77 -4.62882 2.32294 0
M  V30 18143 H 1713.44 -4.16938 -0.216495 0
M  V30 18144 H 1714.83 -5.72769 3.51263 0
M  V30 18145 N 1717.55 -0.769612 -1.37531 0
M  V30 18146 C 1718.8 -0.332309 -1.99349 0
M  V30 18147 C 1719.12 1.09432 -1.61399 0
M  V30 18148 O 1718.39 1.75102 -0.878415 0
M  V30 18149 H 1716.97 -0.119879 -0.737318 0
M  V30 18150 H 1719.63 -0.987265 -1.68045 0
M  V30 18151 H 1718.73 -0.408233 -3.09419 0
M  V30 18152 N 1719.03 1.48775 -0.519977 0
M  V30 18153 C 1720.31 1.95429 0.0816701 0
M  V30 18154 C 1720.69 1.46199 1.52279 0
M  V30 18155 O 1720.04 0.684057 2.1802 0
M  V30 18156 C 1720.25 3.48991 -0.0252472 0
M  V30 18157 C 1721.59 4.24372 0.139099 0
M  V30 18158 O 1722.62 3.56166 0.0490322 0
M  V30 18159 O 1721.48 5.45524 0.326426 0
M  V30 18160 H 1718.57 0.822637 0.0848378 0
M  V30 18161 H 1721.12 1.5934 -0.583865 0
M  V30 18162 H 1719.89 3.77514 -1.02951 0
M  V30 18163 H 1719.51 3.91749 0.679588 0
M  V30 18164 N 1720.51 0.254649 1.55529 0
M  V30 18165 C 1721.44 -0.635656 2.24681 0
M  V30 18166 C 1722.42 -1.17519 1.22977 0
M  V30 18167 O 1723.6 -1.21311 1.51649 0
M  V30 18168 C 1720.73 -1.82922 2.95224 0
M  V30 18169 C 1719.69 -1.42212 4.03683 0
M  V30 18170 C 1719.01 -2.69713 4.61691 0
M  V30 18171 C 1720.31 -0.587436 5.18986 0
M  V30 18172 H 1722.01 -0.0590063 2.99342 0
M  V30 18173 H 1719.55 -0.02694 1.43975 0
M  V30 18174 H 1721.51 -2.45777 3.42304 0
M  V30 18175 H 1720.23 -2.43137 2.18064 0
M  V30 18176 H 1718.89 -0.81687 3.57383 0
M  V30 18177 H 1718.54 -3.28143 3.81223 0
M  V30 18178 H 1718.24 -2.43194 5.34911 0
M  V30 18179 H 1719.76 -3.33453 5.11509 0
M  V30 18180 H 1721.18 -1.12048 5.62244 0
M  V30 18181 H 1719.57 -0.417988 5.98643 0
M  V30 18182 H 1720.64 0.398577 4.83259 0
M  V30 18183 N 1721.99 -1.57589 -0.0183649 0
M  V30 18184 C 1723.4 -1.55152 -0.374183 0
M  V30 18185 C 1723.6 -0.98217 -1.75942 0
M  V30 18186 O 1722.66 -0.607905 -2.45073 0
M  V30 18187 C 1723.97 -2.99519 -0.266231 0
M  V30 18188 C 1725.52 -3.1112 -0.342527 0
M  V30 18189 C 1725.99 -4.57239 -0.263905 0
M  V30 18190 N 1727.49 -4.62077 -0.322372 0
M  V30 18191 C 1728.22 -5.72693 -0.284594 0
M  V30 18192 N 1727.72 -6.92516 -0.198482 0
M  V30 18193 N 1729.51 -5.611 -0.335111 0
M  V30 18194 H 1721.66 -1.92945 0.888033 0
M  V30 18195 H 1723.92 -0.885432 0.338695 0
M  V30 18196 H 1723.63 -3.44942 0.686123 0
M  V30 18197 H 1723.5 -3.62127 -1.05565 0
M  V30 18198 H 1725.89 -2.65638 -1.28532 0
M  V30 18199 H 1725.97 -2.51324 0.476435 0
M  V30 18200 H 1725.62 -5.03391 0.675263 0
M  V30 18201 H 1725.55 -5.14959 -1.10111 0
M  V30 18202 H 1728.04 -3.75872 -0.391004 0
M  V30 18203 H 1728.35 -7.72602 -0.175048 0
M  V30 18204 H 1726.69 -6.94806 -0.164374 0
M  V30 18205 H 1729.89 -4.66384 -0.400452 0
M  V30 18206 H 1730.06 -6.47295 -0.302203 0
M  V30 18207 N 1723.46 0.290824 -1.54893 0
M  V30 18208 C 1724.41 1.37898 -1.87315 0
M  V30 18209 C 1725.41 1.52001 -0.747794 0
M  V30 18210 O 1726.61 1.53998 -0.93192 0
M  V30 18211 H 1722.99 0.460824 -0.59426 0
M  V30 18212 H 1724.96 1.07794 -2.7825 0
M  V30 18213 C 1723.71 2.73568 -2.14606 0
M  V30 18214 H 1723.03 2.63501 -3.00678 0
M  V30 18215 H 1724.47 3.48693 -2.41225 0
M  V30 18216 C 1722.93 3.23291 -0.947865 0
M  V30 18217 O 1723.46 4.01325 -0.173479 0
M  V30 18218 N 1721.67 2.80743 -0.750444 0
M  V30 18219 H 1721.21 2.174 -1.38184 0
M  V30 18220 H 1721.17 3.14361 0.0496746 0
M  V30 18221 N 1724.94 1.47523 0.554506 0
M  V30 18222 C 1726.19 1.54287 1.31156 0
M  V30 18223 C 1726.52 0.206279 1.93403 0
M  V30 18224 O 1725.77 -0.801103 1.78552 0
M  V30 18225 C 1726.07 2.6113 2.4402 0
M  V30 18226 C 1725.74 4.04322 1.99586 0
M  V30 18227 C 1724.4 4.43301 1.87184 0
M  V30 18228 C 1726.75 4.94158 1.65703 0
M  V30 18229 C 1724.08 5.69948 1.39198 0
M  V30 18230 C 1726.43 6.21271 1.19187 0
M  V30 18231 C 1725.1 6.59129 1.05383 0
M  V30 18232 H 1724.37 0.564575 0.479934 0
M  V30 18233 H 1727.01 1.81134 0.621521 0
M  V30 18234 H 1725.32 2.2805 3.18591 0
M  V30 18235 H 1727.01 2.63585 3.02199 0
M  V30 18236 H 1723.6 3.73526 2.10182 0
M  V30 18237 H 1727.79 4.6474 1.74156 0
M  V30 18238 H 1723.04 5.98027 1.27178 0
M  V30 18239 H 1727.22 6.90292 0.920312 0
M  V30 18240 H 1724.85 7.57155 0.679777 0
M  V30 18241 N 1726.42 -0.801453 1.357 0
M  V30 18242 C 1727.67 -1.55392 1.28594 0
M  V30 18243 C 1727.98 -1.95125 -0.136199 0
M  V30 18244 O 1729.19 -2.69492 -0.329568 0
M  V30 18245 C 1727.64 -2.80456 2.2555 0
M  V30 18246 C 1727.25 -2.47939 3.73135 0
M  V30 18247 C 1729 -3.58457 2.27396 0
M  V30 18248 C 1726.9 -3.69326 4.61901 0
M  V30 18249 H 1725.83 -0.583286 0.477801 0
M  V30 18250 H 1728.48 -0.880525 1.60994 0
M  V30 18251 H 1726.87 -3.49532 1.86127 0
M  V30 18252 H 1728.04 -1.86837 4.21223 0
M  V30 18253 H 1726.36 -1.83173 3.73947 0
M  V30 18254 H 1728.95 -4.48625 2.90929 0
M  V30 18255 H 1729.3 -3.96162 1.27912 0
M  V30 18256 H 1729.83 -2.96348 2.65373 0
M  V30 18257 H 1726.57 -3.36726 5.62402 0
M  V30 18258 H 1726.09 -4.29636 4.18536 0
M  V30 18259 H 1727.77 -4.36496 4.77578 0
M  V30 18260 N 1727.9 -1.19782 -1.02421 0
M  V30 18261 C 1729.31 -0.951034 -1.2817 0
M  V30 18262 C 1729.51 0.373883 -1.98001 0
M  V30 18263 O 1728.57 1.10427 -2.27073 0
M  V30 18264 C 1729.88 -2.12833 -2.12421 0
M  V30 18265 C 1731.43 -2.16847 -2.25713 0
M  V30 18266 C 1731.91 -3.34041 -3.13337 0
M  V30 18267 N 1733.4 -3.34007 -3.20926 0
M  V30 18268 C 1734.13 -4.21333 -3.88929 0
M  V30 18269 N 1733.63 -5.18823 -4.59123 0
M  V30 18270 N 1735.42 -4.09197 -3.85376 0
M  V30 18271 H 1727.57 -2.05017 -0.555122 0
M  V30 18272 H 1729.84 -0.896717 -0.307576 0
M  V30 18273 H 1729.54 -3.08742 -1.68437 0
M  V30 18274 H 1729.42 -2.10288 -3.13143 0
M  V30 18275 H 1731.8 -1.21506 -2.68924 0
M  V30 18276 H 1731.88 -2.23444 -1.24525 0
M  V30 18277 H 1731.53 -4.29665 -2.70833 0
M  V30 18278 H 1731.46 -3.24682 -4.14595 0
M  V30 18279 H 1733.95 -2.63441 -2.70938 0
M  V30 18280 H 1734.26 -5.81796 -5.08658 0
M  V30 18281 H 1732.61 -5.22767 -4.57973 0
M  V30 18282 H 1735.8 -3.32308 -3.2968 0
M  V30 18283 H 1735.97 -4.77465 -4.38099 0
M  V30 18284 N 1729.38 1.21606 -1.00248 0
M  V30 18285 C 1730.33 2.2591 -0.553856 0
M  V30 18286 C 1731.32 1.64602 0.400323 0
M  V30 18287 O 1732.53 1.77936 0.271792 0
M  V30 18288 H 1728.9 0.734618 -0.160749 0
M  V30 18289 H 1730.87 2.61091 -1.44479 0
M  V30 18290 C 1729.62 3.47537 0.106293 0
M  V30 18291 H 1728.94 3.94981 -0.61889 0
M  V30 18292 H 1730.38 4.22262 0.383514 0
M  V30 18293 C 1728.84 3.08901 1.34469 0
M  V30 18294 O 1729.37 3.1916 2.43926 0
M  V30 18295 N 1727.58 2.63588 1.2235 0
M  V30 18296 H 1727.13 2.55441 0.332852 0
M  V30 18297 H 1727.08 2.38106 2.05312 0
M  V30 18298 N 1730.86 0.776895 1.37121 0
M  V30 18299 C 1731.77 0.167552 2.34001 0
M  V30 18300 C 1732.78 -0.673609 1.60432 0
M  V30 18301 O 1733.96 -0.592327 1.92493 0
M  V30 18302 C 1731.02 -0.697343 3.39615 0
M  V30 18303 C 1730.08 0.160869 4.28998 0
M  V30 18304 C 1729.32 -0.662841 5.29568 0
M  V30 18305 O 1729.54 -1.89962 5.37839 0
M  V30 18306 O 1728.47 -0.0693304 6.0186 0
M  V30 18307 H 1732.3 0.968247 2.87852 0
M  V30 18308 H 1729.88 0.538137 1.39372 0
M  V30 18309 H 1731.77 -1.19094 4.04221 0
M  V30 18310 H 1730.44 -1.47614 2.88083 0
M  V30 18311 H 1729.35 0.700941 3.67475 0
M  V30 18312 H 1730.68 0.902875 4.83848 0
M  V30 18313 N 1732.33 -1.48497 0.527859 0
M  V30 18314 C 1733.56 -2.069 -0.00302594 0
M  V30 18315 C 1733.98 -1.38469 -1.28342 0
M  V30 18316 O 1733.33 -0.471524 -1.76303 0
M  V30 18317 C 1733.38 -3.60749 -0.232871 0
M  V30 18318 O 1733.11 -4.26609 0.996797 0
M  V30 18319 C 1734.61 -4.35941 -0.804376 0
M  V30 18320 H 1731.83 -0.67021 0.0325559 0
M  V30 18321 H 1734.37 -1.90916 0.732897 0
M  V30 18322 H 1732.53 -3.76346 -0.918837 0
M  V30 18323 H 1732.94 -5.18725 0.776217 0
M  V30 18324 H 1734.41 -5.4437 -0.914635 0
M  V30 18325 H 1734.89 -4.00225 -1.80876 0
M  V30 18326 H 1735.5 -4.25017 -0.155041 0
M  V30 18327 N 1733.81 -0.262893 -1.55392 0
M  V30 18328 C 1734.76 0.644115 -2.18712 0
M  V30 18329 C 1735.75 1.12746 -1.14792 0
M  V30 18330 O 1736.94 1.07457 -1.40649 0
M  V30 18331 C 1734.07 1.83346 -2.9024 0
M  V30 18332 C 1733.15 1.36787 -4.01435 0
M  V30 18333 N 1733.54 0.617586 -5.02015 0
M  V30 18334 C 1731.84 1.65185 -4.14283 0
M  V30 18335 C 1732.54 0.374392 -5.80494 0
M  V30 18336 N 1731.52 0.943273 -5.35353 0
M  V30 18337 H 1735.32 0.062908 -2.93833 0
M  V30 18338 H 1732.83 -0.0659062 -1.62266 0
M  V30 18339 H 1734.83 2.49441 -3.34043 0
M  V30 18340 H 1733.49 2.41874 -2.16627 0
M  V30 18341 H 1734.5 0.266115 -5.17216 0
M  V30 18342 H 1731.18 2.24736 -3.51852 0
M  V30 18343 H 1732.57 -0.225674 -6.71521 0
M  V30 18344 N 1735.29 1.57597 0.0100073 0
M  V30 18345 C 1736.24 2.089 1.02292 0
M  V30 18346 C 1737.23 1.00681 1.36234 0
M  V30 18347 O 1738.44 1.19155 1.34915 0
M  V30 18348 H 1734.81 0.666899 0.347491 0
M  V30 18349 H 1736.78 2.9301 0.56458 0
M  V30 18350 C 1735.53 2.59942 2.30923 0
M  V30 18351 H 1734.86 3.4284 2.05672 0
M  V30 18352 H 1736.3 2.99528 3.00098 0
M  V30 18353 C 1734.75 1.50907 3.01212 0
M  V30 18354 O 1735.28 0.886216 3.91802 0
M  V30 18355 N 1733.49 1.23895 2.62866 0
M  V30 18356 H 1733.04 1.7473 1.89281 0
M  V30 18357 H 1733 0.511591 3.1021 0
M  V30 18358 N 1736.77 -0.282606 1.55045 0
M  V30 18359 C 1738.18 -0.854338 1.66006 0
M  V30 18360 C 1738.53 -1.87408 0.580753 0
M  V30 18361 O 1737.65 -2.14588 -0.279449 0
M  V30 18362 C 1738.25 -1.55637 3.00936 0
M  V30 18363 C 1736.81 -2.07626 3.13956 0
M  V30 18364 C 1735.96 -0.915064 2.61767 0
M  V30 18365 H 1738.91 -0.0591711 1.5859 0
M  V30 18366 H 1738.93 -2.42289 2.93388 0
M  V30 18367 H 1738.44 -0.813942 3.79469 0
M  V30 18368 H 1736.54 -2.84859 2.40179 0
M  V30 18369 H 1736.65 -2.29816 4.20382 0
M  V30 18370 H 1735.02 -1.30577 2.18682 0
M  V30 18371 H 1735.8 -0.186298 3.42794 0
M  V30 18372 N 1738.25 -1.47815 -0.546675 0
M  V30 18373 C 1739.47 -1.58613 -1.32851 0
M  V30 18374 C 1739.89 -0.240179 -1.87266 0
M  V30 18375 O 1739.25 0.768148 -1.65547 0
M  V30 18376 C 1739.3 -2.61969 -2.49107 0
M  V30 18377 O 1739.02 -3.9134 -1.96938 0
M  V30 18378 C 1740.52 -2.83051 -3.4117 0
M  V30 18379 H 1737.74 -0.535292 -0.404603 0
M  V30 18380 H 1740.28 -1.93516 -0.661192 0
M  V30 18381 H 1738.44 -2.29971 -3.11756 0
M  V30 18382 H 1738.85 -4.47905 -2.72913 0
M  V30 18383 H 1740.33 -3.59209 -4.19134 0
M  V30 18384 H 1740.8 -1.91258 -3.95369 0
M  V30 18385 H 1741.41 -3.16287 -2.84328 0
M  V30 18386 N 1739.72 0.794246 -1.36123 0
M  V30 18387 C 1740.97 1.55421 -1.30277 0
M  V30 18388 C 1741.3 1.93834 0.119134 0
M  V30 18389 O 1740.58 1.6233 1.07141 0
M  V30 18390 C 1740.86 2.83454 -2.22094 0
M  V30 18391 C 1740.71 2.51439 -3.72959 0
M  V30 18392 C 1742.03 3.85246 -2.12776 0
M  V30 18393 H 1739.15 0.563871 -0.474572 0
M  V30 18394 H 1741.79 0.912877 -1.66633 0
M  V30 18395 H 1739.94 3.38182 -1.9122 0
M  V30 18396 H 1741.62 2.02799 -4.14331 0
M  V30 18397 H 1739.86 1.84451 -3.92632 0
M  V30 18398 H 1740.53 3.42863 -4.32608 0
M  V30 18399 H 1743.01 3.39952 -2.39942 0
M  V30 18400 H 1741.88 4.72588 -2.79198 0
M  V30 18401 H 1742.14 4.27847 -1.11353 0
M  V30 18402 N 1741.2 1.20323 1.01785 0
M  V30 18403 C 1742.15 0.950946 2.10299 0
M  V30 18404 C 1743.12 -0.118376 1.65678 0
M  V30 18405 O 1744.3 0.0260849 1.90782 0
M  V30 18406 C 1741.44 0.507765 3.41344 0
M  V30 18407 C 1740.56 1.6451 3.9945 0
M  V30 18408 C 1739.69 1.15235 5.1855 0
M  V30 18409 C 1738.73 2.26285 5.68737 0
M  V30 18410 N 1737.87 1.78237 6.79099 0
M  V30 18411 H 1742.71 1.87999 2.31215 0
M  V30 18412 H 1740.24 0.937108 1.13387 0
M  V30 18413 H 1742.2 0.232143 4.16554 0
M  V30 18414 H 1740.83 -0.384278 3.20505 0
M  V30 18415 H 1739.88 2.03567 3.21348 0
M  V30 18416 H 1741.2 2.48135 4.32702 0
M  V30 18417 H 1740.35 0.832619 6.0096 0
M  V30 18418 H 1739.09 0.285978 4.86861 0
M  V30 18419 H 1738.09 2.59076 4.84933 0
M  V30 18420 H 1739.32 3.13397 6.02461 0
M  V30 18421 H 1737.27 0.939248 6.49241 0
M  V30 18422 H 1737.18 2.55443 7.11537 0
M  V30 18423 H 1738.45 1.4926 7.65076 0
M  V30 18424 N 1742.68 -1.21073 1.00892 0
M  V30 18425 C 1743.96 -1.85871 0.609214 0
M  V30 18426 C 1744.34 -1.90334 -0.913023 0
M  V30 18427 O 1743.68 -1.40552 -1.80159 0
M  V30 18428 C 1743.89 -3.25918 1.24813 0
M  V30 18429 C 1745.24 -4.02274 1.35871 0
M  V30 18430 O 1746.27 -3.35244 1.20375 0
M  V30 18431 O 1745.13 -5.22296 1.60838 0
M  V30 18432 H 1742.22 -0.800105 0.20919 0
M  V30 18433 H 1744.77 -1.28724 1.10581 0
M  V30 18434 H 1743.54 -3.17392 2.28862 0
M  V30 18435 H 1743.16 -3.90688 0.738124 0
M  V30 18436 N 1744.16 -0.784156 -1.36707 0
M  V30 18437 C 1745.09 -0.193081 -2.327 0
M  V30 18438 C 1746.07 0.668999 -1.56392 0
M  V30 18439 O 1747.25 0.603908 -1.84571 0
M  V30 18440 C 1744.38 0.677092 -3.40636 0
M  V30 18441 C 1743.34 -0.0846718 -4.27916 0
M  V30 18442 C 1742.66 0.905754 -5.26973 0
M  V30 18443 C 1743.96 -1.27085 -5.06603 0
M  V30 18444 H 1745.66 -0.995029 -2.82382 0
M  V30 18445 H 1743.2 -0.479929 -1.35767 0
M  V30 18446 H 1745.16 1.1005 -4.06776 0
M  V30 18447 H 1743.88 1.51169 -2.89509 0
M  V30 18448 H 1742.54 -0.488992 -3.63324 0
M  V30 18449 H 1742.19 1.73524 -4.72121 0
M  V30 18450 H 1741.89 0.400524 -5.86233 0
M  V30 18451 H 1743.41 1.32784 -5.95987 0
M  V30 18452 H 1744.83 -0.923469 -5.65814 0
M  V30 18453 H 1743.22 -1.70901 -5.7525 0
M  V30 18454 H 1744.29 -2.06882 -4.38552 0
M  V30 18455 N 1745.64 1.48215 -0.535727 0
M  V30 18456 C 1746.89 2.017 -0.0016958 0
M  V30 18457 C 1747.2 1.41756 1.34776 0
M  V30 18458 O 1748.4 1.86774 1.97048 0
M  V30 18459 C 1746.86 3.59869 0.0473588 0
M  V30 18460 C 1746.47 4.28798 -1.29754 0
M  V30 18461 C 1748.21 4.21179 0.529915 0
M  V30 18462 C 1746.12 5.78915 -1.20876 0
M  V30 18463 H 1745.05 0.753993 0.00313606 0
M  V30 18464 H 1747.7 1.70421 -0.680368 0
M  V30 18465 H 1746.08 3.88015 0.791229 0
M  V30 18466 H 1747.26 4.12318 -2.05743 0
M  V30 18467 H 1745.57 3.79384 -1.7163 0
M  V30 18468 H 1748.17 5.31158 0.614396 0
M  V30 18469 H 1748.51 3.86887 1.53702 0
M  V30 18470 H 1749.04 3.97484 -0.158445 0
M  V30 18471 H 1745.78 6.17792 -2.1912 0
M  V30 18472 H 1745.3 5.97792 -0.490333 0
M  V30 18473 H 1746.98 6.40684 -0.901824 0
M  V30 18474 N 1747.11 0.27113 1.5525 0
M  V30 18475 C 1748.36 -0.346106 1.99114 0
M  V30 18476 C 1748.68 -1.56677 1.16092 0
M  V30 18477 O 1747.95 -1.94305 0.249472 0
M  V30 18478 H 1746.53 -0.13087 0.735447 0
M  V30 18479 H 1749.2 0.375542 1.91248 0
M  V30 18480 H 1748.29 -0.638703 3.05495 0
M  V30 18481 N 1748.59 -1.576 -0.00164943 0
M  V30 18482 C 1749.84 -1.90496 -0.686842 0
M  V30 18483 C 1750.17 -0.871747 -1.7387 0
M  V30 18484 O 1749.42 0.123698 -1.95309 0
M  V30 18485 C 1749.72 -3.30147 -1.36886 0
M  V30 18486 C 1749.39 -4.48645 -0.450358 0
M  V30 18487 C 1748.05 -4.80795 -0.197461 0
M  V30 18488 C 1750.4 -5.20882 0.18214 0
M  V30 18489 C 1747.73 -5.82554 0.696255 0
M  V30 18490 C 1750.08 -6.23593 1.06372 0
M  V30 18491 C 1748.75 -6.54201 1.32581 0
M  V30 18492 H 1748.02 -0.697074 -0.251333 0
M  V30 18493 H 1750.66 -1.91425 0.0535238 0
M  V30 18494 H 1748.97 -3.25334 -2.18323 0
M  V30 18495 H 1750.66 -3.52859 -1.90504 0
M  V30 18496 H 1747.25 -4.23525 -0.657635 0
M  V30 18497 H 1751.44 -4.963 -0.000231234 0
M  V30 18498 H 1746.69 -6.0463 0.907337 0
M  V30 18499 H 1750.87 -6.78698 1.56018 0
M  V30 18500 H 1748.5 -7.3287 2.02002 0
M  V30 18501 N 1750.07 0.274379 -1.55193 0
M  V30 18502 C 1751.32 1.00418 -1.75387 0
M  V30 18503 C 1751.64 1.86868 -0.557244 0
M  V30 18504 O 1750.91 1.9117 0.427883 0
M  V30 18505 H 1749.49 0.373753 -0.646775 0
M  V30 18506 H 1752.15 0.298942 -1.92594 0
M  V30 18507 H 1751.25 1.64191 -2.6542 0
M  V30 18508 N 1751.55 1.48103 0.538828 0
M  V30 18509 C 1752.48 1.64856 1.65363 0
M  V30 18510 C 1753.46 0.497579 1.6266 0
M  V30 18511 O 1754.64 0.729088 1.79994 0
M  V30 18512 C 1751.77 1.67984 3.03971 0
M  V30 18513 C 1750.73 2.82494 3.21529 0
M  V30 18514 C 1750.05 2.70706 4.6111 0
M  V30 18515 C 1751.35 4.23892 3.05145 0
M  V30 18516 H 1753.05 2.58183 1.51598 0
M  V30 18517 H 1750.59 1.24249 0.727886 0
M  V30 18518 H 1752.55 1.78294 3.81824 0
M  V30 18519 H 1751.27 0.712299 3.18738 0
M  V30 18520 H 1749.93 2.71725 2.46091 0
M  V30 18521 H 1749.58 1.7194 4.727 0
M  V30 18522 H 1749.28 3.47539 4.73804 0
M  V30 18523 H 1750.8 2.82971 5.41073 0
M  V30 18524 H 1752.22 4.3554 3.72797 0
M  V30 18525 H 1750.61 5.01654 3.29338 0
M  V30 18526 H 1751.68 4.40973 2.01671 0
M  V30 18527 N 1753.03 -0.787016 1.36542 0
M  V30 18528 C 1753.96 -1.90844 1.26931 0
M  V30 18529 C 1754.97 -1.61707 0.188293 0
M  V30 18530 O 1756.16 -1.7291 0.443205 0
M  V30 18531 C 1753.26 -3.25709 0.936305 0
M  V30 18532 C 1752.43 -3.82607 2.11969 0
M  V30 18533 C 1751.49 -4.95916 1.75937 0
M  V30 18534 O 1750.52 -5.12307 2.48053 0
M  V30 18535 N 1751.72 -5.76331 0.694461 0
M  V30 18536 H 1754.49 -1.9961 2.23553 0
M  V30 18537 H 1752.05 -0.965401 1.29968 0
M  V30 18538 H 1754.04 -3.99008 0.676378 0
M  V30 18539 H 1752.61 -3.12544 0.0591364 0
M  V30 18540 H 1751.83 -3.01267 2.54227 0
M  V30 18541 H 1753.12 -4.17352 2.91024 0
M  V30 18542 H 1752.51 -5.65619 0.0957046 0
M  V30 18543 H 1751.07 -6.49923 0.494363 0
M  V30 18544 N 1754.5 -1.20861 -1.01145 0
M  V30 18545 C 1755.75 -1.02343 -1.75082 0
M  V30 18546 C 1756.08 0.44278 -1.89085 0
M  V30 18547 O 1755.36 1.32867 -1.42045 0
M  V30 18548 C 1755.64 -1.71368 -3.1671 0
M  V30 18549 C 1755.49 -3.25466 -3.1047 0
M  V30 18550 C 1756.81 -1.45097 -4.15494 0
M  V30 18551 H 1753.93 -0.373198 -0.635525 0
M  V30 18552 H 1756.57 -1.48947 -1.17961 0
M  V30 18553 H 1754.72 -1.31746 -3.6548 0
M  V30 18554 H 1756.4 -3.74415 -2.69464 0
M  V30 18555 H 1754.64 -3.56104 -2.47735 0
M  V30 18556 H 1755.31 -3.68924 -4.10608 0
M  V30 18557 H 1757.79 -1.7948 -3.75401 0
M  V30 18558 H 1756.66 -1.95917 -5.12745 0
M  V30 18559 H 1756.92 -0.379628 -4.40467 0
M  V30 18560 N 1755.98 1.20536 -1.01532 0
M  V30 18561 C 1756.95 2.21495 -0.589298 0
M  V30 18562 C 1757.95 1.57167 0.339871 0
M  V30 18563 O 1759.14 1.73724 0.128736 0
M  V30 18564 C 1756.27 3.40614 0.139623 0
M  V30 18565 H 1757.46 2.607 -1.48241 0
M  V30 18566 H 1755.01 1.33977 -0.804977 0
M  V30 18567 H 1755.75 3.0691 1.04771 0
M  V30 18568 H 1755.53 3.88531 -0.52785 0
M  V30 18569 H 1757.02 4.15431 0.425083 0
M  V30 18570 N 1757.46 0.791395 1.36289 0
M  V30 18571 C 1758.41 0.189246 2.30023 0
M  V30 18572 C 1759.38 -0.668045 1.52074 0
M  V30 18573 O 1760.56 -0.61631 1.80572 0
M  V30 18574 C 1757.7 -0.668391 3.38565 0
M  V30 18575 C 1756.82 0.207659 4.31501 0
M  V30 18576 C 1755.95 -0.656539 5.27127 0
M  V30 18577 C 1754.99 0.220845 6.11701 0
M  V30 18578 N 1754.13 -0.602449 6.99511 0
M  V30 18579 H 1758.97 0.994038 2.80932 0
M  V30 18580 H 1756.5 0.501759 1.38278 0
M  V30 18581 H 1758.46 -1.18064 4.00146 0
M  V30 18582 H 1757.09 -1.43859 2.88971 0
M  V30 18583 H 1756.14 0.837894 3.71057 0
M  V30 18584 H 1757.46 0.883613 4.90911 0
M  V30 18585 H 1756.61 -1.23452 5.94007 0
M  V30 18586 H 1755.35 -1.36611 4.68176 0
M  V30 18587 H 1754.35 0.811214 5.43782 0
M  V30 18588 H 1755.58 0.928049 6.72729 0
M  V30 18589 H 1753.52 -1.29628 6.43065 0
M  V30 18590 H 1753.44 0.015783 7.55998 0
M  V30 18591 H 1754.71 -1.16419 7.70757 0
M  V30 18592 N 1758.94 -1.47929 0.54358 0
M  V30 18593 C 1760.19 -2.02095 0.0144379 0
M  V30 18594 C 1760.51 -1.42166 -1.33469 0
M  V30 18595 O 1759.78 -0.591899 -1.86744 0
M  V30 18596 H 1758.36 -0.746996 0.00234858 0
M  V30 18597 H 1761.02 -1.81488 0.710498 0
M  V30 18598 H 1760.12 -3.11987 -0.0838074 0
M  V30 18599 N 1760.42 -0.27936 -1.55104 0
M  V30 18600 C 1761.35 0.64773 -2.18814 0
M  V30 18601 C 1762.33 1.14907 -1.15044 0
M  V30 18602 O 1763.51 1.22126 -1.43588 0
M  V30 18603 C 1760.64 1.88383 -2.81477 0
M  V30 18604 C 1759.69 1.51761 -3.98586 0
M  V30 18605 S 1760.52 0.592119 -5.32216 0
M  V30 18606 C 1761.67 1.8365 -5.98351 0
M  V30 18607 H 1761.91 0.10641 -2.9711 0
M  V30 18608 H 1759.44 -0.0635953 -1.54269 0
M  V30 18609 H 1761.4 2.5933 -3.18211 0
M  V30 18610 H 1760.06 2.39629 -2.03068 0
M  V30 18611 H 1759.25 2.43751 -4.41137 0
M  V30 18612 H 1758.85 0.88828 -3.63298 0
M  V30 18613 H 1761.15 2.77989 -6.17842 0
M  V30 18614 H 1762.09 1.45393 -6.93013 0
M  V30 18615 H 1762.5 2.00337 -5.27755 0
M  V30 18616 N 1761.9 1.57599 -0.0067085 0
M  V30 18617 C 1762.84 2.08842 0.982532 0
M  V30 18618 C 1763.81 0.985339 1.33717 0
M  V30 18619 O 1765 1.25818 1.43438 0
M  V30 18620 C 1762.14 2.60188 2.26708 0
M  V30 18621 C 1761.25 3.84422 1.97087 0
M  V30 18622 C 1760.39 4.24244 3.19672 0
M  V30 18623 C 1759.42 5.41297 2.85769 0
M  V30 18624 N 1758.56 5.76381 4.00911 0
M  V30 18625 H 1763.4 2.93092 0.538618 0
M  V30 18626 H 1760.94 1.44885 0.254293 0
M  V30 18627 H 1762.9 2.88038 3.01811 0
M  V30 18628 H 1761.53 1.78802 2.68756 0
M  V30 18629 H 1760.58 3.63439 1.12323 0
M  V30 18630 H 1761.89 4.6962 1.68102 0
M  V30 18631 H 1761.04 4.53413 4.03115 0
M  V30 18632 H 1759.78 3.37769 3.518 0
M  V30 18633 H 1758.79 5.11846 2.00734 0
M  V30 18634 H 1760.01 6.29454 2.54881 0
M  V30 18635 H 1757.96 4.92863 4.32923 0
M  V30 18636 H 1757.88 6.56168 3.75473 0
M  V30 18637 H 1759.14 6.10144 4.85123 0
M  V30 18638 N 1763.37 -0.266145 1.55336 0
M  V30 18639 C 1764.6 -1.01342 1.80037 0
M  V30 18640 C 1765.01 -1.80175 0.577368 0
M  V30 18641 O 1764.35 -1.77765 -0.46318 0
M  V30 18642 C 1764.42 -2.0141 2.97782 0
M  V30 18643 C 1764.08 -1.4145 4.34558 0
M  V30 18644 C 1765.08 -0.826689 5.13285 0
M  V30 18645 C 1762.76 -1.43964 4.81227 0
M  V30 18646 C 1764.76 -0.272004 6.36819 0
M  V30 18647 C 1762.44 -0.881101 6.04715 0
M  V30 18648 C 1763.44 -0.298287 6.82348 0
M  V30 18649 O 1763.13 0.251684 8.03506 0
M  V30 18650 H 1762.86 -0.304756 0.603407 0
M  V30 18651 H 1765.42 -0.300216 2.03194 0
M  V30 18652 H 1763.65 -2.76508 2.70334 0
M  V30 18653 H 1765.33 -2.62321 3.09746 0
M  V30 18654 H 1766.1 -0.79991 4.78358 0
M  V30 18655 H 1761.98 -1.88267 4.20805 0
M  V30 18656 H 1765.52 0.183538 6.97359 0
M  V30 18657 H 1761.42 -0.905142 6.39122 0
M  V30 18658 H 1762.19 0.1417 8.18377 0
M  V30 18659 N 1764.85 -1.48386 -0.530967 0
M  V30 18660 C 1765.78 -1.6573 -1.64486 0
M  V30 18661 C 1766.76 -0.506198 -1.62393 0
M  V30 18662 O 1767.95 -0.738623 -1.79605 0
M  V30 18663 C 1765.08 -1.69594 -3.03076 0
M  V30 18664 C 1764.03 -2.84195 -3.20027 0
M  V30 18665 C 1763.36 -2.73148 -4.59668 0
M  V30 18666 C 1764.66 -4.25504 -3.02892 0
M  V30 18667 H 1766.35 -2.58983 -1.50227 0
M  V30 18668 H 1763.9 -1.24633 -0.721286 0
M  V30 18669 H 1765.85 -1.80316 -3.80873 0
M  V30 18670 H 1764.57 -0.729193 -3.18356 0
M  V30 18671 H 1763.23 -2.73027 -2.44647 0
M  V30 18672 H 1762.88 -1.74444 -4.71782 0
M  V30 18673 H 1762.58 -3.50047 -4.71954 0
M  V30 18674 H 1764.11 -2.85836 -5.39565 0
M  V30 18675 H 1765.52 -4.37511 -3.70482 0
M  V30 18676 H 1763.92 -5.03393 -3.26673 0
M  V30 18677 H 1764.99 -4.42036 -1.99329 0
M  V30 18678 N 1766.33 0.779763 -1.36958 0
M  V30 18679 C 1767.29 1.87439 -1.31906 0
M  V30 18680 C 1768.29 1.59222 -0.224739 0
M  V30 18681 O 1769.48 1.67453 -0.480109 0
M  V30 18682 C 1766.61 3.24419 -1.04716 0
M  V30 18683 H 1767.81 1.93333 -2.29265 0
M  V30 18684 H 1765.36 0.978634 -1.21871 0
M  V30 18685 H 1766.1 3.24205 -0.0785442 0
M  V30 18686 H 1765.88 3.4629 -1.83917 0
M  V30 18687 H 1767.37 4.04491 -1.0381 0
M  V30 18688 N 1767.81 1.21396 1.00503 0
M  V30 18689 C 1769.03 1.05791 1.7839 0
M  V30 18690 C 1769.46 -0.387921 1.84056 0
M  V30 18691 O 1768.82 -1.27983 1.28413 0
M  V30 18692 C 1768.86 1.65967 3.20137 0
M  V30 18693 O 1767.97 0.905123 4.02345 0
M  V30 18694 H 1767.31 0.372331 0.549787 0
M  V30 18695 H 1769.84 1.60938 1.26334 0
M  V30 18696 H 1769.85 1.70186 3.70811 0
M  V30 18697 H 1768.52 2.71185 3.15327 0
M  V30 18698 H 1767.1 0.938019 3.60909 0
M  V30 18699 N 1769.29 -1.19996 1.0217 0
M  V30 18700 C 1770.23 -2.22963 0.596318 0
M  V30 18701 C 1771.2 -1.61548 -0.386212 0
M  V30 18702 O 1772.39 -1.88667 -0.284497 0
M  V30 18703 C 1769.53 -3.45058 -0.054059 0
M  V30 18704 C 1768.64 -4.20885 0.973648 0
M  V30 18705 C 1767.78 -5.30387 0.293788 0
M  V30 18706 C 1766.81 -5.97964 1.3079 0
M  V30 18707 N 1765.95 -6.99044 0.654351 0
M  V30 18708 H 1770.79 -2.58709 1.47898 0
M  V30 18709 H 1768.33 -1.27117 0.740254 0
M  V30 18710 H 1770.29 -4.14784 -0.448313 0
M  V30 18711 H 1768.92 -3.0999 -0.900342 0
M  V30 18712 H 1767.97 -3.50174 1.48602 0
M  V30 18713 H 1769.28 -4.67292 1.7447 0
M  V30 18714 H 1768.43 -6.065 -0.155695 0
M  V30 18715 H 1767.17 -4.85031 -0.509521 0
M  V30 18716 H 1766.18 -5.20607 1.76772 0
M  V30 18717 H 1767.4 -6.45404 2.11258 0
M  V30 18718 H 1765.35 -6.55873 -0.128996 0
M  V30 18719 H 1765.27 -7.43605 1.36339 0
M  V30 18720 H 1766.53 -7.79165 0.228631 0
M  V30 18721 N 1770.76 -0.798611 -1.35867 0
M  V30 18722 C 1771.71 -0.201442 -2.29919 0
M  V30 18723 C 1772.68 0.659971 -1.52426 0
M  V30 18724 O 1773.87 0.606726 -1.80896 0
M  V30 18725 C 1771.01 0.650427 -3.38915 0
M  V30 18726 C 1770.12 -0.230539 -4.31384 0
M  V30 18727 C 1769.25 0.628575 -5.27468 0
M  V30 18728 C 1768.29 -0.253282 -6.11576 0
M  V30 18729 N 1767.43 0.565343 -6.9982 0
M  V30 18730 H 1772.27 -1.00892 -2.80401 0
M  V30 18731 H 1769.81 -0.509085 -1.3801 0
M  V30 18732 H 1771.76 1.15941 -4.00766 0
M  V30 18733 H 1770.39 1.42325 -2.8973 0
M  V30 18734 H 1769.45 -0.85756 -3.70608 0
M  V30 18735 H 1770.76 -0.909635 -4.90436 0
M  V30 18736 H 1769.91 1.203 -5.94653 0
M  V30 18737 H 1768.65 1.34127 -4.68894 0
M  V30 18738 H 1767.66 -0.84004 -5.43345 0
M  V30 18739 H 1768.88 -0.963713 -6.72227 0
M  V30 18740 H 1766.83 1.26216 -6.43743 0
M  V30 18741 H 1766.74 -0.0558752 -7.55979 0
M  V30 18742 H 1768.01 1.1233 -7.71364 0
M  V30 18743 N 1772.24 1.47639 -0.551417 0
M  V30 18744 C 1773.49 2.02484 -0.0252051 0
M  V30 18745 C 1773.82 1.42638 1.3223 0
M  V30 18746 O 1773.07 0.569434 1.87232 0
M  V30 18747 C 1773.37 3.57187 0.123467 0
M  V30 18748 C 1773.04 4.35925 -1.15241 0
M  V30 18749 C 1771.7 4.57157 -1.50203 0
M  V30 18750 C 1774.05 4.81377 -1.99815 0
M  V30 18751 C 1771.38 5.2109 -2.69597 0
M  V30 18752 C 1773.73 5.46626 -3.18406 0
M  V30 18753 C 1772.39 5.66093 -3.53688 0
M  V30 18754 H 1771.66 0.740943 -0.0092232 0
M  V30 18755 H 1774.31 1.77378 -0.721764 0
M  V30 18756 H 1772.62 3.81253 0.902951 0
M  V30 18757 H 1774.31 3.97267 0.545876 0
M  V30 18758 H 1770.9 4.19674 -0.870169 0
M  V30 18759 H 1775.09 4.64756 -1.74112 0
M  V30 18760 H 1770.34 5.34356 -2.97108 0
M  V30 18761 H 1774.52 5.8081 -3.84231 0
M  V30 18762 H 1772.14 6.15404 -4.46298 0
M  V30 18763 N 1773.72 0.287581 1.54954 0
M  V30 18764 C 1774.97 -0.326093 2.00161 0
M  V30 18765 C 1775.3 -1.54564 1.17574 0
M  V30 18766 O 1774.57 -1.92901 0.248859 0
M  V30 18767 C 1774.86 -0.695974 3.5331 0
M  V30 18768 C 1774.71 0.531783 4.46645 0
M  V30 18769 C 1776.03 -1.52767 4.12735 0
M  V30 18770 H 1773.15 -0.117051 0.727646 0
M  V30 18771 H 1775.79 0.39701 1.85806 0
M  V30 18772 H 1773.94 -1.31205 3.65674 0
M  V30 18773 H 1775.61 1.17032 4.46208 0
M  V30 18774 H 1773.86 1.16754 4.17793 0
M  V30 18775 H 1774.53 0.229034 5.51525 0
M  V30 18776 H 1777 -1.00724 4.03725 0
M  V30 18777 H 1775.88 -1.75527 5.20078 0
M  V30 18778 H 1776.14 -2.51267 3.63755 0
M  V30 18779 N 1775.2 -1.57593 0.0150662 0
M  V30 18780 C 1776.15 -2.0585 -0.980291 0
M  V30 18781 C 1777.13 -0.956179 -1.29406 0
M  V30 18782 O 1778.32 -1.21985 -1.28253 0
M  V30 18783 C 1775.45 -2.57769 -2.26738 0
M  V30 18784 C 1774.54 -3.74906 -1.98259 0
M  V30 18785 N 1774.93 -4.8604 -1.39995 0
M  V30 18786 C 1773.23 -3.83124 -2.28325 0
M  V30 18787 C 1773.93 -5.67368 -1.28329 0
M  V30 18788 N 1772.91 -5.13837 -1.77404 0
M  V30 18789 H 1776.71 -2.89181 -0.524549 0
M  V30 18790 H 1774.22 -1.61281 -0.190285 0
M  V30 18791 H 1776.22 -2.90624 -2.98903 0
M  V30 18792 H 1774.88 -1.75862 -2.72952 0
M  V30 18793 H 1775.89 -5.06583 -1.07678 0
M  V30 18794 H 1772.57 -3.12099 -2.77309 0
M  V30 18795 H 1773.96 -6.66704 -0.833956 0
M  V30 18796 N 1776.68 0.257904 -1.55475 0
M  V30 18797 C 1778.09 0.605871 -1.47653 0
M  V30 18798 C 1778.29 1.88837 -0.703063 0
M  V30 18799 O 1777.35 2.51469 -0.227981 0
M  V30 18800 C 1778.66 0.718813 -2.91982 0
M  V30 18801 C 1780.21 0.81187 -3.02287 0
M  V30 18802 C 1780.68 0.956465 -4.47901 0
M  V30 18803 N 1782.18 1.02161 -4.51793 0
M  V30 18804 C 1782.91 1.15256 -5.61697 0
M  V30 18805 N 1782.41 1.24975 -6.81435 0
M  V30 18806 N 1784.2 1.18485 -5.4947 0
M  V30 18807 H 1776.35 -0.584154 -2.04209 0
M  V30 18808 H 1778.61 -0.200045 -0.926653 0
M  V30 18809 H 1778.32 -0.15335 -3.51366 0
M  V30 18810 H 1778.19 1.59429 -3.41851 0
M  V30 18811 H 1780.58 1.67449 -2.42991 0
M  V30 18812 H 1780.66 -0.0885307 -2.55647 0
M  V30 18813 H 1780.31 0.0984438 -5.07805 0
M  V30 18814 H 1780.24 1.87174 -4.92213 0
M  V30 18815 H 1782.73 0.958295 -3.65548 0
M  V30 18816 H 1783.04 1.34843 -7.60945 0
M  V30 18817 H 1781.38 1.21952 -6.84217 0
M  V30 18818 H 1784.58 1.10534 -4.54863 0
M  V30 18819 H 1784.75 1.28346 -6.35162 0
M  V30 18820 N 1778.15 1.48666 0.52309 0
M  V30 18821 C 1779.43 1.47526 1.28435 0
M  V30 18822 C 1779.81 0.190719 2.10237 0
M  V30 18823 O 1779.16 -0.827423 2.12993 0
M  V30 18824 C 1779.37 2.74132 2.15992 0
M  V30 18825 C 1780.72 3.22739 2.75907 0
M  V30 18826 O 1781.74 2.75097 2.26275 0
M  V30 18827 O 1780.6 4.05657 3.66203 0
M  V30 18828 H 1777.69 0.589478 0.580039 0
M  V30 18829 H 1780.24 1.60907 0.539176 0
M  V30 18830 H 1779.01 3.5913 1.55375 0
M  V30 18831 H 1778.64 2.63505 2.97743 0
M  V30 18832 N 1779.63 -0.772489 1.37369 0
M  V30 18833 C 1780.56 -1.89969 1.35772 0
M  V30 18834 C 1781.54 -1.68586 0.226452 0
M  V30 18835 O 1782.73 -1.89454 0.426692 0
M  V30 18836 C 1779.86 -3.27242 1.16319 0
M  V30 18837 C 1778.81 -3.63187 2.2645 0
M  V30 18838 C 1778.14 -4.98992 1.92121 0
M  V30 18839 C 1779.44 -3.70013 3.6863 0
M  V30 18840 H 1781.13 -1.91564 2.30095 0
M  V30 18841 H 1778.68 -0.920241 1.10759 0
M  V30 18842 H 1780.63 -4.05734 1.13832 0
M  V30 18843 H 1779.36 -3.26078 0.184513 0
M  V30 18844 H 1778.01 -2.87001 2.28091 0
M  V30 18845 H 1777.66 -4.94368 0.927848 0
M  V30 18846 H 1777.36 -5.24012 2.65867 0
M  V30 18847 H 1778.89 -5.79886 1.91219 0
M  V30 18848 H 1780.3 -4.38659 3.69122 0
M  V30 18849 H 1778.7 -4.06529 4.41423 0
M  V30 18850 H 1779.77 -2.70694 4.02309 0
M  V30 18851 N 1781.11 -1.21927 -0.998575 0
M  V30 18852 C 1782.07 -0.985744 -2.0692 0
M  V30 18853 C 1783.07 0.0456907 -1.60735 0
M  V30 18854 O 1784.26 -0.192241 -1.73136 0
M  V30 18855 C 1781.4 -0.48779 -3.37392 0
M  V30 18856 H 1782.59 -1.93563 -2.2907 0
M  V30 18857 H 1780.14 -1.03716 -1.1693 0
M  V30 18858 H 1780.88 0.466723 -3.20924 0
M  V30 18859 H 1780.66 -1.23186 -3.72247 0
M  V30 18860 H 1782.15 -0.344469 -4.16177 0
M  V30 18861 N 1782.59 1.19452 -1.02805 0
M  V30 18862 C 1783.55 2.20857 -0.612757 0
M  V30 18863 C 1784.55 1.57519 0.323182 0
M  V30 18864 O 1785.74 1.7385 0.110303 0
M  V30 18865 C 1782.87 3.40743 0.103488 0
M  V30 18866 H 1784.07 2.59113 -1.50998 0
M  V30 18867 H 1781.62 1.33116 -0.819142 0
M  V30 18868 H 1782.35 3.08004 1.0151 0
M  V30 18869 H 1782.14 3.87949 -0.56903 0
M  V30 18870 H 1783.63 4.15858 0.380998 0
M  V30 18871 N 1784.07 0.805805 1.35442 0
M  V30 18872 C 1785.48 0.489448 1.5191 0
M  V30 18873 C 1785.68 -0.989485 1.75532 0
M  V30 18874 O 1784.74 -1.77453 1.79629 0
M  V30 18875 C 1786.05 1.33413 2.69484 0
M  V30 18876 C 1787.6 1.32949 2.83361 0
M  V30 18877 C 1788.07 2.15827 4.03959 0
M  V30 18878 N 1789.57 2.13359 4.11135 0
M  V30 18879 C 1790.3 2.74245 5.03564 0
M  V30 18880 N 1789.8 3.44055 6.0133 0
M  V30 18881 N 1791.59 2.63891 4.96304 0
M  V30 18882 H 1783.74 1.76361 1.18366 0
M  V30 18883 H 1786 0.750594 0.579062 0
M  V30 18884 H 1785.71 2.38364 2.58603 0
M  V30 18885 H 1785.58 0.986809 3.64063 0
M  V30 18886 H 1787.97 0.287837 2.93693 0
M  V30 18887 H 1788.05 1.71668 1.89641 0
M  V30 18888 H 1787.7 3.20033 3.94388 0
M  V30 18889 H 1787.63 1.74469 4.96858 0
M  V30 18890 H 1790.12 1.62566 3.41146 0
M  V30 18891 H 1790.43 3.87802 6.68453 0
M  V30 18892 H 1788.77 3.48159 6.01507 0
M  V30 18893 H 1791.97 2.08941 4.18881 0
M  V30 18894 H 1792.14 3.11631 5.68146 0
M  V30 18895 N 1785.54 -1.47344 0.559239 0
M  V30 18896 C 1786.49 -2.31735 -0.200368 0
M  V30 18897 C 1787.49 -1.43051 -0.907351 0
M  V30 18898 O 1788.69 -1.59804 -0.828406 0
M  V30 18899 H 1785.07 -0.747351 -0.0834871 0
M  V30 18900 H 1787.04 -2.93645 0.530556 0
M  V30 18901 C 1785.79 -3.25747 -1.2159 0
M  V30 18902 H 1785.11 -3.93952 -0.681314 0
M  V30 18903 H 1786.55 -3.87624 -1.71825 0
M  V30 18904 C 1785.01 -2.49414 -2.26482 0
M  V30 18905 O 1785.54 -2.24006 -3.33443 0
M  V30 18906 N 1783.75 -2.10387 -2.00464 0
M  V30 18907 H 1783.29 -2.3125 -1.13495 0
M  V30 18908 H 1783.25 -1.5963 -2.70861 0
M  V30 18909 N 1787.02 -0.295795 -1.54799 0
M  V30 18910 C 1788.26 0.315943 -2.01943 0
M  V30 18911 C 1788.63 1.5149 -1.17961 0
M  V30 18912 O 1789.83 2.19765 -1.5478 0
M  V30 18913 C 1788.1 0.668639 -3.5109 0
M  V30 18914 S 1789.66 1.26398 -4.20201 0
M  V30 18915 H 1786.48 0.0972386 -0.704319 0
M  V30 18916 H 1789.08 -0.422454 -1.90881 0
M  V30 18917 H 1787.78 -0.21252 -4.09849 0
M  V30 18918 H 1787.31 1.43796 -3.66178 0
M  V30 18919 H 1789.33 2.55196 -4.25546 0
M  V30 18920 N 1788.5 1.57583 -0.0234236 0
M  V30 18921 C 1789.43 2.05369 0.994927 0
M  V30 18922 C 1790.41 0.948279 1.32085 0
M  V30 18923 O 1791.6 1.21818 1.43849 0
M  V30 18924 C 1788.72 2.47098 2.31647 0
M  V30 18925 C 1787.77 3.68603 2.14555 0
M  V30 18926 S 1788.6 5.15504 1.44968 0
M  V30 18927 C 1789.76 5.60523 2.78504 0
M  V30 18928 H 1789.99 2.91425 0.588129 0
M  V30 18929 H 1787.52 1.5325 0.188111 0
M  V30 18930 H 1789.48 2.71805 3.07624 0
M  V30 18931 H 1788.14 1.61398 2.69461 0
M  V30 18932 H 1787.34 3.95629 3.1224 0
M  V30 18933 H 1786.94 3.44018 1.46722 0
M  V30 18934 H 1789.23 5.64414 3.74757 0
M  V30 18935 H 1790.17 6.60146 2.5615 0
M  V30 18936 H 1790.58 4.88153 2.8349 0
M  V30 18937 N 1789.98 -0.249655 1.5561 0
M  V30 18938 C 1790.91 -1.31281 1.931 0
M  V30 18939 C 1791.89 -1.50347 0.795601 0
M  V30 18940 O 1793.08 -1.63001 1.05566 0
M  V30 18941 C 1790.21 -2.66808 2.2233 0
M  V30 18942 C 1789.16 -2.62441 3.38096 0
M  V30 18943 C 1788.49 -4.01738 3.52861 0
M  V30 18944 C 1789.79 -2.19667 4.7386 0
M  V30 18945 H 1791.48 -1.00151 2.82153 0
M  V30 18946 H 1789.03 -0.480331 1.35753 0
M  V30 18947 H 1790.98 -3.41316 2.47146 0
M  V30 18948 H 1789.7 -2.99569 1.30101 0
M  V30 18949 H 1788.36 -1.90391 3.13284 0
M  V30 18950 H 1788.01 -4.31759 2.58056 0
M  V30 18951 H 1787.71 -3.99705 4.30708 0
M  V30 18952 H 1789.23 -4.7795 3.79995 0
M  V30 18953 H 1790.65 -2.83906 4.98067 0
M  V30 18954 H 1789.04 -2.28751 5.54791 0
M  V30 18955 H 1790.11 -1.14829 4.71108 0
M  V30 18956 N 1791.46 -1.48941 -0.515198 0
M  V30 18957 C 1792.73 -1.48205 -1.27651 0
M  V30 18958 C 1793.11 -0.201866 -2.10133 0
M  V30 18959 O 1792.46 0.816115 -2.13429 0
M  V30 18960 C 1792.67 -2.75274 -2.14535 0
M  V30 18961 C 1794.02 -3.24198 -2.74192 0
M  V30 18962 O 1795.04 -2.76293 -2.24813 0
M  V30 18963 O 1793.9 -4.07593 -3.64047 0
M  V30 18964 H 1791 -0.592546 -0.576904 0
M  V30 18965 H 1793.54 -1.6119 -0.530636 0
M  V30 18966 H 1792.32 -3.59949 -1.53469 0
M  V30 18967 H 1791.94 -2.6508 -2.96342 0
M  V30 18968 N 1792.94 0.765193 -1.37777 0
M  V30 18969 C 1793.85 1.90959 -1.36278 0
M  V30 18970 C 1794.86 1.72025 -0.261448 0
M  V30 18971 O 1796.04 1.95148 -0.497937 0
M  V30 18972 C 1793.1 3.26174 -1.17523 0
M  V30 18973 C 1792.16 3.57716 -2.37356 0
M  V30 18974 C 1791.4 4.86479 -2.19486 0
M  V30 18975 O 1791.62 5.58008 -1.18252 0
M  V30 18976 O 1790.55 5.17234 -3.0782 0
M  V30 18977 H 1794.38 1.95176 -2.3268 0
M  V30 18978 H 1791.96 0.90886 -1.18575 0
M  V30 18979 H 1793.85 4.07038 -1.09078 0
M  V30 18980 H 1792.52 3.22794 -0.241994 0
M  V30 18981 H 1791.43 2.7706 -2.51374 0
M  V30 18982 H 1792.76 3.65845 -3.29269 0
M  V30 18983 N 1794.41 1.22455 0.992094 0
M  V30 18984 C 1795.36 0.99534 2.08235 0
M  V30 18985 C 1796.33 -0.0832064 1.65891 0
M  V30 18986 O 1797.52 0.0665468 1.90684 0
M  V30 18987 C 1794.66 0.580055 3.4019 0
M  V30 18988 C 1793.77 1.72946 3.95871 0
M  V30 18989 C 1792.9 1.26208 5.15989 0
M  V30 18990 C 1791.94 2.38298 5.63809 0
M  V30 18991 N 1791.08 1.92602 6.75166 0
M  V30 18992 H 1795.92 1.92861 2.27175 0
M  V30 18993 H 1793.46 0.960948 1.11374 0
M  V30 18994 H 1795.41 0.320448 4.15968 0
M  V30 18995 H 1794.04 -0.316208 3.21248 0
M  V30 18996 H 1793.1 2.10337 3.16958 0
M  V30 18997 H 1794.41 2.57257 4.27341 0
M  V30 18998 H 1793.56 0.959904 5.99058 0
M  V30 18999 H 1792.3 0.389184 4.86145 0
M  V30 19000 H 1791.31 2.69304 4.79328 0
M  V30 19001 H 1792.53 3.26105 5.95678 0
M  V30 19002 H 1790.48 1.07675 6.47103 0
M  V30 19003 H 1790.39 2.70478 7.05959 0
M  V30 19004 H 1791.66 1.65455 7.61738 0
M  V30 19005 N 1795.89 -1.18905 1.03437 0
M  V30 19006 C 1797.14 -1.88727 0.734048 0
M  V30 19007 C 1797.47 -1.79964 -0.737773 0
M  V30 19008 O 1796.72 -1.19016 -1.5535 0
M  V30 19009 C 1797.02 -3.38811 1.13762 0
M  V30 19010 C 1796.69 -3.67777 2.60865 0
M  V30 19011 C 1795.35 -3.75393 3.01054 0
M  V30 19012 C 1797.7 -3.80666 3.5601 0
M  V30 19013 C 1795.03 -3.9337 4.35289 0
M  V30 19014 C 1797.38 -4.00158 4.89955 0
M  V30 19015 C 1796.04 -4.06007 5.29825 0
M  V30 19016 H 1795.31 -0.690602 0.268607 0
M  V30 19017 H 1797.96 -1.40777 1.29823 0
M  V30 19018 H 1796.27 -3.88697 0.492134 0
M  V30 19019 H 1797.96 -3.91164 0.882696 0
M  V30 19020 H 1794.55 -3.62462 2.28733 0
M  V30 19021 H 1798.74 -3.7412 3.2611 0
M  V30 19022 H 1793.99 -3.9614 4.65707 0
M  V30 19023 H 1798.17 -4.09073 5.63589 0
M  V30 19024 H 1795.79 -4.1969 6.33849 0
M  V30 19025 N 1797.37 -0.812977 -1.35013 0
M  V30 19026 C 1798.6 -0.409014 -2.02817 0
M  V30 19027 C 1799.01 0.982004 -1.61252 0
M  V30 19028 O 1798.37 1.63384 -0.813137 0
M  V30 19029 C 1798.42 -0.490117 -3.58162 0
M  V30 19030 O 1798.14 -1.8263 -3.98218 0
M  V30 19031 C 1799.64 -0.0797786 -4.43228 0
M  V30 19032 H 1796.86 -0.165356 -0.650306 0
M  V30 19033 H 1799.41 -1.09837 -1.72499 0
M  V30 19034 H 1797.56 0.151057 -3.87105 0
M  V30 19035 H 1797.98 -1.79356 -4.92881 0
M  V30 19036 H 1799.45 -0.18763 -5.51681 0
M  V30 19037 H 1799.93 0.975612 -4.28227 0
M  V30 19038 H 1800.53 -0.694359 -4.19594 0
M  V30 19039 N 1798.85 1.47045 -0.567045 0
M  V30 19040 C 1800.09 2.02746 -0.046749 0
M  V30 19041 C 1800.43 1.4394 1.30364 0
M  V30 19042 O 1799.7 0.598616 1.85059 0
M  V30 19043 C 1799.98 3.60082 0.0358156 0
M  V30 19044 C 1799.84 4.29302 -1.34237 0
M  V30 19045 C 1801.16 4.3376 0.744338 0
M  V30 19046 H 1798.28 0.736769 -0.0184627 0
M  V30 19047 H 1800.92 1.75365 -0.73123 0
M  V30 19048 H 1799.07 3.83541 0.618745 0
M  V30 19049 H 1800.74 4.17155 -1.96926 0
M  V30 19050 H 1798.98 3.89273 -1.91439 0
M  V30 19051 H 1799.65 5.37956 -1.23722 0
M  V30 19052 H 1802.13 4.15353 0.249287 0
M  V30 19053 H 1801.01 5.43457 0.771095 0
M  V30 19054 H 1801.27 4.03686 1.80249 0
M  V30 19055 N 1800.33 0.304 1.5464 0
M  V30 19056 C 1801.27 -0.570762 2.23631 0
M  V30 19057 C 1802.24 -1.1272 1.21998 0
M  V30 19058 O 1803.43 -1.17117 1.50626 0
M  V30 19059 C 1800.57 -1.73533 2.98296 0
M  V30 19060 C 1799.68 -1.21 4.14708 0
M  V30 19061 C 1798.82 -2.33867 4.76948 0
M  V30 19062 C 1797.85 -1.78483 5.855 0
M  V30 19063 N 1796.99 -2.84935 6.41682 0
M  V30 19064 H 1801.83 0.024168 2.9799 0
M  V30 19065 H 1799.37 0.023697 1.47081 0
M  V30 19066 H 1801.33 -2.42031 3.39819 0
M  V30 19067 H 1799.96 -2.30184 2.26308 0
M  V30 19068 H 1799.01 -0.41718 3.78105 0
M  V30 19069 H 1800.32 -0.764576 4.92905 0
M  V30 19070 H 1799.47 -3.10306 5.21339 0
M  V30 19071 H 1798.21 -2.81737 3.9809 0
M  V30 19072 H 1797.22 -1.00534 5.4053 0
M  V30 19073 H 1798.44 -1.31513 6.66244 0
M  V30 19074 H 1796.39 -3.32133 5.65706 0
M  V30 19075 H 1796.31 -2.44898 7.15235 0
M  V30 19076 H 1797.57 -3.61263 6.90731 0
M  V30 19077 N 1801.8 -1.57568 0.0317802 0
M  V30 19078 C 1803.05 -1.92194 -0.647238 0
M  V30 19079 C 1803.38 -0.908747 -1.71626 0
M  V30 19080 O 1802.66 0.0681334 -1.94381 0
M  V30 19081 C 1802.94 -3.3729 -1.26124 0
M  V30 19082 C 1802.79 -4.49348 -0.201594 0
M  V30 19083 C 1804.11 -3.824 -2.17849 0
M  V30 19084 H 1801.23 -0.698927 -0.233817 0
M  V30 19085 H 1803.87 -1.89789 0.0895831 0
M  V30 19086 H 1802.02 -3.39471 -1.88922 0
M  V30 19087 H 1803.7 -4.59299 0.429155 0
M  V30 19088 H 1801.94 -4.31218 0.472624 0
M  V30 19089 H 1802.61 -5.47908 -0.670859 0
M  V30 19090 H 1805.09 -3.81972 -1.65034 0
M  V30 19091 H 1803.96 -4.84614 -2.57761 0
M  V30 19092 H 1804.22 -3.18054 -3.07073 0
M  V30 19093 N 1803.28 0.241399 -1.5574 0
M  V30 19094 C 1804.25 1.28236 -1.89969 0
M  V30 19095 C 1805.25 1.40804 -0.776582 0
M  V30 19096 O 1806.44 1.3941 -1.04453 0
M  V30 19097 C 1803.57 2.65926 -2.13299 0
M  V30 19098 H 1804.76 0.991011 -2.83053 0
M  V30 19099 H 1802.31 0.480939 -1.48717 0
M  V30 19100 H 1803.05 3.00192 -1.22701 0
M  V30 19101 H 1802.83 2.58184 -2.95099 0
M  V30 19102 H 1804.32 3.4108 -2.40944 0
M  V30 19103 N 1804.76 1.49212 0.507292 0
M  V30 19104 C 1806.04 1.4888 1.26863 0
M  V30 19105 C 1806.42 0.213007 2.10023 0
M  V30 19106 O 1805.77 -0.804785 2.13858 0
M  V30 19107 C 1805.98 2.76407 2.13073 0
M  V30 19108 C 1807.32 3.25647 2.72468 0
M  V30 19109 O 1808.35 2.77481 2.23344 0
M  V30 19110 O 1807.21 4.09518 3.6188 0
M  V30 19111 H 1804.3 0.595597 0.573754 0
M  V30 19112 H 1806.85 1.6147 0.52208 0
M  V30 19113 H 1805.62 3.60758 1.51558 0
M  V30 19114 H 1805.24 2.66648 2.94932 0
M  V30 19115 N 1806.24 -0.757876 1.38181 0
M  V30 19116 C 1807.49 -1.51688 1.34153 0
M  V30 19117 C 1807.81 -1.94375 -0.0697487 0
M  V30 19118 O 1807.07 -1.65404 -1.04594 0
M  V30 19119 C 1807.37 -2.78548 2.23933 0
M  V30 19120 C 1807.03 -2.54845 3.71975 0
M  V30 19121 C 1805.7 -2.48089 4.12317 0
M  V30 19122 C 1808.05 -2.34027 4.65704 0
M  V30 19123 C 1805.38 -2.18526 5.44485 0
M  V30 19124 C 1807.73 -2.05986 5.98124 0
M  V30 19125 C 1806.39 -1.97683 6.37556 0
M  V30 19126 H 1805.66 -0.555064 0.490902 0
M  V30 19127 H 1808.31 -0.871823 1.70504 0
M  V30 19128 H 1806.61 -3.47682 1.80623 0
M  V30 19129 H 1808.31 -3.36487 2.18122 0
M  V30 19130 H 1804.9 -2.60972 3.39988 0
M  V30 19131 H 1809.08 -2.38228 4.35386 0
M  V30 19132 H 1804.34 -2.10603 5.73983 0
M  V30 19133 H 1808.51 -1.8888 6.70296 0
M  V30 19134 H 1806.14 -1.7454 7.39892 0
M  V30 19135 N 1807.72 -1.22979 -0.985586 0
M  V30 19136 C 1808.96 -1.05667 -1.72275 0
M  V30 19137 C 1809.29 0.408045 -1.90683 0
M  V30 19138 O 1808.56 1.29293 -1.47174 0
M  V30 19139 H 1807.14 -0.388017 -0.63832 0
M  V30 19140 H 1809.8 -1.54612 -1.18665 0
M  V30 19141 H 1808.89 -1.54043 -2.71436 0
M  V30 19142 N 1809.19 1.18355 -1.04066 0
M  V30 19143 C 1810.12 2.24196 -0.652568 0
M  V30 19144 C 1811.11 1.66581 0.344195 0
M  V30 19145 O 1812.29 1.929 0.224296 0
M  V30 19146 C 1809.42 3.47297 -0.0147409 0
M  V30 19147 C 1808.37 4.17661 -0.935044 0
M  V30 19148 C 1807.7 5.34455 -0.161692 0
M  V30 19149 C 1809 4.71153 -2.25415 0
M  V30 19150 H 1810.69 2.56914 -1.53738 0
M  V30 19151 H 1808.24 1.23492 -0.740658 0
M  V30 19152 H 1810.19 4.20544 0.268484 0
M  V30 19153 H 1808.92 3.13812 0.904949 0
M  V30 19154 H 1807.58 3.46312 -1.20265 0
M  V30 19155 H 1807.22 4.97219 0.760404 0
M  V30 19156 H 1806.92 5.82469 -0.774805 0
M  V30 19157 H 1808.45 6.10493 0.114515 0
M  V30 19158 H 1809.86 5.36095 -2.03163 0
M  V30 19159 H 1808.26 5.29701 -2.82022 0
M  V30 19160 H 1809.33 3.88576 -2.90064 0
M  V30 19161 N 1810.67 0.820125 1.3458 0
M  V30 19162 C 1811.64 0.245462 2.27882 0
M  V30 19163 C 1812.64 -0.575025 1.50167 0
M  V30 19164 O 1813.83 -0.391536 1.69743 0
M  V30 19165 C 1810.96 -0.656199 3.34525 0
M  V30 19166 H 1812.15 1.06853 2.80218 0
M  V30 19167 H 1809.7 0.591777 1.44664 0
M  V30 19168 H 1810.44 -1.50244 2.87398 0
M  V30 19169 H 1810.22 -0.0693951 3.92039 0
M  V30 19170 H 1811.71 -1.05216 4.04128 0
M  V30 19171 N 1812.15 -1.46743 0.574835 0
M  V30 19172 C 1813.57 -1.57847 0.23591 0
M  V30 19173 C 1813.77 -1.57105 -1.26175 0
M  V30 19174 O 1812.82 -1.48382 -2.04301 0
M  V30 19175 C 1814.14 -2.87591 0.878158 0
M  V30 19176 C 1815.68 -3.01209 0.851018 0
M  V30 19177 C 1816.16 -4.33678 1.47266 0
M  V30 19178 N 1817.65 -4.40358 1.43664 0
M  V30 19179 C 1818.38 -5.41458 1.8871 0
M  V30 19180 N 1817.88 -6.49274 2.41692 0
M  V30 19181 N 1819.67 -5.3261 1.79674 0
M  V30 19182 H 1811.82 -1.45469 1.54766 0
M  V30 19183 H 1814.09 -0.69341 0.646441 0
M  V30 19184 H 1813.79 -2.93922 1.93139 0
M  V30 19185 H 1813.67 -3.75264 0.381665 0
M  V30 19186 H 1816.05 -2.94464 -0.193573 0
M  V30 19187 H 1816.14 -2.15032 1.38545 0
M  V30 19188 H 1815.78 -4.41179 2.51641 0
M  V30 19189 H 1815.71 -5.18616 0.913519 0
M  V30 19190 H 1818.2 -3.63041 1.04928 0
M  V30 19191 H 1818.51 -7.22617 2.73942 0
M  V30 19192 H 1816.86 -6.50115 2.45713 0
M  V30 19193 H 1820.05 -4.47282 1.38045 0
M  V30 19194 H 1820.22 -6.11259 2.15096 0
M  V30 19195 N 1813.63 -0.312197 -1.54477 0
M  V30 19196 C 1814.91 0.347462 -1.92489 0
M  V30 19197 C 1815.29 1.70797 -1.24063 0
M  V30 19198 O 1814.63 2.25313 -0.380296 0
M  V30 19199 C 1814.84 0.450992 -3.46074 0
M  V30 19200 C 1816.19 0.716618 -4.18509 0
M  V30 19201 O 1817.22 0.534364 -3.52169 0
M  V30 19202 O 1816.07 1.06744 -5.35974 0
M  V30 19203 H 1813.17 0.196248 -0.803378 0
M  V30 19204 H 1815.71 -0.361078 -1.65814 0
M  V30 19205 H 1814.49 -0.504982 -3.88028 0
M  V30 19206 H 1814.11 1.20756 -3.78819 0
M  V30 19207 N 1815.11 1.57549 -0.040136 0
M  V30 19208 C 1816.04 2.06413 0.973089 0
M  V30 19209 C 1817.02 0.962235 1.31072 0
M  V30 19210 O 1818.2 1.23337 1.42549 0
M  V30 19211 C 1815.33 2.49541 2.29013 0
M  V30 19212 C 1814.37 3.70858 2.10634 0
M  V30 19213 S 1815.21 5.17013 1.39493 0
M  V30 19214 C 1816.36 5.63445 2.72544 0
M  V30 19215 H 1816.6 2.92032 0.557186 0
M  V30 19216 H 1814.13 1.53441 0.171846 0
M  V30 19217 H 1816.09 2.75052 3.04723 0
M  V30 19218 H 1814.75 1.64247 2.67734 0
M  V30 19219 H 1813.94 3.98918 3.08027 0
M  V30 19220 H 1813.54 3.45555 1.43065 0
M  V30 19221 H 1815.84 5.68357 3.68749 0
M  V30 19222 H 1816.78 6.62826 2.49134 0
M  V30 19223 H 1817.19 4.91133 2.78296 0
M  V30 19224 N 1816.58 -0.233136 1.55866 0
M  V30 19225 C 1817.81 -0.974999 1.82146 0
M  V30 19226 C 1818.22 -1.7891 0.615456 0
M  V30 19227 O 1817.57 -1.78707 -0.42537 0
M  V30 19228 C 1817.63 -1.95048 3.01988 0
M  V30 19229 C 1817.29 -1.32201 4.37461 0
M  V30 19230 C 1818.29 -0.717627 5.14923 0
M  V30 19231 C 1815.97 -1.33725 4.84173 0
M  V30 19232 C 1817.97 -0.136864 6.37253 0
M  V30 19233 C 1815.65 -0.752633 6.06448 0
M  V30 19234 C 1816.65 -0.153484 6.82828 0
M  V30 19235 O 1816.34 0.422063 8.02791 0
M  V30 19236 H 1816.07 -0.291889 0.609735 0
M  V30 19237 H 1818.63 -0.257048 2.03785 0
M  V30 19238 H 1816.86 -2.70711 2.76138 0
M  V30 19239 H 1818.55 -2.55692 3.1524 0
M  V30 19240 H 1819.31 -0.698263 4.79947 0
M  V30 19241 H 1815.19 -1.79298 4.24704 0
M  V30 19242 H 1818.73 0.331417 6.96812 0
M  V30 19243 H 1814.63 -0.769371 6.40899 0
M  V30 19244 H 1815.4 0.315258 8.17893 0
M  V30 19245 N 1818.06 -1.49479 -0.499372 0
M  V30 19246 C 1819.34 -1.4955 -1.26071 0
M  V30 19247 C 1819.72 -0.224142 -2.09907 0
M  V30 19248 O 1819.07 0.793432 -2.14282 0
M  V30 19249 C 1819.28 -2.77534 -2.11604 0
M  V30 19250 C 1820.63 -3.27088 -2.70738 0
M  V30 19251 O 1821.65 -2.78662 -2.2187 0
M  V30 19252 O 1820.51 -4.11432 -3.59703 0
M  V30 19253 H 1817.6 -0.598631 -0.570587 0
M  V30 19254 H 1820.15 -1.61744 -0.513509 0
M  V30 19255 H 1818.92 -3.61556 -1.49642 0
M  V30 19256 H 1818.54 -2.68208 -2.93514 0
M  V30 19257 N 1819.54 0.750537 -1.38581 0
M  V30 19258 C 1820.49 1.86434 -1.36056 0
M  V30 19259 C 1821.46 1.64601 -0.222625 0
M  V30 19260 O 1822.64 1.86225 -0.41533 0
M  V30 19261 C 1819.78 3.23769 -1.19447 0
M  V30 19262 C 1818.9 3.57412 -2.42653 0
M  V30 19263 C 1818.03 4.84067 -2.18751 0
M  V30 19264 C 1817.07 5.10506 -3.37713 0
M  V30 19265 N 1816.21 6.28358 -3.13227 0
M  V30 19266 H 1821.05 1.87927 -2.31274 0
M  V30 19267 H 1818.58 0.91849 -1.14901 0
M  V30 19268 H 1820.54 4.03024 -1.07832 0
M  V30 19269 H 1819.17 3.21595 -0.278665 0
M  V30 19270 H 1818.22 2.72978 -2.64929 0
M  V30 19271 H 1819.54 3.72876 -3.31307 0
M  V30 19272 H 1818.69 5.71271 -2.0429 0
M  V30 19273 H 1817.43 4.70748 -1.27467 0
M  V30 19274 H 1816.43 4.2177 -3.5269 0
M  V30 19275 H 1817.66 5.25721 -4.29877 0
M  V30 19276 H 1815.61 6.16355 -2.24593 0
M  V30 19277 H 1815.52 6.44337 -3.95432 0
M  V30 19278 H 1816.79 7.18441 -3.02428 0
M  V30 19279 N 1821.02 1.235 0.979051 0
M  V30 19280 C 1821.93 1.03412 2.10578 0
M  V30 19281 C 1822.95 -0.0217644 1.73986 0
M  V30 19282 O 1824.12 0.173977 2.00647 0
M  V30 19283 C 1821.19 0.629192 3.40943 0
M  V30 19284 C 1820.25 1.76028 3.91552 0
M  V30 19285 C 1819.48 1.37457 5.15695 0
M  V30 19286 O 1819.7 0.259393 5.6981 0
M  V30 19287 O 1818.64 2.19614 5.60404 0
M  V30 19288 H 1822.46 1.97845 2.30415 0
M  V30 19289 H 1820.05 1.02218 1.08958 0
M  V30 19290 H 1821.93 0.414372 4.19358 0
M  V30 19291 H 1820.61 -0.286128 3.22433 0
M  V30 19292 H 1819.51 2.02975 3.14248 0
M  V30 19293 H 1820.85 2.65396 4.14519 0
M  V30 19294 N 1822.5 -1.17802 1.04693 0
M  V30 19295 C 1823.73 -1.91589 0.773124 0
M  V30 19296 C 1824.14 -1.76773 -0.67438 0
M  V30 19297 O 1823.48 -1.09903 -1.47197 0
M  V30 19298 C 1823.54 -3.43279 1.06771 0
M  V30 19299 C 1823.2 -3.81875 2.51038 0
M  V30 19300 C 1824.2 -3.85138 3.49235 0
M  V30 19301 C 1821.89 -4.12986 2.85915 0
M  V30 19302 C 1823.88 -4.18972 4.80356 0
M  V30 19303 C 1821.57 -4.4649 4.17241 0
M  V30 19304 C 1822.57 -4.4946 5.14271 0
M  V30 19305 O 1822.25 -4.82178 6.43242 0
M  V30 19306 H 1821.99 -0.614869 0.280912 0
M  V30 19307 H 1824.54 -1.50352 1.39941 0
M  V30 19308 H 1822.77 -3.84786 0.384316 0
M  V30 19309 H 1824.46 -3.98321 0.780714 0
M  V30 19310 H 1825.22 -3.61232 3.2363 0
M  V30 19311 H 1821.1 -4.09848 2.11058 0
M  V30 19312 H 1824.65 -4.21205 5.56087 0
M  V30 19313 H 1820.54 -4.69857 4.42611 0
M  V30 19314 H 1821.31 -5.00055 6.47987 0
M  V30 19315 N 1823.98 -0.827251 -1.34143 0
M  V30 19316 C 1825.21 -0.429878 -2.02078 0
M  V30 19317 C 1825.61 0.970141 -1.62434 0
M  V30 19318 O 1824.96 1.63997 -0.827692 0
M  V30 19319 C 1825.02 -0.457493 -3.56577 0
M  V30 19320 C 1824.68 -1.8116 -4.19559 0
M  V30 19321 C 1825.68 -2.7731 -4.39767 0
M  V30 19322 C 1823.36 -2.10126 -4.56237 0
M  V30 19323 C 1825.36 -4.00596 -4.95784 0
M  V30 19324 C 1823.05 -3.33672 -5.11963 0
M  V30 19325 C 1824.04 -4.28724 -5.31681 0
M  V30 19326 O 1823.73 -5.50086 -5.86226 0
M  V30 19327 H 1823.46 -0.170259 -0.654208 0
M  V30 19328 H 1826.02 -1.11808 -1.72303 0
M  V30 19329 H 1824.25 0.287424 -3.8563 0
M  V30 19330 H 1825.94 -0.0795677 -4.05822 0
M  V30 19331 H 1826.7 -2.56228 -4.11791 0
M  V30 19332 H 1822.58 -1.36941 -4.40191 0
M  V30 19333 H 1826.13 -4.74798 -5.11089 0
M  V30 19334 H 1822.02 -3.54615 -5.39369 0
M  V30 19335 H 1822.79 -5.51665 -6.04655 0
M  V30 19336 N 1825.45 1.46436 -0.582609 0
M  V30 19337 C 1826.68 2.07275 -0.0718712 0
M  V30 19338 C 1827.1 1.42851 1.22373 0
M  V30 19339 O 1826.46 0.512272 1.73912 0
M  V30 19340 C 1826.51 3.6051 0.08055 0
M  V30 19341 O 1825.61 3.96414 1.13707 0
M  V30 19342 H 1824.95 0.661027 -0.0627607 0
M  V30 19343 H 1827.48 1.88076 -0.805524 0
M  V30 19344 H 1827.49 4.06991 0.286749 0
M  V30 19345 H 1826.17 4.06792 -0.865603 0
M  V30 19346 H 1824.75 3.61643 0.909338 0
M  V30 19347 N 1826.93 0.320385 1.54309 0
M  V30 19348 C 1828.18 -0.283562 2.00808 0
M  V30 19349 C 1828.51 -1.52036 1.20826 0
M  V30 19350 O 1827.79 -1.9233 0.289721 0
M  V30 19351 C 1828.07 -0.620875 3.54707 0
M  V30 19352 C 1827.92 0.626403 4.45417 0
M  V30 19353 C 1829.24 -1.43978 4.15883 0
M  V30 19354 H 1826.36 -0.10159 0.729965 0
M  V30 19355 H 1829 0.436332 1.84922 0
M  V30 19356 H 1827.15 -1.23419 3.68375 0
M  V30 19357 H 1828.82 1.2647 4.43625 0
M  V30 19358 H 1827.07 1.2559 4.15222 0
M  V30 19359 H 1827.74 0.345969 5.50915 0
M  V30 19360 H 1830.21 -0.921381 4.05771 0
M  V30 19361 H 1829.09 -1.64456 5.23685 0
M  V30 19362 H 1829.35 -2.43494 3.69003 0
M  V30 19363 N 1828.41 -1.57525 0.0484906 0
M  V30 19364 C 1829.36 -2.07883 -0.936407 0
M  V30 19365 C 1830.34 -0.983413 -1.27349 0
M  V30 19366 O 1831.54 -1.24678 -1.25636 0
M  V30 19367 C 1828.66 -2.6252 -2.2122 0
M  V30 19368 C 1827.75 -3.79027 -1.90262 0
M  V30 19369 N 1828.14 -4.889 -1.29653 0
M  V30 19370 C 1826.44 -3.87881 -2.20147 0
M  V30 19371 C 1827.14 -5.69963 -1.16265 0
M  V30 19372 N 1826.12 -5.17485 -1.66465 0
M  V30 19373 H 1829.92 -2.90229 -0.463091 0
M  V30 19374 H 1827.43 -1.61649 -0.156032 0
M  V30 19375 H 1829.43 -2.96899 -2.92671 0
M  V30 19376 H 1828.09 -1.81612 -2.6916 0
M  V30 19377 H 1829.1 -5.08753 -0.969081 0
M  V30 19378 H 1825.78 -3.17911 -2.70626 0
M  V30 19379 H 1827.17 -6.68323 -0.692351 0
M  V30 19380 N 1829.89 0.224867 -1.55988 0
M  V30 19381 C 1830.84 1.29829 -1.92995 0
M  V30 19382 C 1831.83 1.48693 -0.81159 0
M  V30 19383 O 1833.04 1.49906 -0.996397 0
M  V30 19384 H 1829.41 0.435205 -0.61327 0
M  V30 19385 H 1831.38 0.958953 -2.82571 0
M  V30 19386 C 1830.13 2.6422 -2.26016 0
M  V30 19387 H 1829.45 2.50511 -3.11584 0
M  V30 19388 H 1830.89 3.38148 -2.55797 0
M  V30 19389 C 1829.35 3.1898 -1.08413 0
M  V30 19390 O 1829.88 4.00228 -0.343538 0
M  V30 19391 N 1828.09 2.77308 -0.868842 0
M  V30 19392 H 1827.64 2.11344 -1.4728 0
M  V30 19393 H 1827.59 3.14289 -0.0837012 0
M  V30 19394 N 1831.37 1.49742 0.491438 0
M  V30 19395 C 1832.31 1.67115 1.59189 0
M  V30 19396 C 1833.28 0.512523 1.57995 0
M  V30 19397 O 1834.47 0.740693 1.75836 0
M  V30 19398 C 1831.61 1.75258 2.97286 0
M  V30 19399 C 1830.72 3.02488 3.08424 0
M  V30 19400 C 1829.86 3.0155 4.37311 0
M  V30 19401 C 1828.89 4.2332 4.42116 0
M  V30 19402 N 1828.03 4.20238 5.62445 0
M  V30 19403 H 1832.87 2.61073 1.43683 0
M  V30 19404 H 1830.41 1.29435 0.69892 0
M  V30 19405 H 1832.37 1.77959 3.77341 0
M  V30 19406 H 1831 0.847568 3.11474 0
M  V30 19407 H 1830.05 3.09353 2.21371 0
M  V30 19408 H 1831.36 3.92479 3.07834 0
M  V30 19409 H 1830.51 3.02868 5.25695 0
M  V30 19410 H 1829.25 2.09354 4.4048 0
M  V30 19411 H 1828.26 4.22236 3.52132 0
M  V30 19412 H 1829.48 5.1672 4.40656 0
M  V30 19413 H 1827.43 3.30884 5.66438 0
M  V30 19414 H 1827.35 5.03974 5.63512 0
M  V30 19415 H 1828.61 4.25672 6.53011 0
M  V30 19416 N 1832.84 -0.743177 1.38977 0
M  V30 19417 C 1834.07 -1.53243 1.39011 0
M  V30 19418 C 1834.49 -1.88792 -0.0174858 0
M  V30 19419 O 1833.84 -1.53523 -0.986766 0
M  V30 19420 C 1833.9 -2.8251 2.25544 0
M  V30 19421 O 1833.62 -2.48474 3.60821 0
M  V30 19422 C 1835.12 -3.76588 2.33872 0
M  V30 19423 H 1832.34 -0.473832 0.475104 0
M  V30 19424 H 1834.88 -0.918958 1.82689 0
M  V30 19425 H 1833.04 -3.4021 1.853 0
M  V30 19426 H 1833.45 -3.31454 4.06495 0
M  V30 19427 H 1834.92 -4.64211 2.98684 0
M  V30 19428 H 1835.4 -4.17761 1.35544 0
M  V30 19429 H 1836.01 -3.24811 2.74551 0
M  V30 19430 N 1834.32 -1.24018 -0.972487 0
M  V30 19431 C 1835.57 -1.07489 -1.71145 0
M  V30 19432 C 1835.89 0.387798 -1.91105 0
M  V30 19433 O 1835.16 1.27725 -1.48537 0
M  V30 19434 H 1833.74 -0.394765 -0.634168 0
M  V30 19435 H 1836.4 -1.55861 -1.17018 0
M  V30 19436 H 1835.5 -1.56913 -2.69786 0
M  V30 19437 N 1835.8 1.17245 -1.05316 0
M  V30 19438 C 1836.76 2.19508 -0.659467 0
M  V30 19439 C 1837.76 1.58169 0.289697 0
M  V30 19440 O 1838.95 1.74045 0.0734019 0
M  V30 19441 C 1836.09 3.40886 0.0311886 0
M  V30 19442 H 1837.28 2.55852 -1.5646 0
M  V30 19443 H 1834.83 1.31348 -0.847193 0
M  V30 19444 H 1835.57 3.10088 0.949535 0
M  V30 19445 H 1835.35 3.86655 -0.651191 0
M  V30 19446 H 1836.84 4.16573 0.292702 0
M  V30 19447 N 1837.28 0.834353 1.33702 0
M  V30 19448 C 1838.23 0.26233 2.29304 0
M  V30 19449 C 1839.2 -0.619326 1.54122 0
M  V30 19450 O 1840.38 -0.558551 1.82441 0
M  V30 19451 C 1837.52 -0.560341 3.4052 0
M  V30 19452 C 1836.63 0.344832 4.30622 0
M  V30 19453 C 1835.77 -0.488505 5.28949 0
M  V30 19454 C 1834.81 0.415341 6.10689 0
M  V30 19455 N 1833.94 -0.3796 7.01073 0
M  V30 19456 H 1838.78 1.08291 2.77628 0
M  V30 19457 H 1836.32 0.545497 1.36612 0
M  V30 19458 H 1838.28 -1.05274 4.03699 0
M  V30 19459 H 1836.91 -1.34593 2.93402 0
M  V30 19460 H 1835.96 0.955519 3.68204 0
M  V30 19461 H 1837.27 1.03935 4.87851 0
M  V30 19462 H 1836.43 -1.04492 5.97634 0
M  V30 19463 H 1835.17 -1.21648 4.72285 0
M  V30 19464 H 1834.17 0.983803 5.40926 0
M  V30 19465 H 1835.4 1.1416 6.69436 0
M  V30 19466 H 1833.34 -1.09103 6.46864 0
M  V30 19467 H 1833.26 0.25629 7.55565 0
M  V30 19468 H 1834.53 -0.918394 7.74071 0
M  V30 19469 N 1838.76 -1.46125 0.590367 0
M  V30 19470 C 1839.69 -2.33159 -0.126114 0
M  V30 19471 C 1840.67 -1.45806 -0.876057 0
M  V30 19472 O 1841.85 -1.7461 -0.850009 0
M  V30 19473 C 1838.98 -3.28217 -1.13537 0
M  V30 19474 C 1837.94 -4.25072 -0.499773 0
M  V30 19475 C 1837.26 -5.09694 -1.61605 0
M  V30 19476 C 1838.56 -5.19202 0.567992 0
M  V30 19477 H 1840.26 -2.93315 0.600577 0
M  V30 19478 H 1837.8 -1.41044 0.290265 0
M  V30 19479 H 1839.76 -3.87965 -1.64503 0
M  V30 19480 H 1838.48 -2.66185 -1.89244 0
M  V30 19481 H 1837.14 -3.66598 -0.0111313 0
M  V30 19482 H 1836.79 -4.44041 -2.36297 0
M  V30 19483 H 1836.49 -5.75292 -1.19637 0
M  V30 19484 H 1838.01 -5.72307 -2.12832 0
M  V30 19485 H 1839.42 -5.73121 0.143102 0
M  V30 19486 H 1837.82 -5.93184 0.908428 0
M  V30 19487 H 1838.89 -4.62671 1.45133 0
M  V30 19488 N 1840.23 -0.328564 -1.54137 0
M  V30 19489 C 1841.65 0.158467 -1.86026 0
M  V30 19490 C 1842 1.51216 -1.25012 0
M  V30 19491 O 1841.12 2.09081 -0.558029 0
M  V30 19492 C 1841.72 0.294317 -3.37519 0
M  V30 19493 C 1840.28 0.72557 -3.69341 0
M  V30 19494 C 1839.42 -0.149724 -2.76895 0
M  V30 19495 H 1842.37 -0.548678 -1.48913 0
M  V30 19496 H 1842.39 1.12438 -3.63508 0
M  V30 19497 H 1841.91 -0.691071 -3.81898 0
M  V30 19498 H 1840.01 1.72052 -3.30498 0
M  V30 19499 H 1840.12 0.525853 -4.76205 0
M  V30 19500 H 1838.48 0.375531 -2.51916 0
M  V30 19501 H 1839.27 -1.13197 -3.24101 0
M  V30 19502 N 1841.71 1.57497 -0.0568439 0
M  V30 19503 C 1842.96 1.932 0.61658 0
M  V30 19504 C 1843.29 0.935936 1.70158 0
M  V30 19505 O 1842.57 -0.0372005 1.94464 0
M  V30 19506 C 1842.85 3.39254 1.20742 0
M  V30 19507 C 1842.7 4.49612 0.130081 0
M  V30 19508 C 1844.02 3.85817 2.11738 0
M  V30 19509 H 1841.14 0.702558 0.222668 0
M  V30 19510 H 1843.78 1.89622 -0.119765 0
M  V30 19511 H 1841.93 3.42434 1.83497 0
M  V30 19512 H 1843.6 4.58559 -0.502172 0
M  V30 19513 H 1841.85 4.30411 -0.541167 0
M  V30 19514 H 1842.52 5.48906 0.583606 0
M  V30 19515 H 1844.99 3.8455 1.58936 0
M  V30 19516 H 1843.87 4.88653 2.50019 0
M  V30 19517 H 1844.13 3.22899 3.01974 0
M  V30 19518 N 1843.19 -0.216591 1.56105 0
M  V30 19519 C 1844.14 -1.26844 1.92819 0
M  V30 19520 C 1845.11 -1.46326 0.785999 0
M  V30 19521 O 1846.29 -1.59813 1.04232 0
M  V30 19522 C 1843.43 -2.61276 2.25452 0
M  V30 19523 C 1842.55 -2.49552 3.5263 0
M  V30 19524 C 1841.68 -3.76541 3.74686 0
M  V30 19525 C 1840.72 -3.5956 4.95362 0
M  V30 19526 N 1839.86 -4.7851 5.13782 0
M  V30 19527 H 1844.7 -0.948341 2.82508 0
M  V30 19528 H 1842.23 -0.456953 1.39823 0
M  V30 19529 H 1844.19 -3.39567 2.42384 0
M  V30 19530 H 1842.82 -2.91373 1.38931 0
M  V30 19531 H 1841.87 -1.6267 3.43864 0
M  V30 19532 H 1843.19 -2.32927 4.41074 0
M  V30 19533 H 1842.34 -4.63275 3.91741 0
M  V30 19534 H 1841.08 -3.96097 2.84532 0
M  V30 19535 H 1840.08 -2.71211 4.78252 0
M  V30 19536 H 1841.31 -3.41471 5.87005 0
M  V30 19537 H 1839.25 -4.9837 4.26572 0
M  V30 19538 H 1839.17 -4.64631 5.96368 0
M  V30 19539 H 1840.44 -5.66656 5.35277 0
M  V30 19540 N 1844.67 -1.5 -0.48349 0
M  V30 19541 C 1845.91 -1.61577 -1.2355 0
M  V30 19542 C 1846.27 -0.3065 -1.89943 0
M  V30 19543 O 1845.56 0.694667 -1.78564 0
M  V30 19544 C 1845.76 -2.72475 -2.31283 0
M  V30 19545 C 1845.59 -4.14059 -1.75457 0
M  V30 19546 C 1844.36 -4.80623 -1.55979 0
M  V30 19547 C 1846.55 -4.98715 -1.2565 0
M  V30 19548 N 1844.54 -6.06463 -0.952659 0
M  V30 19549 C 1845.91 -6.15177 -0.771821 0
M  V30 19550 C 1847.96 -4.84582 -1.14388 0
M  V30 19551 C 1846.66 -7.1906 -0.185638 0
M  V30 19552 C 1848.69 -5.88631 -0.571647 0
M  V30 19553 C 1848.05 -7.04333 -0.097282 0
M  V30 19554 H 1844.15 -0.645496 -0.441428 0
M  V30 19555 H 1846.74 -1.87074 -0.539582 0
M  V30 19556 H 1844.91 -2.48721 -2.98316 0
M  V30 19557 H 1846.64 -2.73477 -2.98316 0
M  V30 19558 H 1843.39 -4.3771 -1.8085 0
M  V30 19559 H 1843.82 -6.73698 -0.667863 0
M  V30 19560 H 1848.46 -3.95427 -1.49658 0
M  V30 19561 H 1846.18 -8.07901 0.179294 0
M  V30 19562 H 1849.76 -5.79758 -0.487042 0
M  V30 19563 H 1848.64 -7.83469 0.338582 0
M  V30 19564 N 1846.15 0.735796 -1.39369 0
M  V30 19565 C 1847.08 1.85854 -1.32414 0
M  V30 19566 C 1848.06 1.61391 -0.197947 0
M  V30 19567 O 1849.24 1.84666 -0.378263 0
M  V30 19568 C 1846.37 3.2182 -1.05592 0
M  V30 19569 C 1845.41 3.65144 -2.20391 0
M  V30 19570 S 1846.25 3.74604 -3.82664 0
M  V30 19571 C 1847.4 5.13361 -3.58066 0
M  V30 19572 H 1847.64 1.9147 -2.27435 0
M  V30 19573 H 1845.17 0.900577 -1.25415 0
M  V30 19574 H 1847.13 4.00332 -0.908013 0
M  V30 19575 H 1845.79 3.13861 -0.122598 0
M  V30 19576 H 1844.98 4.63813 -1.97214 0
M  V30 19577 H 1844.58 2.93835 -2.3138 0
M  V30 19578 H 1846.88 5.9967 -3.15282 0
M  V30 19579 H 1847.82 5.41566 -4.56193 0
M  V30 19580 H 1848.23 4.83 -2.92184 0
M  V30 19581 N 1847.63 1.24532 0.965897 0
M  V30 19582 C 1848.59 1.04026 2.04233 0
M  V30 19583 C 1849.59 -0.00305855 1.608 0
M  V30 19584 O 1850.78 0.238077 1.72565 0
M  V30 19585 C 1847.91 0.577072 3.3598 0
M  V30 19586 H 1849.1 1.99569 2.23858 0
M  V30 19587 H 1846.66 1.0678 1.14139 0
M  V30 19588 H 1847.39 -0.381471 3.22049 0
M  V30 19589 H 1847.18 1.33012 3.6885 0
M  V30 19590 H 1848.67 0.45469 4.15117 0
M  V30 19591 N 1849.1 -1.16685 1.05936 0
M  V30 19592 C 1850.03 -2.23129 0.688153 0
M  V30 19593 C 1851.01 -1.67108 -0.31765 0
M  V30 19594 O 1852.2 -1.93233 -0.193578 0
M  V30 19595 C 1849.33 -3.47229 0.069991 0
M  V30 19596 C 1848.28 -4.16121 1.00137 0
M  V30 19597 C 1847.61 -5.34131 0.246699 0
M  V30 19598 C 1848.91 -4.67508 2.32882 0
M  V30 19599 H 1850.6 -2.54436 1.57806 0
M  V30 19600 H 1848.15 -1.22298 0.76021 0
M  V30 19601 H 1850.1 -4.20918 -0.201545 0
M  V30 19602 H 1848.83 -3.15212 -0.854909 0
M  V30 19603 H 1847.49 -3.44355 1.25759 0
M  V30 19604 H 1847.13 -4.98366 -0.681204 0
M  V30 19605 H 1846.83 -5.81163 0.867373 0
M  V30 19606 H 1848.36 -6.10598 -0.0173762 0
M  V30 19607 H 1849.77 -5.32795 2.11666 0
M  V30 19608 H 1848.17 -5.25147 2.90414 0
M  V30 19609 H 1849.24 -3.83912 2.96209 0
M  V30 19610 N 1850.58 -0.841432 -1.33258 0
M  V30 19611 C 1851.49 -0.279006 -2.32935 0
M  V30 19612 C 1852.51 0.596298 -1.63463 0
M  V30 19613 O 1853.68 0.499812 -1.951 0
M  V30 19614 C 1850.75 0.534514 -3.42555 0
M  V30 19615 C 1849.81 -0.365366 -4.27742 0
M  V30 19616 C 1849.04 0.409423 -5.32127 0
M  V30 19617 O 1849.27 1.64085 -5.4629 0
M  V30 19618 O 1848.2 -0.217904 -6.01505 0
M  V30 19619 H 1852.03 -1.10448 -2.82904 0
M  V30 19620 H 1849.61 -0.60402 -1.36645 0
M  V30 19621 H 1851.49 0.996723 -4.09443 0
M  V30 19622 H 1850.17 1.33701 -2.94798 0
M  V30 19623 H 1849.07 -0.875469 -3.63712 0
M  V30 19624 H 1850.41 -1.1327 -4.78989 0
M  V30 19625 N 1852.06 1.4581 -0.598108 0
M  V30 19626 C 1853.28 2.07188 -0.0938515 0
M  V30 19627 C 1853.71 1.44141 1.20851 0
M  V30 19628 O 1853.07 0.530689 1.73359 0
M  V30 19629 C 1853.12 3.60575 0.0423086 0
M  V30 19630 O 1852.22 3.97598 1.09496 0
M  V30 19631 H 1851.56 0.660324 -0.0697682 0
M  V30 19632 H 1854.09 1.87211 -0.825426 0
M  V30 19633 H 1854.1 4.07272 0.243566 0
M  V30 19634 H 1852.78 4.05852 -0.9087 0
M  V30 19635 H 1851.35 3.62587 0.87093 0
M  V30 19636 N 1853.54 0.336733 1.53961 0
M  V30 19637 C 1854.47 -0.515664 2.27735 0
M  V30 19638 C 1855.45 -1.10835 1.29033 0
M  V30 19639 O 1856.63 -1.13102 1.57866 0
M  V30 19640 C 1853.76 -1.67015 3.04505 0
M  V30 19641 C 1852.72 -1.20613 4.10654 0
M  V30 19642 C 1852.04 -2.44861 4.75339 0
M  V30 19643 C 1853.34 -0.311507 5.2137 0
M  V30 19644 H 1855.04 0.0997513 2.99234 0
M  V30 19645 H 1852.58 0.0494157 1.43915 0
M  V30 19646 H 1854.54 -2.27286 3.54851 0
M  V30 19647 H 1853.26 -2.31236 2.30646 0
M  V30 19648 H 1851.92 -0.62628 3.61211 0
M  V30 19649 H 1851.57 -3.07474 3.98081 0
M  V30 19650 H 1851.27 -2.14498 5.47051 0
M  V30 19651 H 1852.79 -3.0587 5.28466 0
M  V30 19652 H 1854.21 -0.820868 5.67393 0
M  V30 19653 H 1852.6 -0.100073 6.00017 0
M  V30 19654 H 1853.67 0.654181 4.80467 0
M  V30 19655 N 1855.02 -1.57465 0.0651956 0
M  V30 19656 C 1855.95 -2.09315 -0.933793 0
M  V30 19657 C 1856.96 -1.0239 -1.26571 0
M  V30 19658 O 1858.15 -1.29921 -1.22405 0
M  V30 19659 C 1855.25 -2.53302 -2.25147 0
M  V30 19660 C 1854.42 -3.83724 -2.09939 0
M  V30 19661 C 1853.48 -4.13874 -3.24953 0
M  V30 19662 O 1852.51 -4.83577 -3.00236 0
M  V30 19663 N 1853.71 -3.66896 -4.49853 0
M  V30 19664 H 1856.47 -2.95648 -0.491142 0
M  V30 19665 H 1854.04 -1.61449 -0.120698 0
M  V30 19666 H 1856.03 -2.70538 -3.00984 0
M  V30 19667 H 1854.6 -1.72142 -2.60933 0
M  V30 19668 H 1853.82 -3.75933 -1.18609 0
M  V30 19669 H 1855.11 -4.69106 -1.9702 0
M  V30 19670 H 1854.5 -3.10573 -4.72822 0
M  V30 19671 H 1853.06 -3.89344 -5.22738 0
M  V30 19672 N 1856.49 0.20831 -1.56217 0
M  V30 19673 C 1857.72 0.947271 -1.83941 0
M  V30 19674 C 1858.14 1.77403 -0.646029 0
M  V30 19675 O 1857.49 1.78385 0.385378 0
M  V30 19676 C 1857.54 1.85415 -3.10328 0
M  V30 19677 O 1857.27 1.06079 -4.25063 0
M  V30 19678 C 1858.77 2.7059 -3.51135 0
M  V30 19679 H 1855.99 0.277012 -0.611151 0
M  V30 19680 H 1858.53 0.219545 -2.03318 0
M  V30 19681 H 1856.69 2.53566 -2.92888 0
M  V30 19682 H 1857.1 1.67758 -4.96948 0
M  V30 19683 H 1858.57 3.29902 -4.42571 0
M  V30 19684 H 1859.05 3.43645 -2.73505 0
M  V30 19685 H 1859.66 2.07831 -3.71061 0
M  V30 19686 N 1857.97 1.50255 0.475528 0
M  V30 19687 C 1858.9 1.64942 1.59144 0
M  V30 19688 C 1859.92 0.531065 1.53895 0
M  V30 19689 O 1861.11 0.804084 1.59364 0
M  V30 19690 C 1858.21 1.61372 2.98014 0
M  V30 19691 C 1857.38 2.89167 3.28179 0
M  V30 19692 C 1856.44 2.783 4.46582 0
M  V30 19693 O 1855.46 3.52254 4.47108 0
M  V30 19694 N 1856.67 1.91557 5.47984 0
M  V30 19695 H 1859.43 2.61194 1.46962 0
M  V30 19696 H 1856.99 1.47663 0.663869 0
M  V30 19697 H 1858.98 1.51722 3.75183 0
M  V30 19698 H 1857.55 0.728744 3.03987 0
M  V30 19699 H 1856.77 3.12977 2.39664 0
M  V30 19700 H 1858.06 3.73838 3.45142 0
M  V30 19701 H 1857.46 1.30778 5.50376 0
M  V30 19702 H 1856.02 1.87813 6.24155 0
M  V30 19703 N 1859.45 -0.728395 1.39758 0
M  V30 19704 C 1860.4 -1.84245 1.39005 0
M  V30 19705 C 1861.37 -1.64226 0.248783 0
M  V30 19706 O 1862.55 -1.8554 0.444904 0
M  V30 19707 C 1859.69 -3.21828 1.24583 0
M  V30 19708 C 1858.8 -3.53507 2.48308 0
M  V30 19709 C 1857.94 -4.80526 2.26425 0
M  V30 19710 C 1856.98 -5.05069 3.45792 0
M  V30 19711 N 1856.12 -6.23295 3.23184 0
M  V30 19712 H 1860.96 -1.84224 2.34234 0
M  V30 19713 H 1858.49 -0.900094 1.16347 0
M  V30 19714 H 1860.45 -4.01257 1.14231 0
M  V30 19715 H 1859.08 -3.21111 0.329793 0
M  V30 19716 H 1858.13 -2.68729 2.69238 0
M  V30 19717 H 1859.44 -3.67558 3.37198 0
M  V30 19718 H 1858.6 -5.67949 2.13353 0
M  V30 19719 H 1857.34 -4.6866 1.3494 0
M  V30 19720 H 1856.34 -4.16106 3.59355 0
M  V30 19721 H 1857.57 -5.18815 4.38186 0
M  V30 19722 H 1855.51 -6.12704 2.3437 0
M  V30 19723 H 1855.43 -6.37964 4.05633 0
M  V30 19724 H 1856.7 -7.13539 3.13819 0
M  V30 19725 N 1860.93 -1.25042 -0.959279 0
M  V30 19726 C 1862.17 -1.09514 -1.70332 0
M  V30 19727 C 1862.5 0.364654 -1.91051 0
M  V30 19728 O 1861.76 1.2854 -1.47566 0
M  V30 19729 C 1862.06 -1.78948 -3.09374 0
M  V30 19730 C 1861.72 -3.28873 -3.08469 0
M  V30 19731 C 1860.38 -3.69774 -3.0793 0
M  V30 19732 C 1862.74 -4.24679 -3.02154 0
M  V30 19733 C 1860.06 -5.049 -2.98818 0
M  V30 19734 C 1862.42 -5.59824 -2.94585 0
M  V30 19735 C 1861.08 -6.00059 -2.92378 0
M  V30 19736 H 1860.35 -0.400741 -0.623288 0
M  V30 19737 H 1863 -1.55255 -1.12107 0
M  V30 19738 H 1861.3 -1.25625 -3.71114 0
M  V30 19739 H 1863 -1.64391 -3.65755 0
M  V30 19740 H 1859.59 -2.96327 -3.09659 0
M  V30 19741 H 1863.77 -3.94074 -3.01694 0
M  V30 19742 H 1859.03 -5.3526 -2.95476 0
M  V30 19743 H 1863.2 -6.33758 -2.88659 0
M  V30 19744 H 1860.83 -7.04725 -2.85074 0
M  V30 19745 N 1862.41 1.16121 -1.06553 0
M  V30 19746 C 1863.63 1.90611 -0.804673 0
M  V30 19747 C 1864.05 1.77576 0.641255 0
M  V30 19748 O 1863.41 1.12218 1.43921 0
M  V30 19749 C 1863.46 3.41231 -1.19348 0
M  V30 19750 O 1863.18 3.53879 -2.58266 0
M  V30 19751 C 1864.68 4.32764 -0.960738 0
M  V30 19752 H 1861.9 0.604358 -0.291534 0
M  V30 19753 H 1864.44 1.47174 -1.41986 0
M  V30 19754 H 1862.6 3.82361 -0.622772 0
M  V30 19755 H 1863.01 4.47298 -2.73907 0
M  V30 19756 H 1864.49 5.36898 -1.28238 0
M  V30 19757 H 1864.96 4.39078 0.103389 0
M  V30 19758 H 1865.57 3.97365 -1.51595 0
M  V30 19759 N 1863.88 0.848487 1.3281 0
M  V30 19760 C 1865.11 0.462643 2.01661 0
M  V30 19761 C 1865.53 -0.938906 1.63799 0
M  V30 19762 O 1864.88 -1.61171 0.85617 0
M  V30 19763 C 1864.94 0.584905 3.56737 0
M  V30 19764 O 1864.66 1.93124 3.93236 0
M  V30 19765 C 1866.16 0.197265 4.42861 0
M  V30 19766 H 1863.38 0.18254 0.645694 0
M  V30 19767 H 1865.92 1.14372 1.69527 0
M  V30 19768 H 1864.08 -0.0483701 3.8737 0
M  V30 19769 H 1864.49 1.92361 4.87952 0
M  V30 19770 H 1865.96 0.333833 5.5099 0
M  V30 19771 H 1866.44 -0.861732 4.30663 0
M  V30 19772 H 1867.05 0.805363 4.17605 0
M  V30 19773 N 1865.36 -1.4549 0.605832 0
M  V30 19774 C 1866.31 -2.30518 -0.114038 0
M  V30 19775 C 1867.28 -1.42 -0.861703 0
M  V30 19776 O 1868.46 -1.7093 -0.847788 0
M  V30 19777 C 1865.6 -3.26876 -1.10661 0
M  V30 19778 C 1864.72 -4.30497 -0.359999 0
M  V30 19779 C 1863.85 -5.13965 -1.34214 0
M  V30 19780 C 1862.89 -6.09315 -0.58324 0
M  V30 19781 N 1862.03 -6.85569 -1.51457 0
M  V30 19782 H 1866.87 -2.91542 0.617043 0
M  V30 19783 H 1864.41 -1.43664 0.31609 0
M  V30 19784 H 1866.36 -3.81207 -1.69519 0
M  V30 19785 H 1864.99 -2.6761 -1.80512 0
M  V30 19786 H 1864.05 -3.78841 0.344058 0
M  V30 19787 H 1865.36 -4.98259 0.232208 0
M  V30 19788 H 1864.51 -5.72688 -2.00283 0
M  V30 19789 H 1863.25 -4.46218 -1.96828 0
M  V30 19790 H 1862.26 -5.49725 0.0910986 0
M  V30 19791 H 1863.48 -6.79089 0.0378268 0
M  V30 19792 H 1861.43 -6.20512 -2.12839 0
M  V30 19793 H 1861.34 -7.49677 -0.97576 0
M  V30 19794 H 1862.61 -7.48834 -2.1649 0
M  V30 19795 N 1866.84 -0.344893 -1.5378 0
M  V30 19796 C 1868.07 0.255228 -2.05824 0
M  V30 19797 C 1868.49 1.43329 -1.21812 0
M  V30 19798 O 1867.85 1.79807 -0.232191 0
M  V30 19799 C 1867.9 0.646906 -3.5475 0
M  V30 19800 O 1867 1.74677 -3.7358 0
M  V30 19801 H 1866.34 0.0420518 -0.662667 0
M  V30 19802 H 1868.87 -0.499498 -1.98409 0
M  V30 19803 H 1868.88 0.923686 -3.97407 0
M  V30 19804 H 1867.56 -0.214619 -4.15346 0
M  V30 19805 H 1866.13 1.46715 -3.42825 0
M  V30 19806 N 1868.32 1.57428 -0.0735454 0
M  V30 19807 C 1869.6 1.84962 0.636265 0
M  V30 19808 C 1869.98 0.966341 1.87683 0
M  V30 19809 O 1869.32 0.0330837 2.28476 0
M  V30 19810 C 1869.53 3.35184 0.972251 0
M  V30 19811 C 1870.88 4.02735 1.34499 0
M  V30 19812 O 1871.91 3.3994 1.06393 0
M  V30 19813 O 1870.76 5.13495 1.87043 0
M  V30 19814 H 1867.86 0.764169 0.316187 0
M  V30 19815 H 1870.4 1.69377 -0.104609 0
M  V30 19816 H 1869.18 3.91194 0.0912319 0
M  V30 19817 H 1868.8 3.56038 1.76983 0
M  V30 19818 N 1869.8 -0.200022 1.56326 0
M  V30 19819 C 1871.04 -0.922539 1.80602 0
M  V30 19820 C 1871.38 -1.83113 0.646781 0
M  V30 19821 O 1870.65 -1.91271 -0.352928 0
M  V30 19822 C 1870.93 -1.74301 3.15105 0
M  V30 19823 C 1870.79 -0.859471 4.41512 0
M  V30 19824 C 1872.11 -2.71658 3.46251 0
M  V30 19825 H 1869.22 -0.333949 0.656999 0
M  V30 19826 H 1871.87 -0.190177 1.89046 0
M  V30 19827 H 1870.02 -2.36739 3.08037 0
M  V30 19828 H 1871.69 -0.250183 4.60621 0
M  V30 19829 H 1869.93 -0.165935 4.33483 0
M  V30 19830 H 1870.6 -1.46842 5.3211 0
M  V30 19831 H 1873.08 -2.19353 3.53586 0
M  V30 19832 H 1871.95 -3.26152 4.41493 0
M  V30 19833 H 1872.22 -3.50462 2.69497 0
M  V30 19834 N 1871.27 -1.50505 -0.467553 0
M  V30 19835 C 1872.52 -1.62878 -1.21829 0
M  V30 19836 C 1872.88 -0.326629 -1.89607 0
M  V30 19837 O 1872.17 0.675689 -1.7929 0
M  V30 19838 C 1872.36 -2.74913 -2.28381 0
M  V30 19839 C 1872.19 -4.15897 -1.71056 0
M  V30 19840 C 1870.96 -4.82251 -1.50873 0
M  V30 19841 C 1873.16 -5.0002 -1.20354 0
M  V30 19842 N 1871.14 -6.0744 -0.888281 0
M  V30 19843 C 1872.51 -6.15961 -0.70653 0
M  V30 19844 C 1874.57 -4.85768 -1.09242 0
M  V30 19845 C 1873.27 -7.19217 -0.109362 0
M  V30 19846 C 1875.3 -5.89204 -0.509182 0
M  V30 19847 C 1874.66 -7.04396 -0.0225726 0
M  V30 19848 H 1870.76 -0.650141 -0.434557 0
M  V30 19849 H 1873.34 -1.87636 -0.51971 0
M  V30 19850 H 1871.51 -2.51871 -2.95661 0
M  V30 19851 H 1873.24 -2.76626 -2.95399 0
M  V30 19852 H 1870 -4.39604 -1.76198 0
M  V30 19853 H 1870.42 -6.74368 -0.596371 0
M  V30 19854 H 1875.07 -3.96992 -1.45455 0
M  V30 19855 H 1872.78 -8.07665 0.264973 0
M  V30 19856 H 1876.37 -5.80242 -0.425524 0
M  V30 19857 H 1875.25 -7.83066 0.421661 0
M  V30 19858 N 1872.75 0.720973 -1.40142 0
M  V30 19859 C 1873.98 1.51519 -1.41622 0
M  V30 19860 C 1874.4 1.88093 -0.0162669 0
M  V30 19861 O 1873.76 1.52895 0.974307 0
M  V30 19862 C 1873.81 2.77041 -2.30826 0
M  V30 19863 O 1872.91 3.73532 -1.74779 0
M  V30 19864 H 1872.25 0.457034 -0.481681 0
M  V30 19865 H 1874.78 0.88837 -1.84307 0
M  V30 19866 H 1874.79 3.25628 -2.45826 0
M  V30 19867 H 1873.47 2.49755 -3.32558 0
M  V30 19868 H 1872.05 3.32356 -1.69097 0
M  V30 19869 N 1874.23 1.25549 0.952634 0
M  V30 19870 C 1875.48 1.10416 1.69748 0
M  V30 19871 C 1875.81 -0.354517 1.91242 0
M  V30 19872 O 1875.06 -1.27756 1.48246 0
M  V30 19873 C 1875.36 1.80586 3.08421 0
M  V30 19874 C 1875.03 3.30504 3.06721 0
M  V30 19875 C 1873.69 3.71402 3.05965 0
M  V30 19876 C 1876.04 4.26275 2.99898 0
M  V30 19877 C 1873.37 5.06478 2.96137 0
M  V30 19878 C 1875.72 5.61378 2.91612 0
M  V30 19879 C 1874.38 6.01601 2.89192 0
M  V30 19880 H 1873.65 0.404041 0.621154 0
M  V30 19881 H 1876.3 1.55848 1.11283 0
M  V30 19882 H 1874.61 1.27592 3.70442 0
M  V30 19883 H 1876.3 1.66328 3.64878 0
M  V30 19884 H 1872.89 2.97965 3.08083 0
M  V30 19885 H 1877.08 3.95669 2.996 0
M  V30 19886 H 1872.33 5.3682 2.92633 0
M  V30 19887 H 1876.51 6.3528 2.85294 0
M  V30 19888 H 1874.13 7.06227 2.81333 0
M  V30 19889 N 1875.71 -1.15554 1.07168 0
M  V30 19890 C 1876.96 -1.85928 0.792151 0
M  V30 19891 C 1877.28 -1.82621 -0.68372 0
M  V30 19892 O 1876.55 -1.26585 -1.49509 0
M  V30 19893 H 1875.13 -0.688393 0.290043 0
M  V30 19894 H 1877.79 -1.40089 1.35503 0
M  V30 19895 H 1876.89 -2.91119 1.125 0
M  V30 19896 N 1877.19 -0.855519 -1.32358 0
M  V30 19897 C 1878.43 -0.460002 -1.97514 0
M  V30 19898 C 1878.77 0.982052 -1.67539 0
M  V30 19899 O 1878.04 1.68925 -0.964091 0
M  V30 19900 C 1878.32 -0.70064 -3.53218 0
M  V30 19901 C 1878.18 -2.19118 -3.9282 0
M  V30 19902 C 1879.5 -0.157597 -4.39818 0
M  V30 19903 H 1876.62 -0.168606 -0.717455 0
M  V30 19904 H 1879.26 -1.0741 -1.56726 0
M  V30 19905 H 1877.41 -0.177937 -3.88092 0
M  V30 19906 H 1879.08 -2.78002 -3.6812 0
M  V30 19907 H 1877.32 -2.66934 -3.41948 0
M  V30 19908 H 1877.99 -2.31024 -5.0133 0
M  V30 19909 H 1880.47 -0.604597 -4.11684 0
M  V30 19910 H 1879.35 -0.355532 -5.47747 0
M  V30 19911 H 1879.61 0.939679 -4.31998 0
M  V30 19912 N 1878.67 1.45167 -0.61354 0
M  V30 19913 C 1879.6 2.3333 0.089004 0
M  V30 19914 C 1880.58 1.47181 0.85275 0
M  V30 19915 O 1881.76 1.7594 0.822122 0
M  V30 19916 C 1878.89 3.29982 1.08301 0
M  V30 19917 C 1877.85 4.25813 0.432084 0
M  V30 19918 C 1877.17 5.122 1.53476 0
M  V30 19919 C 1878.47 5.18233 -0.65052 0
M  V30 19920 H 1880.17 2.92322 -0.647165 0
M  V30 19921 H 1877.71 1.40565 -0.312667 0
M  V30 19922 H 1879.66 3.90533 1.5831 0
M  V30 19923 H 1878.39 2.69162 1.84985 0
M  V30 19924 H 1877.05 3.6657 -0.0471927 0
M  V30 19925 H 1876.7 4.47744 2.29203 0
M  V30 19926 H 1876.4 5.77122 1.10469 0
M  V30 19927 H 1877.92 5.7562 2.037 0
M  V30 19928 H 1879.33 5.72821 -0.234262 0
M  V30 19929 H 1877.73 5.91664 -1.00268 0
M  V30 19930 H 1878.8 4.60304 -1.52475 0
M  V30 19931 N 1880.14 0.353044 1.53595 0
M  V30 19932 C 1881.07 -0.491481 2.28269 0
M  V30 19933 C 1882.05 -1.0946 1.30201 0
M  V30 19934 O 1883.24 -1.11421 1.59056 0
M  V30 19935 C 1880.37 -1.63776 3.06259 0
M  V30 19936 C 1879.32 -1.16251 4.1191 0
M  V30 19937 C 1878.65 -2.39805 4.7791 0
M  V30 19938 C 1879.95 -0.256191 5.21671 0
M  V30 19939 H 1881.64 0.131483 2.99111 0
M  V30 19940 H 1879.19 0.0646771 1.43855 0
M  V30 19941 H 1881.14 -2.2351 3.57241 0
M  V30 19942 H 1879.87 -2.28777 2.33085 0
M  V30 19943 H 1878.53 -0.587934 3.61855 0
M  V30 19944 H 1878.17 -3.03234 4.0132 0
M  V30 19945 H 1877.87 -2.08684 5.49295 0
M  V30 19946 H 1879.4 -3.00248 5.3168 0
M  V30 19947 H 1880.81 -0.760642 5.68232 0
M  V30 19948 H 1879.21 -0.0364273 6.00089 0
M  V30 19949 H 1880.28 0.705105 4.79746 0
M  V30 19950 N 1881.62 -1.57387 0.0818932 0
M  V30 19951 C 1882.87 -1.94964 -0.579705 0
M  V30 19952 C 1883.22 -0.962306 -1.66606 0
M  V30 19953 O 1882.52 0.0138288 -1.91595 0
M  V30 19954 C 1882.71 -3.36939 -1.19193 0
M  V30 19955 C 1882.54 -4.49392 -0.166414 0
M  V30 19956 C 1881.31 -5.04669 0.252475 0
M  V30 19957 C 1883.51 -5.10785 0.600288 0
M  V30 19958 N 1881.49 -6.0067 1.26764 0
M  V30 19959 C 1882.86 -6.02379 1.46765 0
M  V30 19960 C 1884.91 -4.9357 0.655252 0
M  V30 19961 C 1883.62 -6.78605 2.38511 0
M  V30 19962 C 1885.64 -5.70447 1.56026 0
M  V30 19963 C 1885.01 -6.61697 2.41528 0
M  V30 19964 H 1881.1 -0.760321 -0.182854 0
M  V30 19965 H 1883.69 -1.9403 0.161389 0
M  V30 19966 H 1881.86 -3.38591 -1.9029 0
M  V30 19967 H 1883.59 -3.61727 -1.81482 0
M  V30 19968 H 1880.35 -4.73414 -0.132657 0
M  V30 19969 H 1880.77 -6.5337 1.77303 0
M  V30 19970 H 1885.41 -4.22799 0.00839717 0
M  V30 19971 H 1883.13 -7.48646 3.04228 0
M  V30 19972 H 1886.72 -5.59144 1.60776 0
M  V30 19973 H 1885.6 -7.20145 3.1042 0
M  V30 19974 N 1883.1 0.191729 -1.56429 0
M  V30 19975 C 1884.01 1.25798 -1.9802 0
M  V30 19976 C 1885.03 1.49612 -0.888379 0
M  V30 19977 O 1886.2 1.62161 -1.1944 0
M  V30 19978 C 1883.27 2.58158 -2.3142 0
M  V30 19979 C 1882.33 2.42386 -3.54327 0
M  V30 19980 C 1881.56 3.68434 -3.86124 0
M  V30 19981 O 1881.78 4.72747 -3.19165 0
M  V30 19982 O 1880.72 3.63762 -4.79542 0
M  V30 19983 H 1884.54 0.935013 -2.88948 0
M  V30 19984 H 1882.13 0.396996 -1.44029 0
M  V30 19985 H 1884.01 3.36274 -2.53964 0
M  V30 19986 H 1882.69 2.90075 -1.43659 0
M  V30 19987 H 1881.59 1.62369 -3.37027 0
M  V30 19988 H 1882.93 2.154 -4.42565 0
M  V30 19989 N 1884.58 1.50751 0.459565 0
M  V30 19990 C 1885.51 1.73389 1.56392 0
M  V30 19991 C 1886.49 0.583101 1.59793 0
M  V30 19992 O 1887.67 0.823474 1.75876 0
M  V30 19993 C 1884.8 1.83861 2.94639 0
M  V30 19994 C 1883.76 2.9914 3.06103 0
M  V30 19995 C 1883.08 2.94768 4.46112 0
M  V30 19996 C 1884.38 4.39471 2.82246 0
M  V30 19997 H 1886.08 2.65856 1.37699 0
M  V30 19998 H 1883.62 1.27933 0.661001 0
M  V30 19999 H 1885.58 1.98283 3.71836 0
M  V30 20000 H 1884.3 0.880254 3.14514 0
M  V30 20001 H 1882.96 2.84388 2.31342 0
M  V30 20002 H 1882.61 1.96755 4.62922 0
M  V30 20003 H 1882.31 3.72166 4.54716 0
M  V30 20004 H 1883.83 3.11254 5.25313 0
M  V30 20005 H 1885.25 4.54689 3.49186 0
M  V30 20006 H 1883.64 5.18406 3.02283 0
M  V30 20007 H 1884.71 4.51043 1.78012 0
M  V30 20008 N 1886.06 -0.713531 1.40522 0
M  V30 20009 C 1886.99 -1.83724 1.35354 0
M  V30 20010 C 1887.97 -1.61055 0.223598 0
M  V30 20011 O 1889.15 -1.84041 0.407593 0
M  V30 20012 C 1886.28 -3.20099 1.10699 0
M  V30 20013 C 1885.32 -3.61592 2.26172 0
M  V30 20014 S 1886.16 -3.68469 3.88576 0
M  V30 20015 C 1887.31 -5.076 3.66188 0
M  V30 20016 H 1887.55 -1.87828 2.30452 0
M  V30 20017 H 1885.08 -0.88051 1.26832 0
M  V30 20018 H 1887.04 -3.98836 0.971588 0
M  V30 20019 H 1885.7 -3.13626 0.172515 0
M  V30 20020 H 1884.89 -4.60617 2.04568 0
M  V30 20021 H 1884.49 -2.90117 2.36026 0
M  V30 20022 H 1886.78 -5.94578 3.24782 0
M  V30 20023 H 1887.73 -5.3424 4.64751 0
M  V30 20024 H 1888.14 -4.7829 2.99831 0
M  V30 20025 N 1887.53 -1.26053 -0.945962 0
M  V30 20026 C 1888.76 -1.14079 -1.72608 0
M  V30 20027 C 1889.18 0.304506 -1.86328 0
M  V30 20028 O 1888.53 1.20885 -1.36723 0
M  V30 20029 C 1888.58 -1.79938 -3.13535 0
M  V30 20030 O 1888.31 -3.18819 -3.00476 0
M  V30 20031 C 1889.81 -1.73856 -4.07785 0
M  V30 20032 H 1887.03 -0.397486 -0.540598 0
M  V30 20033 H 1889.57 -1.66582 -1.1862 0
M  V30 20034 H 1887.73 -1.31385 -3.6444 0
M  V30 20035 H 1888.14 -3.51337 -3.89439 0
M  V30 20036 H 1889.61 -2.24584 -5.04248 0
M  V30 20037 H 1890.09 -0.704095 -4.33519 0
M  V30 20038 H 1890.7 -2.21939 -3.62799 0
M  V30 20039 N 1889.01 1.14984 -1.07779 0
M  V30 20040 C 1890.43 1.3786 -0.804164 0
M  V30 20041 C 1890.63 1.92682 0.589572 0
M  V30 20042 O 1889.68 2.13537 1.34752 0
M  V30 20043 C 1891 2.34559 -1.88156 0
M  V30 20044 C 1892.54 2.48212 -1.90683 0
M  V30 20045 C 1893.02 3.48205 -2.97519 0
M  V30 20046 N 1894.51 3.55743 -2.96649 0
M  V30 20047 C 1895.25 4.32946 -3.75959 0
M  V30 20048 N 1894.74 5.13446 -4.65129 0
M  V30 20049 N 1896.53 4.28079 -3.64287 0
M  V30 20050 H 1888.69 0.777434 -1.97661 0
M  V30 20051 H 1890.95 0.404419 -0.857409 0
M  V30 20052 H 1890.65 2.014 -2.88324 0
M  V30 20053 H 1890.53 3.34389 -1.74539 0
M  V30 20054 H 1892.92 2.80665 -0.911642 0
M  V30 20055 H 1893 1.48365 -2.08378 0
M  V30 20056 H 1892.64 3.16485 -3.9724 0
M  V30 20057 H 1892.57 4.47817 -2.77069 0
M  V30 20058 H 1895.06 2.98291 -2.32014 0
M  V30 20059 H 1895.37 5.69612 -5.22267 0
M  V30 20060 H 1893.72 5.12737 -4.69176 0
M  V30 20061 H 1896.91 3.64257 -2.93997 0
M  V30 20062 H 1897.08 4.87996 -4.26337 0
M  V30 20063 N 1890.49 0.862526 1.31902 0
M  V30 20064 C 1891.74 0.468847 1.96586 0
M  V30 20065 C 1892.06 -0.980535 1.68554 0
M  V30 20066 O 1891.33 -1.68635 0.996952 0
M  V30 20067 H 1889.91 0.170387 0.727308 0
M  V30 20068 H 1892.57 1.10068 1.60845 0
M  V30 20069 H 1891.67 0.620415 3.05871 0
M  V30 20070 N 1891.97 -1.4484 0.62123 0
M  V30 20071 C 1892.93 -2.29061 -0.0797989 0
M  V30 20072 C 1893.93 -1.40508 -0.781932 0
M  V30 20073 O 1895.12 -1.62485 -0.628023 0
M  V30 20074 C 1892.25 -3.21857 -1.12342 0
M  V30 20075 H 1893.45 -2.92528 0.66084 0
M  V30 20076 H 1891 -1.51588 0.3809 0
M  V30 20077 H 1891.73 -2.63218 -1.89437 0
M  V30 20078 H 1891.52 -3.87103 -0.624003 0
M  V30 20079 H 1893.01 -3.8515 -1.61398 0
M  V30 20080 N 1893.45 -0.361184 -1.53405 0
M  V30 20081 C 1894.86 0.118972 -1.86321 0
M  V30 20082 C 1895.21 1.48531 -1.28191 0
M  V30 20083 O 1894.33 2.07851 -0.602253 0
M  V30 20084 C 1894.93 0.222658 -3.38068 0
M  V30 20085 C 1893.49 0.647065 -3.70796 0
M  V30 20086 C 1892.63 -0.208424 -2.76516 0
M  V30 20087 H 1895.59 -0.580142 -1.47716 0
M  V30 20088 H 1895.61 1.04702 -3.65811 0
M  V30 20089 H 1895.12 -0.771922 -3.80346 0
M  V30 20090 H 1893.22 1.65003 -3.34073 0
M  V30 20091 H 1893.33 0.424724 -4.77214 0
M  V30 20092 H 1891.7 0.322011 -2.52656 0
M  V30 20093 H 1892.48 -1.20046 -3.21627 0
M  V30 20094 N 1894.92 1.57341 -0.0902386 0
M  V30 20095 C 1896.34 1.8145 0.439638 0
M  V30 20096 C 1896.69 1.00551 1.68475 0
M  V30 20097 O 1895.81 0.233442 2.15137 0
M  V30 20098 C 1896.41 3.29113 0.804384 0
M  V30 20099 C 1894.97 3.54003 1.27903 0
M  V30 20100 C 1894.11 2.7595 0.27328 0
M  V30 20101 H 1897.06 1.55527 -0.315738 0
M  V30 20102 H 1897.08 3.4217 1.66432 0
M  V30 20103 H 1896.6 3.87966 -0.102017 0
M  V30 20104 H 1894.7 3.00475 2.20331 0
M  V30 20105 H 1894.81 4.62662 1.24422 0
M  V30 20106 H 1893.17 2.43271 0.754419 0
M  V30 20107 H 1893.96 3.3755 -0.625715 0
M  V30 20108 N 1896.4 -0.183431 1.56529 0
M  V30 20109 C 1897.63 -0.916557 1.85156 0
M  V30 20110 C 1898.04 -1.76861 0.672063 0
M  V30 20111 O 1897.38 -1.7997 -0.3683 0
M  V30 20112 C 1897.45 -1.85342 3.0804 0
M  V30 20113 C 1897.11 -1.18216 4.41445 0
M  V30 20114 C 1898.11 -0.553445 5.16946 0
M  V30 20115 C 1895.79 -1.18253 4.88182 0
M  V30 20116 C 1897.79 0.0659422 6.37366 0
M  V30 20117 C 1895.47 -0.559316 6.08535 0
M  V30 20118 C 1896.47 0.0638301 6.8297 0
M  V30 20119 O 1896.16 0.677251 8.01042 0
M  V30 20120 H 1895.89 -0.272343 0.618713 0
M  V30 20121 H 1898.44 -0.192085 2.045 0
M  V30 20122 H 1896.67 -2.61789 2.84611 0
M  V30 20123 H 1898.36 -2.45533 3.23215 0
M  V30 20124 H 1899.13 -0.545219 4.81926 0
M  V30 20125 H 1895.01 -1.65696 4.30193 0
M  V30 20126 H 1898.55 0.552935 6.95405 0
M  V30 20127 H 1894.45 -0.565084 6.43022 0
M  V30 20128 H 1895.22 0.575305 8.16476 0
M  V30 20129 N 1897.88 -1.50992 -0.451564 0
M  V30 20130 C 1899.29 -1.55592 -1.03189 0
M  V30 20131 C 1899.64 -0.370923 -1.92662 0
M  V30 20132 O 1898.77 0.513972 -2.10208 0
M  V30 20133 C 1899.36 -2.81975 -1.87818 0
M  V30 20134 C 1897.92 -2.89192 -2.40925 0
M  V30 20135 C 1897.07 -2.50103 -1.19766 0
M  V30 20136 H 1900.02 -1.56974 -0.233388 0
M  V30 20137 H 1900.04 -2.64934 -2.73112 0
M  V30 20138 H 1899.55 -3.68203 -1.22672 0
M  V30 20139 H 1897.65 -2.07362 -3.09567 0
M  V30 20140 H 1897.77 -3.92529 -2.74696 0
M  V30 20141 H 1896.13 -2.02978 -1.53857 0
M  V30 20142 H 1896.91 -3.3866 -0.562517 0
M  V30 20143 N 1899.36 0.706069 -1.40899 0
M  V30 20144 C 1900.64 1.45984 -1.30185 0
M  V30 20145 C 1901.02 2.10965 0.0754423 0
M  V30 20146 O 1900.36 2.00883 1.08896 0
M  V30 20147 C 1900.57 2.48782 -2.44762 0
M  V30 20148 C 1901.92 3.14339 -2.85441 0
M  V30 20149 O 1902.95 2.59104 -2.44425 0
M  V30 20150 O 1901.8 4.14354 -3.56333 0
M  V30 20151 H 1898.9 0.649628 -0.511774 0
M  V30 20152 H 1901.44 0.737436 -1.5284 0
M  V30 20153 H 1900.22 1.99346 -3.36715 0
M  V30 20154 H 1899.84 3.28545 -2.23929 0
M  V30 20155 N 1900.84 1.26553 0.939264 0
M  V30 20156 C 1902.08 1.12376 1.68818 0
M  V30 20157 C 1902.42 -0.331784 1.91345 0
M  V30 20158 O 1901.69 -1.24359 1.4955 0
M  V30 20159 C 1901.97 1.89541 3.0618 0
M  V30 20160 C 1901.83 3.43014 2.90966 0
M  V30 20161 C 1903.15 1.69074 4.06327 0
M  V30 20162 H 1900.26 0.409616 0.612686 0
M  V30 20163 H 1902.91 1.55571 1.09076 0
M  V30 20164 H 1901.06 1.5283 3.57177 0
M  V30 20165 H 1902.73 3.89489 2.47176 0
M  V30 20166 H 1900.97 3.69942 2.26551 0
M  V30 20167 H 1901.64 3.92236 3.88401 0
M  V30 20168 H 1904.12 2.01061 3.64299 0
M  V30 20169 H 1902.99 2.25478 5.00451 0
M  V30 20170 H 1903.26 0.635787 4.37504 0
M  V30 20171 N 1902.31 -1.14411 1.08387 0
M  V30 20172 C 1903.26 -2.21558 0.708165 0
M  V30 20173 C 1904.26 -1.66969 -0.285982 0
M  V30 20174 O 1905.46 -1.79386 -0.14857 0
M  V30 20175 H 1901.84 -0.721799 0.210974 0
M  V30 20176 H 1903.81 -2.50518 1.62122 0
M  V30 20177 C 1902.56 -3.47444 0.13337 0
M  V30 20178 H 1901.88 -3.89779 0.889513 0
M  V30 20179 H 1903.32 -4.23901 -0.0917154 0
M  V30 20180 C 1901.78 -3.1743 -1.1287 0
M  V30 20181 O 1902.31 -3.35205 -2.2136 0
M  V30 20182 N 1900.52 -2.71391 -1.03901 0
M  V30 20183 H 1900.06 -2.57127 -0.156094 0
M  V30 20184 H 1900.02 -2.51684 -1.88422 0
M  V30 20185 N 1903.79 -0.869509 -1.31443 0
M  V30 20186 C 1905.02 -0.494667 -2.009 0
M  V30 20187 C 1905.44 0.912728 -1.65272 0
M  V30 20188 O 1904.79 1.59788 -0.881702 0
M  V30 20189 C 1904.84 -0.641585 -3.55761 0
M  V30 20190 O 1904.56 -1.99356 -3.90114 0
M  V30 20191 C 1906.07 -0.267695 -4.42491 0
M  V30 20192 H 1903.29 -0.192789 -0.642708 0
M  V30 20193 H 1905.83 -1.17055 -1.67686 0
M  V30 20194 H 1903.98 -0.0132632 -3.87398 0
M  V30 20195 H 1904.4 -2.00099 -4.8483 0
M  V30 20196 H 1905.87 -0.421448 -5.50389 0
M  V30 20197 H 1906.35 0.793108 -4.3198 0
M  V30 20198 H 1906.96 -0.871698 -4.16271 0
M  V30 20199 N 1905.27 1.44508 -0.628902 0
M  V30 20200 C 1906.52 2.02066 -0.132502 0
M  V30 20201 C 1906.85 1.49446 1.24483 0
M  V30 20202 O 1906.1 0.667881 1.83951 0
M  V30 20203 C 1906.4 3.57339 -0.0660437 0
M  V30 20204 C 1906.07 4.29203 -1.38186 0
M  V30 20205 C 1904.73 4.48552 -1.74225 0
M  V30 20206 C 1907.08 4.70108 -2.25051 0
M  V30 20207 C 1904.41 5.06066 -2.96839 0
M  V30 20208 C 1906.76 5.2898 -3.46934 0
M  V30 20209 C 1905.42 5.46549 -3.83198 0
M  V30 20210 H 1904.69 0.739412 -0.048486 0
M  V30 20211 H 1907.34 1.73302 -0.814773 0
M  V30 20212 H 1905.65 3.85504 0.699588 0
M  V30 20213 H 1907.34 3.99602 0.334526 0
M  V30 20214 H 1903.93 4.14471 -1.09141 0
M  V30 20215 H 1908.12 4.54874 -1.98503 0
M  V30 20216 H 1903.37 5.17856 -3.25016 0
M  V30 20217 H 1907.55 5.59626 -4.14478 0
M  V30 20218 H 1905.17 5.90881 -4.78292 0
M  V30 20219 N 1906.75 0.369315 1.53212 0
M  V30 20220 C 1908.03 -0.275781 1.93646 0
M  V30 20221 C 1908.41 -1.66075 1.30316 0
M  V30 20222 O 1907.75 -2.23746 0.463658 0
M  V30 20223 C 1907.96 -0.322239 3.47509 0
M  V30 20224 C 1909.31 -0.560798 4.2088 0
M  V30 20225 O 1910.34 -0.403291 3.5391 0
M  V30 20226 O 1909.2 -0.86778 5.39566 0
M  V30 20227 H 1906.29 -0.166296 0.810108 0
M  V30 20228 H 1908.84 0.42237 1.6436 0
M  V30 20229 H 1907.61 0.648648 3.85886 0
M  V30 20230 H 1907.23 -1.06613 3.8304 0
M  V30 20231 N 1908.23 -1.57291 0.0985816 0
M  V30 20232 C 1909.48 -1.93654 -0.564011 0
M  V30 20233 C 1909.79 -0.982723 -1.69121 0
M  V30 20234 O 1911 -1.2402 -2.41519 0
M  V30 20235 C 1909.45 -3.441 -1.05466 0
M  V30 20236 C 1909.06 -4.47979 0.0429743 0
M  V30 20237 C 1910.8 -3.89418 -1.68979 0
M  V30 20238 C 1908.71 -5.89583 -0.463226 0
M  V30 20239 H 1907.64 -0.722858 -0.214457 0
M  V30 20240 H 1910.29 -1.82662 0.175145 0
M  V30 20241 H 1908.67 -3.50256 -1.84761 0
M  V30 20242 H 1909.85 -4.53471 0.818587 0
M  V30 20243 H 1908.16 -4.12291 0.583501 0
M  V30 20244 H 1910.76 -4.92615 -2.0793 0
M  V30 20245 H 1911.1 -3.28258 -2.56032 0
M  V30 20246 H 1911.64 -3.85978 -0.962602 0
M  V30 20247 H 1908.37 -6.54451 0.370767 0
M  V30 20248 H 1907.89 -5.87555 -1.20577 0
M  V30 20249 H 1909.57 -6.40266 -0.931072 0
M  V30 20250 N 1909.71 0.175127 -1.56624 0
M  V30 20251 C 1910.93 0.908041 -1.85909 0
M  V30 20252 C 1911.35 1.75993 -0.683514 0
M  V30 20253 O 1910.71 1.79162 0.347453 0
M  V30 20254 C 1910.76 1.78791 -3.14191 0
M  V30 20255 O 1910.48 0.970386 -4.27218 0
M  V30 20256 C 1911.98 2.63081 -3.56796 0
M  V30 20257 H 1909.2 0.263986 -0.616889 0
M  V30 20258 H 1911.74 0.176369 -2.03738 0
M  V30 20259 H 1909.9 2.47296 -2.982 0
M  V30 20260 H 1910.31 1.57179 -5.00395 0
M  V30 20261 H 1911.79 3.2044 -4.49469 0
M  V30 20262 H 1912.26 3.37766 -2.80732 0
M  V30 20263 H 1912.87 1.99914 -3.75386 0
M  V30 20264 N 1911.18 1.5123 0.44355 0
M  V30 20265 C 1912.43 1.63833 1.19527 0
M  V30 20266 C 1912.76 0.350544 1.9101 0
M  V30 20267 O 1912.04 -0.649546 1.83333 0
M  V30 20268 C 1912.32 2.83747 2.21719 0
M  V30 20269 C 1912.17 4.22484 1.5436 0
M  V30 20270 C 1913.49 2.99184 3.22765 0
M  V30 20271 H 1910.61 0.596256 0.433184 0
M  V30 20272 H 1913.25 1.83697 0.485321 0
M  V30 20273 H 1911.4 2.66942 2.82267 0
M  V30 20274 H 1913.08 4.50944 0.971976 0
M  V30 20275 H 1911.32 4.25469 0.846069 0
M  V30 20276 H 1911.99 5.0237 2.28754 0
M  V30 20277 H 1914.47 3.14659 2.72266 0
M  V30 20278 H 1913.34 3.84663 3.91569 0
M  V30 20279 H 1913.6 2.10984 3.88508 0
M  V30 20280 N 1912.66 -0.698586 1.41271 0
M  V30 20281 C 1913.89 -1.48528 1.43608 0
M  V30 20282 C 1914.3 -1.8916 0.0388929 0
M  V30 20283 O 1913.64 -1.5714 -0.951457 0
M  V30 20284 C 1913.7 -2.78049 2.27879 0
M  V30 20285 C 1913.37 -2.59638 3.76081 0
M  V30 20286 C 1914.37 -2.25782 4.68315 0
M  V30 20287 C 1912.05 -2.75373 4.2009 0
M  V30 20288 C 1914.04 -2.07894 6.02544 0
M  V30 20289 C 1911.73 -2.57102 5.54384 0
M  V30 20290 C 1912.73 -2.23413 6.45427 0
M  V30 20291 O 1912.42 -2.05298 7.77244 0
M  V30 20292 H 1912.15 -0.464356 0.491273 0
M  V30 20293 H 1914.7 -0.867883 1.86164 0
M  V30 20294 H 1912.93 -3.42183 1.80132 0
M  V30 20295 H 1914.62 -3.39841 2.21953 0
M  V30 20296 H 1915.39 -2.13243 4.35606 0
M  V30 20297 H 1911.27 -3.00579 3.49533 0
M  V30 20298 H 1914.81 -1.81522 6.73569 0
M  V30 20299 H 1910.71 -2.6923 5.86673 0
M  V30 20300 H 1911.48 -2.20085 7.88356 0
M  V30 20301 N 1914.14 -1.27049 -0.93254 0
M  V30 20302 C 1915.07 -1.11867 -2.04959 0
M  V30 20303 C 1916.05 -0.0214563 -1.70086 0
M  V30 20304 O 1917.24 -0.195063 -1.93218 0
M  V30 20305 C 1914.37 -0.759993 -3.38883 0
M  V30 20306 C 1913.32 -1.8099 -3.87849 0
M  V30 20307 C 1912.65 -1.30532 -5.18522 0
M  V30 20308 C 1913.95 -3.21309 -4.11774 0
M  V30 20309 H 1915.64 -2.05309 -2.17918 0
M  V30 20310 H 1913.19 -0.988507 -1.04712 0
M  V30 20311 H 1915.14 -0.640623 -4.16502 0
M  V30 20312 H 1913.86 0.210139 -3.25923 0
M  V30 20313 H 1912.52 -1.91809 -3.12418 0
M  V30 20314 H 1912.17 -0.324784 -5.0195 0
M  V30 20315 H 1911.87 -2.00722 -5.52254 0
M  V30 20316 H 1913.39 -1.19879 -5.98716 0
M  V30 20317 H 1914.81 -3.13517 -4.79979 0
M  V30 20318 H 1913.2 -3.89166 -4.56804 0
M  V30 20319 H 1914.27 -3.66722 -3.17243 0
M  V30 20320 N 1915.62 1.13835 -1.08993 0
M  V30 20321 C 1916.55 2.21226 -0.74707 0
M  V30 20322 C 1917.53 1.67891 0.273232 0
M  V30 20323 O 1918.71 1.93678 0.142278 0
M  V30 20324 C 1915.84 3.46922 -0.162028 0
M  V30 20325 C 1914.8 4.1332 -1.11135 0
M  V30 20326 C 1914.12 5.33289 -0.388228 0
M  V30 20327 C 1915.42 4.61169 -2.45195 0
M  V30 20328 H 1917.12 2.50162 -1.64497 0
M  V30 20329 H 1914.66 1.20239 -0.792368 0
M  V30 20330 H 1916.62 4.21304 0.0898753 0
M  V30 20331 H 1915.34 3.17368 0.771036 0
M  V30 20332 H 1914 3.40899 -1.34845 0
M  V30 20333 H 1913.65 4.99997 0.548832 0
M  V30 20334 H 1913.35 5.78659 -1.02115 0
M  V30 20335 H 1914.87 6.10429 -0.144519 0
M  V30 20336 H 1916.29 5.26996 -2.25717 0
M  V30 20337 H 1914.68 5.17263 -3.04235 0
M  V30 20338 H 1915.75 3.75923 -3.06284 0
M  V30 20339 N 1917.1 0.876467 1.3098 0
M  V30 20340 C 1918.03 0.294228 2.27304 0
M  V30 20341 C 1919.04 -0.546404 1.53357 0
M  V30 20342 O 1920.23 -0.367339 1.74679 0
M  V30 20343 C 1917.33 -0.600972 3.33529 0
M  V30 20344 C 1916.5 0.208678 4.36902 0
M  V30 20345 C 1915.56 -0.615677 5.22586 0
M  V30 20346 O 1914.59 -0.0413981 5.69185 0
M  V30 20347 N 1915.79 -1.92644 5.47603 0
M  V30 20348 H 1918.55 1.12201 2.77905 0
M  V30 20349 H 1916.12 0.738597 1.44071 0
M  V30 20350 H 1918.11 -1.15831 3.8777 0
M  V30 20351 H 1916.68 -1.32943 2.82922 0
M  V30 20352 H 1915.9 0.947462 3.82644 0
M  V30 20353 H 1917.19 0.763998 5.03031 0
M  V30 20354 H 1916.58 -2.41605 5.11511 0
M  V30 20355 H 1915.14 -2.43141 6.04752 0
M  V30 20356 N 1918.57 -1.44173 0.636557 0
M  V30 20357 C 1919.82 -2.01594 0.142933 0
M  V30 20358 C 1920.14 -1.50366 -1.24157 0
M  V30 20359 O 1919.41 -0.709463 -1.82602 0
M  V30 20360 H 1917.99 -0.745335 0.04985 0
M  V30 20361 H 1920.65 -1.76602 0.824479 0
M  V30 20362 H 1919.75 -3.11889 0.114775 0
M  V30 20363 N 1920.05 -0.377435 -1.53014 0
M  V30 20364 C 1921.47 -0.0268747 -1.59577 0
M  V30 20365 C 1921.67 1.45688 -1.39202 0
M  V30 20366 O 1920.72 2.21996 -1.20309 0
M  V30 20367 C 1922.04 -0.493431 -2.96624 0
M  V30 20368 C 1923.58 -0.448667 -3.09768 0
M  V30 20369 C 1924.06 -0.891223 -4.49245 0
M  V30 20370 N 1925.55 -0.846756 -4.55395 0
M  V30 20371 C 1926.29 -1.16074 -5.61529 0
M  V30 20372 N 1925.78 -1.5446 -6.75362 0
M  V30 20373 N 1927.57 -1.08276 -5.51573 0
M  V30 20374 H 1919.73 -1.34353 -1.64508 0
M  V30 20375 H 1921.99 -0.549926 -0.772195 0
M  V30 20376 H 1921.69 -1.52927 -3.16712 0
M  V30 20377 H 1921.57 0.113748 -3.77028 0
M  V30 20378 H 1923.96 0.578058 -2.89383 0
M  V30 20379 H 1924.04 -1.0915 -2.31344 0
M  V30 20380 H 1923.68 -1.91612 -4.70369 0
M  V30 20381 H 1923.61 -0.225524 -5.26117 0
M  V30 20382 H 1926.1 -0.564127 -3.73666 0
M  V30 20383 H 1926.41 -1.76813 -7.52301 0
M  V30 20384 H 1924.76 -1.58336 -6.76724 0
M  V30 20385 H 1927.95 -0.781974 -4.61522 0
M  V30 20386 H 1928.12 -1.33078 -6.34188 0
M  V30 20387 N 1921.53 1.57237 -0.106922 0
M  V30 20388 C 1922.95 1.57634 0.249708 0
M  V30 20389 C 1923.15 1.11888 1.67581 0
M  V30 20390 O 1922.2 0.80073 2.39467 0
M  V30 20391 C 1923.52 3.00688 0.0273757 0
M  V30 20392 C 1925.06 3.12858 0.0942116 0
M  V30 20393 C 1925.54 4.5789 -0.100275 0
M  V30 20394 N 1927.03 4.63177 -0.045837 0
M  V30 20395 C 1927.76 5.73144 -0.171398 0
M  V30 20396 N 1927.26 6.91903 -0.352455 0
M  V30 20397 N 1929.05 5.61989 -0.111827 0
M  V30 20398 H 1921.2 1.85278 -1.03855 0
M  V30 20399 H 1923.47 0.855717 -0.407985 0
M  V30 20400 H 1923.17 3.38399 -0.958063 0
M  V30 20401 H 1923.05 3.6937 0.764546 0
M  V30 20402 H 1925.43 2.75012 1.07016 0
M  V30 20403 H 1925.52 2.46743 -0.674643 0
M  V30 20404 H 1925.16 4.96433 -1.07315 0
M  V30 20405 H 1925.09 5.22081 0.688418 0
M  V30 20406 H 1927.58 3.7779 0.0910806 0
M  V30 20407 H 1927.89 7.7155 -0.439454 0
M  V30 20408 H 1926.24 6.93915 -0.388274 0
M  V30 20409 H 1929.43 4.68091 0.0285732 0
M  V30 20410 H 1929.6 6.47649 -0.213127 0
M  V30 20411 N 1923.01 -0.166818 1.56715 0
M  V30 20412 C 1923.94 -1.2086 1.99787 0
M  V30 20413 C 1924.92 -1.45918 0.874178 0
M  V30 20414 O 1926.1 -1.57176 1.14058 0
M  V30 20415 C 1923.23 -2.54648 2.3616 0
M  V30 20416 C 1922.19 -2.44151 3.51532 0
M  V30 20417 C 1921.51 -3.82469 3.7366 0
M  V30 20418 C 1922.81 -1.9424 4.84838 0
M  V30 20419 H 1924.51 -0.850538 2.87065 0
M  V30 20420 H 1922.05 -0.407696 1.38108 0
M  V30 20421 H 1924.01 -3.27736 2.64891 0
M  V30 20422 H 1922.73 -2.92251 1.45797 0
M  V30 20423 H 1921.39 -1.73516 3.22936 0
M  V30 20424 H 1921.04 -4.17473 2.8058 0
M  V30 20425 H 1920.74 -3.76312 4.5129 0
M  V30 20426 H 1922.26 -4.57136 4.04796 0
M  V30 20427 H 1923.68 -2.57105 5.12416 0
M  V30 20428 H 1922.07 -1.99021 5.66137 0
M  V30 20429 H 1923.14 -0.89695 4.76532 0
M  V30 20430 N 1924.49 -1.51463 -0.435524 0
M  V30 20431 C 1925.42 -1.75856 -1.53613 0
M  V30 20432 C 1926.4 -0.608449 -1.58846 0
M  V30 20433 O 1927.58 -0.85135 -1.74544 0
M  V30 20434 C 1924.71 -1.88525 -2.91677 0
M  V30 20435 C 1923.67 -3.03972 -3.01305 0
M  V30 20436 C 1922.99 -3.01828 -4.41366 0
M  V30 20437 C 1924.29 -4.43905 -2.75219 0
M  V30 20438 H 1925.99 -2.68013 -1.33452 0
M  V30 20439 H 1923.53 -1.28968 -0.640564 0
M  V30 20440 H 1925.49 -2.04173 -3.68634 0
M  V30 20441 H 1924.21 -0.930179 -3.13074 0
M  V30 20442 H 1922.87 -2.88033 -2.26788 0
M  V30 20443 H 1922.52 -2.04095 -4.59733 0
M  V30 20444 H 1922.22 -3.79353 -4.48737 0
M  V30 20445 H 1923.74 -3.19572 -5.20294 0
M  V30 20446 H 1925.15 -4.60187 -3.41908 0
M  V30 20447 H 1923.55 -5.2315 -2.93998 0
M  V30 20448 H 1924.62 -4.53818 -1.70814 0
M  V30 20449 N 1925.96 0.691085 -1.4164 0
M  V30 20450 C 1926.9 1.81646 -1.39776 0
M  V30 20451 C 1927.91 1.60026 -0.299243 0
M  V30 20452 O 1929.1 1.69446 -0.561266 0
M  V30 20453 C 1926.2 3.18486 -1.15845 0
M  V30 20454 C 1925.37 3.67096 -2.37822 0
M  V30 20455 C 1924.43 4.82618 -2.09681 0
M  V30 20456 O 1923.46 4.94002 -2.82756 0
M  V30 20457 N 1924.66 5.70178 -1.08983 0
M  V30 20458 H 1927.42 1.83736 -2.36773 0
M  V30 20459 H 1924.98 0.873576 -1.36309 0
M  V30 20460 H 1926.98 3.934 -0.949639 0
M  V30 20461 H 1925.55 3.11394 -0.274301 0
M  V30 20462 H 1924.77 2.83038 -2.74377 0
M  V30 20463 H 1926.05 3.96312 -3.19083 0
M  V30 20464 H 1925.45 5.63616 -0.48512 0
M  V30 20465 H 1924.01 6.44973 -0.940906 0
M  V30 20466 N 1927.44 1.27542 0.925789 0
M  V30 20467 C 1928.85 1.12679 1.48864 0
M  V30 20468 C 1929.2 -0.287536 1.94082 0
M  V30 20469 O 1928.33 -1.18064 1.81356 0
M  V30 20470 C 1928.92 2.03934 2.70548 0
M  V30 20471 C 1927.48 1.93171 3.23051 0
M  V30 20472 C 1926.63 1.96378 1.95783 0
M  V30 20473 H 1929.58 1.40407 0.739703 0
M  V30 20474 H 1929.6 1.59628 3.45397 0
M  V30 20475 H 1929.11 3.06863 2.37607 0
M  V30 20476 H 1927.22 0.932356 3.60746 0
M  V30 20477 H 1927.33 2.7951 3.89115 0
M  V30 20478 H 1925.69 1.40628 2.12358 0
M  V30 20479 H 1926.48 3.00964 1.65153 0
M  V30 20480 N 1928.92 -1.13255 1.09595 0
M  V30 20481 C 1929.83 -2.22321 0.74904 0
M  V30 20482 C 1930.85 -1.72198 -0.24974 0
M  V30 20483 O 1932.02 -2.01196 -0.090652 0
M  V30 20484 C 1929.09 -3.4625 0.17665 0
M  V30 20485 C 1928.15 -4.11254 1.2316 0
M  V30 20486 C 1927.38 -5.29267 0.686427 0
M  V30 20487 O 1927.6 -5.68291 -0.490088 0
M  V30 20488 O 1926.54 -5.84365 1.44227 0
M  V30 20489 H 1930.36 -2.5437 1.6592 0
M  V30 20490 H 1927.95 -1.21422 0.870465 0
M  V30 20491 H 1929.83 -4.2117 -0.139147 0
M  V30 20492 H 1928.51 -3.15896 -0.706492 0
M  V30 20493 H 1927.41 -3.38152 1.60012 0
M  V30 20494 H 1928.75 -4.45743 2.08745 0
M  V30 20495 N 1930.4 -0.883401 -1.30514 0
M  V30 20496 C 1931.63 -0.515199 -2.00073 0
M  V30 20497 C 1932.04 0.900374 -1.66403 0
M  V30 20498 O 1931.38 1.60339 -0.896503 0
M  V30 20499 C 1931.44 -0.608317 -3.54316 0
M  V30 20500 C 1931.11 -1.98792 -4.11498 0
M  V30 20501 C 1932.1 -2.95712 -4.2761 0
M  V30 20502 C 1929.79 -2.29288 -4.46914 0
M  V30 20503 C 1931.78 -4.21264 -4.78347 0
M  V30 20504 C 1929.47 -3.55086 -4.9735 0
M  V30 20505 C 1930.47 -4.50888 -5.13019 0
M  V30 20506 O 1930.15 -5.74455 -5.62367 0
M  V30 20507 H 1929.89 -0.197853 -0.646398 0
M  V30 20508 H 1932.44 -1.19015 -1.67405 0
M  V30 20509 H 1930.67 0.123606 -3.86502 0
M  V30 20510 H 1932.36 -0.251619 -4.05119 0
M  V30 20511 H 1933.13 -2.73463 -4.00553 0
M  V30 20512 H 1929 -1.55488 -4.33987 0
M  V30 20513 H 1932.55 -4.96048 -4.90492 0
M  V30 20514 H 1928.45 -3.77172 -5.23843 0
M  V30 20515 H 1929.21 -5.76814 -5.80713 0
M  V30 20516 N 1931.88 1.43833 -0.644194 0
M  V30 20517 C 1933.12 2.03793 -0.157409 0
M  V30 20518 C 1933.48 1.49666 1.20267 0
M  V30 20519 O 1934.68 2.01212 1.78233 0
M  V30 20520 C 1932.95 3.57053 -0.157514 0
M  V30 20521 S 1934.51 4.38013 0.262743 0
M  V30 20522 H 1931.33 0.707788 -0.0675047 0
M  V30 20523 H 1933.93 1.7603 -0.85051 0
M  V30 20524 H 1932.64 3.9395 -1.15027 0
M  V30 20525 H 1932.17 3.89445 0.556416 0
M  V30 20526 H 1934.18 4.72863 1.50384 0
M  V30 20527 N 1933.35 0.385544 1.52811 0
M  V30 20528 C 1934.77 -0.0893152 1.86486 0
M  V30 20529 C 1935.12 -1.46473 1.30538 0
M  V30 20530 O 1934.24 -2.06866 0.635244 0
M  V30 20531 C 1934.84 -0.168846 3.38379 0
M  V30 20532 C 1933.4 -0.587992 3.71779 0
M  V30 20533 C 1932.54 0.252389 2.76149 0
M  V30 20534 H 1935.49 0.603569 1.46774 0
M  V30 20535 H 1935.51 -0.988694 3.6743 0
M  V30 20536 H 1935.03 0.832334 3.7907 0
M  V30 20537 H 1933.13 -1.59668 3.36656 0
M  V30 20538 H 1933.24 -0.34875 4.77829 0
M  V30 20539 H 1931.6 -0.281775 2.53137 0
M  V30 20540 H 1932.39 1.25148 3.19676 0
M  V30 20541 N 1934.83 -1.57178 0.115259 0
M  V30 20542 C 1936.11 -1.86584 -0.587002 0
M  V30 20543 C 1936.49 -1.01576 -1.85055 0
M  V30 20544 O 1935.84 -0.0936485 -2.28308 0
M  V30 20545 C 1936.05 -3.37644 -0.883041 0
M  V30 20546 C 1937.4 -4.06159 -1.23773 0
M  V30 20547 O 1938.42 -3.42641 -0.973422 0
M  V30 20548 O 1937.28 -5.18274 -1.73363 0
M  V30 20549 H 1934.37 -0.772284 -0.295816 0
M  V30 20550 H 1936.92 -1.6904 0.14948 0
M  V30 20551 H 1935.69 -3.91298 0.0125183 0
M  V30 20552 H 1935.31 -3.60605 -1.67481 0
M  V30 20553 N 1936.31 0.158505 -1.56801 0
M  V30 20554 C 1937.72 0.71972 -1.7227 0
M  V30 20555 C 1938.07 1.822 -0.72784 0
M  V30 20556 O 1937.2 2.1613 0.108043 0
M  V30 20557 C 1937.79 1.31231 -3.12352 0
M  V30 20558 C 1936.35 1.82021 -3.29462 0
M  V30 20559 C 1935.5 0.704157 -2.68211 0
M  V30 20560 H 1938.45 -0.0670395 -1.58558 0
M  V30 20561 H 1938.47 2.18208 -3.11714 0
M  V30 20562 H 1937.98 0.509823 -3.84737 0
M  V30 20563 H 1936.08 2.64873 -2.62056 0
M  V30 20564 H 1936.2 1.95684 -4.37315 0
M  V30 20565 H 1934.56 1.12787 -2.28366 0
M  V30 20566 H 1935.34 -0.0866929 -3.43191 0
M  V30 20567 N 1937.79 1.51692 0.427485 0
M  V30 20568 C 1938.72 1.76668 1.52679 0
M  V30 20569 C 1939.7 0.616865 1.58521 0
M  V30 20570 O 1940.89 0.860595 1.7409 0
M  V30 20571 C 1938.02 1.9007 2.90673 0
M  V30 20572 C 1936.97 3.05566 2.99689 0
M  V30 20573 C 1936.3 3.04165 4.39759 0
M  V30 20574 C 1937.6 4.45359 2.72861 0
M  V30 20575 H 1939.29 2.68717 1.32029 0
M  V30 20576 H 1936.84 1.29306 0.633716 0
M  V30 20577 H 1938.79 2.06125 3.67546 0
M  V30 20578 H 1937.51 0.946769 3.12576 0
M  V30 20579 H 1936.17 2.89231 2.25257 0
M  V30 20580 H 1935.82 2.0653 4.58644 0
M  V30 20581 H 1935.52 3.81727 4.46719 0
M  V30 20582 H 1937.04 3.22326 5.18592 0
M  V30 20583 H 1938.46 4.61993 3.39463 0
M  V30 20584 H 1936.85 5.24701 2.91219 0
M  V30 20585 H 1937.92 4.54717 1.68405 0
M  V30 20586 N 1939.27 -0.683564 1.42004 0
M  V30 20587 C 1940.5 -1.46996 1.45175 0
M  V30 20588 C 1940.91 -1.89108 0.0589536 0
M  V30 20589 O 1940.25 -1.5814 -0.934737 0
M  V30 20590 C 1940.31 -2.75616 2.30816 0
M  V30 20591 C 1939.97 -2.55634 3.78814 0
M  V30 20592 C 1940.97 -2.20802 4.70683 0
M  V30 20593 C 1938.66 -2.70901 4.22987 0
M  V30 20594 C 1940.65 -2.01492 6.04715 0
M  V30 20595 C 1938.34 -2.51207 5.5708 0
M  V30 20596 C 1939.34 -2.16555 6.4776 0
M  V30 20597 O 1939.02 -1.97043 7.79378 0
M  V30 20598 H 1938.76 -0.459119 0.496171 0
M  V30 20599 H 1941.31 -0.848089 1.87074 0
M  V30 20600 H 1939.54 -3.40254 1.83751 0
M  V30 20601 H 1941.23 -3.37467 2.25545 0
M  V30 20602 H 1941.99 -2.08611 4.37843 0
M  V30 20603 H 1937.87 -2.96855 3.52702 0
M  V30 20604 H 1941.42 -1.74367 6.75457 0
M  V30 20605 H 1937.31 -2.62992 5.89496 0
M  V30 20606 H 1938.08 -2.11711 7.90646 0
M  V30 20607 N 1940.75 -1.28031 -0.919012 0
M  V30 20608 C 1941.66 -1.13341 -2.05404 0
M  V30 20609 C 1942.67 -0.0612715 -1.73892 0
M  V30 20610 O 1943.85 -0.26951 -1.99589 0
M  V30 20611 C 1940.91 -0.791143 -3.37553 0
M  V30 20612 C 1939.97 -1.94509 -3.82707 0
M  V30 20613 C 1939.21 -1.61905 -5.08549 0
M  V30 20614 O 1939.43 -0.530962 -5.67923 0
M  V30 20615 O 1938.36 -2.46102 -5.49288 0
M  V30 20616 H 1942.19 -2.08613 -2.20713 0
M  V30 20617 H 1939.77 -1.073 -1.03957 0
M  V30 20618 H 1941.66 -0.613981 -4.16903 0
M  V30 20619 H 1940.33 0.131966 -3.23431 0
M  V30 20620 H 1939.24 -2.17737 -3.04206 0
M  V30 20621 H 1940.57 -2.84871 -4.01384 0
M  V30 20622 N 1942.22 1.12672 -1.10194 0
M  V30 20623 C 1943.47 1.84399 -0.844081 0
M  V30 20624 C 1943.8 1.83739 0.628782 0
M  V30 20625 O 1943.08 1.28115 1.46345 0
M  V30 20626 C 1943.36 3.32194 -1.38994 0
M  V30 20627 C 1943.21 3.41323 -2.92948 0
M  V30 20628 C 1944.53 4.27872 -1.03021 0
M  V30 20629 H 1941.65 0.669515 -0.308089 0
M  V30 20630 H 1944.29 1.322 -1.36467 0
M  V30 20631 H 1942.44 3.76778 -0.947144 0
M  V30 20632 H 1944.12 3.05393 -3.45735 0
M  V30 20633 H 1942.36 2.81948 -3.29678 0
M  V30 20634 H 1943.03 4.45289 -3.26223 0
M  V30 20635 H 1945.51 3.91401 -1.41224 0
M  V30 20636 H 1944.38 5.29699 -1.43909 0
M  V30 20637 H 1944.64 4.42058 0.0606669 0
M  V30 20638 N 1943.7 0.89031 1.30043 0
M  V30 20639 C 1944.63 0.305628 2.26144 0
M  V30 20640 C 1945.61 -0.576854 1.52024 0
M  V30 20641 O 1946.8 -0.525759 1.81019 0
M  V30 20642 C 1943.92 -0.56523 3.3395 0
M  V30 20643 C 1942.97 0.248651 4.25775 0
M  V30 20644 S 1943.8 1.64039 5.09756 0
M  V30 20645 C 1944.96 0.7762 6.21068 0
M  V30 20646 H 1945.19 1.12021 2.75388 0
M  V30 20647 H 1942.72 0.690064 1.38121 0
M  V30 20648 H 1944.68 -1.06193 3.96527 0
M  V30 20649 H 1943.34 -1.35396 2.8342 0
M  V30 20650 H 1942.54 -0.416165 5.02279 0
M  V30 20651 H 1942.14 0.678155 3.678 0
M  V30 20652 H 1944.43 -0.00451589 6.775 0
M  V30 20653 H 1945.37 1.51302 6.91747 0
M  V30 20654 H 1945.78 0.334741 5.63507 0
M  V30 20655 N 1945.18 -1.43489 0.651812 0
M  V30 20656 C 1946.11 -2.33484 -0.0271093 0
M  V30 20657 C 1947.09 -1.4939 -0.813427 0
M  V30 20658 O 1948.28 -1.78058 -0.775186 0
M  V30 20659 C 1945.41 -3.32737 -0.995143 0
M  V30 20660 C 1944.36 -4.26809 -0.319036 0
M  V30 20661 C 1943.69 -5.1609 -1.39842 0
M  V30 20662 C 1944.99 -5.16326 0.787692 0
M  V30 20663 H 1946.68 -2.90503 0.724441 0
M  V30 20664 H 1944.23 -1.39686 0.349826 0
M  V30 20665 H 1946.18 -3.94593 -1.479 0
M  V30 20666 H 1944.9 -2.73972 -1.77784 0
M  V30 20667 H 1943.56 -3.66316 0.144366 0
M  V30 20668 H 1943.21 -4.53664 -2.17251 0
M  V30 20669 H 1942.91 -5.79848 -0.951292 0
M  V30 20670 H 1944.43 -5.80819 -1.88367 0
M  V30 20671 H 1945.85 -5.71999 0.386053 0
M  V30 20672 H 1944.24 -5.88798 1.1592 0
M  V30 20673 H 1945.31 -4.56099 1.64626 0
M  V30 20674 N 1946.66 -0.393643 -1.52605 0
M  V30 20675 C 1947.6 0.439408 -2.26579 0
M  V30 20676 C 1948.57 1.05415 -1.28362 0
M  V30 20677 O 1949.76 1.08136 -1.57198 0
M  V30 20678 C 1946.9 1.55846 -3.07906 0
M  V30 20679 C 1946.01 0.966152 -4.21058 0
M  V30 20680 C 1945.15 2.05662 -4.89772 0
M  V30 20681 C 1944.19 1.44043 -5.9491 0
M  V30 20682 N 1943.32 2.47039 -6.57203 0
M  V30 20683 H 1948.16 -0.197864 -2.97342 0
M  V30 20684 H 1945.7 -0.109409 -1.46693 0
M  V30 20685 H 1947.66 2.21807 -3.53352 0
M  V30 20686 H 1946.29 2.16598 -2.39343 0
M  V30 20687 H 1945.34 0.196024 -3.79895 0
M  V30 20688 H 1946.65 0.475898 -4.96525 0
M  V30 20689 H 1945.81 2.79383 -5.38544 0
M  V30 20690 H 1944.55 2.58048 -4.13839 0
M  V30 20691 H 1943.55 0.688483 -5.45472 0
M  V30 20692 H 1944.78 0.924458 -6.72778 0
M  V30 20693 H 1942.72 2.98586 -5.84108 0
M  V30 20694 H 1942.64 2.02781 -7.28297 0
M  V30 20695 H 1943.91 3.20377 -7.10619 0
M  V30 20696 N 1948.14 1.57115 -0.123593 0
M  V30 20697 C 1949.38 1.97238 0.536324 0
M  V30 20698 C 1949.74 1.00568 1.63554 0
M  V30 20699 O 1950.94 1.29647 2.35468 0
M  V30 20700 C 1949.21 3.41596 1.05106 0
M  V30 20701 S 1950.77 4.03734 1.71886 0
M  V30 20702 H 1947.59 0.689335 0.17418 0
M  V30 20703 H 1950.19 1.94371 -0.209763 0
M  V30 20704 H 1948.89 4.09698 0.239937 0
M  V30 20705 H 1948.43 3.48123 1.83231 0
M  V30 20706 H 1950.44 3.94867 3.0049 0
M  V30 20707 N 1949.61 -0.150187 1.56883 0
M  V30 20708 C 1950.86 -0.859806 1.84334 0
M  V30 20709 C 1951.21 -1.78934 0.707134 0
M  V30 20710 O 1950.51 -1.89314 -0.29512 0
M  V30 20711 C 1950.7 -1.67394 3.15775 0
M  V30 20712 C 1950.53 -0.824738 4.42073 0
M  V30 20713 C 1949.3 -0.491592 5.02903 0
M  V30 20714 C 1951.5 -0.156535 5.14062 0
M  V30 20715 N 1949.48 0.371543 6.12775 0
M  V30 20716 C 1950.85 0.566871 6.17403 0
M  V30 20717 C 1952.91 -0.0768789 4.97841 0
M  V30 20718 C 1951.61 1.36241 7.0628 0
M  V30 20719 C 1953.64 0.705387 5.87178 0
M  V30 20720 C 1953 1.41709 6.89999 0
M  V30 20721 H 1949.1 -0.292557 0.725213 0
M  V30 20722 H 1951.68 -0.12538 1.94296 0
M  V30 20723 H 1949.85 -2.37963 3.06966 0
M  V30 20724 H 1951.58 -2.32649 3.31145 0
M  V30 20725 H 1948.34 -0.826634 4.6633 0
M  V30 20726 H 1948.76 0.794041 6.72327 0
M  V30 20727 H 1953.4 -0.61276 4.18336 0
M  V30 20728 H 1951.12 1.90956 7.85214 0
M  V30 20729 H 1954.71 0.76897 5.76696 0
M  V30 20730 H 1953.59 2.01268 7.57932 0
M  V30 20731 N 1951.09 -1.51916 -0.419434 0
M  V30 20732 C 1952.04 -1.70902 -1.50919 0
M  V30 20733 C 1953.03 -0.562909 -1.50732 0
M  V30 20734 O 1954.22 -0.819564 -1.56883 0
M  V30 20735 C 1951.35 -1.85375 -2.88948 0
M  V30 20736 C 1950.43 -3.05825 -2.93823 0
M  V30 20737 N 1950.82 -4.28707 -2.6841 0
M  V30 20738 C 1949.12 -3.05448 -3.24989 0
M  V30 20739 C 1949.82 -5.10103 -2.79589 0
M  V30 20740 N 1948.8 -4.45129 -3.12028 0
M  V30 20741 H 1952.6 -2.6356 -1.30051 0
M  V30 20742 H 1950.12 -1.49808 -0.627004 0
M  V30 20743 H 1952.11 -1.9709 -3.6737 0
M  V30 20744 H 1950.77 -0.939096 -3.10823 0
M  V30 20745 H 1951.78 -4.57353 -2.42999 0
M  V30 20746 H 1948.46 -2.23681 -3.52524 0
M  V30 20747 H 1949.85 -6.17972 -2.63743 0
M  V30 20748 N 1952.57 0.676023 -1.42365 0
M  V30 20749 C 1953.98 1.25659 -1.38082 0
M  V30 20750 C 1954.33 1.96062 -0.0734945 0
M  V30 20751 O 1953.46 1.99941 0.827793 0
M  V30 20752 C 1954.05 2.28531 -2.50118 0
M  V30 20753 C 1952.61 2.82117 -2.49172 0
M  V30 20754 C 1951.76 1.56422 -2.28971 0
M  V30 20755 H 1954.71 0.469489 -1.51596 0
M  V30 20756 H 1954.73 3.1024 -2.20299 0
M  V30 20757 H 1954.24 1.77261 -3.45254 0
M  V30 20758 H 1952.34 3.37511 -1.57851 0
M  V30 20759 H 1952.46 3.31216 -3.46168 0
M  V30 20760 H 1950.82 1.82946 -1.77208 0
M  V30 20761 H 1951.6 1.0712 -3.2616 0
M  V30 20762 N 1954.05 1.28517 0.912209 0
M  V30 20763 C 1955 1.12575 2.01483 0
M  V30 20764 C 1955.97 0.0224628 1.66085 0
M  V30 20765 O 1957.15 0.18768 1.89875 0
M  V30 20766 C 1954.29 0.795229 3.35813 0
M  V30 20767 C 1953.4 1.97772 3.84071 0
M  V30 20768 C 1952.54 1.58768 5.06918 0
M  V30 20769 C 1951.58 2.73672 5.47513 0
M  V30 20770 N 1950.71 2.3515 6.6155 0
M  V30 20771 H 1955.55 2.06918 2.1445 0
M  V30 20772 H 1953.09 1.02983 1.05037 0
M  V30 20773 H 1955.05 0.584339 4.13088 0
M  V30 20774 H 1953.68 -0.111266 3.22608 0
M  V30 20775 H 1952.73 2.30069 3.0294 0
M  V30 20776 H 1954.04 2.83913 4.10115 0
M  V30 20777 H 1953.2 1.33894 5.91741 0
M  V30 20778 H 1951.94 0.697566 4.82686 0
M  V30 20779 H 1950.94 2.99242 4.61231 0
M  V30 20780 H 1952.17 3.63328 5.73733 0
M  V30 20781 H 1950.11 1.4861 6.38945 0
M  V30 20782 H 1950.03 3.14827 6.87328 0
M  V30 20783 H 1951.3 2.13564 7.49674 0
M  V30 20784 N 1955.53 -1.12086 1.1079 0
M  V30 20785 C 1956.49 -2.16111 0.763446 0
M  V30 20786 C 1957.49 -1.59371 -0.213903 0
M  V30 20787 O 1958.68 -1.74197 0.00972099 0
M  V30 20788 C 1955.81 -3.40646 0.131488 0
M  V30 20789 H 1957 -2.48096 1.68489 0
M  V30 20790 H 1954.56 -1.27156 0.908896 0
M  V30 20791 H 1955.29 -3.14265 -0.800507 0
M  V30 20792 H 1955.08 -3.83108 0.834928 0
M  V30 20793 H 1956.57 -4.17495 -0.0936165 0
M  V30 20794 N 1957 -0.897194 -1.29569 0
M  V30 20795 C 1957.91 -0.377551 -2.31542 0
M  V30 20796 C 1958.93 0.526431 -1.65845 0
M  V30 20797 O 1960.11 0.416614 -1.97044 0
M  V30 20798 C 1957.17 0.388744 -3.44514 0
M  V30 20799 C 1956.23 -0.546458 -4.25808 0
M  V30 20800 C 1955.47 0.183361 -5.33385 0
M  V30 20801 O 1955.69 1.40767 -5.52757 0
M  V30 20802 O 1954.62 -0.472827 -6.0004 0
M  V30 20803 H 1958.45 -1.22348 -2.77965 0
M  V30 20804 H 1956.03 -0.661433 -1.33961 0
M  V30 20805 H 1957.92 0.822167 -4.13302 0
M  V30 20806 H 1956.59 1.21077 -3.00203 0
M  V30 20807 H 1955.5 -1.02894 -3.59671 0
M  V30 20808 H 1956.83 -1.33483 -4.73754 0
M  V30 20809 N 1958.48 1.43142 -0.659413 0
M  V30 20810 C 1959.42 2.28066 0.0782731 0
M  V30 20811 C 1960.39 1.40185 0.82383 0
M  V30 20812 O 1961.58 1.69627 0.822128 0
M  V30 20813 C 1958.7 3.19726 1.11772 0
M  V30 20814 C 1957.75 4.23908 0.469506 0
M  V30 20815 S 1958.58 5.30058 -0.761531 0
M  V30 20816 C 1959.74 6.25286 0.277227 0
M  V30 20817 H 1959.97 2.90283 -0.642102 0
M  V30 20818 H 1957.51 1.47744 -0.448449 0
M  V30 20819 H 1959.46 3.73078 1.7124 0
M  V30 20820 H 1958.12 2.56674 1.81045 0
M  V30 20821 H 1957.32 4.88168 1.2533 0
M  V30 20822 H 1956.92 3.73965 -0.0512104 0
M  V30 20823 H 1959.21 6.67813 1.14158 0
M  V30 20824 H 1960.15 7.07328 -0.330513 0
M  V30 20825 H 1960.56 5.61131 0.61581 0
M  V30 20826 N 1959.96 0.40173 1.52394 0
M  V30 20827 C 1961.38 0.0522587 1.59514 0
M  V30 20828 C 1961.58 -1.43455 1.41502 0
M  V30 20829 O 1960.63 -2.20053 1.23825 0
M  V30 20830 C 1961.95 0.540559 2.95801 0
M  V30 20831 C 1963.49 0.497892 3.09015 0
M  V30 20832 C 1963.97 0.962581 4.4777 0
M  V30 20833 N 1965.46 0.919099 4.5399 0
M  V30 20834 C 1966.19 1.24993 5.59611 0
M  V30 20835 N 1965.69 1.65185 6.72819 0
M  V30 20836 N 1967.48 1.17038 5.49781 0
M  V30 20837 H 1959.63 1.36954 1.6235 0
M  V30 20838 H 1961.9 0.562141 0.763349 0
M  V30 20839 H 1961.6 1.57946 3.14239 0
M  V30 20840 H 1961.48 -0.0537516 3.77162 0
M  V30 20841 H 1963.86 -0.531947 2.90266 0
M  V30 20842 H 1963.95 1.12816 2.29578 0
M  V30 20843 H 1963.59 1.99071 4.67261 0
M  V30 20844 H 1963.52 0.309196 5.25691 0
M  V30 20845 H 1966.01 0.623503 3.72721 0
M  V30 20846 H 1966.32 1.88759 7.49393 0
M  V30 20847 H 1964.67 1.69082 6.74119 0
M  V30 20848 H 1967.86 0.855299 4.6022 0
M  V30 20849 H 1968.03 1.43151 6.3199 0
M  V30 20850 N 1961.44 -1.57047 0.131923 0
M  V30 20851 C 1962.85 -1.82552 -0.391375 0
M  V30 20852 C 1963.2 -1.04983 -1.6575 0
M  V30 20853 O 1962.33 -0.2904 -2.14443 0
M  V30 20854 C 1962.92 -3.3113 -0.716843 0
M  V30 20855 C 1961.48 -3.57269 -1.18472 0
M  V30 20856 C 1960.63 -2.76578 -0.200021 0
M  V30 20857 H 1963.58 -1.54636 0.356863 0
M  V30 20858 H 1963.6 -3.46463 -1.57302 0
M  V30 20859 H 1963.11 -3.87559 0.204844 0
M  V30 20860 H 1961.21 -3.06211 -2.12287 0
M  V30 20861 H 1961.32 -4.65798 -1.12111 0
M  V30 20862 H 1959.69 -2.45185 -0.689655 0
M  V30 20863 H 1960.47 -3.35772 0.71499 0
M  V30 20864 N 1962.92 0.141865 -1.5696 0
M  V30 20865 C 1964.14 0.872384 -1.8816 0
M  V30 20866 C 1964.57 1.73713 -0.721494 0
M  V30 20867 O 1963.92 1.78294 0.328757 0
M  V30 20868 C 1963.97 1.7007 -3.17976 0
M  V30 20869 O 1963.08 2.80545 -3.02271 0
M  V30 20870 H 1962.42 0.242672 -0.618066 0
M  V30 20871 H 1964.95 0.131136 -2.04179 0
M  V30 20872 H 1964.96 2.09466 -3.50126 0
M  V30 20873 H 1963.63 1.06573 -4.02014 0
M  V30 20874 H 1962.21 2.44519 -2.81541 0
M  V30 20875 N 1964.39 1.52136 0.411372 0
M  V30 20876 C 1965.64 1.66085 1.15853 0
M  V30 20877 C 1965.97 0.38968 1.90556 0
M  V30 20878 O 1965.22 -0.62727 1.85375 0
M  V30 20879 C 1965.52 2.832 2.1802 0
M  V30 20880 C 1965.19 4.21504 1.6014 0
M  V30 20881 C 1963.85 4.59124 1.4408 0
M  V30 20882 C 1966.2 5.07702 1.17848 0
M  V30 20883 C 1963.53 5.80621 0.842405 0
M  V30 20884 C 1965.88 6.29802 0.594283 0
M  V30 20885 C 1964.55 6.66172 0.420791 0
M  V30 20886 H 1963.82 0.607749 0.423937 0
M  V30 20887 H 1966.46 1.86233 0.446046 0
M  V30 20888 H 1964.77 2.57378 2.95405 0
M  V30 20889 H 1966.47 2.91189 2.75699 0
M  V30 20890 H 1963.06 3.91858 1.73623 0
M  V30 20891 H 1967.24 4.79224 1.29066 0
M  V30 20892 H 1962.5 6.07426 0.695983 0
M  V30 20893 H 1966.67 6.95921 0.258177 0
M  V30 20894 H 1964.3 7.60187 -0.044991 0
M  V30 20895 N 1965.87 -0.668464 1.42721 0
M  V30 20896 C 1967.1 -1.46158 1.47148 0
M  V30 20897 C 1967.52 -1.87903 0.0860652 0
M  V30 20898 O 1966.88 -1.56406 -0.91689 0
M  V30 20899 C 1966.93 -2.68284 2.40949 0
M  V30 20900 O 1966.03 -3.66787 1.88522 0
M  V30 20901 H 1965.37 -0.438842 0.498311 0
M  V30 20902 H 1967.9 -0.819353 1.87477 0
M  V30 20903 H 1967.91 -3.1628 2.57742 0
M  V30 20904 H 1966.59 -2.3724 3.41599 0
M  V30 20905 H 1965.17 -3.25851 1.81315 0
M  V30 20906 N 1967.35 -1.28999 -0.905381 0
M  V30 20907 C 1968.26 -1.15513 -2.04191 0
M  V30 20908 C 1969.28 -0.0797116 -1.73817 0
M  V30 20909 O 1970.45 -0.290664 -1.99292 0
M  V30 20910 C 1967.52 -0.826901 -3.36695 0
M  V30 20911 C 1966.58 -1.98557 -3.80623 0
M  V30 20912 C 1965.81 -1.6729 -5.06803 0
M  V30 20913 O 1966.04 -0.591168 -5.67328 0
M  V30 20914 O 1964.97 -2.51914 -5.46647 0
M  V30 20915 H 1968.8 -2.10942 -2.18488 0
M  V30 20916 H 1966.38 -1.08397 -1.02813 0
M  V30 20917 H 1968.26 -0.658165 -4.16228 0
M  V30 20918 H 1966.94 0.0976541 -3.23553 0
M  V30 20919 H 1965.84 -2.20951 -3.0188 0
M  V30 20920 H 1967.18 -2.89112 -3.9834 0
M  V30 20921 N 1968.83 1.11497 -1.11383 0
M  V30 20922 C 1969.76 2.19592 -0.793827 0
M  V30 20923 C 1970.74 1.68433 0.237559 0
M  V30 20924 O 1971.93 1.93936 0.101164 0
M  V30 20925 C 1969.06 3.465 -0.235579 0
M  V30 20926 C 1968.01 4.10869 -1.19877 0
M  V30 20927 C 1967.34 5.32345 -0.501259 0
M  V30 20928 C 1968.64 4.55864 -2.54922 0
M  V30 20929 H 1970.33 2.46617 -1.69766 0
M  V30 20930 H 1967.88 1.18532 -0.817695 0
M  V30 20931 H 1969.83 4.214 0.000490272 0
M  V30 20932 H 1968.55 3.18932 0.703544 0
M  V30 20933 H 1967.21 3.37962 -1.42046 0
M  V30 20934 H 1966.86 5.01048 0.442652 0
M  V30 20935 H 1966.56 5.76363 -1.14367 0
M  V30 20936 H 1968.08 6.09985 -0.273968 0
M  V30 20937 H 1969.5 5.22089 -2.36845 0
M  V30 20938 H 1967.89 5.10693 -3.15139 0
M  V30 20939 H 1968.96 3.69342 -3.14189 0
M  V30 20940 N 1970.31 0.904053 1.29092 0
M  V30 20941 C 1971.55 0.532992 1.95671 0
M  V30 20942 C 1971.89 -0.919194 1.71069 0
M  V30 20943 O 1971.16 -1.6523 1.02612 0
M  V30 20944 C 1971.44 0.831252 3.50374 0
M  V30 20945 C 1971.3 2.33546 3.84417 0
M  V30 20946 C 1972.62 0.320724 4.3893 0
M  V30 20947 H 1969.74 0.195117 0.710703 0
M  V30 20948 H 1972.38 1.13153 1.52632 0
M  V30 20949 H 1970.53 0.321853 3.87165 0
M  V30 20950 H 1972.2 2.91473 3.57549 0
M  V30 20951 H 1970.44 2.79442 3.31805 0
M  V30 20952 H 1971.11 2.49471 4.9241 0
M  V30 20953 H 1973.59 0.756974 4.09157 0
M  V30 20954 H 1972.47 0.55858 5.4605 0
M  V30 20955 H 1972.73 -0.778699 4.35188 0
M  V30 20956 N 1971.79 -1.4279 0.666995 0
M  V30 20957 C 1973.01 -2.06504 0.192596 0
M  V30 20958 C 1973.44 -1.49743 -1.13836 0
M  V30 20959 O 1972.79 -0.612797 -1.7063 0
M  V30 20960 C 1972.84 -3.60366 0.129775 0
M  V30 20961 O 1971.95 -4.0237 -0.904018 0
M  V30 20962 H 1971.29 -0.656244 0.101194 0
M  V30 20963 H 1973.82 -1.83059 0.913807 0
M  V30 20964 H 1973.83 -4.07971 -0.0489739 0
M  V30 20965 H 1972.5 -4.01054 1.1013 0
M  V30 20966 H 1971.08 -3.66329 -0.696943 0
M  V30 20967 N 1973.26 -0.409806 -1.52179 0
M  V30 20968 C 1974.68 -0.0607174 -1.59484 0
M  V30 20969 C 1974.88 1.42703 -1.42261 0
M  V30 20970 O 1973.94 2.19394 -1.24991 0
M  V30 20971 C 1975.25 -0.556238 -2.95511 0
M  V30 20972 C 1976.8 -0.514272 -3.08746 0
M  V30 20973 C 1977.27 -0.986314 -4.47254 0
M  V30 20974 N 1978.76 -0.943162 -4.53496 0
M  V30 20975 C 1979.5 -1.27959 -5.5894 0
M  V30 20976 N 1978.99 -1.6875 -6.71934 0
M  V30 20977 N 1980.79 -1.19951 -5.49152 0
M  V30 20978 H 1972.94 -1.37813 -1.61621 0
M  V30 20979 H 1975.2 -0.566181 -0.760357 0
M  V30 20980 H 1974.91 -1.5961 -3.13397 0
M  V30 20981 H 1974.78 0.033749 -3.77185 0
M  V30 20982 H 1977.17 0.516546 -2.90544 0
M  V30 20983 H 1977.25 -1.14032 -2.28977 0
M  V30 20984 H 1976.89 -2.01546 -4.66199 0
M  V30 20985 H 1976.82 -0.337071 -5.2552 0
M  V30 20986 H 1979.31 -0.64326 -3.72385 0
M  V30 20987 H 1979.63 -1.9273 -7.48381 0
M  V30 20988 H 1977.97 -1.72654 -6.73213 0
M  V30 20989 H 1981.16 -0.879693 -4.5976 0
M  V30 20990 H 1981.34 -1.465 -6.31222 0
M  V30 20991 N 1974.74 1.56975 -0.14025 0
M  V30 20992 C 1975.99 1.95081 0.512469 0
M  V30 20993 C 1976.3 1.02722 1.66456 0
M  V30 20994 O 1977.51 1.3038 2.38146 0
M  V30 20995 C 1975.97 3.46775 0.963057 0
M  V30 20996 C 1975.57 4.47708 -0.161733 0
M  V30 20997 C 1977.32 3.93761 1.58595 0
M  V30 20998 C 1975.22 5.90604 0.306746 0
M  V30 20999 H 1974.15 0.72829 0.195216 0
M  V30 21000 H 1976.81 1.82134 -0.223514 0
M  V30 21001 H 1975.19 3.55032 1.7541 0
M  V30 21002 H 1976.36 4.51141 -0.938529 0
M  V30 21003 H 1974.68 4.10599 -0.692608 0
M  V30 21004 H 1977.27 4.97954 1.94796 0
M  V30 21005 H 1977.62 3.34931 2.47238 0
M  V30 21006 H 1978.15 3.88394 0.859928 0
M  V30 21007 H 1974.89 6.53238 -0.544152 0
M  V30 21008 H 1974.41 5.90546 1.04956 0
M  V30 21009 H 1976.09 6.42509 0.760989 0
M  V30 21010 N 1976.22 -0.133539 1.57033 0
M  V30 21011 C 1977.44 -0.862393 1.8862 0
M  V30 21012 C 1977.87 -1.73328 0.730696 0
M  V30 21013 O 1977.23 -1.78466 -0.319297 0
M  V30 21014 C 1977.28 -1.68381 3.18873 0
M  V30 21015 O 1976.38 -2.78939 3.03755 0
M  V30 21016 H 1975.72 -0.239391 0.619345 0
M  V30 21017 H 1978.25 -0.120306 2.04246 0
M  V30 21018 H 1978.26 -2.07606 3.51232 0
M  V30 21019 H 1976.94 -1.0444 4.02573 0
M  V30 21020 H 1975.51 -2.43022 2.82833 0
M  V30 21021 N 1977.7 -1.52352 -0.403298 0
M  V30 21022 C 1978.66 -1.75482 -1.4744 0
M  V30 21023 C 1979.66 -0.62473 -1.48168 0
M  V30 21024 O 1980.85 -0.892662 -1.4959 0
M  V30 21025 C 1977.98 -1.84253 -2.86817 0
M  V30 21026 H 1979.18 -2.71107 -1.28222 0
M  V30 21027 H 1976.73 -1.42857 -0.634157 0
M  V30 21028 H 1977.46 -0.905623 -3.11398 0
M  V30 21029 H 1977.25 -2.66414 -2.87691 0
M  V30 21030 H 1978.74 -2.03869 -3.64454 0
M  V30 21031 N 1979.18 0.660885 -1.43074 0
M  V30 21032 C 1980.42 1.41668 -1.43572 0
M  V30 21033 C 1980.74 1.95506 -0.0607715 0
M  V30 21034 O 1981.94 2.71441 0.0568092 0
M  V30 21035 C 1980.4 2.56345 -2.52617 0
M  V30 21036 C 1980.01 2.09147 -3.96183 0
M  V30 21037 C 1981.75 3.33765 -2.623 0
M  V30 21038 C 1979.66 3.20989 -4.96709 0
M  V30 21039 H 1978.59 0.532264 -0.534051 0
M  V30 21040 H 1981.24 0.714113 -1.69035 0
M  V30 21041 H 1979.62 3.29036 -2.20343 0
M  V30 21042 H 1980.8 1.43518 -4.3788 0
M  V30 21043 H 1979.11 1.44628 -3.90476 0
M  V30 21044 H 1981.71 4.17085 -3.34581 0
M  V30 21045 H 1982.05 3.81285 -1.67114 0
M  V30 21046 H 1982.58 2.6815 -2.93837 0
M  V30 21047 H 1979.32 2.78445 -5.93421 0
M  V30 21048 H 1978.84 3.85356 -4.59631 0
M  V30 21049 H 1980.52 3.86241 -5.19063 0
M  V30 21050 N 1980.65 1.29477 0.898527 0
M  V30 21051 C 1981.9 1.17516 1.64913 0
M  V30 21052 C 1982.23 -0.273086 1.92573 0
M  V30 21053 O 1981.48 -1.21353 1.53531 0
M  V30 21054 C 1981.78 1.93505 3.00484 0
M  V30 21055 C 1981.45 3.43216 2.92427 0
M  V30 21056 C 1980.11 3.84044 2.89937 0
M  V30 21057 C 1982.46 4.38611 2.81548 0
M  V30 21058 C 1979.79 5.18582 2.74389 0
M  V30 21059 C 1982.14 5.73241 2.67539 0
M  V30 21060 C 1980.81 6.13326 2.63416 0
M  V30 21061 H 1980.08 0.430023 0.603458 0
M  V30 21062 H 1982.72 1.60427 1.04572 0
M  V30 21063 H 1981.03 1.43189 3.64698 0
M  V30 21064 H 1982.73 1.81654 3.57495 0
M  V30 21065 H 1979.32 3.10763 2.95168 0
M  V30 21066 H 1983.5 4.0802 2.82548 0
M  V30 21067 H 1978.76 5.48748 2.69602 0
M  V30 21068 H 1982.93 6.46808 2.58093 0
M  V30 21069 H 1980.56 7.17523 2.51126 0
M  V30 21070 N 1982.13 -1.10905 1.11972 0
M  V30 21071 C 1983.36 -1.87095 0.894991 0
M  V30 21072 C 1983.78 -1.79875 -0.550144 0
M  V30 21073 O 1983.14 -1.16517 -1.38901 0
M  V30 21074 C 1983.19 -3.33634 1.36825 0
M  V30 21075 O 1982.29 -4.08802 0.543553 0
M  V30 21076 H 1981.63 -0.580734 0.321938 0
M  V30 21077 H 1984.16 -1.40152 1.49059 0
M  V30 21078 H 1984.17 -3.84482 1.36519 0
M  V30 21079 H 1982.85 -3.38205 2.42054 0
M  V30 21080 H 1981.43 -3.67824 0.613185 0
M  V30 21081 N 1983.61 -0.910886 -1.2861 0
M  V30 21082 C 1984.84 -0.558332 -1.99224 0
M  V30 21083 C 1985.25 0.859686 -1.68092 0
M  V30 21084 O 1984.61 1.56902 -0.932092 0
M  V30 21085 C 1984.66 -0.754443 -3.5354 0
M  V30 21086 O 1984.38 -2.11666 -3.83574 0
M  V30 21087 C 1985.88 -0.408335 -4.41415 0
M  V30 21088 H 1983.1 -0.213139 -0.636249 0
M  V30 21089 H 1985.65 -1.2233 -1.63877 0
M  V30 21090 H 1983.8 -0.136504 -3.87159 0
M  V30 21091 H 1984.22 -2.15422 -4.78219 0
M  V30 21092 H 1985.69 -0.596337 -5.48769 0
M  V30 21093 H 1986.17 0.655276 -4.34284 0
M  V30 21094 H 1986.77 -1.00369 -4.13287 0
M  V30 21095 N 1985.09 1.42434 -0.674558 0
M  V30 21096 C 1986.34 2.01542 -0.196721 0
M  V30 21097 C 1986.66 1.53331 1.19666 0
M  V30 21098 O 1985.92 0.726066 1.81733 0
M  V30 21099 C 1986.22 3.56948 -0.179695 0
M  V30 21100 C 1985.88 4.2459 -1.51771 0
M  V30 21101 C 1984.55 4.42782 -1.88407 0
M  V30 21102 C 1986.9 4.6271 -2.39893 0
M  V30 21103 C 1984.23 4.96367 -3.12789 0
M  V30 21104 C 1986.58 5.17675 -3.63587 0
M  V30 21105 C 1985.24 5.34081 -4.00392 0
M  V30 21106 H 1984.51 0.737495 -0.0719853 0
M  V30 21107 H 1987.16 1.70622 -0.869495 0
M  V30 21108 H 1985.46 3.87534 0.576588 0
M  V30 21109 H 1987.16 4.00464 0.207226 0
M  V30 21110 H 1983.75 4.10789 -1.22271 0
M  V30 21111 H 1987.93 4.48328 -2.12874 0
M  V30 21112 H 1983.19 5.07254 -3.41326 0
M  V30 21113 H 1987.36 5.46156 -4.32072 0
M  V30 21114 H 1984.99 5.75366 -4.96848 0
M  V30 21115 N 1986.57 0.417871 1.51959 0
M  V30 21116 C 1987.82 -0.156451 2.01092 0
M  V30 21117 C 1988.13 -1.45475 1.30753 0
M  V30 21118 O 1989.33 -2.11085 1.70749 0
M  V30 21119 C 1987.79 -0.329366 3.5839 0
M  V30 21120 C 1987.4 0.957354 4.37651 0
M  V30 21121 C 1989.14 -0.858507 4.15728 0
M  V30 21122 C 1987.05 0.751148 5.8661 0
M  V30 21123 H 1985.98 -0.0622427 0.751427 0
M  V30 21124 H 1988.63 0.544656 1.75231 0
M  V30 21125 H 1987.01 -1.09301 3.80617 0
M  V30 21126 H 1988.19 1.72783 4.2718 0
M  V30 21127 H 1986.5 1.41356 3.91673 0
M  V30 21128 H 1989.1 -1.02896 5.24706 0
M  V30 21129 H 1989.44 -1.83563 3.73645 0
M  V30 21130 H 1989.97 -0.153688 3.97503 0
M  V30 21131 H 1986.71 1.70008 6.3307 0
M  V30 21132 H 1986.23 0.0201287 5.99797 0
M  V30 21133 H 1987.91 0.396724 6.45783 0
M  V30 21134 N 1988.04 -1.56898 0.148573 0
M  V30 21135 C 1989.29 -1.95788 -0.501154 0
M  V30 21136 C 1989.61 -1.03451 -1.65297 0
M  V30 21137 O 1988.88 -0.0963607 -1.95663 0
M  V30 21138 H 1987.46 -0.722922 -0.188129 0
M  V30 21139 H 1990.13 -1.93603 0.224439 0
M  V30 21140 H 1989.22 -2.99547 -0.876258 0
M  V30 21141 N 1989.52 0.125209 -1.57102 0
M  V30 21142 C 1990.43 1.17286 -2.03177 0
M  V30 21143 C 1991.45 1.4571 -0.951035 0
M  V30 21144 O 1992.62 1.56949 -1.2621 0
M  V30 21145 C 1989.69 2.4811 -2.42161 0
M  V30 21146 C 1988.75 2.2714 -3.64288 0
M  V30 21147 C 1987.98 3.51726 -4.01404 0
M  V30 21148 O 1988.21 4.58785 -3.38929 0
M  V30 21149 O 1987.14 3.43096 -4.94539 0
M  V30 21150 H 1990.97 0.811619 -2.92654 0
M  V30 21151 H 1988.55 0.335551 -1.45583 0
M  V30 21152 H 1990.43 3.252 -2.67998 0
M  V30 21153 H 1989.11 2.83721 -1.55833 0
M  V30 21154 H 1988.02 1.47929 -3.4361 0
M  V30 21155 H 1989.35 1.96435 -4.51303 0
M  V30 21156 N 1991 1.52564 0.395213 0
M  V30 21157 C 1991.95 1.73281 1.48181 0
M  V30 21158 C 1992.93 0.586818 1.49817 0
M  V30 21159 O 1994.13 0.844419 1.55559 0
M  V30 21160 C 1991.26 1.89948 2.85963 0
M  V30 21161 C 1990.34 3.10461 2.8892 0
M  V30 21162 N 1990.73 4.32923 2.61556 0
M  V30 21163 C 1989.03 3.10579 3.20088 0
M  V30 21164 C 1989.73 5.14487 2.71438 0
M  V30 21165 N 1988.71 4.50037 3.04906 0
M  V30 21166 H 1992.51 2.65596 1.25841 0
M  V30 21167 H 1990.02 1.50787 0.603091 0
M  V30 21168 H 1992.02 2.0291 3.64188 0
M  V30 21169 H 1990.68 0.988426 3.0929 0
M  V30 21170 H 1991.69 4.61161 2.35692 0
M  V30 21171 H 1988.37 2.29261 3.48921 0
M  V30 21172 H 1989.76 6.22089 2.53879 0
M  V30 21173 N 1992.48 -0.653289 1.43422 0
M  V30 21174 C 1993.71 -1.43884 1.4826 0
M  V30 21175 C 1994.12 -1.88941 0.099053 0
M  V30 21176 O 1993.46 -1.60087 -0.900983 0
M  V30 21177 C 1993.52 -2.70658 2.3661 0
M  V30 21178 C 1993.19 -2.47542 3.84151 0
M  V30 21179 C 1994.18 -2.10769 4.75261 0
M  V30 21180 C 1991.87 -2.61868 4.28638 0
M  V30 21181 C 1993.86 -1.8862 6.08853 0
M  V30 21182 C 1991.55 -2.39334 5.62283 0
M  V30 21183 C 1992.55 -2.02766 6.52208 0
M  V30 21184 O 1992.23 -1.80467 7.83382 0
M  V30 21185 H 1991.97 -0.448491 0.505798 0
M  V30 21186 H 1994.52 -0.808217 1.88831 0
M  V30 21187 H 1992.75 -3.3628 1.90927 0
M  V30 21188 H 1994.44 -3.32607 2.32652 0
M  V30 21189 H 1995.21 -1.99277 4.42169 0
M  V30 21190 H 1991.08 -2.89306 3.58919 0
M  V30 21191 H 1994.63 -1.60001 6.79003 0
M  V30 21192 H 1990.53 -2.50429 5.94942 0
M  V30 21193 H 1991.29 -1.94893 7.94959 0
M  V30 21194 N 1993.96 -1.29952 -0.891648 0
M  V30 21195 C 1995.2 -1.18565 -1.6453 0
M  V30 21196 C 1995.54 0.260539 -1.92444 0
M  V30 21197 O 1994.81 1.18723 -1.54062 0
M  V30 21198 C 1995.09 -2.00774 -2.98934 0
M  V30 21199 C 1994.95 -3.53577 -2.78035 0
M  V30 21200 C 1996.27 -1.84038 -3.99772 0
M  V30 21201 H 1993.38 -0.432073 -0.597061 0
M  V30 21202 H 1996.03 -1.59512 -1.03227 0
M  V30 21203 H 1994.18 -1.65981 -3.51258 0
M  V30 21204 H 1995.85 -3.98394 -2.3255 0
M  V30 21205 H 1994.09 -3.78095 -2.12665 0
M  V30 21206 H 1994.76 -4.06381 -3.73575 0
M  V30 21207 H 1997.24 -2.14444 -3.56585 0
M  V30 21208 H 1996.11 -2.43896 -4.91737 0
M  V30 21209 H 1996.38 -0.797726 -4.34843 0
M  V30 21210 N 1995.44 1.1031 -1.12559 0
M  V30 21211 C 1996.39 2.14835 -0.763553 0
M  V30 21212 C 1997.37 1.59129 0.238075 0
M  V30 21213 O 1998.56 1.76947 0.043378 0
M  V30 21214 C 1995.69 3.42586 -0.221241 0
M  V30 21215 C 1994.78 4.05222 -1.25124 0
M  V30 21216 N 1995.17 4.42543 -2.44927 0
M  V30 21217 C 1993.47 4.32301 -1.0969 0
M  V30 21218 C 1994.17 4.91767 -3.10709 0
M  V30 21219 N 1993.14 4.88655 -2.38154 0
M  V30 21220 H 1996.94 2.41484 -1.67519 0
M  V30 21221 H 1994.46 1.27445 -1.00656 0
M  V30 21222 H 1996.46 4.16862 0.0563207 0
M  V30 21223 H 1995.12 3.17396 0.684837 0
M  V30 21224 H 1996.13 4.34197 -2.82299 0
M  V30 21225 H 1992.8 4.16761 -0.248225 0
M  V30 21226 H 1994.19 5.30181 -4.12744 0
M  V30 21227 N 1996.91 0.917694 1.28125 0
M  V30 21228 C 1998.16 0.553715 1.95094 0
M  V30 21229 C 1998.49 -0.900999 1.72034 0
M  V30 21230 O 1997.77 -1.64132 1.04359 0
M  V30 21231 C 1998.05 0.868367 3.49473 0
M  V30 21232 C 1997.9 2.3761 3.81918 0
M  V30 21233 C 1999.22 0.367261 4.38565 0
M  V30 21234 H 1996.34 0.202644 0.708593 0
M  V30 21235 H 1998.98 1.14765 1.51423 0
M  V30 21236 H 1997.13 0.362898 3.86801 0
M  V30 21237 H 1998.81 2.95249 3.54437 0
M  V30 21238 H 1997.05 2.82945 3.28823 0
M  V30 21239 H 1997.72 2.5468 4.89737 0
M  V30 21240 H 2000.2 0.800328 4.08331 0
M  V30 21241 H 1999.07 0.616464 5.45427 0
M  V30 21242 H 1999.33 -0.732497 4.3599 0
M  V30 21243 N 1998.39 -1.42074 0.682102 0
M  V30 21244 C 1999.34 -2.326 -0.00324978 0
M  V30 21245 C 2000.33 -1.50226 -0.782851 0
M  V30 21246 O 2001.54 -1.6625 -0.689991 0
M  V30 21247 H 1997.91 -0.751738 -0.0198484 0
M  V30 21248 H 1999.89 -2.88093 0.777513 0
M  V30 21249 C 1998.63 -3.3488 -0.935455 0
M  V30 21250 H 1997.96 -3.98309 -0.344986 0
M  V30 21251 H 1999.4 -4.00791 -1.38355 0
M  V30 21252 C 1997.86 -2.67711 -2.0453 0
M  V30 21253 O 1998.39 -2.5146 -3.13258 0
M  V30 21254 N 1996.59 -2.2662 -1.81912 0
M  V30 21255 H 1996.14 -2.40037 -0.934876 0
M  V30 21256 H 1996.1 -1.82011 -2.56358 0
M  V30 21257 N 1999.87 -0.425924 -1.51735 0
M  V30 21258 C 2000.83 0.379497 -2.26036 0
M  V30 21259 C 2001.83 0.95944 -1.2904 0
M  V30 21260 O 2003.02 0.83568 -1.52846 0
M  V30 21261 C 2000.15 1.5358 -3.04345 0
M  V30 21262 H 2001.35 -0.271515 -2.98668 0
M  V30 21263 H 1998.9 -0.17882 -1.55274 0
M  V30 21264 H 1999.64 2.2232 -2.36103 0
M  V30 21265 H 1999.42 1.12626 -3.75577 0
M  V30 21266 H 2000.91 2.10513 -3.60658 0
M  V30 21267 N 2001.35 1.56817 -0.156891 0
M  V30 21268 C 2002.58 2.00807 0.498405 0
M  V30 21269 C 2002.99 1.03706 1.57768 0
M  V30 21270 O 2002.35 0.0356068 1.82465 0
M  V30 21271 C 2002.4 3.44676 1.08999 0
M  V30 21272 O 2002.12 4.38067 0.053817 0
M  V30 21273 C 2003.62 4.03994 1.82493 0
M  V30 21274 H 2000.84 0.658505 0.128888 0
M  V30 21275 H 2003.38 2.02912 -0.254383 0
M  V30 21276 H 2001.54 3.43392 1.79334 0
M  V30 21277 H 2001.95 5.2222 0.488568 0
M  V30 21278 H 2003.43 5.06627 2.19164 0
M  V30 21279 H 2003.9 3.45265 2.71456 0
M  V30 21280 H 2004.51 4.08938 1.16833 0
M  V30 21281 N 2002.83 -0.116876 1.57166 0
M  V30 21282 C 2004.06 -0.837201 1.88877 0
M  V30 21283 C 2004.46 -1.73852 0.746471 0
M  V30 21284 O 2003.81 -1.8137 -0.291637 0
M  V30 21285 C 2003.87 -1.7211 3.15624 0
M  V30 21286 C 2003.53 -0.993867 4.46062 0
M  V30 21287 C 2004.53 -0.333693 5.18828 0
M  V30 21288 C 2002.21 -0.974414 4.92758 0
M  V30 21289 C 2004.21 0.336212 6.36513 0
M  V30 21290 C 2001.9 -0.300712 6.1036 0
M  V30 21291 C 2002.89 0.353444 6.82085 0
M  V30 21292 O 2002.58 1.01639 7.97449 0
M  V30 21293 H 2002.31 -0.245856 0.629707 0
M  V30 21294 H 2004.87 -0.105177 2.05131 0
M  V30 21295 H 2003.1 -2.49482 2.95458 0
M  V30 21296 H 2004.79 -2.31604 3.33338 0
M  V30 21297 H 2005.55 -0.340327 4.83804 0
M  V30 21298 H 2001.43 -1.47301 4.36833 0
M  V30 21299 H 2004.98 0.847382 6.92434 0
M  V30 21300 H 2000.87 -0.291848 6.4484 0
M  V30 21301 H 2001.64 0.921082 8.13301 0
M  V30 21302 N 2004.3 -1.52772 -0.387116 0
M  V30 21303 C 2005.55 -1.68156 -1.13364 0
M  V30 21304 C 2005.88 -0.421195 -1.89577 0
M  V30 21305 O 2005.16 0.581056 -1.85618 0
M  V30 21306 C 2005.44 -2.91781 -2.11036 0
M  V30 21307 C 2005.29 -4.27922 -1.38573 0
M  V30 21308 C 2006.61 -3.10957 -3.11438 0
M  V30 21309 H 2003.73 -0.611922 -0.410755 0
M  V30 21310 H 2006.37 -1.85372 -0.416809 0
M  V30 21311 H 2004.52 -2.77234 -2.72165 0
M  V30 21312 H 2006.2 -4.54241 -0.803941 0
M  V30 21313 H 2004.44 -4.28316 -0.687576 0
M  V30 21314 H 2005.11 -5.10514 -2.09952 0
M  V30 21315 H 2007.59 -3.24547 -2.604 0
M  V30 21316 H 2006.46 -3.9893 -3.77022 0
M  V30 21317 H 2006.72 -2.25258 -3.80409 0
M  V30 21318 N 2005.78 0.645673 -1.43767 0
M  V30 21319 C 2006.73 1.7795 -1.49788 0
M  V30 21320 C 2007.72 1.65292 -0.370806 0
M  V30 21321 O 2008.93 1.71547 -0.545129 0
M  V30 21322 H 2005.3 0.587242 -0.469735 0
M  V30 21323 H 2007.28 1.69992 -2.45245 0
M  V30 21324 C 2006.02 3.16238 -1.44529 0
M  V30 21325 H 2005.35 3.2662 -2.30564 0
M  V30 21326 H 2006.79 3.95509 -1.52803 0
M  V30 21327 C 2005.25 3.36501 -0.163941 0
M  V30 21328 O 2005.78 3.94217 0.771735 0
M  V30 21329 N 2003.98 2.90511 -0.0717151 0
M  V30 21330 H 2003.53 2.43727 -0.833957 0
M  V30 21331 H 2003.49 3.04445 0.784901 0
M  V30 21332 N 2007.26 1.30423 0.884744 0
M  V30 21333 C 2008.51 1.19435 1.63899 0
M  V30 21334 C 2008.84 -0.25033 1.9258 0
M  V30 21335 O 2008.11 -1.17904 1.5469 0
M  V30 21336 C 2008.4 2.02357 2.97865 0
M  V30 21337 C 2008.25 3.55046 2.76156 0
M  V30 21338 C 2009.57 1.86156 3.98791 0
M  V30 21339 H 2006.69 0.435234 0.594761 0
M  V30 21340 H 2009.33 1.60058 1.0238 0
M  V30 21341 H 2007.48 1.67842 3.50373 0
M  V30 21342 H 2009.15 3.99622 2.30434 0
M  V30 21343 H 2007.39 3.79218 2.10657 0
M  V30 21344 H 2008.07 4.08356 3.71415 0
M  V30 21345 H 2010.54 2.16332 3.55443 0
M  V30 21346 H 2009.42 2.46501 4.90437 0
M  V30 21347 H 2009.68 0.820775 4.34414 0
M  V30 21348 N 2008.74 -1.09711 1.13142 0
M  V30 21349 C 2009.68 -2.16265 0.806118 0
M  V30 21350 C 2010.65 -1.64493 -0.230476 0
M  V30 21351 O 2011.84 -1.9052 -0.103375 0
M  V30 21352 C 2008.98 -3.44002 0.275075 0
M  V30 21353 C 2008.09 -4.09688 1.37038 0
M  V30 21354 C 2007.23 -5.25172 0.797983 0
M  V30 21355 C 2006.27 -5.82775 1.87189 0
M  V30 21356 N 2005.4 -6.89625 1.31766 0
M  V30 21357 H 2010.24 -2.43434 1.71883 0
M  V30 21358 H 2007.78 -1.19482 0.858044 0
M  V30 21359 H 2009.74 -4.17169 -0.0509244 0
M  V30 21360 H 2008.37 -3.1716 -0.600779 0
M  V30 21361 H 2007.42 -3.34415 1.81302 0
M  V30 21362 H 2008.73 -4.48535 2.18215 0
M  V30 21363 H 2007.89 -6.05223 0.423093 0
M  V30 21364 H 2006.63 -4.87679 -0.0448997 0
M  V30 21365 H 2005.63 -5.01388 2.25588 0
M  V30 21366 H 2006.86 -6.2233 2.71812 0
M  V30 21367 H 2004.8 -6.54117 0.496729 0
M  V30 21368 H 2004.72 -7.27224 2.06594 0
M  V30 21369 H 2005.99 -7.73438 0.970242 0
M  V30 21370 N 2010.22 -0.924476 -1.27637 0
M  V30 21371 C 2011.46 -0.570467 -1.96278 0
M  V30 21372 C 2011.82 0.87151 -1.71081 0
M  V30 21373 O 2013.02 1.33363 -2.33383 0
M  V30 21374 C 2011.29 -0.883702 -3.46303 0
M  V30 21375 S 2012.85 -0.637722 -4.34141 0
M  V30 21376 H 2009.67 -0.210692 -0.679065 0
M  V30 21377 H 2012.27 -1.19222 -1.5494 0
M  V30 21378 H 2010.98 -1.9309 -3.62138 0
M  V30 21379 H 2010.51 -0.251014 -3.92598 0
M  V30 21380 H 2012.52 0.505988 -4.93613 0
M  V30 21381 N 2011.69 1.41711 -0.689627 0
M  V30 21382 C 2012.94 2.0162 -0.218409 0
M  V30 21383 C 2013.27 1.54471 1.17696 0
M  V30 21384 O 2012.55 0.753301 1.7932 0
M  V30 21385 C 2012.83 3.5909 -0.269485 0
M  V30 21386 C 2012.68 4.16381 -1.70137 0
M  V30 21387 C 2014 4.38508 0.374046 0
M  V30 21388 H 2011.12 0.732553 -0.0808378 0
M  V30 21389 H 2013.76 1.68537 -0.877222 0
M  V30 21390 H 2011.91 3.87405 0.291466 0
M  V30 21391 H 2013.59 3.98964 -2.31571 0
M  V30 21392 H 2011.83 3.71648 -2.23741 0
M  V30 21393 H 2012.5 5.25535 -1.68869 0
M  V30 21394 H 2014.98 4.15971 -0.103624 0
M  V30 21395 H 2013.85 5.48037 0.307738 0
M  V30 21396 H 2014.11 4.1751 1.45388 0
M  V30 21397 N 2013.17 0.433965 1.51507 0
M  V30 21398 C 2014.14 -0.367505 2.26234 0
M  V30 21399 C 2015.14 -0.952583 1.29547 0
M  V30 21400 O 2016.33 -0.827563 1.53287 0
M  V30 21401 C 2013.46 -1.51964 3.05155 0
M  V30 21402 H 2014.65 0.28735 2.9852 0
M  V30 21403 H 2012.2 0.187052 1.55177 0
M  V30 21404 H 2012.94 -2.21064 2.37278 0
M  V30 21405 H 2012.72 -1.10632 3.76169 0
M  V30 21406 H 2014.21 -2.08597 3.61769 0
M  V30 21407 N 2014.65 -1.56732 0.165206 0
M  V30 21408 C 2016.06 -1.83341 -0.352565 0
M  V30 21409 C 2016.41 -1.08475 -1.63486 0
M  V30 21410 O 2015.54 -0.335821 -2.13778 0
M  V30 21411 C 2016.13 -3.32576 -0.646444 0
M  V30 21412 C 2014.69 -3.59702 -1.10867 0
M  V30 21413 C 2013.84 -2.7694 -0.14131 0
M  V30 21414 H 2016.79 -1.53844 0.389583 0
M  V30 21415 H 2016.81 -3.49721 -1.49918 0
M  V30 21416 H 2016.32 -3.87037 0.287005 0
M  V30 21417 H 2014.42 -3.10645 -2.05744 0
M  V30 21418 H 2014.54 -4.68071 -1.02206 0
M  V30 21419 H 2012.9 -2.46593 -0.637492 0
M  V30 21420 H 2013.68 -3.3418 0.786052 0
M  V30 21421 N 2016.13 0.10854 -1.57226 0
M  V30 21422 C 2017.36 0.827173 -1.89318 0
M  V30 21423 C 2017.77 1.73453 -0.755681 0
M  V30 21424 O 2017.11 1.81522 0.282015 0
M  V30 21425 C 2017.17 1.70434 -3.16532 0
M  V30 21426 C 2016.84 0.970197 -4.46583 0
M  V30 21427 C 2017.83 0.306173 -5.18998 0
M  V30 21428 C 2015.52 0.948268 -4.93268 0
M  V30 21429 C 2017.51 -0.369963 -6.36325 0
M  V30 21430 C 2015.2 0.268339 -6.10511 0
M  V30 21431 C 2016.2 -0.389611 -6.81888 0
M  V30 21432 O 2015.88 -1.05867 -7.96899 0
M  V30 21433 H 2015.62 0.242513 -0.631002 0
M  V30 21434 H 2018.17 0.0942966 -2.05183 0
M  V30 21435 H 2016.4 2.47912 -2.96777 0
M  V30 21436 H 2018.09 2.29833 -3.34562 0
M  V30 21437 H 2018.86 0.314665 -4.83978 0
M  V30 21438 H 2014.73 1.44982 -4.37608 0
M  V30 21439 H 2018.28 -0.884092 -6.91975 0
M  V30 21440 H 2014.18 0.257647 -6.44986 0
M  V30 21441 H 2014.94 -0.964201 -8.12801 0
M  V30 21442 N 2017.61 1.52975 0.379009 0
M  V30 21443 C 2019.02 1.60338 0.956477 0
M  V30 21444 C 2019.37 0.462422 1.90673 0
M  V30 21445 O 2018.49 -0.413093 2.12421 0
M  V30 21446 C 2019.09 2.90615 1.74151 0
M  V30 21447 C 2017.65 3.00358 2.26853 0
M  V30 21448 C 2016.79 2.55532 1.07697 0
M  V30 21449 H 2019.75 1.57909 0.158228 0
M  V30 21450 H 2019.77 2.77662 2.60161 0
M  V30 21451 H 2019.28 3.73636 1.04965 0
M  V30 21452 H 2017.38 2.21895 2.99321 0
M  V30 21453 H 2017.49 4.05188 2.55655 0
M  V30 21454 H 2015.86 2.10088 1.43997 0
M  V30 21455 H 2016.64 3.40958 0.400297 0
M  V30 21456 N 2019.08 -0.63804 1.44107 0
M  V30 21457 C 2020.31 -1.43004 1.50215 0
M  V30 21458 C 2020.73 -1.87678 0.125903 0
M  V30 21459 O 2020.09 -1.58316 -0.883508 0
M  V30 21460 C 2020.14 -2.63112 2.46585 0
M  V30 21461 O 2019.24 -3.62706 1.9626 0
M  V30 21462 H 2018.59 -0.428173 0.507508 0
M  V30 21463 H 2021.12 -0.779402 1.89173 0
M  V30 21464 H 2021.13 -3.10742 2.64393 0
M  V30 21465 H 2019.8 -2.29941 3.46554 0
M  V30 21466 H 2018.38 -3.21932 1.88186 0
M  V30 21467 N 2020.56 -1.3089 -0.877815 0
M  V30 21468 C 2021.49 -1.20459 -2.0003 0
M  V30 21469 C 2022.47 -0.0935765 -1.69842 0
M  V30 21470 O 2023.66 -0.276838 -1.92217 0
M  V30 21471 C 2020.79 -0.903041 -3.35354 0
M  V30 21472 C 2019.74 -1.97277 -3.79823 0
M  V30 21473 C 2019.07 -1.52407 -5.12519 0
M  V30 21474 C 2020.37 -3.38484 -3.97776 0
M  V30 21475 H 2022.06 -2.14367 -2.09014 0
M  V30 21476 H 2019.61 -1.03203 -1.00425 0
M  V30 21477 H 2021.56 -0.816699 -4.1341 0
M  V30 21478 H 2020.29 0.0717143 -3.26521 0
M  V30 21479 H 2018.94 -2.04887 -3.04001 0
M  V30 21480 H 2018.59 -0.537386 -5.00121 0
M  V30 21481 H 2018.29 -2.23964 -5.43244 0
M  V30 21482 H 2019.82 -1.45165 -5.93093 0
M  V30 21483 H 2021.23 -3.33593 -4.6625 0
M  V30 21484 H 2019.63 -4.0819 -4.39887 0
M  V30 21485 H 2020.7 -3.79847 -3.01403 0
M  V30 21486 N 2022.04 1.0911 -1.13723 0
M  V30 21487 C 2022.97 2.17859 -0.840227 0
M  V30 21488 C 2023.95 1.68899 0.201778 0
M  V30 21489 O 2025.14 1.94107 0.0600046 0
M  V30 21490 C 2022.27 3.45922 -0.309024 0
M  V30 21491 C 2021.22 4.08234 -1.28565 0
M  V30 21492 C 2020.55 5.31162 -0.614064 0
M  V30 21493 C 2021.85 4.50354 -2.64534 0
M  V30 21494 H 2023.54 2.4296 -1.74959 0
M  V30 21495 H 2021.09 1.16771 -0.842653 0
M  V30 21496 H 2023.04 4.21306 -0.088895 0
M  V30 21497 H 2021.76 3.20353 0.635735 0
M  V30 21498 H 2020.42 3.34873 -1.49183 0
M  V30 21499 H 2020.07 5.01875 0.336272 0
M  V30 21500 H 2019.77 5.73807 -1.26566 0
M  V30 21501 H 2021.29 6.09267 -0.403293 0
M  V30 21502 H 2022.71 5.16948 -2.47866 0
M  V30 21503 H 2021.11 5.03894 -3.259 0
M  V30 21504 H 2022.18 3.62594 -3.21952 0
M  V30 21505 N 2023.52 0.931232 1.27145 0
M  V30 21506 C 2024.74 0.589393 1.98849 0
M  V30 21507 C 2025.17 -0.82637 1.68976 0
M  V30 21508 O 2024.53 -1.55507 0.93205 0
M  V30 21509 C 2024.57 0.826135 3.51009 0
M  V30 21510 O 2023.68 -0.106581 4.12262 0
M  V30 21511 H 2023.02 0.226532 0.624163 0
M  V30 21512 H 2025.55 1.25145 1.61864 0
M  V30 21513 H 2025.56 0.743094 4.01176 0
M  V30 21514 H 2024.23 1.85812 3.72084 0
M  V30 21515 H 2022.81 0.0266735 3.7289 0
M  V30 21516 N 2025 -1.41343 0.697132 0
M  V30 21517 C 2026.22 -2.06049 0.236356 0
M  V30 21518 C 2026.65 -1.52124 -1.10634 0
M  V30 21519 O 2026.01 -0.648852 -1.69291 0
M  V30 21520 C 2026.05 -3.6001 0.206185 0
M  V30 21521 O 2025.16 -4.04197 -0.818466 0
M  V30 21522 H 2024.5 -0.65395 0.115091 0
M  V30 21523 H 2027.03 -1.8108 0.952431 0
M  V30 21524 H 2027.04 -4.07983 0.0375737 0
M  V30 21525 H 2025.71 -3.98628 1.18612 0
M  V30 21526 H 2024.29 -3.67725 -0.619082 0
M  V30 21527 N 2026.48 -0.441993 -1.51275 0
M  V30 21528 C 2027.39 0.373145 -2.31613 0
M  V30 21529 C 2028.4 1.02333 -1.40726 0
M  V30 21530 O 2029.58 1.01768 -1.73796 0
M  V30 21531 C 2026.64 1.45705 -3.14597 0
M  V30 21532 C 2025.7 0.826508 -4.21269 0
M  V30 21533 C 2024.94 1.85876 -5.00286 0
M  V30 21534 O 2025.16 3.08159 -4.79994 0
M  V30 21535 O 2024.09 1.44671 -5.84255 0
M  V30 21536 H 2027.92 -0.282837 -3.0238 0
M  V30 21537 H 2025.5 -0.204432 -1.47995 0
M  V30 21538 H 2027.39 2.08556 -3.66172 0
M  V30 21539 H 2026.06 2.09703 -2.46589 0
M  V30 21540 H 2024.97 0.15982 -3.73758 0
M  V30 21541 H 2026.3 0.229942 -4.91663 0
M  V30 21542 N 2027.95 1.56642 -0.173515 0
M  V30 21543 C 2029.23 1.88634 0.517348 0
M  V30 21544 C 2029.61 1.08374 1.81158 0
M  V30 21545 O 2028.96 0.178319 2.27803 0
M  V30 21546 C 2029.17 3.40689 0.757118 0
M  V30 21547 C 2030.52 4.10473 1.08614 0
M  V30 21548 O 2031.54 3.46018 0.845582 0
M  V30 21549 O 2030.4 5.24351 1.54008 0
M  V30 21550 H 2027.49 0.782731 0.266949 0
M  V30 21551 H 2030.04 1.68369 -0.212115 0
M  V30 21552 H 2028.81 3.90982 -0.157737 0
M  V30 21553 H 2028.43 3.66572 1.53982 0
M  V30 21554 N 2029.43 -0.1002 1.57281 0
M  V30 21555 C 2030.38 -1.14082 2.02702 0
M  V30 21556 C 2031.37 -1.41773 0.927183 0
M  V30 21557 O 2032.58 -1.41514 1.11237 0
M  V30 21558 H 2028.95 -0.385095 0.645915 0
M  V30 21559 H 2030.93 -0.731375 2.89298 0
M  V30 21560 C 2029.67 -2.45424 2.46297 0
M  V30 21561 H 2029 -2.24959 3.30505 0
M  V30 21562 H 2030.44 -3.16752 2.81859 0
M  V30 21563 C 2028.9 -3.09356 1.33418 0
M  V30 21564 O 2029.43 -3.96233 0.660494 0
M  V30 21565 N 2027.63 -2.69526 1.08646 0
M  V30 21566 H 2027.18 -1.98972 1.63609 0
M  V30 21567 H 2027.14 -3.1263 0.333186 0
M  V30 21568 N 2030.91 -1.53174 -0.370891 0
M  V30 21569 C 2031.87 -1.7857 -1.43685 0
M  V30 21570 C 2032.87 -0.656018 -1.4681 0
M  V30 21571 O 2034.06 -0.924191 -1.47663 0
M  V30 21572 C 2031.19 -1.90295 -2.82844 0
M  V30 21573 H 2032.39 -2.73766 -1.22442 0
M  V30 21574 H 2029.94 -1.4417 -0.603713 0
M  V30 21575 H 2030.68 -0.971472 -3.09407 0
M  V30 21576 H 2030.46 -2.72456 -2.81975 0
M  V30 21577 H 2031.95 -2.11554 -3.60048 0
M  V30 21578 N 2032.39 0.630389 -1.44443 0
M  V30 21579 C 2033.66 1.38877 -1.3774 0
M  V30 21580 C 2034.04 2.11068 -0.0364918 0
M  V30 21581 O 2033.39 2.06373 0.98094 0
M  V30 21582 C 2033.6 2.35458 -2.57606 0
M  V30 21583 C 2034.95 2.98766 -3.01702 0
M  V30 21584 O 2035.97 2.45783 -2.57816 0
M  V30 21585 O 2034.83 3.94883 -3.77796 0
M  V30 21586 H 2031.93 0.621587 -0.54549 0
M  V30 21587 H 2034.47 0.655382 -1.56534 0
M  V30 21588 H 2033.25 1.81218 -3.46808 0
M  V30 21589 H 2032.87 3.16213 -2.41029 0
M  V30 21590 N 2033.87 1.31354 0.870861 0
M  V30 21591 C 2035.14 1.11627 1.6062 0
M  V30 21592 C 2035.52 -0.329351 2.08515 0
M  V30 21593 O 2034.87 -1.3233 1.86282 0
M  V30 21594 C 2035.08 2.12968 2.76488 0
M  V30 21595 C 2036.43 2.45442 3.46473 0
M  V30 21596 O 2037.45 2.11388 2.86694 0
M  V30 21597 O 2036.31 3.03753 4.54309 0
M  V30 21598 H 2033.41 0.429682 0.706614 0
M  V30 21599 H 2035.95 1.42829 0.916402 0
M  V30 21600 H 2034.72 3.10212 2.38504 0
M  V30 21601 H 2034.35 1.82666 3.53156 0
M  V30 21602 N 2035.34 -1.08505 1.143 0
M  V30 21603 C 2036.25 -2.18944 0.84266 0
M  V30 21604 C 2037.27 -1.73103 -0.17648 0
M  V30 21605 O 2038.45 -2.01399 -0.0052364 0
M  V30 21606 C 2035.51 -3.45189 0.323347 0
M  V30 21607 C 2034.57 -4.05661 1.40492 0
M  V30 21608 C 2033.8 -5.2588 0.910289 0
M  V30 21609 O 2034.03 -5.69858 -0.248616 0
M  V30 21610 O 2032.96 -5.77722 1.68882 0
M  V30 21611 H 2036.79 -2.47104 1.76559 0
M  V30 21612 H 2034.37 -1.17621 0.921181 0
M  V30 21613 H 2036.25 -4.21381 0.039611 0
M  V30 21614 H 2034.93 -3.18608 -0.571874 0
M  V30 21615 H 2033.84 -3.31061 1.7421 0
M  V30 21616 H 2035.17 -4.36488 2.27462 0
M  V30 21617 N 2036.82 -0.937962 -1.26649 0
M  V30 21618 C 2038.07 -0.584683 -1.94189 0
M  V30 21619 C 2038.4 0.873516 -1.73446 0
M  V30 21620 O 2037.68 1.62451 -1.06957 0
M  V30 21621 C 2037.96 -0.923855 -3.48047 0
M  V30 21622 C 2037.81 -2.43656 -3.7809 0
M  V30 21623 C 2039.13 -0.436986 -4.37925 0
M  V30 21624 H 2036.25 -0.213892 -0.70528 0
M  V30 21625 H 2038.89 -1.1716 -1.49578 0
M  V30 21626 H 2037.04 -0.424389 -3.86175 0
M  V30 21627 H 2038.71 -3.00851 -3.49695 0
M  V30 21628 H 2036.96 -2.88141 -3.2428 0
M  V30 21629 H 2037.63 -2.62439 -4.85623 0
M  V30 21630 H 2040.1 -0.865189 -4.07006 0
M  V30 21631 H 2038.98 -0.703159 -5.44378 0
M  V30 21632 H 2039.24 0.663042 -4.371 0
M  V30 21633 N 2038.3 1.40971 -0.704618 0
M  V30 21634 C 2039.58 1.94885 -0.167059 0
M  V30 21635 C 2039.96 1.64346 1.3249 0
M  V30 21636 O 2039.3 0.955268 2.07574 0
M  V30 21637 C 2039.51 3.45847 -0.468035 0
M  V30 21638 C 2040.86 4.22705 -0.400704 0
M  V30 21639 O 2041.89 3.53908 -0.403464 0
M  V30 21640 O 2040.75 5.45255 -0.368676 0
M  V30 21641 H 2037.84 0.826752 -0.0202699 0
M  V30 21642 H 2040.39 1.50639 -0.7814 0
M  V30 21643 H 2039.16 3.61392 -1.50038 0
M  V30 21644 H 2038.78 3.97207 0.176823 0
M  V30 21645 N 2039.78 0.45001 1.51039 0
M  V30 21646 C 2041.01 -0.110496 2.06605 0
M  V30 21647 C 2041.42 -1.35362 1.31615 0
M  V30 21648 O 2040.78 -1.78515 0.379306 0
M  V30 21649 C 2040.83 -0.419948 3.59052 0
M  V30 21650 O 2040.55 0.773848 4.31211 0
M  V30 21651 C 2042.05 -1.02974 4.31174 0
M  V30 21652 H 2039.27 -0.00230221 0.670996 0
M  V30 21653 H 2041.82 0.632737 1.94465 0
M  V30 21654 H 2039.97 -1.11309 3.71065 0
M  V30 21655 H 2040.38 0.505717 5.22056 0
M  V30 21656 H 2041.86 -1.19617 5.38884 0
M  V30 21657 H 2042.34 -2.01422 3.9029 0
M  V30 21658 H 2042.94 -0.375607 4.23638 0
M  V30 21659 N 2041.26 -1.56548 0.18182 0
M  V30 21660 C 2042.67 -1.58646 -0.174214 0
M  V30 21661 C 2042.87 -1.19756 -1.62052 0
M  V30 21662 O 2041.93 -0.914071 -2.35374 0
M  V30 21663 C 2043.24 -3.00476 0.116117 0
M  V30 21664 C 2044.79 -3.12951 0.0551643 0
M  V30 21665 C 2045.26 -4.5689 0.318626 0
M  V30 21666 N 2046.76 -4.62431 0.266773 0
M  V30 21667 C 2047.49 -5.71673 0.444657 0
M  V30 21668 N 2046.99 -6.89433 0.682169 0
M  V30 21669 N 2048.78 -5.60815 0.379832 0
M  V30 21670 H 2040.93 -1.80112 1.12576 0
M  V30 21671 H 2043.19 -0.835277 0.448348 0
M  V30 21672 H 2042.9 -3.33443 1.11843 0
M  V30 21673 H 2042.77 -3.72598 -0.587444 0
M  V30 21674 H 2045.16 -2.79805 -0.937734 0
M  V30 21675 H 2045.24 -2.43243 0.791599 0
M  V30 21676 H 2044.89 -4.90748 1.30878 0
M  V30 21677 H 2044.82 -5.24771 -0.438543 0
M  V30 21678 H 2047.31 -3.77795 0.0892717 0
M  V30 21679 H 2047.62 -7.68574 0.80707 0
M  V30 21680 H 2045.96 -6.91272 0.718908 0
M  V30 21681 H 2049.16 -4.67695 0.194792 0
M  V30 21682 H 2049.33 -6.45895 0.521886 0
M  V30 21683 N 2042.73 0.0918577 -1.57332 0
M  V30 21684 C 2044.15 0.646006 -1.75167 0
M  V30 21685 C 2044.5 1.78949 -0.804463 0
M  V30 21686 O 2043.62 2.16394 0.0162775 0
M  V30 21687 C 2044.22 1.17865 -3.17637 0
M  V30 21688 C 2042.78 1.67884 -3.36886 0
M  V30 21689 C 2041.92 0.589766 -2.70956 0
M  V30 21690 H 2044.87 -0.134229 -1.58131 0
M  V30 21691 H 2044.89 2.04791 -3.20688 0
M  V30 21692 H 2044.41 0.346184 -3.86553 0
M  V30 21693 H 2042.51 2.5352 -2.73054 0
M  V30 21694 H 2042.62 1.7696 -4.45221 0
M  V30 21695 H 2040.98 1.03 -2.32945 0
M  V30 21696 H 2041.77 -0.232174 -3.42514 0
M  V30 21697 N 2044.21 1.53368 0.362763 0
M  V30 21698 C 2045.18 1.7933 1.42736 0
M  V30 21699 C 2046.18 0.663794 1.4646 0
M  V30 21700 O 2047.37 0.932009 1.47171 0
M  V30 21701 C 2044.5 1.91792 2.81831 0
M  V30 21702 H 2045.69 2.74412 1.20989 0
M  V30 21703 H 2043.24 1.44488 0.596058 0
M  V30 21704 H 2043.98 0.987867 3.08888 0
M  V30 21705 H 2043.76 2.73948 2.80526 0
M  V30 21706 H 2045.25 2.13461 3.58921 0
M  V30 21707 N 2045.69 -0.62272 1.44776 0
M  V30 21708 C 2046.92 -1.41403 1.51723 0
M  V30 21709 C 2047.34 -1.87534 0.145802 0
M  V30 21710 O 2046.7 -1.59244 -0.866667 0
M  V30 21711 C 2046.75 -2.60482 2.49362 0
M  V30 21712 O 2045.85 -3.60604 2.00096 0
M  V30 21713 H 2045.19 -0.422766 0.51202 0
M  V30 21714 H 2047.72 -0.759294 1.89989 0
M  V30 21715 H 2047.73 -3.0792 2.67674 0
M  V30 21716 H 2046.41 -2.26253 3.48974 0
M  V30 21717 H 2044.98 -3.19918 1.9159 0
M  V30 21718 N 2047.17 -1.31814 -0.863883 0
M  V30 21719 C 2048.42 -1.21847 -1.61739 0
M  V30 21720 C 2048.74 0.221932 -1.9323 0
M  V30 21721 O 2048 1.1724 -1.56695 0
M  V30 21722 C 2048.3 -2.01404 -2.95248 0
M  V30 21723 C 2047.96 -3.50849 -2.83224 0
M  V30 21724 C 2046.63 -3.91597 -2.79653 0
M  V30 21725 C 2048.98 -4.45922 -2.6982 0
M  V30 21726 C 2046.31 -5.25675 -2.60543 0
M  V30 21727 C 2048.66 -5.80133 -2.52247 0
M  V30 21728 C 2047.32 -6.20094 -2.47062 0
M  V30 21729 H 2046.59 -0.445871 -0.591845 0
M  V30 21730 H 2049.24 -1.63143 -1.00282 0
M  V30 21731 H 2047.54 -1.52808 -3.60773 0
M  V30 21732 H 2049.24 -1.91069 -3.52553 0
M  V30 21733 H 2045.83 -3.1848 -2.86825 0
M  V30 21734 H 2050.01 -4.15368 -2.71631 0
M  V30 21735 H 2045.27 -5.55704 -2.54958 0
M  V30 21736 H 2049.44 -6.53424 -2.40853 0
M  V30 21737 H 2047.07 -7.23929 -2.32014 0
M  V30 21738 N 2048.65 1.07897 -1.14873 0
M  V30 21739 C 2049.89 1.80817 -0.931498 0
M  V30 21740 C 2050.25 1.84784 0.535954 0
M  V30 21741 O 2049.54 1.3165 1.39208 0
M  V30 21742 C 2049.73 3.25649 -1.47267 0
M  V30 21743 C 2049.56 3.35793 -2.99121 0
M  V30 21744 C 2048.33 3.46678 -3.67617 0
M  V30 21745 C 2050.53 3.27011 -3.96949 0
M  V30 21746 N 2048.51 3.45667 -5.07334 0
M  V30 21747 C 2049.88 3.33053 -5.22949 0
M  V30 21748 C 2051.94 3.10784 -3.88996 0
M  V30 21749 C 2050.64 3.24538 -6.41925 0
M  V30 21750 C 2052.67 3.036 -5.07524 0
M  V30 21751 C 2052.03 3.10249 -6.32396 0
M  V30 21752 H 2048.13 0.675227 -0.394452 0
M  V30 21753 H 2050.71 1.28834 -1.45979 0
M  V30 21754 H 2048.88 3.76064 -0.971087 0
M  V30 21755 H 2050.62 3.8666 -1.19482 0
M  V30 21756 H 2047.37 3.5079 -3.18188 0
M  V30 21757 H 2047.8 3.48705 -5.80288 0
M  V30 21758 H 2052.44 3.04501 -2.93324 0
M  V30 21759 H 2050.16 3.2958 -7.37837 0
M  V30 21760 H 2053.74 2.92156 -5.03126 0
M  V30 21761 H 2052.62 3.04727 -7.22573 0
M  V30 21762 N 2050.12 0.944665 1.2615 0
M  V30 21763 C 2051.03 0.463226 2.29981 0
M  V30 21764 C 2052.05 -0.464516 1.67685 0
M  V30 21765 O 2053.23 -0.343195 1.98454 0
M  V30 21766 C 2050.29 -0.260612 3.45719 0
M  V30 21767 C 2049.35 0.704117 4.23486 0
M  V30 21768 C 2048.59 0.0147279 5.33698 0
M  V30 21769 O 2048.81 -1.20155 5.57601 0
M  V30 21770 O 2047.74 0.695202 5.97872 0
M  V30 21771 H 2051.57 1.3258 2.73233 0
M  V30 21772 H 2049.15 0.710696 1.31413 0
M  V30 21773 H 2051.04 -0.668207 4.16068 0
M  V30 21774 H 2049.71 -1.09852 3.0449 0
M  V30 21775 H 2048.62 1.16172 3.55605 0
M  V30 21776 H 2049.95 1.50974 4.68474 0
M  V30 21777 N 2051.6 -1.40596 0.712085 0
M  V30 21778 C 2052.83 -2.05265 0.259627 0
M  V30 21779 C 2053.25 -1.5364 -1.09728 0
M  V30 21780 O 2052.6 -0.691501 -1.68892 0
M  V30 21781 C 2052.65 -3.60787 0.22693 0
M  V30 21782 O 2052.37 -4.10506 1.53025 0
M  V30 21783 C 2053.88 -4.42625 -0.244507 0
M  V30 21784 H 2051.1 -0.660656 0.117366 0
M  V30 21785 H 2053.64 -1.80069 0.969308 0
M  V30 21786 H 2051.79 -3.84965 -0.43369 0
M  V30 21787 H 2052.21 -5.04676 1.42838 0
M  V30 21788 H 2053.68 -5.51576 -0.216241 0
M  V30 21789 H 2054.16 -4.19948 -1.2861 0
M  V30 21790 H 2054.77 -4.23547 0.385709 0
M  V30 21791 N 2053.08 -0.458013 -1.50798 0
M  V30 21792 C 2054.31 0.10185 -2.0715 0
M  V30 21793 C 2054.73 1.33899 -1.32109 0
M  V30 21794 O 2054.09 1.77589 -0.364928 0
M  V30 21795 C 2054.14 0.381979 -3.58571 0
M  V30 21796 O 2053.24 1.46484 -3.85508 0
M  V30 21797 H 2052.58 -0.00721903 -0.663961 0
M  V30 21798 H 2055.11 -0.645297 -1.94157 0
M  V30 21799 H 2055.12 0.626354 -4.03163 0
M  V30 21800 H 2053.8 -0.522121 -4.1261 0
M  V30 21801 H 2052.37 1.20881 -3.52764 0
M  V30 21802 O 2054.6 1.58063 -0.331399 0
M  V30 21803 H 2055.29 1.92368 0.22675 0
M  V30 END ATOM
M  V30 BEGIN BOND
M  V30 END BOND
M  V30 END CTAB
M  END
$$$$
