drugbank_target|P54760 Ephrin type-B receptor 4 (DB01254; DB07249; DB07250; DB07251; DB07252; DB07253; DB07254; DB07255; DB07256; DB11973; DB12010)
 OpenBabel12092120213D

  0  0  0     0  0            999 V3000
M  V30 BEGIN CTAB
M  V30 COUNTS 15115 15297 0 0 0
M  V30 BEGIN ATOM
M  V30 1 H -0.908 1.98254 -0.117106 0
M  V30 2 N 0 1.576 0 0
M  V30 3 C 0.933 2.03868 1.02534 0
M  V30 4 C 1.911 0.928543 1.3348 0
M  V30 5 O 3.095 1.19667 1.45644 0
M  V30 6 C 0.222 2.43627 2.35294 0
M  V30 7 C -0.732 3.65373 2.2001 0
M  V30 8 S 0.101 5.13292 1.52614 0
M  V30 9 C 1.257 5.56322 2.86805 0
M  V30 10 H 1.49 2.90518 0.631377 0
M  V30 11 H -0.977 1.52953 0.210867 0
M  V30 12 H 0.981 2.67203 3.11629 0
M  V30 13 H -0.358 1.57376 2.7183 0
M  V30 14 H -1.165 3.90944 3.18086 0
M  V30 15 H -1.563 3.418 1.51819 0
M  V30 16 H 0.729 5.58782 3.83104 0
M  V30 17 H 1.672 6.56266 2.65933 0
M  V30 18 H 2.08 4.83886 2.90714 0
M  V30 19 N 1.4781 -0.272755 1.55222 0
M  V30 20 C 2.3881 -1.35918 1.91216 0
M  V30 21 C 3.4041 -1.54026 0.809436 0
M  V30 22 O 4.5801 -1.68148 1.10852 0
M  V30 23 C 1.6451 -2.69834 2.17693 0
M  V30 24 C 0.7061 -2.6047 3.41253 0
M  V30 25 C -0.0609 -3.88 3.66458 0
M  V30 26 O 0.1621 -4.88693 2.94169 0
M  V30 27 O -0.9039 -3.88189 4.59992 0
M  V30 28 H 2.9221 -1.0839 2.83699 0
M  V30 29 H 0.5071 -0.471301 1.41771 0
M  V30 30 H 2.3891 -3.49017 2.36147 0
M  V30 31 H 1.0641 -2.97148 1.28392 0
M  V30 32 H -0.0289 -1.79663 3.28134 0
M  V30 33 H 1.3041 -2.38106 4.30774 0
M  V30 34 N 2.9562 -1.48159 -0.537278 0
M  V30 35 C 3.8862 -1.65029 -1.6519 0
M  V30 36 C 4.8672 -0.499281 -1.62607 0
M  V30 37 O 6.0522 -0.730972 -1.79918 0
M  V30 38 C 3.1822 -1.68303 -3.03795 0
M  V30 39 C 2.1362 -2.8283 -3.21234 0
M  V30 40 C 1.4622 -2.71189 -4.60826 0
M  V30 41 C 2.7622 -4.24211 -3.04701 0
M  V30 42 H 4.4562 -2.58341 -1.51328 0
M  V30 43 H 2.0022 -1.24325 -0.726585 0
M  V30 44 H 3.9552 -1.78693 -3.81637 0
M  V30 45 H 2.6792 -0.715635 -3.18663 0
M  V30 46 H 1.3382 -2.71983 -2.45807 0
M  V30 47 H 0.9862 -1.72435 -4.7252 0
M  V30 48 H 0.6862 -3.48035 -4.7344 0
M  V30 49 H 2.2102 -2.83537 -5.40777 0
M  V30 50 H 3.6242 -4.3593 -3.72341 0
M  V30 51 H 2.0212 -5.01998 -3.28813 0
M  V30 52 H 3.0912 -4.41184 -2.01209 0
M  V30 53 N 4.4343 0.785586 -1.36625 0
M  V30 54 C 5.8503 1.08419 -1.17122 0
M  V30 55 C 6.0503 2.015 0.00208491 0
M  V30 56 O 5.1063 2.43551 0.666278 0
M  V30 57 C 6.4193 1.69498 -2.48377 0
M  V30 58 C 7.9673 1.81821 -2.54775 0
M  V30 59 C 8.4423 2.46315 -3.86126 0
M  V30 60 N 9.9333 2.53779 -3.87492 0
M  V30 61 C 10.6683 3.045 -4.85868 0
M  V30 62 N 10.1643 3.55499 -5.94637 0
M  V30 63 N 11.9573 3.03247 -4.73284 0
M  V30 64 H 4.1083 0.167264 -2.1174 0
M  V30 65 H 6.3713 0.13682 -0.938075 0
M  V30 66 H 6.0773 1.08571 -3.34522 0
M  V30 67 H 5.9513 2.6896 -2.64462 0
M  V30 68 H 8.3383 2.41884 -1.69045 0
M  V30 69 H 8.4193 0.811532 -2.42586 0
M  V30 70 H 8.0633 1.86895 -4.72263 0
M  V30 71 H 7.9933 3.47561 -3.95612 0
M  V30 72 H 10.4843 2.17672 -3.08913 0
M  V30 73 H 10.7973 3.92562 -6.65669 0
M  V30 74 H 9.1423 3.5364 -5.98301 0
M  V30 75 H 12.3333 2.62696 -3.87438 0
M  V30 76 H 12.5063 3.42467 -5.50109 0
M  V30 77 N 5.9124 1.20967 1.01018 0
M  V30 78 C 7.1584 1.02526 1.74975 0
M  V30 79 C 7.4914 -0.4408 1.89131 0
M  V30 80 O 6.7664 -1.32718 1.42184 0
M  V30 81 C 7.0494 1.71699 3.1653 0
M  V30 82 C 6.9024 3.25791 3.10129 0
M  V30 83 C 8.2214 1.45531 4.15342 0
M  V30 84 H 5.3404 0.373863 0.635134 0
M  V30 85 H 7.9824 1.49071 1.17805 0
M  V30 86 H 6.1324 1.32128 3.65341 0
M  V30 87 H 7.8044 3.74697 2.69072 0
M  V30 88 H 6.0474 3.56363 2.47362 0
M  V30 89 H 6.7184 3.69353 4.10222 0
M  V30 90 H 9.1944 1.79872 3.75213 0
M  V30 91 H 8.0704 1.96453 5.1254 0
M  V30 92 H 8.3314 0.384237 4.40427 0
M  V30 93 N 7.3905 -1.2043 1.01659 0
M  V30 94 C 8.3205 -2.25466 0.607226 0
M  V30 95 C 9.3015 -1.65853 -0.377716 0
M  V30 96 O 10.4865 -1.92409 -0.263149 0
M  V30 97 C 7.6165 -3.47256 -0.0552949 0
M  V30 98 C 6.5705 -4.19462 0.850632 0
M  V30 99 C 5.8965 -5.34673 0.0538859 0
M  V30 100 C 7.1965 -4.75603 2.15868 0
M  V30 101 H 8.8905 -2.59962 1.48526 0
M  V30 102 H 6.4365 -1.2496 0.715605 0
M  V30 103 H 8.3895 -4.19917 -0.353233 0
M  V30 104 H 7.1135 -3.11924 -0.968045 0
M  V30 105 H 5.7725 -3.48667 1.13257 0
M  V30 106 H 5.4205 -4.95585 -0.860514 0
M  V30 107 H 5.1205 -5.83913 0.657192 0
M  V30 108 H 6.6445 -6.10138 -0.237598 0
M  V30 109 H 8.0585 -5.40083 1.92311 0
M  V30 110 H 6.4555 -5.3528 2.71284 0
M  V30 111 H 7.5255 -3.94346 2.82169 0
M  V30 112 N 8.8686 -0.792821 -1.36206 0
M  V30 113 C 9.7986 -0.207853 -2.32573 0
M  V30 114 C 10.7796 0.659055 -1.56813 0
M  V30 115 O 11.9646 0.592176 -1.84951 0
M  V30 116 C 9.0946 0.655449 -3.41059 0
M  V30 117 C 8.0486 -0.111842 -4.27854 0
M  V30 118 C 7.3746 0.872274 -5.27537 0
M  V30 119 C 8.6746 -1.30299 -5.05786 0
M  V30 120 H 10.3686 -1.01294 -2.81744 0
M  V30 121 H 7.9146 -0.48854 -1.3546 0
M  V30 122 H 9.8676 1.07464 -4.07467 0
M  V30 123 H 8.5916 1.49328 -2.90463 0
M  V30 124 H 7.2506 -0.512053 -3.63006 0
M  V30 125 H 6.8986 1.70523 -4.73214 0
M  V30 126 H 6.5986 0.363291 -5.86476 0
M  V30 127 H 8.1226 1.28996 -5.96818 0
M  V30 128 H 9.5366 -0.959379 -5.65216 0
M  V30 129 H 7.9336 -1.7455 -5.74154 0
M  V30 130 H 9.0036 -2.09663 -4.37229 0
M  V30 131 N 10.3467 1.47872 -0.545128 0
M  V30 132 C 11.5867 2.04391 -0.0187854 0
M  V30 133 C 11.9507 1.41162 1.30144 0
M  V30 134 O 13.1517 1.88656 1.91474 0
M  V30 135 C 11.4227 3.57299 0.0850867 0
M  V30 136 S 12.9817 4.35221 0.559302 0
M  V30 137 H 9.7997 0.710737 -0.0193301 0
M  V30 138 H 12.4017 1.81395 -0.729125 0
M  V30 139 H 11.1057 4.00847 -0.880351 0
M  V30 140 H 10.6367 3.84773 0.819348 0
M  V30 141 H 12.6517 4.61571 1.82118 0
M  V30 142 N 11.8248 0.280983 1.55075 0
M  V30 143 C 13.0708 -0.327573 2.00745 0
M  V30 144 C 13.4258 -1.53045 1.16598 0
M  V30 145 O 12.7188 -1.90221 0.229451 0
M  V30 146 C 12.9128 -0.754656 3.49342 0
M  V30 147 C 12.7418 0.40529 4.4787 0
M  V30 148 C 11.5118 0.890947 4.97383 0
M  V30 149 C 13.7098 1.24371 4.99035 0
M  V30 150 N 11.6918 2.01975 5.79724 0
M  V30 151 C 13.0628 2.22031 5.7888 0
M  V30 152 C 15.1178 1.27638 4.81262 0
M  V30 153 C 13.8208 3.22709 6.42846 0
M  V30 154 C 15.8468 2.27164 5.46031 0
M  V30 155 C 15.2088 3.23556 6.25692 0
M  V30 156 H 11.3078 -0.0848774 0.77738 0
M  V30 157 H 13.8918 0.406342 1.90413 0
M  V30 158 H 12.0628 -1.45778 3.60005 0
M  V30 159 H 13.7948 -1.34105 3.81835 0
M  V30 160 H 10.5498 0.469262 4.71269 0
M  V30 161 H 10.9738 2.58794 6.25584 0
M  V30 162 H 15.6158 0.544936 4.19274 0
M  V30 163 H 13.3338 3.96784 7.0398 0
M  V30 164 H 16.9198 2.30441 5.34217 0
M  V30 165 H 15.7998 3.99309 6.74924 0
M  V30 166 N 13.3029 -1.57598 0.00835791 0
M  V30 167 C 14.2659 -2.07884 -0.965242 0
M  V30 168 C 15.2659 -0.989825 -1.26725 0
M  V30 169 O 16.4559 -1.25218 -1.21104 0
M  V30 170 C 13.5879 -2.52731 -2.28779 0
M  V30 171 H 14.7809 -2.95178 -0.530112 0
M  V30 172 H 12.3339 -1.54458 -0.239283 0
M  V30 173 H 13.0689 -1.68705 -2.76964 0
M  V30 174 H 12.8539 -3.32272 -2.08177 0
M  V30 175 H 14.3439 -2.91933 -2.98605 0
M  V30 176 N 14.781 0.264519 -1.55364 0
M  V30 177 C 16.006 1.01726 -1.80739 0
M  V30 178 C 16.431 1.78836 -0.583044 0
M  V30 179 O 15.789 1.75167 0.467566 0
M  V30 180 C 15.837 1.94482 -3.03659 0
M  V30 181 O 14.941 3.03386 -2.7934 0
M  V30 182 H 14.282 0.290395 -0.597132 0
M  V30 183 H 16.812 0.290854 -2.02522 0
M  V30 184 H 16.822 2.36278 -3.32621 0
M  V30 185 H 15.497 1.37772 -3.92418 0
M  V30 186 H 14.074 2.65844 -2.61498 0
M  V30 187 N 16.2591 1.48442 0.529413 0
M  V30 188 C 17.1891 1.65902 1.64313 0
M  V30 189 C 18.1701 0.507897 1.6234 0
M  V30 190 O 19.3551 0.740503 1.79528 0
M  V30 191 C 16.4851 1.69911 3.02898 0
M  V30 192 C 15.4391 2.8453 3.19729 0
M  V30 193 C 14.7651 2.73629 4.59381 0
M  V30 194 C 16.0651 4.25821 3.02447 0
M  V30 195 H 17.7591 2.5914 1.49955 0
M  V30 196 H 15.3051 1.24709 0.719982 0
M  V30 197 H 17.2581 1.80715 3.80684 0
M  V30 198 H 15.9821 0.732524 3.18279 0
M  V30 199 H 14.6411 2.73283 2.44361 0
M  V30 200 H 14.2891 1.74938 4.71599 0
M  V30 201 H 13.9891 3.50541 4.71588 0
M  V30 202 H 15.5131 2.86401 5.39265 0
M  V30 203 H 16.9271 4.37898 3.70024 0
M  V30 204 H 15.3241 5.03735 3.26146 0
M  V30 205 H 16.3941 4.42244 1.98867 0
M  V30 206 N 17.7372 -0.778329 1.37039 0
M  V30 207 C 18.7002 -1.87301 1.32102 0
M  V30 208 C 19.7002 -1.59198 0.226405 0
M  V30 209 O 20.8902 -1.67403 0.481861 0
M  V30 210 C 18.0222 -3.24309 1.05055 0
M  V30 211 H 19.2152 -1.93093 2.29467 0
M  V30 212 H 16.7682 -0.977358 1.21973 0
M  V30 213 H 17.5032 -3.24196 0.0819373 0
M  V30 214 H 17.2882 -3.46098 1.84279 0
M  V30 215 H 18.7782 -4.04382 1.04234 0
M  V30 216 N 19.2153 -1.21501 -1.00376 0
M  V30 217 C 20.1783 -0.976927 -2.07337 0
M  V30 218 C 21.1783 0.0525322 -1.60714 0
M  V30 219 O 22.3683 -0.184869 -1.73216 0
M  V30 220 C 19.5003 -0.473423 -3.37597 0
M  V30 221 H 20.6933 -1.92587 -2.29892 0
M  V30 222 H 18.2463 -1.03217 -1.17371 0
M  V30 223 H 18.9813 0.480379 -3.20722 0
M  V30 224 H 18.7663 -1.216 -3.72768 0
M  V30 225 H 20.2563 -0.32675 -4.1632 0
M  V30 226 N 20.6934 1.19889 -1.02296 0
M  V30 227 C 21.6564 2.21116 -0.603351 0
M  V30 228 C 22.6564 1.5738 0.329884 0
M  V30 229 O 23.8464 1.73802 0.117702 0
M  V30 230 C 20.9784 3.40696 0.117992 0
M  V30 231 H 22.1714 2.59754 -1.49893 0
M  V30 232 H 19.7244 1.33463 -0.813468 0
M  V30 233 H 20.4594 3.07569 1.0282 0
M  V30 234 H 20.2444 3.88188 -0.552511 0
M  V30 235 H 21.7344 4.15692 0.398696 0
M  V30 236 N 22.1715 0.800033 1.35784 0
M  V30 237 C 23.1015 0.220184 2.3246 0
M  V30 238 C 24.0825 -0.65073 1.57161 0
M  V30 239 O 25.2675 -0.582359 1.85263 0
M  V30 240 C 22.3975 -0.637353 3.41402 0
M  V30 241 C 21.3515 0.134531 4.27789 0
M  V30 242 C 20.6775 -0.844285 5.27992 0
M  V30 243 C 21.9775 1.32979 5.05088 0
M  V30 244 H 23.6715 1.02787 2.81203 0
M  V30 245 H 21.2175 0.495717 1.35199 0
M  V30 246 H 23.1705 -1.05302 4.08031 0
M  V30 247 H 21.8945 -1.47785 2.91251 0
M  V30 248 H 20.5535 0.531296 3.6273 0
M  V30 249 H 20.2015 -1.68011 4.74111 0
M  V30 250 H 19.9015 -0.332184 5.8666 0
M  V30 251 H 21.4255 -1.2583 5.97494 0
M  V30 252 H 22.8395 0.98934 5.64699 0
M  V30 253 H 21.2365 1.77593 5.7322 0
M  V30 254 H 22.3065 2.11978 4.36111 0
M  V30 255 N 23.6496 -1.47581 0.552962 0
M  V30 256 C 24.5596 -2.33743 -0.200353 0
M  V30 257 C 25.5756 -1.47928 -0.916151 0
M  V30 258 O 26.7516 -1.80865 -0.885993 0
M  V30 259 C 23.8166 -3.24536 -1.21973 0
M  V30 260 C 22.8776 -4.26238 -0.511819 0
M  V30 261 C 22.1106 -5.12693 -1.48263 0
M  V30 262 O 22.3336 -5.01525 -2.71714 0
M  V30 263 O 21.2676 -5.93375 -1.00945 0
M  V30 264 H 25.0936 -2.9945 0.506304 0
M  V30 265 H 22.6786 -1.46071 0.313622 0
M  V30 266 H 24.5606 -3.80631 -1.80827 0
M  V30 267 H 23.2356 -2.61462 -1.90839 0
M  V30 268 H 22.1426 -3.73914 0.117799 0
M  V30 269 H 23.4756 -4.92014 0.135308 0
M  V30 270 N 25.1277 -0.289203 -1.54924 0
M  V30 271 C 26.0377 0.601863 -2.26748 0
M  V30 272 C 27.0537 1.15834 -1.2984 0
M  V30 273 O 28.2297 1.18564 -1.62802 0
M  V30 274 C 25.2947 1.76299 -2.98529 0
M  V30 275 C 24.3557 1.24178 -4.10948 0
M  V30 276 C 23.5887 2.34757 -4.79296 0
M  V30 277 O 23.8117 3.54411 -4.46933 0
M  V30 278 O 22.7457 2.02115 -5.66951 0
M  V30 279 H 26.5717 0.0195879 -3.03694 0
M  V30 280 H 24.1567 -0.0560868 -1.49295 0
M  V30 281 H 26.0387 2.43973 -3.43592 0
M  V30 282 H 24.7137 2.33209 -2.24488 0
M  V30 283 H 23.6207 0.531104 -3.70311 0
M  V30 284 H 24.9537 0.718252 -4.86931 0
M  V30 285 N 26.6058 1.57591 -0.0167156 0
M  V30 286 C 27.8338 1.95575 0.675128 0
M  V30 287 C 28.2488 0.892542 1.6637 0
M  V30 288 O 27.6058 -0.126912 1.82058 0
M  V30 289 C 27.6568 3.33608 1.39239 0
M  V30 290 O 27.3778 4.3585 0.443444 0
M  V30 291 C 28.8788 3.86151 2.17721 0
M  V30 292 H 26.0988 0.644423 0.186978 0
M  V30 293 H 28.6428 2.0437 -0.0728 0
M  V30 294 H 26.7978 3.2607 2.09182 0
M  V30 295 H 27.2118 5.158 0.951358 0
M  V30 296 H 28.6858 4.85114 2.63379 0
M  V30 297 H 29.1628 3.19738 3.01105 0
M  V30 298 H 29.7688 3.96918 1.52761 0
M  V30 299 N 28.0839 -0.256276 1.55502 0
M  V30 300 C 29.0139 -1.32102 1.92539 0
M  V30 301 C 29.9949 -1.50684 0.789194 0
M  V30 302 O 31.1799 -1.63449 1.04872 0
M  V30 303 C 28.3099 -2.67752 2.21192 0
M  V30 304 C 27.2639 -2.63878 3.36975 0
M  V30 305 C 26.5899 -4.03236 3.51147 0
M  V30 306 C 27.8899 -2.21682 4.72921 0
M  V30 307 H 29.5839 -1.01351 2.81724 0
M  V30 308 H 27.1299 -0.486105 1.35547 0
M  V30 309 H 29.0829 -3.42365 2.45691 0
M  V30 310 H 27.8069 -3.0012 1.28824 0
M  V30 311 H 26.4659 -1.91722 3.12471 0
M  V30 312 H 26.1139 -4.32854 2.56216 0
M  V30 313 H 25.8139 -4.01535 4.29003 0
M  V30 314 H 27.3379 -4.79563 3.77957 0
M  V30 315 H 28.7519 -2.86023 4.96854 0
M  V30 316 H 27.1489 -2.3111 5.53812 0
M  V30 317 H 28.2189 -1.16833 4.70615 0
M  V30 318 N 29.562 -1.4872 -0.521534 0
M  V30 319 C 30.492 -1.66771 -1.63431 0
M  V30 320 C 31.473 -0.516499 -1.62069 0
M  V30 321 O 32.658 -0.750013 -1.79132 0
M  V30 322 C 29.788 -1.71515 -3.01993 0
M  V30 323 C 28.742 -2.86222 -3.18216 0
M  V30 324 C 28.068 -2.76061 -4.57924 0
M  V30 325 C 29.368 -4.27419 -3.00184 0
M  V30 326 H 31.062 -2.59932 -1.48579 0
M  V30 327 H 28.608 -1.25089 -0.713358 0
M  V30 328 H 30.561 -1.82731 -3.7972 0
M  V30 329 H 29.285 -0.749393 -3.17886 0
M  V30 330 H 27.944 -2.74575 -2.42908 0
M  V30 331 H 27.592 -1.77437 -4.70665 0
M  V30 332 H 27.292 -3.53037 -4.69722 0
M  V30 333 H 28.816 -2.89256 -5.37739 0
M  V30 334 H 30.23 -4.39855 -3.67697 0
M  V30 335 H 28.627 -5.05458 -3.2347 0
M  V30 336 H 29.697 -4.43293 -1.96518 0
M  V30 337 N 31.0401 0.771051 -1.3745 0
M  V30 338 C 31.9881 1.90574 -1.33358 0
M  V30 339 C 32.9821 1.67936 -0.22224 0
M  V30 340 O 34.1881 1.75717 -0.390304 0
M  V30 341 H 30.5631 0.626714 -0.415612 0
M  V30 342 H 32.5341 1.91142 -2.29144 0
M  V30 343 C 31.2831 3.27845 -1.15813 0
M  V30 344 H 30.6061 3.45842 -2.00583 0
M  V30 345 H 32.0461 4.07538 -1.17 0
M  V30 346 C 30.5051 3.36625 0.136165 0
M  V30 347 O 31.0351 3.85785 1.11949 0
M  V30 348 N 29.2411 2.89997 0.187099 0
M  V30 349 H 28.7881 2.50182 -0.613753 0
M  V30 350 H 28.7461 2.96252 1.05272 0
M  V30 351 N 32.5182 1.22032 0.997298 0
M  V30 352 C 33.7462 1.06841 1.7718 0
M  V30 353 C 34.1612 -0.381325 1.84909 0
M  V30 354 O 33.5182 -1.26437 1.31605 0
M  V30 355 C 33.5692 1.66814 3.20711 0
M  V30 356 O 33.2902 3.06116 3.13408 0
M  V30 357 C 34.7912 1.56838 4.14628 0
M  V30 358 H 32.0112 0.374782 0.556578 0
M  V30 359 H 34.5552 1.61532 1.2541 0
M  V30 360 H 32.7102 1.16196 3.69564 0
M  V30 361 H 33.1242 3.34926 4.0364 0
M  V30 362 H 34.5982 2.03532 5.13107 0
M  V30 363 H 35.0752 0.524155 4.36061 0
M  V30 364 H 35.6812 2.06741 3.7167 0
M  V30 365 N 33.9963 -1.19345 1.0293 0
M  V30 366 C 34.9433 -2.2258 0.610464 0
M  V30 367 C 35.9133 -1.6179 -0.375946 0
M  V30 368 O 37.0983 -1.88844 -0.272511 0
M  V30 369 C 34.2383 -3.45085 -0.0321473 0
M  V30 370 C 33.3513 -4.20258 1.00035 0
M  V30 371 C 32.4863 -5.3019 0.32746 0
M  V30 372 C 31.5253 -5.97121 1.34584 0
M  V30 373 N 30.6623 -6.98615 0.698726 0
M  V30 374 H 35.5023 -2.57764 1.49538 0
M  V30 375 H 33.0393 -1.26644 0.748311 0
M  V30 376 H 34.9973 -4.15061 -0.421966 0
M  V30 377 H 33.6273 -3.10555 -0.88064 0
M  V30 378 H 32.6793 -3.49223 1.50823 0
M  V30 379 H 33.9913 -4.66175 1.77433 0
M  V30 380 H 33.1453 -6.06587 -0.11718 0
M  V30 381 H 31.8843 -4.85345 -0.478713 0
M  V30 382 H 30.8893 -5.19474 1.80074 0
M  V30 383 H 32.1143 -6.4405 2.15352 0
M  V30 384 H 30.0603 -6.55942 -0.0873471 0
M  V30 385 H 29.9773 -7.42724 1.41058 0
M  V30 386 H 31.2453 -7.79004 0.278102 0
M  V30 387 N 35.4744 -0.807222 -1.35358 0
M  V30 388 C 36.4044 -0.232509 -2.3234 0
M  V30 389 C 37.3854 0.642386 -1.57504 0
M  V30 390 O 38.5704 0.572526 -1.85569 0
M  V30 391 C 35.7004 0.619238 -3.41735 0
M  V30 392 C 34.6544 -0.157215 -4.27711 0
M  V30 393 C 33.9804 0.816273 -5.28433 0
M  V30 394 C 35.2804 -1.35656 -5.04376 0
M  V30 395 H 36.9744 -1.04276 -2.80654 0
M  V30 396 H 34.5204 -0.50288 -1.34934 0
M  V30 397 H 36.4734 1.03137 -4.08584 0
M  V30 398 H 35.1974 1.46239 -2.92031 0
M  V30 399 H 33.8564 -0.550525 -3.62443 0
M  V30 400 H 33.5044 1.65494 -4.74996 0
M  V30 401 H 33.2044 0.301067 -5.86828 0
M  V30 402 H 34.7284 1.22659 -5.98153 0
M  V30 403 H 36.1424 -1.01927 -5.64166 0
M  V30 404 H 34.5394 -1.8063 -5.7227 0
M  V30 405 H 35.6094 -2.14288 -4.34981 0
M  V30 406 N 36.9525 1.47285 -0.560781 0
M  V30 407 C 37.8625 2.33846 0.187954 0
M  V30 408 C 38.8785 1.48412 0.908293 0
M  V30 409 O 40.0545 1.81332 0.876388 0
M  V30 410 C 37.1195 3.25178 1.2025 0
M  V30 411 C 36.1805 4.26504 0.489208 0
M  V30 412 C 35.4135 5.13472 1.45542 0
M  V30 413 O 35.6365 5.02959 2.6905 0
M  V30 414 O 34.5705 5.93902 0.977963 0
M  V30 415 H 38.3965 2.99177 -0.522177 0
M  V30 416 H 35.9815 1.45903 -0.321364 0
M  V30 417 H 37.8635 3.81584 1.78805 0
M  V30 418 H 36.5385 2.6247 1.89449 0
M  V30 419 H 35.4455 3.73847 -0.137627 0
M  V30 420 H 36.7785 4.91935 -0.161399 0
M  V30 421 N 38.4306 0.297415 1.54768 0
M  V30 422 C 39.6586 -0.315623 2.04478 0
M  V30 423 C 40.0736 -1.47792 1.17486 0
M  V30 424 O 39.4306 -1.81404 0.19971 0
M  V30 425 C 39.4816 -0.7753 3.53088 0
M  V30 426 O 39.2026 0.340732 4.36773 0
M  V30 427 C 40.7036 -1.45386 4.18781 0
M  V30 428 H 37.9236 -0.0690887 0.667434 0
M  V30 429 H 40.4676 0.436003 1.99798 0
M  V30 430 H 38.6226 -1.47696 3.58141 0
M  V30 431 H 39.0366 -0.0165035 5.24497 0
M  V30 432 H 40.5106 -1.72669 5.24299 0
M  V30 433 H 40.9876 -2.39275 3.68299 0
M  V30 434 H 41.5936 -0.795475 4.17795 0
M  V30 435 N 39.9087 -1.5758 0.0250728 0
M  V30 436 C 40.8717 -2.08896 -0.943139 0
M  V30 437 C 41.8717 -1.00321 -1.25668 0
M  V30 438 O 43.0617 -1.26495 -1.19769 0
M  V30 439 C 40.1937 -2.55143 -2.26086 0
M  V30 440 H 41.3867 -2.95723 -0.498775 0
M  V30 441 H 38.9397 -1.54703 -0.222888 0
M  V30 442 H 39.6747 -1.71633 -2.75159 0
M  V30 443 H 39.4597 -3.34461 -2.04641 0
M  V30 444 H 40.9497 -2.95083 -2.95492 0
M  V30 445 N 41.3868 0.248026 -1.55636 0
M  V30 446 C 42.6638 0.998988 -1.68165 0
M  V30 447 C 43.0438 2.03409 -0.564621 0
M  V30 448 O 42.3918 2.24378 0.432076 0
M  V30 449 C 42.6018 1.63334 -3.0842 0
M  V30 450 C 43.9498 2.13562 -3.66983 0
M  V30 451 O 44.9738 1.73277 -3.11213 0
M  V30 452 O 43.8328 2.87526 -4.64749 0
M  V30 453 H 40.9268 0.464933 -0.683935 0
M  V30 454 H 43.4728 0.241902 -1.67967 0
M  V30 455 H 42.2448 0.884583 -3.8117 0
M  V30 456 H 41.8678 2.45666 -3.12624 0
M  V30 457 N 42.8649 1.48995 0.513639 0
M  V30 458 C 43.7949 1.67636 1.62544 0
M  V30 459 C 44.7759 0.525087 1.61793 0
M  V30 460 O 45.9609 0.759502 1.78732 0
M  V30 461 C 43.0909 1.73114 3.01079 0
M  V30 462 C 42.0449 2.87905 3.16693 0
M  V30 463 C 41.3709 2.78486 4.56453 0
M  V30 464 C 42.6709 4.29005 2.97913 0
M  V30 465 H 44.3649 2.60716 1.47198 0
M  V30 466 H 41.9109 1.25465 0.706714 0
M  V30 467 H 43.8639 1.84742 3.78746 0
M  V30 468 H 42.5879 0.766241 3.17484 0
M  V30 469 H 41.2469 2.75859 2.41448 0
M  V30 470 H 40.8949 1.7993 4.69717 0
M  V30 471 H 40.5949 3.55523 4.67843 0
M  V30 472 H 42.1189 2.92104 5.36197 0
M  V30 473 H 43.5329 4.41798 3.65359 0
M  V30 474 H 41.9299 5.07166 3.20785 0
M  V30 475 H 42.9999 4.44329 1.94165 0
M  V30 476 N 44.343 -0.763751 1.37857 0
M  V30 477 C 45.29 -1.87726 1.34267 0
M  V30 478 C 46.26 -1.64807 0.206879 0
M  V30 479 O 47.445 -1.86613 0.397508 0
M  V30 480 C 44.585 -3.24896 1.16346 0
M  V30 481 C 43.698 -3.59716 2.39225 0
M  V30 482 C 42.833 -4.86137 2.14114 0
M  V30 483 C 41.872 -5.13711 3.32817 0
M  V30 484 N 41.009 -6.31323 3.07206 0
M  V30 485 H 45.849 -1.90129 2.29466 0
M  V30 486 H 43.386 -0.929433 1.14017 0
M  V30 487 H 45.344 -4.04036 1.03975 0
M  V30 488 H 43.974 -3.21847 0.247909 0
M  V30 489 H 43.026 -2.75498 2.62307 0
M  V30 490 H 44.338 -3.76027 3.27728 0
M  V30 491 H 43.492 -5.73198 1.9882 0
M  V30 492 H 42.231 -4.71945 1.22961 0
M  V30 493 H 41.236 -4.25123 3.48641 0
M  V30 494 H 42.461 -5.29807 4.24832 0
M  V30 495 H 40.407 -6.18474 2.1869 0
M  V30 496 H 40.324 -6.48087 3.89254 0
M  V30 497 H 41.592 -7.213 2.95546 0
M  V30 498 N 45.8211 -1.22559 -0.990812 0
M  V30 499 C 47.0671 -1.06303 -1.73411 0
M  V30 500 C 47.4221 0.397442 -1.8825 0
M  V30 501 O 46.7151 1.29062 -1.41611 0
M  V30 502 C 46.9091 -1.71011 -3.13831 0
M  V30 503 C 46.7381 -3.232 -3.12685 0
M  V30 504 C 45.5081 -3.92314 -3.18461 0
M  V30 505 C 47.7061 -4.20107 -2.96673 0
M  V30 506 N 45.6881 -5.31571 -3.07091 0
M  V30 507 C 47.0591 -5.46208 -2.93354 0
M  V30 508 C 49.1141 -4.10973 -2.8108 0
M  V30 509 C 47.8171 -6.64225 -2.76039 0
M  V30 510 C 49.8431 -5.28642 -2.65126 0
M  V30 511 C 49.2051 -6.53663 -2.62496 0
M  V30 512 H 45.3041 -0.443441 -0.644115 0
M  V30 513 H 47.8881 -1.55131 -1.17654 0
M  V30 514 H 46.0591 -1.2473 -3.67827 0
M  V30 515 H 47.7911 -1.47828 -3.76735 0
M  V30 516 H 44.5461 -3.43326 -3.26227 0
M  V30 517 H 44.9701 -6.0455 -3.0471 0
M  V30 518 H 49.6121 -3.15098 -2.8191 0
M  V30 519 H 47.3301 -7.60246 -2.73954 0
M  V30 520 H 50.9161 -5.23407 -2.54039 0
M  V30 521 H 49.7961 -7.43182 -2.50302 0
M  V30 522 N 47.2992 1.18797 -1.03562 0
M  V30 523 C 48.5452 1.8893 -0.737113 0
M  V30 524 C 48.8782 1.79837 0.732956 0
M  V30 525 O 48.1532 1.19525 1.5344 0
M  V30 526 C 48.4362 3.39607 -1.19745 0
M  V30 527 C 48.2892 3.57537 -2.72924 0
M  V30 528 C 49.6082 4.33069 -0.783526 0
M  V30 529 H 46.7272 0.686057 -0.269249 0
M  V30 530 H 49.3692 1.39797 -1.28673 0
M  V30 531 H 47.5192 3.81583 -0.729855 0
M  V30 532 H 49.1912 3.24688 -3.27682 0
M  V30 533 H 47.4342 3.00363 -3.12993 0
M  V30 534 H 48.1052 4.63238 -3.00191 0
M  V30 535 H 50.5812 3.98846 -1.18581 0
M  V30 536 H 49.4572 5.3707 -1.13343 0
M  V30 537 H 49.7182 4.40986 0.313681 0
M  V30 538 N 48.7773 0.814389 1.34928 0
M  V30 539 C 50.0053 0.411136 2.02774 0
M  V30 540 C 50.4203 -0.980316 1.61354 0
M  V30 541 O 49.7773 -1.63299 0.814847 0
M  V30 542 C 49.8283 0.493865 3.58111 0
M  V30 543 O 49.5493 1.83047 3.98027 0
M  V30 544 C 51.0503 0.0844174 4.4322 0
M  V30 545 H 48.2703 0.166037 0.650133 0
M  V30 546 H 50.8143 1.10018 1.72384 0
M  V30 547 H 48.9693 -0.147006 3.87121 0
M  V30 548 H 49.3833 1.79872 4.92693 0
M  V30 549 H 50.8573 0.193404 5.51661 0
M  V30 550 H 51.3343 -0.97113 4.28329 0
M  V30 551 H 51.9403 0.69875 4.19521 0
M  V30 552 N 50.2554 -1.46986 0.568584 0
M  V30 553 C 51.5024 -2.02441 0.0487986 0
M  V30 554 C 51.8304 -1.44169 -1.30559 0
M  V30 555 O 51.0854 -0.591213 -1.86556 0
M  V30 556 C 51.3844 -3.57306 -0.081836 0
M  V30 557 C 51.0504 -4.34552 1.20313 0
M  V30 558 C 49.7124 -4.55376 1.5552 0
M  V30 559 C 52.0644 -4.79016 2.05411 0
M  V30 560 C 49.3924 -5.17913 2.7565 0
M  V30 561 C 51.7444 -5.42879 3.24754 0
M  V30 562 C 50.4084 -5.61933 3.60261 0
M  V30 563 H 49.6784 -0.740785 0.0178567 0
M  V30 564 H 52.3254 -1.76525 0.742384 0
M  V30 565 H 50.6304 -3.8228 -0.858463 0
M  V30 566 H 52.3274 -3.97876 -0.499546 0
M  V30 567 H 48.9174 -4.18631 0.919014 0
M  V30 568 H 53.1014 -4.62696 1.79516 0
M  V30 569 H 48.3574 -5.30858 3.03315 0
M  V30 570 H 52.5314 -5.76293 3.90973 0
M  V30 571 H 50.1584 -6.10161 4.53439 0
M  V30 572 N 51.7335 -0.305618 -1.54608 0
M  V30 573 C 53.1445 0.186098 -1.8577 0
M  V30 574 C 53.4955 1.53058 -1.22751 0
M  V30 575 O 52.6205 2.09888 -0.526893 0
M  V30 576 C 53.2155 0.344449 -3.37044 0
M  V30 577 C 51.7745 0.780384 -3.68221 0
M  V30 578 C 50.9215 -0.108554 -2.77087 0
M  V30 579 H 53.8725 -0.526485 -1.49712 0
M  V30 580 H 53.8935 1.17828 -3.61796 0
M  V30 581 H 53.4055 -0.634235 -3.82883 0
M  V30 582 H 51.5065 1.76945 -3.27904 0
M  V30 583 H 51.6195 0.596572 -4.75371 0
M  V30 584 H 49.9835 0.412931 -2.5133 0
M  V30 585 H 50.7665 -1.08368 -3.25747 0
M  V30 586 N 53.2116 1.57565 -0.0334293 0
M  V30 587 C 54.1436 2.0739 0.975811 0
M  V30 588 C 55.1566 0.998166 1.2861 0
M  V30 589 O 56.3456 1.27426 1.25 0
M  V30 590 C 53.4456 2.4871 2.30209 0
M  V30 591 C 52.6186 3.79413 2.17634 0
M  V30 592 C 51.6776 4.07237 3.33233 0
M  V30 593 O 50.7036 4.77425 3.09927 0
M  V30 594 N 51.9056 3.5775 4.5716 0
M  V30 595 H 54.6706 2.94598 0.55066 0
M  V30 596 H 52.2316 1.61173 0.15323 0
M  V30 597 H 54.2236 2.64413 3.06378 0
M  V30 598 H 52.7936 1.66845 2.64351 0
M  V30 599 H 52.0136 3.73465 1.26165 0
M  V30 600 H 53.3016 4.65038 2.0644 0
M  V30 601 H 52.6996 3.00976 4.78989 0
M  V30 602 H 51.2566 3.78724 5.30482 0
M  V30 603 N 54.6897 -0.239769 1.55765 0
M  V30 604 C 55.9357 -0.968234 1.78194 0
M  V30 605 C 56.2687 -1.84701 0.599938 0
M  V30 606 O 55.5437 -1.9031 -0.401524 0
M  V30 607 C 55.8267 -1.8227 3.10564 0
M  V30 608 C 55.6797 -0.971633 4.3918 0
M  V30 609 C 56.9987 -2.80388 3.39221 0
M  V30 610 H 54.1177 -0.350572 0.648281 0
M  V30 611 H 56.7597 -0.238259 1.885 0
M  V30 612 H 54.9097 -2.44507 3.01908 0
M  V30 613 H 56.5817 -0.367408 4.59835 0
M  V30 614 H 54.8247 -0.276276 4.32919 0
M  V30 615 H 55.4957 -1.60346 5.28198 0
M  V30 616 H 57.9717 -2.28287 3.47885 0
M  V30 617 H 56.8477 -3.3729 4.33044 0
M  V30 618 H 57.1087 -3.57212 2.60484 0
M  V30 619 N 56.1678 -1.49265 -0.50573 0
M  V30 620 C 57.4448 -1.49012 -1.26707 0
M  V30 621 C 57.8248 -0.215205 -2.1 0
M  V30 622 O 57.1728 0.802547 -2.13943 0
M  V30 623 C 57.3828 -2.7663 -2.12783 0
M  V30 624 C 58.7308 -3.25932 -2.72127 0
M  V30 625 O 59.7548 -2.77715 -2.23054 0
M  V30 626 O 58.6138 -4.09897 -3.61451 0
M  V30 627 H 55.7078 -0.596197 -0.57313 0
M  V30 628 H 58.2538 -1.61524 -0.52039 0
M  V30 629 H 57.0258 -3.60916 -1.5118 0
M  V30 630 H 56.6488 -2.66956 -2.94653 0
M  V30 631 N 57.6459 0.756429 -1.3826 0
M  V30 632 C 58.8939 1.51248 -1.34047 0
M  V30 633 C 59.2149 1.94875 0.0698372 0
M  V30 634 O 58.4849 1.67436 1.01696 0
M  V30 635 H 57.0649 0.561018 -0.493222 0
M  V30 636 H 59.7269 0.899347 -1.7291 0
M  V30 637 H 58.8229 2.40472 -1.98947 0
M  V30 638 N 59.124 1.23083 0.984299 0
M  V30 639 C 60.056 0.96636 2.07832 0
M  V30 640 C 61.069 -0.0582135 1.62696 0
M  V30 641 O 62.258 0.176843 1.77622 0
M  V30 642 C 59.358 0.433397 3.36117 0
M  V30 643 C 58.531 1.51722 4.10243 0
M  V30 644 C 57.59 0.989821 5.16807 0
M  V30 645 O 56.616 1.67794 5.43906 0
M  V30 646 N 57.818 -0.184367 5.80207 0
M  V30 647 H 60.583 1.90824 2.31098 0
M  V30 648 H 58.144 1.13888 1.1507 0
M  V30 649 H 60.136 0.065699 4.04647 0
M  V30 650 H 58.706 -0.413806 3.09849 0
M  V30 651 H 57.926 2.05786 3.36223 0
M  V30 652 H 59.214 2.24619 4.56534 0
M  V30 653 H 58.612 -0.760062 5.60571 0
M  V30 654 H 57.169 -0.493366 6.4993 0
M  V30 655 N 60.6021 -1.18246 1.0419 0
M  V30 656 C 61.8481 -1.88793 0.75689 0
M  V30 657 C 62.2031 -1.78909 -0.707767 0
M  V30 658 O 61.4961 -1.1794 -1.50999 0
M  V30 659 C 61.6901 -3.38082 1.15911 0
M  V30 660 C 61.5191 -3.62496 2.66133 0
M  V30 661 C 60.2891 -3.7979 3.33298 0
M  V30 662 C 62.4871 -3.62976 3.64353 0
M  V30 663 N 60.4691 -3.91955 4.72487 0
M  V30 664 C 61.8401 -3.80869 4.89222 0
M  V30 665 C 63.8951 -3.46071 3.57965 0
M  V30 666 C 62.5981 -3.83608 6.08471 0
M  V30 667 C 64.6241 -3.50093 4.76643 0
M  V30 668 C 63.9861 -3.68484 6.00332 0
M  V30 669 H 60.0851 -0.709406 0.32904 0
M  V30 670 H 62.6691 -1.42022 1.33183 0
M  V30 671 H 60.8401 -3.83544 0.612238 0
M  V30 672 H 62.5721 -3.96202 0.824989 0
M  V30 673 H 59.3271 -3.79224 2.83701 0
M  V30 674 H 59.7511 -4.01857 5.44831 0
M  V30 675 H 64.3931 -3.30797 2.63311 0
M  V30 676 H 62.1111 -3.97669 7.0348 0
M  V30 677 H 65.6971 -3.38285 4.73344 0
M  V30 678 H 64.5771 -3.71488 6.90627 0
M  V30 679 N 62.0802 -0.821533 -1.34494 0
M  V30 680 C 62.9902 -0.244355 -2.33324 0
M  V30 681 C 64.0062 0.620527 -1.62559 0
M  V30 682 O 65.1822 0.528754 -1.94335 0
M  V30 683 C 62.2472 0.585368 -3.41723 0
M  V30 684 C 61.3082 -0.301752 -4.28238 0
M  V30 685 C 60.5412 0.488466 -5.3146 0
M  V30 686 O 60.7642 1.72186 -5.4379 0
M  V30 687 O 59.6982 -0.12848 -6.01763 0
M  V30 688 H 63.5242 -1.06231 -2.84515 0
M  V30 689 H 61.1092 -0.583645 -1.37528 0
M  V30 690 H 62.9912 1.05747 -4.07916 0
M  V30 691 H 61.6662 1.38068 -2.92778 0
M  V30 692 H 60.5732 -0.821315 -3.64973 0
M  V30 693 H 61.9062 -1.06138 -4.8062 0
M  V30 694 N 63.5583 1.46682 -0.576371 0
M  V30 695 C 64.4683 2.34032 0.163141 0
M  V30 696 C 65.4843 1.49367 0.892501 0
M  V30 697 O 66.6603 1.82252 0.857106 0
M  V30 698 C 63.7253 3.26435 1.16795 0
M  V30 699 C 62.7863 4.26998 0.443944 0
M  V30 700 C 62.0193 5.14986 1.40088 0
M  V30 701 O 62.2423 5.05785 2.637 0
M  V30 702 O 61.1763 5.94906 0.914917 0
M  V30 703 H 65.0023 2.98607 -0.55388 0
M  V30 704 H 62.5873 1.45554 -0.336821 0
M  V30 705 H 64.4693 3.83459 1.74748 0
M  V30 706 H 63.1443 2.64465 1.86655 0
M  V30 707 H 62.0513 3.7368 -0.177271 0
M  V30 708 H 63.3843 4.91736 -0.213566 0
M  V30 709 N 65.0364 0.313813 1.54444 0
M  V30 710 C 65.9664 -0.549454 2.26943 0
M  V30 711 C 66.9474 -1.12741 1.27372 0
M  V30 712 O 68.1324 -1.15436 1.56167 0
M  V30 713 C 65.2624 -1.71523 3.01989 0
M  V30 714 C 64.2164 -1.26703 4.08816 0
M  V30 715 C 63.5424 -2.51898 4.71647 0
M  V30 716 C 64.8424 -0.388962 5.2085 0
M  V30 717 H 66.5364 0.0552661 2.99349 0
M  V30 718 H 64.0824 0.0280207 1.43973 0
M  V30 719 H 66.0354 -2.32535 3.51433 0
M  V30 720 H 64.7594 -2.34639 2.27183 0
M  V30 721 H 63.4184 -0.679896 3.6024 0
M  V30 722 H 63.0664 -3.13356 3.93468 0
M  V30 723 H 62.7664 -2.22605 5.43802 0
M  V30 724 H 64.2904 -3.1369 5.23861 0
M  V30 725 H 65.7044 -0.905107 5.6611 0
M  V30 726 H 64.1014 -0.18924 5.99802 0
M  V30 727 H 65.1714 0.582699 4.81386 0
M  V30 728 N 66.5145 -1.57545 0.0417849 0
M  V30 729 C 67.7395 -1.97035 -0.647455 0
M  V30 730 C 68.1645 -0.918775 -1.64135 0
M  V30 731 O 67.5225 0.119006 -1.80909 0
M  V30 732 C 67.5705 -3.35609 -1.31905 0
M  V30 733 O 66.6745 -3.3287 -2.43457 0
M  V30 734 H 66.0155 -0.64211 -0.169086 0
M  V30 735 H 68.5455 -2.04318 0.107399 0
M  V30 736 H 68.5555 -3.72126 -1.67291 0
M  V30 737 H 67.2305 -4.11685 -0.590586 0
M  V30 738 H 65.8075 -3.08087 -2.10088 0
M  V30 739 N 67.9926 0.231505 -1.5589 0
M  V30 740 C 69.2406 0.955461 -1.78088 0
M  V30 741 C 69.5616 1.85262 -0.608533 0
M  V30 742 O 68.8316 1.92277 0.375035 0
M  V30 743 H 67.4116 0.355787 -0.656829 0
M  V30 744 H 70.0736 0.245751 -1.93344 0
M  V30 745 H 69.1696 1.56814 -2.69844 0
M  V30 746 N 69.4707 1.49531 0.497807 0
M  V30 747 C 70.4007 1.6935 1.60757 0
M  V30 748 C 71.3817 0.542218 1.61227 0
M  V30 749 O 72.5667 0.778417 1.77917 0
M  V30 750 C 69.6967 1.76298 2.99226 0
M  V30 751 C 68.6507 2.91248 3.13622 0
M  V30 752 C 67.9767 2.83312 4.53474 0
M  V30 753 C 69.2767 4.3214 2.93346 0
M  V30 754 H 70.9707 2.62263 1.44425 0
M  V30 755 H 68.5167 1.26208 0.693367 0
M  V30 756 H 70.4697 1.88749 3.76765 0
M  V30 757 H 69.1937 0.799871 3.16654 0
M  V30 758 H 67.8527 2.78404 2.38509 0
M  V30 759 H 67.5007 1.84902 4.67782 0
M  V30 760 H 67.2007 3.60465 4.64046 0
M  V30 761 H 68.7247 2.97775 5.33069 0
M  V30 762 H 70.1387 4.45649 3.60652 0
M  V30 763 H 68.5357 5.1054 3.15387 0
M  V30 764 H 69.6057 4.46363 1.89441 0
M  V30 765 N 70.9488 -0.749086 1.3866 0
M  V30 766 C 72.2258 -1.4992 1.25632 0
M  V30 767 C 72.6058 -2.10633 -0.140317 0
M  V30 768 O 71.9538 -1.97437 -1.15025 0
M  V30 769 C 72.1638 -2.56195 2.36992 0
M  V30 770 C 73.5118 -3.22972 2.75634 0
M  V30 771 O 74.5358 -2.66502 2.36337 0
M  V30 772 O 73.3948 -4.25122 3.43415 0
M  V30 773 H 70.4888 -0.665067 0.491544 0
M  V30 774 H 73.0348 -0.784113 1.50498 0
M  V30 775 H 71.8068 -2.09612 3.30422 0
M  V30 776 H 71.4298 -3.35279 2.13714 0
M  V30 777 N 72.4269 -1.23603 -0.977757 0
M  V30 778 C 73.3369 -1.03632 -2.1047 0
M  V30 779 C 74.3529 0.0199435 -1.73989 0
M  V30 780 O 75.5289 -0.176076 -2.00629 0
M  V30 781 C 72.5939 -0.63276 -3.40877 0
M  V30 782 C 71.6549 -1.76437 -3.91367 0
M  V30 783 C 70.8879 -1.37997 -5.15551 0
M  V30 784 O 71.1109 -0.265357 -5.69782 0
M  V30 785 O 70.0449 -2.20201 -5.60174 0
M  V30 786 H 73.8709 -1.98086 -2.30208 0
M  V30 787 H 71.4559 -1.02332 -1.08851 0
M  V30 788 H 73.3379 -0.418761 -4.19314 0
M  V30 789 H 72.0129 0.282754 -3.22463 0
M  V30 790 H 70.9199 -2.03304 -3.14036 0
M  V30 791 H 72.2529 -2.6583 -4.14241 0
M  V30 792 N 73.905 1.17692 -1.04816 0
M  V30 793 C 74.815 2.25229 -0.65643 0
M  V30 794 C 75.831 1.71018 0.320761 0
M  V30 795 O 77.007 2.00649 0.173805 0
M  V30 796 C 74.072 3.46684 -0.0332629 0
M  V30 797 C 73.133 4.15997 -1.06042 0
M  V30 798 C 72.366 5.31654 -0.466893 0
M  V30 799 O 72.589 5.65777 0.724758 0
M  V30 800 O 71.523 5.89831 -1.1993 0
M  V30 801 H 75.349 2.61016 -1.55255 0
M  V30 802 H 72.934 1.24919 -0.81949 0
M  V30 803 H 74.816 4.20234 0.313256 0
M  V30 804 H 73.491 3.12703 0.836566 0
M  V30 805 H 72.398 3.44482 -1.45886 0
M  V30 806 H 73.731 4.53996 -1.90127 0
M  V30 807 N 75.3831 0.828654 1.34056 0
M  V30 808 C 76.3151 0.212052 2.28217 0
M  V30 809 C 77.3281 -0.601362 1.51286 0
M  V30 810 O 78.5171 -0.430104 1.73241 0
M  V30 811 C 75.6171 -0.72088 3.31144 0
M  V30 812 C 74.7901 0.0509587 4.3737 0
M  V30 813 C 73.8491 -0.803766 5.20025 0
M  V30 814 O 72.8751 -0.246667 5.68665 0
M  V30 815 N 74.0771 -2.1227 5.40298 0
M  V30 816 H 76.8421 1.02105 2.81771 0
M  V30 817 H 74.4031 0.686153 1.46641 0
M  V30 818 H 76.3951 -1.29742 3.8334 0
M  V30 819 H 74.9651 -1.43061 2.77943 0
M  V30 820 H 74.1851 0.808831 3.85813 0
M  V30 821 H 75.4731 0.582065 5.0546 0
M  V30 822 H 74.8711 -2.59898 5.02464 0
M  V30 823 H 73.4281 -2.64796 5.95589 0
M  V30 824 N 76.8612 -1.46375 0.584142 0
M  V30 825 C 77.8112 -2.27371 -0.169232 0
M  V30 826 C 78.7952 -1.35955 -0.860523 0
M  V30 827 O 79.9872 -1.60119 -0.754382 0
M  V30 828 C 77.1162 -3.22334 -1.18134 0
M  V30 829 C 76.2022 -4.21235 -0.492088 0
M  V30 830 N 76.5932 -5.03766 0.453129 0
M  V30 831 C 74.8912 -4.39773 -0.742652 0
M  V30 832 C 75.5922 -5.75366 0.85609 0
M  V30 833 N 74.5682 -5.43214 0.204926 0
M  V30 834 H 78.3702 -2.88572 0.557097 0
M  V30 835 H 75.8842 -1.57242 0.406042 0
M  V30 836 H 77.8812 -3.79071 -1.73525 0
M  V30 837 H 76.5412 -2.62693 -1.90847 0
M  V30 838 H 77.5522 -5.11227 0.828723 0
M  V30 839 H 74.2292 -3.91279 -1.45625 0
M  V30 840 H 75.6192 -6.5172 1.63434 0
M  V30 841 N 78.3393 -0.321999 -1.54275 0
M  V30 842 C 79.5643 0.285791 -2.05422 0
M  V30 843 C 79.9893 1.45124 -1.19669 0
M  V30 844 O 79.3473 1.80132 -0.205441 0
M  V30 845 C 79.3953 0.69956 -3.53749 0
M  V30 846 O 78.4993 1.8021 -3.70942 0
M  V30 847 H 77.8403 0.0518962 -0.661969 0
M  V30 848 H 80.3703 -0.469954 -1.9913 0
M  V30 849 H 80.3803 0.982649 -3.9599 0
M  V30 850 H 79.0553 -0.152864 -4.15619 0
M  V30 851 H 77.6323 1.51794 -3.40607 0
M  V30 852 N 79.8174 1.5752 -0.0501392 0
M  V30 853 C 81.0634 1.92936 0.624798 0
M  V30 854 C 81.3964 0.928685 1.70555 0
M  V30 855 O 80.6714 -0.0454779 1.94447 0
M  V30 856 C 80.9544 3.38737 1.22185 0
M  V30 857 C 80.8074 4.49552 0.149218 0
M  V30 858 C 82.1264 3.84913 2.13378 0
M  V30 859 H 79.2454 0.701604 0.225657 0
M  V30 860 H 81.8874 1.89671 -0.111693 0
M  V30 861 H 80.0374 3.4165 1.84953 0
M  V30 862 H 81.7094 4.58768 -0.482648 0
M  V30 863 H 79.9524 4.30638 -0.522841 0
M  V30 864 H 80.6234 5.48653 0.606966 0
M  V30 865 H 83.0994 3.8387 1.60572 0
M  V30 866 H 81.9754 4.87584 2.52097 0
M  V30 867 H 82.2364 3.21611 3.03346 0
M  V30 868 N 81.2955 -0.223234 1.56011 0
M  V30 869 C 82.7115 -0.572856 1.48965 0
M  V30 870 C 82.9115 -1.87225 0.74492 0
M  V30 871 O 81.9675 -2.50899 0.283896 0
M  V30 872 C 83.2805 -0.653646 2.9351 0
M  V30 873 C 84.8285 -0.744386 3.0402 0
M  V30 874 C 85.3035 -0.856535 4.49919 0
M  V30 875 N 86.7945 -0.9208 4.53955 0
M  V30 876 C 87.5295 -1.02726 5.64123 0
M  V30 877 N 87.0255 -1.09777 6.84047 0
M  V30 878 N 88.8185 -1.06226 5.51971 0
M  V30 879 H 80.9695 0.629462 2.02858 0
M  V30 880 H 83.2325 0.220621 0.921971 0
M  V30 881 H 82.9385 0.231518 3.50937 0
M  V30 882 H 82.8125 -1.51781 3.45315 0
M  V30 883 H 85.1995 -1.61999 2.46658 0
M  V30 884 H 85.2805 0.14541 2.55386 0
M  V30 885 H 84.9245 0.0146069 5.07898 0
M  V30 886 H 84.8545 -1.76172 4.96257 0
M  V30 887 H 87.3455 -0.876694 3.6759 0
M  V30 888 H 87.6585 -1.17872 7.63758 0
M  V30 889 H 86.0035 -1.06693 6.86762 0
M  V30 890 H 89.1945 -1.00382 4.5721 0
M  V30 891 H 89.3675 -1.14177 6.37862 0
M  V30 892 N 82.7736 -1.49793 -0.48987 0
M  V30 893 C 84.0016 -1.63568 -1.26701 0
M  V30 894 C 84.4166 -0.311465 -1.86213 0
M  V30 895 O 83.7736 0.704416 -1.68357 0
M  V30 896 C 83.8246 -2.71284 -2.38929 0
M  V30 897 O 83.5456 -3.9857 -1.81861 0
M  V30 898 C 85.0466 -2.95864 -3.3012 0
M  V30 899 H 82.2666 -0.550342 -0.383881 0
M  V30 900 H 84.8106 -1.95898 -0.586864 0
M  V30 901 H 82.9656 -2.417 -3.02753 0
M  V30 902 H 83.3796 -4.57993 -2.55622 0
M  V30 903 H 84.8536 -3.74941 -4.05121 0
M  V30 904 H 85.3306 -2.06206 -3.87783 0
M  V30 905 H 85.9366 -3.26907 -2.72051 0
M  V30 906 N 84.2517 0.741722 -1.39055 0
M  V30 907 C 85.4817 1.52876 -1.3897 0
M  V30 908 C 85.8897 1.8919 0.0193266 0
M  V30 909 O 85.2327 1.54138 0.999356 0
M  V30 910 C 85.2947 2.84929 -2.19216 0
M  V30 911 C 84.9587 2.71086 -3.67915 0
M  V30 912 C 85.9557 2.40084 -4.61146 0
M  V30 913 C 83.6407 2.88168 -4.11418 0
M  V30 914 C 85.6347 2.26335 -5.95862 0
M  V30 915 C 83.3217 2.74037 -5.46211 0
M  V30 916 C 84.3197 2.43166 -6.38247 0
M  V30 917 O 84.0077 2.29115 -7.70559 0
M  V30 918 H 83.7397 0.479252 -0.476753 0
M  V30 919 H 86.2937 0.924751 -1.83405 0
M  V30 920 H 84.5237 3.47564 -1.69518 0
M  V30 921 H 86.2127 3.46509 -2.11392 0
M  V30 922 H 86.9787 2.26545 -4.28838 0
M  V30 923 H 82.8577 3.11191 -3.40119 0
M  V30 924 H 86.4017 2.0216 -6.67665 0
M  V30 925 H 82.2987 2.87153 -5.78112 0
M  V30 926 H 83.0667 2.44237 -7.81211 0
M  V30 927 N 85.7298 1.2412 0.971189 0
M  V30 928 C 86.6398 1.04747 2.09917 0
M  V30 929 C 87.6558 -0.0107162 1.73997 0
M  V30 930 O 88.8318 0.186714 2.00533 0
M  V30 931 C 85.8968 0.650828 3.40537 0
M  V30 932 C 84.9578 1.7851 3.90426 0
M  V30 933 C 84.1908 1.40729 5.14812 0
M  V30 934 O 84.4138 0.29557 5.69634 0
M  V30 935 O 83.3478 2.23168 5.58999 0
M  V30 936 H 87.1738 1.99304 2.29154 0
M  V30 937 H 84.7588 1.02908 1.08307 0
M  V30 938 H 86.6408 0.440992 4.19086 0
M  V30 939 H 85.3158 -0.265649 3.22608 0
M  V30 940 H 84.2228 2.04966 3.12953 0
M  V30 941 H 85.5558 2.68023 4.12825 0
M  V30 942 N 87.2079 -1.17134 1.05439 0
M  V30 943 C 88.4539 -1.87733 0.767077 0
M  V30 944 C 88.7869 -1.8098 -0.704253 0
M  V30 945 O 88.0619 -1.21951 -1.5152 0
M  V30 946 C 88.3449 -3.37659 1.25133 0
M  V30 947 C 88.1979 -3.53149 2.78578 0
M  V30 948 C 89.5169 -4.31768 0.852324 0
M  V30 949 H 86.6359 -0.681687 0.280129 0
M  V30 950 H 89.2779 -1.37732 1.30881 0
M  V30 951 H 87.4279 -3.80373 0.790469 0
M  V30 952 H 89.0999 -3.19434 3.32806 0
M  V30 953 H 87.3429 -2.95345 3.17732 0
M  V30 954 H 88.0139 -4.58403 3.07523 0
M  V30 955 H 90.4899 -3.96909 1.24911 0
M  V30 956 H 89.3659 -5.35199 1.21873 0
M  V30 957 H 89.6269 -4.41429 -0.243485 0
M  V30 958 N 88.686 -0.835752 -1.33615 0
M  V30 959 C 89.926 -0.43599 -1.99696 0
M  V30 960 C 90.29 0.98557 -1.64774 0
M  V30 961 O 91.491 1.48889 -2.23798 0
M  V30 962 C 89.762 -0.646721 -3.515 0
M  V30 963 S 91.321 -0.341715 -4.37467 0
M  V30 964 H 88.139 -0.164136 -0.691795 0
M  V30 965 H 90.741 -1.08436 -1.62671 0
M  V30 966 H 89.445 -1.68077 -3.74404 0
M  V30 967 H 88.976 0.0159173 -3.93397 0
M  V30 968 H 90.991 0.839708 -4.89043 0
M  V30 969 N 90.1641 1.46063 -0.591896 0
M  V30 970 C 91.4411 1.95595 -0.0137119 0
M  V30 971 C 91.8211 1.5345 1.4497 0
M  V30 972 O 91.1691 0.789543 2.14426 0
M  V30 973 C 91.3791 3.48453 -0.195373 0
M  V30 974 C 92.7271 4.24546 -0.0679765 0
M  V30 975 O 93.7511 3.55982 -0.124681 0
M  V30 976 O 92.6101 5.46467 0.0600579 0
M  V30 977 H 89.7041 0.825795 0.0446279 0
M  V30 978 H 92.2501 1.56303 -0.660859 0
M  V30 979 H 91.0221 3.72045 -1.21235 0
M  V30 980 H 90.6451 3.94597 0.487775 0
M  V30 981 N 91.6422 0.330177 1.54103 0
M  V30 982 C 92.8882 -0.270806 2.00984 0
M  V30 983 C 93.2212 -1.51265 1.21789 0
M  V30 984 O 92.4962 -1.92142 0.301927 0
M  V30 985 C 92.7792 -0.598339 3.55094 0
M  V30 986 C 92.6322 0.654674 4.4501 0
M  V30 987 C 93.9512 -1.41334 4.16789 0
M  V30 988 H 91.0702 -0.0969531 0.730595 0
M  V30 989 H 93.7122 0.448066 1.84641 0
M  V30 990 H 91.8622 -1.21078 3.69151 0
M  V30 991 H 93.5342 1.29285 4.42813 0
M  V30 992 H 91.7772 1.28224 4.14416 0
M  V30 993 H 92.4482 0.380944 5.50684 0
M  V30 994 H 94.9242 -0.895597 4.06347 0
M  V30 995 H 93.8002 -1.61127 5.24718 0
M  V30 996 H 94.0612 -2.41146 3.70541 0
M  V30 997 N 93.1203 -1.57491 0.0584922 0
M  V30 998 C 94.0523 -2.08916 -0.942694 0
M  V30 999 C 95.0653 -1.0185 -1.27006 0
M  V30 1000 O 96.2543 -1.29398 -1.22957 0
M  V30 1001 C 93.3543 -2.52341 -2.26224 0
M  V30 1002 C 92.5273 -3.82827 -2.1157 0
M  V30 1003 C 91.5863 -4.12487 -3.26712 0
M  V30 1004 O 90.6123 -4.82295 -3.02292 0
M  V30 1005 N 91.8143 -3.64978 -4.5141 0
M  V30 1006 H 94.5793 -2.95437 -0.503722 0
M  V30 1007 H 92.1403 -1.61397 -0.12757 0
M  V30 1008 H 94.1323 -2.69254 -3.02133 0
M  V30 1009 H 92.7023 -1.7103 -2.61663 0
M  V30 1010 H 91.9223 -3.75425 -1.20208 0
M  V30 1011 H 93.2103 -4.68263 -1.99015 0
M  V30 1012 H 92.6083 -3.08558 -4.7414 0
M  V30 1013 H 91.1653 -3.87115 -5.2439 0
M  V30 1014 N 94.5984 0.214957 -1.56127 0
M  V30 1015 C 96.0144 0.564948 -1.49267 0
M  V30 1016 C 96.2144 1.86827 -0.754838 0
M  V30 1017 O 95.2704 2.50745 -0.297198 0
M  V30 1018 C 96.5834 0.638071 -2.93852 0
M  V30 1019 C 98.1314 0.728253 -3.0441 0
M  V30 1020 C 98.6064 0.832663 -4.50367 0
M  V30 1021 N 100.097 0.896712 -4.54437 0
M  V30 1022 C 100.832 0.997324 -5.6466 0
M  V30 1023 N 100.328 1.06147 -6.8462 0
M  V30 1024 N 102.121 1.03297 -5.52527 0
M  V30 1025 H 94.2724 -0.640211 -2.02522 0
M  V30 1026 H 96.5354 -0.225507 -0.920788 0
M  V30 1027 H 96.2414 -0.250126 -3.50809 0
M  V30 1028 H 96.1154 1.49947 -3.46115 0
M  V30 1029 H 98.5024 1.60689 -2.47514 0
M  V30 1030 H 98.5834 -0.158952 -2.55306 0
M  V30 1031 H 98.2274 -0.0415417 -5.07883 0
M  V30 1032 H 98.1574 1.73538 -4.97184 0
M  V30 1033 H 100.648 0.857188 -3.6805 0
M  V30 1034 H 100.961 1.1382 -7.64372 0
M  V30 1035 H 99.3064 1.03049 -6.87318 0
M  V30 1036 H 102.497 0.979558 -4.57736 0
M  V30 1037 H 102.67 1.10793 -6.38458 0
M  V30 1038 N 96.0765 1.50051 0.48192 0
M  V30 1039 C 97.0395 1.67584 1.5636 0
M  V30 1040 C 98.0395 0.546894 1.51214 0
M  V30 1041 O 99.2295 0.813725 1.54026 0
M  V30 1042 C 96.3615 1.691 2.96003 0
M  V30 1043 H 97.5545 2.64078 1.42136 0
M  V30 1044 H 95.1075 1.39369 0.707533 0
M  V30 1045 H 95.8425 0.742589 3.15684 0
M  V30 1046 H 95.6275 2.51105 3.01146 0
M  V30 1047 H 97.1175 1.84656 3.74556 0
M  V30 1048 N 97.5546 -0.734337 1.39446 0
M  V30 1049 C 98.9656 -1.31264 1.32766 0
M  V30 1050 C 99.3166 -1.96198 -0.00767497 0
M  V30 1051 O 98.4416 -1.96346 -0.909796 0
M  V30 1052 C 99.0366 -2.38682 2.4045 0
M  V30 1053 C 97.5956 -2.92184 2.37288 0
M  V30 1054 C 96.7426 -1.6576 2.22304 0
M  V30 1055 H 99.6936 -0.531799 1.49525 0
M  V30 1056 H 99.7146 -3.19087 2.07276 0
M  V30 1057 H 99.2266 -1.91392 3.37625 0
M  V30 1058 H 97.3276 -3.43752 1.43754 0
M  V30 1059 H 97.4406 -3.45253 3.3217 0
M  V30 1060 H 95.8046 -1.9012 1.69489 0
M  V30 1061 H 96.5876 -1.20521 3.21449 0
M  V30 1062 N 99.0327 -1.24633 -0.964593 0
M  V30 1063 C 100.281 -1.08573 -1.70459 0
M  V30 1064 C 100.602 0.375655 -1.91347 0
M  V30 1065 O 99.8717 1.26779 -1.49345 0
M  V30 1066 H 98.4517 -0.398784 -0.631649 0
M  V30 1067 H 101.114 -1.56601 -1.16026 0
M  V30 1068 H 100.21 -1.58623 -2.68785 0
M  V30 1069 N 100.511 1.16574 -1.06058 0
M  V30 1070 C 101.443 2.2045 -0.627239 0
M  V30 1071 C 102.456 1.59752 0.313534 0
M  V30 1072 O 103.645 1.78192 0.104896 0
M  V30 1073 C 100.745 3.3875 0.100974 0
M  V30 1074 C 99.9178 4.29008 -0.852687 0
M  V30 1075 C 98.9768 5.25944 -0.164152 0
M  V30 1076 O 98.0028 5.63535 -0.801047 0
M  V30 1077 N 99.2048 5.70075 1.09518 0
M  V30 1078 H 101.97 2.58249 -1.52077 0
M  V30 1079 H 99.5308 1.3156 -0.943594 0
M  V30 1080 H 101.523 4.00638 0.57194 0
M  V30 1081 H 100.093 2.99476 0.89628 0
M  V30 1082 H 99.3128 3.64419 -1.50308 0
M  V30 1083 H 100.601 4.86195 -1.49972 0
M  V30 1084 H 99.9988 5.41624 1.6328 0
M  V30 1085 H 98.5558 6.34067 1.51006 0
M  V30 1086 N 101.989 0.842826 1.3317 0
M  V30 1087 C 102.952 0.284065 2.27433 0
M  V30 1088 C 103.952 -0.54948 1.5112 0
M  V30 1089 O 105.142 -0.362699 1.70382 0
M  V30 1090 C 102.274 -0.599384 3.35589 0
M  V30 1091 H 103.467 1.11589 2.78366 0
M  V30 1092 H 101.02 0.616221 1.4364 0
M  V30 1093 H 101.755 -1.45349 2.89904 0
M  V30 1094 H 101.54 -0.00291266 3.921 0
M  V30 1095 H 103.03 -0.983488 4.05854 0
M  V30 1096 N 103.467 -1.45747 0.599634 0
M  V30 1097 C 104.417 -2.27538 -0.145107 0
M  V30 1098 C 105.401 -1.3686 -0.846055 0
M  V30 1099 O 106.593 -1.6091 -0.737357 0
M  V30 1100 C 103.722 -3.23569 -1.14708 0
M  V30 1101 C 102.808 -4.21734 -0.447383 0
M  V30 1102 N 103.199 -5.03257 0.506535 0
M  V30 1103 C 101.497 -4.40536 -0.695966 0
M  V30 1104 C 102.198 -5.74426 0.917068 0
M  V30 1105 N 101.174 -5.42966 0.26253 0
M  V30 1106 H 104.976 -2.87965 0.587672 0
M  V30 1107 H 102.49 -1.56803 0.422697 0
M  V30 1108 H 104.487 -3.8089 -1.69495 0
M  V30 1109 H 103.147 -2.64702 -1.8805 0
M  V30 1110 H 104.158 -5.10319 0.882899 0
M  V30 1111 H 100.835 -3.92802 -1.41467 0
M  V30 1112 H 102.225 -6.4995 1.70338 0
M  V30 1113 N 104.945 -0.338344 -1.53925 0
M  V30 1114 C 106.191 0.252842 -2.01822 0
M  V30 1115 C 106.546 1.48612 -1.22197 0
M  V30 1116 O 105.839 1.89238 -0.299892 0
M  V30 1117 C 106.033 0.62448 -3.51902 0
M  V30 1118 C 105.862 -0.571235 -4.46057 0
M  V30 1119 C 104.632 -1.07493 -4.93734 0
M  V30 1120 C 106.83 -1.42807 -4.94076 0
M  V30 1121 N 104.812 -2.23351 -5.71828 0
M  V30 1122 C 106.183 -2.43362 -5.70241 0
M  V30 1123 C 108.238 -1.45412 -4.76193 0
M  V30 1124 C 106.941 -3.46346 -6.30426 0
M  V30 1125 C 108.967 -2.47274 -5.37224 0
M  V30 1126 C 108.329 -3.46555 -6.13253 0
M  V30 1127 H 104.428 0.0559669 -0.779995 0
M  V30 1128 H 107.012 -0.476732 -1.88773 0
M  V30 1129 H 105.183 1.32317 -3.65167 0
M  V30 1130 H 106.915 1.19841 -3.86549 0
M  V30 1131 H 103.67 -0.643848 -4.69203 0
M  V30 1132 H 104.094 -2.81834 -6.15548 0
M  V30 1133 H 108.736 -0.700171 -4.16962 0
M  V30 1134 H 106.454 -4.22638 -6.88769 0
M  V30 1135 H 110.04 -2.50109 -5.25297 0
M  V30 1136 H 108.92 -4.24083 -6.59638 0
M  V30 1137 N 106.423 1.57458 -0.0668435 0
M  V30 1138 C 107.353 2.15468 0.899764 0
M  V30 1139 C 108.334 1.08042 1.31381 0
M  V30 1140 O 109.519 1.36054 1.38574 0
M  V30 1141 C 106.649 2.71232 2.16911 0
M  V30 1142 C 105.603 3.83781 1.89463 0
M  V30 1143 C 104.929 4.26127 3.22986 0
M  V30 1144 C 106.229 5.08238 1.20381 0
M  V30 1145 H 107.923 2.96488 0.416529 0
M  V30 1146 H 105.469 1.4262 0.198908 0
M  V30 1147 H 107.422 3.10458 2.84945 0
M  V30 1148 H 106.146 1.87426 2.67468 0
M  V30 1149 H 104.805 3.45051 1.23836 0
M  V30 1150 H 104.453 3.39249 3.71374 0
M  V30 1151 H 104.153 5.01993 3.05413 0
M  V30 1152 H 105.677 4.67966 3.92225 0
M  V30 1153 H 107.091 5.44811 1.78475 0
M  V30 1154 H 105.488 5.89349 1.13083 0
M  V30 1155 H 106.558 4.84558 0.182153 0
M  V30 1156 N 107.901 -0.206675 1.56239 0
M  V30 1157 C 109.317 -0.557025 1.49564 0
M  V30 1158 C 109.517 -1.86424 0.764735 0
M  V30 1159 O 108.573 -2.50584 0.310491 0
M  V30 1160 C 109.886 -0.622478 2.94186 0
M  V30 1161 C 111.434 -0.712099 3.04792 0
M  V30 1162 C 111.909 -0.808767 4.50803 0
M  V30 1163 N 113.4 -0.8726 4.54907 0
M  V30 1164 C 114.135 -0.967365 5.65181 0
M  V30 1165 N 113.631 -1.02515 6.85173 0
M  V30 1166 N 115.424 -1.00366 5.53067 0
M  V30 1167 H 107.575 0.650943 2.02179 0
M  V30 1168 H 109.838 0.230387 0.919579 0
M  V30 1169 H 109.544 0.268727 3.50672 0
M  V30 1170 H 109.418 -1.4811 3.46905 0
M  V30 1171 H 111.805 -1.59374 2.48363 0
M  V30 1172 H 111.886 0.172489 2.55218 0
M  V30 1173 H 111.53 0.0684754 5.07854 0
M  V30 1174 H 111.46 -1.70899 4.98098 0
M  V30 1175 H 113.951 -0.837657 3.68499 0
M  V30 1176 H 114.264 -1.09765 7.64965 0
M  V30 1177 H 112.609 -0.994026 6.87855 0
M  V30 1178 H 115.8 -0.95527 4.58249 0
M  V30 1179 H 115.973 -1.07405 6.39037 0
M  V30 1180 N 109.379 -1.50304 -0.473955 0
M  V30 1181 C 110.607 -1.64902 -1.24959 0
M  V30 1182 C 111.022 -0.331198 -1.85872 0
M  V30 1183 O 110.379 0.68652 -1.69095 0
M  V30 1184 C 110.43 -2.73803 -2.36038 0
M  V30 1185 O 110.151 -4.00477 -1.77624 0
M  V30 1186 C 111.652 -2.99349 -3.26964 0
M  V30 1187 H 108.872 -0.554383 -0.378022 0
M  V30 1188 H 111.416 -1.9651 -0.566054 0
M  V30 1189 H 109.571 -2.44898 -3.00173 0
M  V30 1190 H 109.985 -4.60678 -2.5075 0
M  V30 1191 H 111.459 -3.79217 -4.01121 0
M  V30 1192 H 111.936 -2.10307 -3.85574 0
M  V30 1193 H 112.542 -3.29774 -2.68569 0
M  V30 1194 N 110.857 0.726932 -1.39834 0
M  V30 1195 C 112.105 1.4837 -1.37225 0
M  V30 1196 C 112.426 1.94979 0.0284857 0
M  V30 1197 O 111.696 1.69555 0.981213 0
M  V30 1198 H 110.276 0.55043 -0.505011 0
M  V30 1199 H 112.938 0.862468 -1.74778 0
M  V30 1200 H 112.034 2.36198 -2.04003 0
M  V30 1201 N 112.336 1.25143 0.95797 0
M  V30 1202 C 113.582 1.10863 1.70531 0
M  V30 1203 C 113.937 -0.347391 1.89238 0
M  V30 1204 O 113.23 -1.25262 1.44983 0
M  V30 1205 C 113.424 1.79272 3.09187 0
M  V30 1206 C 113.253 3.31376 3.04006 0
M  V30 1207 C 112.023 4.0062 3.07948 0
M  V30 1208 C 114.221 4.27825 2.8543 0
M  V30 1209 N 112.203 5.39526 2.9289 0
M  V30 1210 C 113.574 5.53794 2.78769 0
M  V30 1211 C 115.629 4.1828 2.70085 0
M  V30 1212 C 114.332 6.7131 2.58331 0
M  V30 1213 C 116.358 5.35485 2.51017 0
M  V30 1214 C 115.72 6.60393 2.45073 0
M  V30 1215 H 111.819 0.460362 0.632132 0
M  V30 1216 H 114.403 1.58196 1.13499 0
M  V30 1217 H 112.574 1.34439 3.64391 0
M  V30 1218 H 114.306 1.57764 3.72683 0
M  V30 1219 H 111.061 3.51855 3.17009 0
M  V30 1220 H 111.485 6.12416 2.88574 0
M  V30 1221 H 116.127 3.22461 2.73457 0
M  V30 1222 H 113.845 7.67243 2.53701 0
M  V30 1223 H 117.431 5.29959 2.40073 0
M  V30 1224 H 116.311 7.49557 2.30509 0
M  V30 1225 N 113.814 -1.1601 1.06675 0
M  V30 1226 C 115.06 -1.86909 0.786945 0
M  V30 1227 C 115.393 -1.81717 -0.685018 0
M  V30 1228 O 114.668 -1.23551 -1.50218 0
M  V30 1229 C 114.951 -3.36313 1.28707 0
M  V30 1230 C 114.804 -3.50175 2.82308 0
M  V30 1231 C 116.123 -4.3084 0.898071 0
M  V30 1232 H 113.242 -0.678677 0.287343 0
M  V30 1233 H 115.884 -1.36336 1.32334 0
M  V30 1234 H 114.034 -3.79513 0.830768 0
M  V30 1235 H 115.706 -3.15886 3.36175 0
M  V30 1236 H 113.949 -2.91959 3.20847 0
M  V30 1237 H 114.62 -4.55116 3.12368 0
M  V30 1238 H 117.096 -3.95561 1.29114 0
M  V30 1239 H 115.972 -5.33876 1.27543 0
M  V30 1240 H 116.233 -4.41662 -0.196651 0
M  V30 1241 N 115.292 -0.849877 -1.32721 0
M  V30 1242 C 116.703 -0.506188 -1.79707 0
M  V30 1243 C 117.054 0.975627 -1.70223 0
M  V30 1244 O 116.179 1.76078 -1.25799 0
M  V30 1245 C 116.774 -0.912044 -3.26293 0
M  V30 1246 C 115.333 -0.620326 -3.71253 0
M  V30 1247 C 114.48 -1.11439 -2.53922 0
M  V30 1248 H 117.431 -1.03754 -1.20087 0
M  V30 1249 H 117.452 -0.226493 -3.79825 0
M  V30 1250 H 116.964 -1.99057 -3.33164 0
M  V30 1251 H 115.065 0.447674 -3.69901 0
M  V30 1252 H 115.178 -1.18327 -4.64258 0
M  V30 1253 H 113.542 -0.534834 -2.49021 0
M  V30 1254 H 114.325 -2.19992 -2.6355 0
M  V30 1255 N 116.77 1.45427 -0.607355 0
M  V30 1256 C 118.186 1.57283 -0.270985 0
M  V30 1257 C 118.386 1.59875 1.22647 0
M  V30 1258 O 117.442 1.52893 2.00948 0
M  V30 1259 C 118.755 2.85566 -0.941952 0
M  V30 1260 C 120.303 2.9924 -0.917849 0
M  V30 1261 C 120.778 4.30293 -1.56882 0
M  V30 1262 N 122.269 4.37051 -1.5343 0
M  V30 1263 C 123.004 5.37123 -2.00715 0
M  V30 1264 N 122.5 6.43734 -2.56084 0
M  V30 1265 N 124.293 5.28479 -1.91484 0
M  V30 1266 H 116.444 1.41988 -1.57966 0
M  V30 1267 H 118.707 0.67885 -0.661715 0
M  V30 1268 H 118.413 2.8955 -1.99633 0
M  V30 1269 H 118.287 3.74322 -0.465096 0
M  V30 1270 H 120.674 2.94822 0.127984 0
M  V30 1271 H 120.755 2.11895 -1.43297 0
M  V30 1272 H 120.399 4.35469 -2.61398 0
M  V30 1273 H 120.329 5.16454 -1.02873 0
M  V30 1274 H 122.82 3.60615 -1.12982 0
M  V30 1275 H 123.133 7.16341 -2.89958 0
M  V30 1276 H 121.478 6.44485 -2.60122 0
M  V30 1277 H 124.669 4.44098 -1.47967 0
M  V30 1278 H 124.842 6.0632 -2.28648 0
M  V30 1279 N 118.248 0.346503 1.53744 0
M  V30 1280 C 119.664 -0.00530975 1.59599 0
M  V30 1281 C 119.864 -1.48465 1.36236 0
M  V30 1282 O 118.92 -2.24376 1.15808 0
M  V30 1283 C 120.233 0.433516 2.97559 0
M  V30 1284 C 121.781 0.386111 3.10609 0
M  V30 1285 C 122.256 0.800451 4.50951 0
M  V30 1286 N 123.747 0.754753 4.5701 0
M  V30 1287 C 124.482 1.04727 5.63755 0
M  V30 1288 N 123.978 1.4081 6.7834 0
M  V30 1289 N 125.771 0.971316 5.53644 0
M  V30 1290 H 117.922 1.31009 1.67184 0
M  V30 1291 H 120.185 0.534242 0.783128 0
M  V30 1292 H 119.891 1.46509 3.19731 0
M  V30 1293 H 119.765 -0.189753 3.76722 0
M  V30 1294 H 122.152 -0.636295 2.88158 0
M  V30 1295 H 122.233 1.04462 2.33498 0
M  V30 1296 H 121.877 1.82088 4.74137 0
M  V30 1297 H 121.807 0.119386 5.26465 0
M  V30 1298 H 124.298 0.488662 3.74727 0
M  V30 1299 H 124.611 1.61607 7.55714 0
M  V30 1300 H 122.956 1.44657 6.79779 0
M  V30 1301 H 126.147 0.688748 4.63005 0
M  V30 1302 H 126.32 1.20263 6.36742 0
M  V30 1303 N 119.726 -1.57421 0.075193 0
M  V30 1304 C 120.974 -1.93236 -0.591974 0
M  V30 1305 C 121.295 -0.956241 -1.69944 0
M  V30 1306 O 120.565 -0.00494792 -1.95899 0
M  V30 1307 H 119.145 -0.713355 -0.22166 0
M  V30 1308 H 121.807 -1.9444 0.133848 0
M  V30 1309 H 120.903 -2.95131 -1.01509 0
M  V30 1310 N 121.204 0.198386 -1.56346 0
M  V30 1311 C 122.167 1.22952 -1.93431 0
M  V30 1312 C 123.167 1.38611 -0.815092 0
M  V30 1313 O 124.357 1.36479 -1.08255 0
M  V30 1314 C 121.489 2.59946 -2.20546 0
M  V30 1315 H 122.682 0.912626 -2.85677 0
M  V30 1316 H 120.235 0.43977 -1.49986 0
M  V30 1317 H 120.97 2.96696 -1.30927 0
M  V30 1318 H 120.755 2.49953 -3.02102 0
M  V30 1319 H 122.245 3.3431 -2.50253 0
M  V30 1320 N 122.682 1.50554 0.465978 0
M  V30 1321 C 123.928 1.62038 1.21949 0
M  V30 1322 C 124.261 0.322116 1.9151 0
M  V30 1323 O 123.536 -0.676723 1.82348 0
M  V30 1324 C 123.819 2.80421 2.25912 0
M  V30 1325 C 123.672 4.20144 1.60622 0
M  V30 1326 C 124.991 2.94354 3.27176 0
M  V30 1327 H 122.11 0.589752 0.441998 0
M  V30 1328 H 124.752 1.82956 0.51257 0
M  V30 1329 H 122.902 2.62717 2.86203 0
M  V30 1330 H 124.574 4.49449 1.03889 0
M  V30 1331 H 122.817 4.24165 0.909211 0
M  V30 1332 H 123.488 4.98914 2.36196 0
M  V30 1333 H 125.964 3.10578 2.76913 0
M  V30 1334 H 124.84 3.788 3.97242 0
M  V30 1335 H 125.101 2.05186 3.916 0
M  V30 1336 N 124.16 -0.719506 1.40217 0
M  V30 1337 C 125.11 -1.8251 1.36653 0
M  V30 1338 C 126.094 -1.59028 0.244732 0
M  V30 1339 O 127.286 -1.70268 0.483524 0
M  V30 1340 C 124.415 -3.20599 1.22763 0
M  V30 1341 C 123.501 -3.49858 2.39708 0
M  V30 1342 N 123.892 -3.49957 3.6519 0
M  V30 1343 C 122.19 -3.80297 2.33002 0
M  V30 1344 C 122.891 -3.77449 4.42614 0
M  V30 1345 N 121.867 -3.96002 3.72402 0
M  V30 1346 H 125.669 -1.80914 2.31619 0
M  V30 1347 H 123.183 -0.918455 1.33933 0
M  V30 1348 H 125.18 -3.99766 1.18292 0
M  V30 1349 H 123.84 -3.23424 0.287614 0
M  V30 1350 H 124.851 -3.309 3.98404 0
M  V30 1351 H 121.528 -3.90635 1.47346 0
M  V30 1352 H 122.918 -3.83863 5.51451 0
M  V30 1353 N 125.638 -1.25649 -0.95132 0
M  V30 1354 C 126.884 -1.10757 -1.69884 0
M  V30 1355 C 127.217 0.350061 -1.91019 0
M  V30 1356 O 126.492 1.25783 -1.48354 0
M  V30 1357 C 126.775 -1.86606 -3.07978 0
M  V30 1358 C 126.628 -3.40217 -2.94232 0
M  V30 1359 C 127.947 -1.65182 -4.07925 0
M  V30 1360 H 125.066 -0.40374 -0.616574 0
M  V30 1361 H 127.708 -1.54521 -1.10558 0
M  V30 1362 H 125.858 -1.49409 -3.58621 0
M  V30 1363 H 127.53 -3.87108 -2.50889 0
M  V30 1364 H 125.773 -3.67759 -2.30078 0
M  V30 1365 H 126.444 -3.88505 -3.92133 0
M  V30 1366 H 128.92 -1.9757 -3.66204 0
M  V30 1367 H 127.796 -2.20683 -5.02583 0
M  V30 1368 H 128.057 -0.593933 -4.38092 0
M  V30 1369 N 127.117 1.15442 -1.07289 0
M  V30 1370 C 128.347 1.89821 -0.815576 0
M  V30 1371 C 128.755 1.7823 0.634867 0
M  V30 1372 O 128.098 1.13152 1.44715 0
M  V30 1373 C 128.16 3.40817 -1.14385 0
M  V30 1374 C 127.824 3.76193 -2.59476 0
M  V30 1375 C 128.821 3.77269 -3.57721 0
M  V30 1376 C 126.506 4.0652 -2.95037 0
M  V30 1377 C 128.5 4.08176 -4.89562 0
M  V30 1378 C 126.187 4.37092 -4.27076 0
M  V30 1379 C 127.185 4.37902 -5.24148 0
M  V30 1380 O 126.873 4.67741 -6.53815 0
M  V30 1381 H 126.605 0.608465 -0.294528 0
M  V30 1382 H 129.159 1.472 -1.43252 0
M  V30 1383 H 127.389 3.83835 -0.469865 0
M  V30 1384 H 129.078 3.96485 -0.869179 0
M  V30 1385 H 129.844 3.5394 -3.3159 0
M  V30 1386 H 125.723 4.05049 -2.20128 0
M  V30 1387 H 129.267 4.08723 -5.65324 0
M  V30 1388 H 125.164 4.59889 -4.5296 0
M  V30 1389 H 125.932 4.85509 -6.58957 0
M  V30 1390 N 128.595 0.856903 1.32268 0
M  V30 1391 C 129.558 0.308171 2.27119 0
M  V30 1392 C 130.558 -0.533421 1.51695 0
M  V30 1393 O 131.748 -0.344607 1.70757 0
M  V30 1394 C 128.88 -0.563757 3.36206 0
M  V30 1395 H 130.073 1.14535 2.77167 0
M  V30 1396 H 127.626 0.631421 1.42978 0
M  V30 1397 H 128.361 -1.42266 2.91429 0
M  V30 1398 H 128.146 0.0386749 3.92081 0
M  V30 1399 H 129.636 -0.940386 4.06874 0
M  V30 1400 N 130.073 -1.45103 0.615059 0
M  V30 1401 C 131.301 -2.06553 0.11977 0
M  V30 1402 C 131.716 -1.45842 -1.19898 0
M  V30 1403 O 131.073 -0.575325 -1.73194 0
M  V30 1404 C 131.124 -3.61495 -0.018364 0
M  V30 1405 O 130.845 -4.19942 1.24822 0
M  V30 1406 C 132.346 -4.39947 -0.544237 0
M  V30 1407 H 129.566 -0.667096 0.0722739 0
M  V30 1408 H 132.11 -1.8623 0.84491 0
M  V30 1409 H 130.265 -3.81135 -0.693865 0
M  V30 1410 H 130.679 -5.13204 1.0827 0
M  V30 1411 H 132.153 -5.48838 -0.589953 0
M  V30 1412 H 132.63 -4.10255 -1.56805 0
M  V30 1413 H 133.236 -4.25188 0.0974703 0
M  V30 1414 N 131.551 -0.354651 -1.53558 0
M  V30 1415 C 132.481 0.489091 -2.2832 0
M  V30 1416 C 133.462 1.09324 -1.30316 0
M  V30 1417 O 134.647 1.11255 -1.59173 0
M  V30 1418 C 131.777 1.63456 -3.0643 0
M  V30 1419 C 130.731 1.1582 -4.12031 0
M  V30 1420 C 130.057 2.39305 -4.7816 0
M  V30 1421 C 131.357 0.250731 -5.21698 0
M  V30 1422 H 133.051 -0.134614 -2.99097 0
M  V30 1423 H 130.597 -0.0661826 -1.43848 0
M  V30 1424 H 132.55 2.23136 -3.57475 0
M  V30 1425 H 131.274 2.28533 -2.33325 0
M  V30 1426 H 129.933 0.584146 -3.61916 0
M  V30 1427 H 129.581 3.02814 -4.01637 0
M  V30 1428 H 129.281 2.08109 -5.49513 0
M  V30 1429 H 130.805 2.99691 -5.31994 0
M  V30 1430 H 132.219 0.754695 -5.68311 0
M  V30 1431 H 130.616 0.0301468 -6.00092 0
M  V30 1432 H 131.686 -0.710125 -4.79672 0
M  V30 1433 N 133.029 1.57378 -0.0835403 0
M  V30 1434 C 134.445 1.57246 0.273109 0
M  V30 1435 C 134.645 1.09385 1.69225 0
M  V30 1436 O 133.701 0.765051 2.40631 0
M  V30 1437 C 135.014 3.00614 0.0720628 0
M  V30 1438 C 136.562 3.12684 0.1407 0
M  V30 1439 C 137.037 4.57989 -0.0322094 0
M  V30 1440 N 138.528 4.63194 0.0230085 0
M  V30 1441 C 139.263 5.73335 -0.0861941 0
M  V30 1442 N 138.759 6.9235 -0.24958 0
M  V30 1443 N 140.552 5.62093 -0.0282886 0
M  V30 1444 H 132.703 1.86801 -1.0109 0
M  V30 1445 H 134.966 0.861687 -0.395222 0
M  V30 1446 H 134.672 3.39786 -0.907662 0
M  V30 1447 H 134.546 3.68193 0.81936 0
M  V30 1448 H 136.933 2.73391 1.11092 0
M  V30 1449 H 137.014 2.47719 -0.637896 0
M  V30 1450 H 136.658 4.97973 -0.999247 0
M  V30 1451 H 136.588 5.21 0.765937 0
M  V30 1452 H 139.079 3.77613 0.14722 0
M  V30 1453 H 139.392 7.72117 -0.324733 0
M  V30 1454 H 137.737 6.94415 -0.285097 0
M  V30 1455 H 140.928 4.67997 0.0981408 0
M  V30 1456 H 141.101 6.47895 -0.116845 0
M  V30 1457 N 134.507 -0.190092 1.56449 0
M  V30 1458 C 135.754 -0.909705 1.80916 0
M  V30 1459 C 136.082 -1.83047 0.657583 0
M  V30 1460 O 135.337 -1.92428 -0.356356 0
M  V30 1461 C 135.636 -1.75382 3.1141 0
M  V30 1462 C 135.302 -0.983606 4.40041 0
M  V30 1463 C 133.964 -0.770967 4.74984 0
M  V30 1464 C 136.316 -0.442024 5.19322 0
M  V30 1465 C 133.644 -0.0053448 5.867 0
M  V30 1466 C 135.996 0.310412 6.31838 0
M  V30 1467 C 134.66 0.534023 6.6536 0
M  V30 1468 H 133.93 -0.332885 0.662019 0
M  V30 1469 H 136.577 -0.175762 1.90692 0
M  V30 1470 H 134.882 -2.55659 2.96893 0
M  V30 1471 H 136.579 -2.31331 3.27547 0
M  V30 1472 H 133.169 -1.15936 4.12622 0
M  V30 1473 H 137.353 -0.593693 4.92736 0
M  V30 1474 H 132.609 0.177825 6.11141 0
M  V30 1475 H 136.783 0.737419 6.92485 0
M  V30 1476 H 134.41 1.12918 7.51767 0
M  V30 1477 N 135.985 -1.50799 -0.457987 0
M  V30 1478 C 137.213 -1.66218 -1.23203 0
M  V30 1479 C 137.628 -0.350894 -1.85511 0
M  V30 1480 O 136.985 0.668546 -1.69814 0
M  V30 1481 C 137.036 -2.76291 -2.33121 0
M  V30 1482 O 136.757 -4.02338 -1.73366 0
M  V30 1483 C 138.258 -3.028 -3.2377 0
M  V30 1484 H 135.478 -0.558361 -0.372121 0
M  V30 1485 H 138.022 -1.97099 -0.545179 0
M  V30 1486 H 136.177 -2.48068 -2.97558 0
M  V30 1487 H 136.591 -4.63312 -2.4585 0
M  V30 1488 H 138.065 -3.8345 -3.97077 0
M  V30 1489 H 138.542 -2.14385 -3.83322 0
M  V30 1490 H 139.148 -3.32604 -2.65056 0
M  V30 1491 N 137.463 0.71206 -1.40597 0
M  V30 1492 C 138.396 1.83582 -1.35546 0
M  V30 1493 C 139.374 1.61032 -0.225284 0
M  V30 1494 O 140.558 1.83998 -0.409519 0
M  V30 1495 C 137.685 3.19983 -1.11034 0
M  V30 1496 C 136.731 3.61355 -2.2655 0
M  V30 1497 S 137.564 3.68062 -3.88961 0
M  V30 1498 C 138.72 5.07216 -3.66719 0
M  V30 1499 H 138.953 1.87586 -2.30648 0
M  V30 1500 H 136.486 0.879182 -1.26924 0
M  V30 1501 H 138.444 3.98734 -0.975761 0
M  V30 1502 H 137.105 3.13608 -0.175798 0
M  V30 1503 H 136.298 4.60403 -2.0505 0
M  V30 1504 H 135.9 2.8987 -2.36329 0
M  V30 1505 H 138.192 5.94238 -3.25404 0
M  V30 1506 H 139.135 5.33753 -4.6531 0
M  V30 1507 H 139.543 4.77976 -3.00332 0
M  V30 1508 N 138.941 1.26152 0.944643 0
M  V30 1509 C 139.871 1.09902 2.06019 0
M  V30 1510 C 140.852 0.00519538 1.70099 0
M  V30 1511 O 142.037 0.176583 1.93396 0
M  V30 1512 C 139.167 0.727562 3.39594 0
M  V30 1513 C 138.121 1.77274 3.89561 0
M  V30 1514 C 137.447 1.25569 5.19747 0
M  V30 1515 C 138.747 3.17357 4.14827 0
M  V30 1516 H 140.441 2.03217 2.19871 0
M  V30 1517 H 137.987 0.978452 1.05652 0
M  V30 1518 H 139.94 0.600777 4.17095 0
M  V30 1519 H 138.664 -0.241287 3.25707 0
M  V30 1520 H 137.323 1.88814 3.14237 0
M  V30 1521 H 136.971 0.276783 5.02238 0
M  V30 1522 H 136.671 1.95433 5.54148 0
M  V30 1523 H 138.195 1.1415 5.99835 0
M  V30 1524 H 139.609 3.08914 4.82954 0
M  V30 1525 H 138.006 3.84781 4.60504 0
M  V30 1526 H 139.076 3.63673 3.20734 0
M  V30 1527 N 140.419 -1.14872 1.07899 0
M  V30 1528 C 141.329 -2.2341 0.715915 0
M  V30 1529 C 142.345 -1.71808 -0.275306 0
M  V30 1530 O 143.521 -2.01039 -0.120545 0
M  V30 1531 C 140.586 -3.46474 0.125168 0
M  V30 1532 C 139.647 -4.13039 1.17034 0
M  V30 1533 C 138.88 -5.30229 0.607688 0
M  V30 1534 O 139.103 -5.675 -0.574497 0
M  V30 1535 O 138.037 -5.86444 1.35526 0
M  V30 1536 H 141.863 -2.56808 1.62121 0
M  V30 1537 H 139.448 -1.22702 0.852322 0
M  V30 1538 H 141.33 -4.20917 -0.201729 0
M  V30 1539 H 140.005 -3.14811 -0.753364 0
M  V30 1540 H 138.912 -3.40493 1.54968 0
M  V30 1541 H 140.245 -4.48796 2.02097 0
M  V30 1542 N 141.898 -0.863906 -1.31812 0
M  V30 1543 C 143.138 -0.47825 -1.98726 0
M  V30 1544 C 143.502 0.950397 -1.66828 0
M  V30 1545 O 144.703 1.44109 -2.26905 0
M  V30 1546 C 142.974 -0.721134 -3.50049 0
M  V30 1547 S 144.533 -0.434432 -4.36644 0
M  V30 1548 H 141.351 -0.178773 -0.688158 0
M  V30 1549 H 143.953 -1.11862 -1.60334 0
M  V30 1550 H 142.657 -1.75981 -3.70755 0
M  V30 1551 H 142.188 -0.0675315 -3.93342 0
M  V30 1552 H 144.203 0.735786 -4.90714 0
M  V30 1553 N 143.376 1.44774 -0.622745 0
M  V30 1554 C 144.306 2.33382 0.0741861 0
M  V30 1555 C 145.287 1.47719 0.843387 0
M  V30 1556 O 146.472 1.76458 0.810934 0
M  V30 1557 C 143.602 3.30663 1.06204 0
M  V30 1558 C 142.556 4.26079 0.405037 0
M  V30 1559 C 141.882 5.13165 1.5022 0
M  V30 1560 C 143.182 5.1781 -0.683414 0
M  V30 1561 H 144.876 2.91905 -0.665713 0
M  V30 1562 H 142.422 1.40363 -0.321587 0
M  V30 1563 H 144.375 3.9153 1.55827 0
M  V30 1564 H 143.099 2.70331 1.83272 0
M  V30 1565 H 141.758 3.66532 -0.0704683 0
M  V30 1566 H 141.406 4.49191 2.26355 0
M  V30 1567 H 141.106 5.77812 1.06803 0
M  V30 1568 H 142.63 5.76902 2.00041 0
M  V30 1569 H 144.044 5.72661 -0.270631 0
M  V30 1570 H 142.441 5.91015 -1.04023 0
M  V30 1571 H 143.511 4.59326 -1.55395 0
M  V30 1572 N 144.854 0.36279 1.53368 0
M  V30 1573 C 146.079 -0.231226 2.06107 0
M  V30 1574 C 146.504 -1.419 1.23474 0
M  V30 1575 O 145.862 -1.79524 0.253128 0
M  V30 1576 C 145.91 -0.605523 3.5548 0
M  V30 1577 O 145.014 -1.70312 3.7559 0
M  V30 1578 H 144.355 -0.034327 0.663112 0
M  V30 1579 H 146.885 0.522584 1.97814 0
M  V30 1580 H 146.895 -0.877314 3.98456 0
M  V30 1581 H 145.57 0.263004 4.15068 0
M  V30 1582 H 144.147 -1.4271 3.44512 0
M  V30 1583 N 146.332 -1.57332 0.0918853 0
M  V30 1584 C 147.262 -2.16872 -0.865371 0
M  V30 1585 C 148.243 -1.10118 -1.29646 0
M  V30 1586 O 149.428 -1.38242 -1.36392 0
M  V30 1587 C 146.558 -2.74649 -2.12569 0
M  V30 1588 C 145.512 -3.86747 -1.83333 0
M  V30 1589 C 144.838 -4.31212 -3.16166 0
M  V30 1590 C 146.138 -5.10089 -1.1228 0
M  V30 1591 H 147.832 -2.97114 -0.369307 0
M  V30 1592 H 145.378 -1.42918 -0.176194 0
M  V30 1593 H 147.331 -3.14952 -2.7997 0
M  V30 1594 H 146.055 -1.91657 -2.64452 0
M  V30 1595 H 144.714 -3.46978 -1.18331 0
M  V30 1596 H 144.362 -3.45115 -3.6593 0
M  V30 1597 H 144.062 -5.06788 -2.97388 0
M  V30 1598 H 145.586 -4.74146 -3.84731 0
M  V30 1599 H 147 -5.47582 -1.69785 0
M  V30 1600 H 145.397 -5.91073 -1.03693 0
M  V30 1601 H 146.467 -4.84786 -0.105041 0
M  V30 1602 N 147.81 0.181792 -1.56548 0
M  V30 1603 C 149.221 0.745244 -1.71181 0
M  V30 1604 C 149.572 1.83262 -0.70068 0
M  V30 1605 O 148.697 2.15946 0.140154 0
M  V30 1606 C 149.292 1.35859 -3.10367 0
M  V30 1607 C 147.851 1.86898 -3.2672 0
M  V30 1608 C 146.998 0.743942 -2.67134 0
M  V30 1609 H 149.949 -0.0434661 -1.5864 0
M  V30 1610 H 149.97 2.22817 -3.08436 0
M  V30 1611 H 149.482 0.566948 -3.83937 0
M  V30 1612 H 147.583 2.68738 -2.5809 0
M  V30 1613 H 147.696 2.02162 -4.34359 0
M  V30 1614 H 146.06 1.16169 -2.26665 0
M  V30 1615 H 146.843 -0.035676 -3.43281 0
M  V30 1616 N 149.288 1.51039 0.449983 0
M  V30 1617 C 150.704 1.38934 0.785462 0
M  V30 1618 C 150.904 0.461817 1.96136 0
M  V30 1619 O 149.96 -0.0877389 2.52348 0
M  V30 1620 C 151.273 2.80724 1.0777 0
M  V30 1621 C 152.821 2.89787 1.1829 0
M  V30 1622 C 153.296 4.32457 1.50815 0
M  V30 1623 N 154.787 4.35505 1.57764 0
M  V30 1624 C 155.522 5.42914 1.84477 0
M  V30 1625 N 155.018 6.60502 2.09068 0
M  V30 1626 N 156.811 5.3038 1.86155 0
M  V30 1627 H 148.962 2.09904 -0.324647 0
M  V30 1628 H 151.225 0.944378 -0.0827957 0
M  V30 1629 H 150.931 3.50531 0.286498 0
M  V30 1630 H 150.805 3.19273 2.00859 0
M  V30 1631 H 153.192 2.20186 1.96474 0
M  V30 1632 H 153.273 2.54752 0.231314 0
M  V30 1633 H 152.917 5.02603 0.731622 0
M  V30 1634 H 152.847 4.64995 2.47158 0
M  V30 1635 H 155.338 3.50724 1.40715 0
M  V30 1636 H 155.651 7.38158 2.28785 0
M  V30 1637 H 153.996 6.63639 2.06416 0
M  V30 1638 H 157.187 4.37505 1.66454 0
M  V30 1639 H 157.36 6.1417 2.06637 0
M  V30 1640 N 150.766 -0.704594 1.40972 0
M  V30 1641 C 151.729 -1.80035 1.41845 0
M  V30 1642 C 152.729 -1.57774 0.310474 0
M  V30 1643 O 153.919 -1.64613 0.56992 0
M  V30 1644 C 151.051 -3.18284 1.22098 0
M  V30 1645 H 152.244 -1.80658 2.3938 0
M  V30 1646 H 149.797 -0.911329 1.26982 0
M  V30 1647 H 150.532 -3.23306 0.253672 0
M  V30 1648 H 150.317 -3.35843 2.02366 0
M  V30 1649 H 151.807 -3.98289 1.25522 0
M  V30 1650 N 152.244 -1.26651 -0.937939 0
M  V30 1651 C 153.492 -1.12165 -1.68118 0
M  V30 1652 C 153.813 0.334983 -1.92101 0
M  V30 1653 O 153.083 1.23583 -1.52 0
M  V30 1654 H 151.663 -0.412093 -0.623048 0
M  V30 1655 H 154.325 -1.59027 -1.12678 0
M  V30 1656 H 153.421 -1.64289 -2.6536 0
M  V30 1657 N 153.722 1.14298 -1.08507 0
M  V30 1658 C 155.138 1.37347 -0.812901 0
M  V30 1659 C 155.338 1.93052 0.577325 0
M  V30 1660 O 154.394 2.14389 1.33393 0
M  V30 1661 C 155.707 2.33359 -1.89642 0
M  V30 1662 C 157.255 2.46996 -1.92255 0
M  V30 1663 C 157.73 3.46309 -2.99724 0
M  V30 1664 N 159.221 3.53853 -2.98902 0
M  V30 1665 C 159.956 4.3055 -3.787 0
M  V30 1666 N 159.452 5.10482 -4.6838 0
M  V30 1667 N 161.245 4.25757 -3.66998 0
M  V30 1668 H 153.396 0.764867 -1.9815 0
M  V30 1669 H 155.659 0.398966 -0.859959 0
M  V30 1670 H 155.365 1.99565 -2.89597 0
M  V30 1671 H 155.239 3.33274 -1.76659 0
M  V30 1672 H 157.626 2.80081 -0.929445 0
M  V30 1673 H 157.707 1.47039 -2.09316 0
M  V30 1674 H 157.351 3.13957 -3.99241 0
M  V30 1675 H 157.281 4.46049 -2.79907 0
M  V30 1676 H 159.772 2.96812 -2.33904 0
M  V30 1677 H 160.085 5.66284 -5.25873 0
M  V30 1678 H 158.43 5.09747 -4.72422 0
M  V30 1679 H 161.621 3.62383 -2.96304 0
M  V30 1680 H 161.794 4.85279 -4.29427 0
M  V30 1681 N 155.201 0.870884 1.31352 0
M  V30 1682 C 156.426 0.495957 2.01383 0
M  V30 1683 C 156.851 -0.904324 1.64935 0
M  V30 1684 O 156.209 -1.59687 0.858466 0
M  V30 1685 C 156.257 0.661433 3.54482 0
M  V30 1686 O 155.361 -0.298851 4.11316 0
M  V30 1687 H 154.702 0.197158 0.634054 0
M  V30 1688 H 157.232 1.17455 1.67527 0
M  V30 1689 H 157.242 0.555072 4.04207 0
M  V30 1690 H 155.917 1.68246 3.8035 0
M  V30 1691 H 154.494 -0.147368 3.72609 0
M  V30 1692 N 156.679 -1.44442 0.630414 0
M  V30 1693 C 157.919 -2.03934 0.137919 0
M  V30 1694 C 158.283 -1.48509 -1.21692 0
M  V30 1695 O 159.484 -1.99499 -1.80149 0
M  V30 1696 C 157.755 -3.57187 0.123373 0
M  V30 1697 S 159.314 -4.37741 -0.304604 0
M  V30 1698 H 156.132 -0.708401 0.0607353 0
M  V30 1699 H 158.734 -1.76835 0.833643 0
M  V30 1700 H 157.438 -3.95032 1.11256 0
M  V30 1701 H 156.969 -3.88895 -0.59362 0
M  V30 1702 H 158.984 -4.71403 -1.54897 0
M  V30 1703 N 158.157 -0.370918 -1.53173 0
M  V30 1704 C 159.104 0.473035 -2.259 0
M  V30 1705 C 160.074 1.07311 -1.26781 0
M  V30 1706 O 161.259 1.1046 -1.55574 0
M  V30 1707 C 158.399 1.60405 -3.05556 0
M  V30 1708 C 157.512 1.02863 -4.19575 0
M  V30 1709 C 156.647 2.12918 -4.86661 0
M  V30 1710 C 155.686 1.52869 -5.92704 0
M  V30 1711 N 154.823 2.56779 -6.53459 0
M  V30 1712 H 159.663 -0.153649 -2.97604 0
M  V30 1713 H 157.2 -0.0875946 -1.46839 0
M  V30 1714 H 159.158 2.27034 -3.50016 0
M  V30 1715 H 157.788 2.20131 -2.36097 0
M  V30 1716 H 156.84 0.252465 -3.79561 0
M  V30 1717 H 158.152 0.549642 -4.95762 0
M  V30 1718 H 157.306 2.87356 -5.34333 0
M  V30 1719 H 156.045 2.6417 -4.09958 0
M  V30 1720 H 155.05 0.769479 -5.44389 0
M  V30 1721 H 156.275 1.02435 -6.7133 0
M  V30 1722 H 154.221 3.07235 -5.79606 0
M  V30 1723 H 154.138 2.13583 -7.25202 0
M  V30 1724 H 155.406 3.30903 -7.05779 0
M  V30 1725 N 159.635 1.57281 -0.100228 0
M  V30 1726 C 160.545 2.17833 0.870965 0
M  V30 1727 C 161.561 1.14921 1.30649 0
M  V30 1728 O 162.737 1.47313 1.37335 0
M  V30 1729 C 159.802 2.75085 2.1102 0
M  V30 1730 C 158.863 3.9297 1.72838 0
M  V30 1731 C 158.096 4.47482 2.90854 0
M  V30 1732 O 158.319 4.00922 4.05731 0
M  V30 1733 O 157.253 5.38433 2.69023 0
M  V30 1734 H 161.079 3.0124 0.38575 0
M  V30 1735 H 158.664 1.48881 0.124397 0
M  V30 1736 H 160.546 3.11656 2.83634 0
M  V30 1737 H 159.221 1.94721 2.58584 0
M  V30 1738 H 158.128 3.61201 0.973883 0
M  V30 1739 H 159.461 4.74713 1.30033 0
M  V30 1740 N 161.113 -0.173488 1.56642 0
M  V30 1741 C 162.341 -0.906095 1.86004 0
M  V30 1742 C 162.756 -1.75921 0.685355 0
M  V30 1743 O 162.113 -1.79198 -0.345578 0
M  V30 1744 C 162.164 -1.78462 3.14378 0
M  V30 1745 O 161.885 -0.965914 4.27319 0
M  V30 1746 C 163.386 -2.62707 3.57071 0
M  V30 1747 H 160.606 -0.263341 0.617165 0
M  V30 1748 H 163.15 -0.174236 2.03756 0
M  V30 1749 H 161.305 -2.46984 2.98459 0
M  V30 1750 H 161.719 -1.56655 5.00559 0
M  V30 1751 H 163.193 -3.19969 4.49804 0
M  V30 1752 H 163.67 -3.37472 2.81086 0
M  V30 1753 H 164.276 -1.99521 3.75595 0
M  V30 1754 N 162.591 -1.51276 -0.441967 0
M  V30 1755 C 163.838 -1.63715 -1.19179 0
M  V30 1756 C 164.166 -0.351175 -1.91303 0
M  V30 1757 O 163.421 0.664524 -1.84072 0
M  V30 1758 C 163.72 -2.78746 -2.23686 0
M  V30 1759 C 163.386 -4.18189 -1.68607 0
M  V30 1760 C 162.048 -4.56125 -1.53308 0
M  V30 1761 C 164.4 -5.05222 -1.28062 0
M  V30 1762 C 161.728 -5.78804 -0.959317 0
M  V30 1763 C 164.08 -6.28476 -0.721162 0
M  V30 1764 C 162.744 -6.65188 -0.55504 0
M  V30 1765 H 162.014 -0.599076 -0.436106 0
M  V30 1766 H 164.661 -1.85296 -0.48351 0
M  V30 1767 H 162.966 -2.51369 -3.00535 0
M  V30 1768 H 164.663 -2.8557 -2.81515 0
M  V30 1769 H 161.253 -3.88277 -1.8149 0
M  V30 1770 H 165.437 -4.76524 -1.38704 0
M  V30 1771 H 160.693 -6.05899 -0.81833 0
M  V30 1772 H 164.867 -6.95259 -0.398458 0
M  V30 1773 H 162.494 -7.60123 -0.108311 0
M  V30 1774 N 164.069 0.697108 -1.41344 0
M  V30 1775 C 165.297 1.48593 -1.43972 0
M  V30 1776 C 165.712 1.88747 -0.0445612 0
M  V30 1777 O 165.069 1.56682 0.935785 0
M  V30 1778 C 165.12 2.74946 -2.34706 0
M  V30 1779 O 164.841 2.36484 -3.68791 0
M  V30 1780 C 166.342 3.687 -2.46121 0
M  V30 1781 H 163.562 0.457964 -0.490418 0
M  V30 1782 H 166.106 0.858429 -1.8561 0
M  V30 1783 H 164.261 3.33937 -1.9638 0
M  V30 1784 H 164.675 3.17918 -4.17167 0
M  V30 1785 H 166.149 4.54145 -3.13777 0
M  V30 1786 H 166.626 4.13081 -1.49199 0
M  V30 1787 H 167.232 3.15613 -2.85076 0
M  V30 1788 N 165.547 1.27147 0.931209 0
M  V30 1789 C 166.793 1.13446 1.68101 0
M  V30 1790 C 167.126 -0.319628 1.91552 0
M  V30 1791 O 166.401 -1.23407 1.50336 0
M  V30 1792 C 166.684 1.91482 3.0497 0
M  V30 1793 C 166.537 3.44855 2.88782 0
M  V30 1794 C 167.856 1.71651 4.05246 0
M  V30 1795 H 164.975 0.413498 0.610072 0
M  V30 1796 H 167.617 1.56261 1.08086 0
M  V30 1797 H 165.767 1.55095 3.56199 0
M  V30 1798 H 167.439 3.9105 2.44698 0
M  V30 1799 H 165.682 3.71373 2.24198 0
M  V30 1800 H 166.353 3.94694 3.85902 0
M  V30 1801 H 168.829 2.0337 3.63015 0
M  V30 1802 H 167.705 2.28651 4.99009 0
M  V30 1803 H 167.966 0.663555 4.37092 0
M  V30 1804 N 167.025 -1.13721 1.09112 0
M  V30 1805 C 168.272 -1.84924 0.825192 0
M  V30 1806 C 168.6 -1.83347 -0.649151 0
M  V30 1807 O 167.855 -1.26449 -1.49362 0
M  V30 1808 C 168.154 -3.32861 1.30146 0
M  V30 1809 C 167.82 -3.54621 2.78486 0
M  V30 1810 C 166.482 -3.60268 3.18999 0
M  V30 1811 C 168.834 -3.62855 3.74146 0
M  V30 1812 C 166.162 -3.71679 4.53951 0
M  V30 1813 C 168.514 -3.75793 5.08883 0
M  V30 1814 C 167.178 -3.79692 5.4899 0
M  V30 1815 H 166.448 -0.676684 0.301959 0
M  V30 1816 H 169.095 -1.3428 1.36533 0
M  V30 1817 H 167.4 -3.85835 0.681064 0
M  V30 1818 H 169.097 -3.86395 1.07236 0
M  V30 1819 H 165.687 -3.50879 2.46134 0
M  V30 1820 H 169.871 -3.57775 3.43963 0
M  V30 1821 H 165.127 -3.72963 4.84467 0
M  V30 1822 H 169.301 -3.81107 5.82864 0
M  V30 1823 H 166.928 -3.88287 6.53558 0
M  V30 1824 N 168.503 -0.877838 -1.30888 0
M  V30 1825 C 169.733 -0.506678 -2.00291 0
M  V30 1826 C 170.141 0.907449 -1.66018 0
M  V30 1827 O 169.484 1.60719 -0.88967 0
M  V30 1828 C 169.546 -0.59323 -3.54572 0
M  V30 1829 C 169.21 -1.97038 -4.12341 0
M  V30 1830 C 170.207 -2.93889 -4.28865 0
M  V30 1831 C 167.892 -2.27383 -4.47886 0
M  V30 1832 C 169.886 -4.19224 -4.80136 0
M  V30 1833 C 167.573 -3.52965 -4.98857 0
M  V30 1834 C 168.571 -4.48701 -5.14934 0
M  V30 1835 O 168.259 -5.72056 -5.64808 0
M  V30 1836 H 167.991 -0.1951 -0.647234 0
M  V30 1837 H 170.545 -1.18301 -1.6791 0
M  V30 1838 H 168.775 0.140057 -3.86446 0
M  V30 1839 H 170.464 -0.234372 -4.05223 0
M  V30 1840 H 171.23 -2.71756 -4.01714 0
M  V30 1841 H 167.109 -1.53639 -4.34645 0
M  V30 1842 H 170.653 -4.93956 -4.92599 0
M  V30 1843 H 166.55 -3.74939 -5.25443 0
M  V30 1844 H 167.318 -5.74337 -5.83163 0
M  V30 1845 N 169.982 1.44106 -0.638065 0
M  V30 1846 C 171.212 2.06037 -0.152394 0
M  V30 1847 C 171.62 1.47808 1.18108 0
M  V30 1848 O 170.963 0.598092 1.73691 0
M  V30 1849 C 171.025 3.59488 0.0293714 0
M  V30 1850 C 170.689 4.4022 -1.22702 0
M  V30 1851 C 171.686 4.73256 -2.15232 0
M  V30 1852 C 169.371 4.8048 -1.46437 0
M  V30 1853 C 171.365 5.45444 -3.29802 0
M  V30 1854 C 169.052 5.52417 -2.61303 0
M  V30 1855 C 170.05 5.84819 -3.52811 0
M  V30 1856 O 169.738 6.55289 -4.65673 0
M  V30 1857 H 169.47 0.671233 -0.0801401 0
M  V30 1858 H 172.024 1.85851 -0.874563 0
M  V30 1859 H 170.254 3.78191 0.806758 0
M  V30 1860 H 171.943 4.03164 0.470475 0
M  V30 1861 H 172.709 4.42684 -1.98131 0
M  V30 1862 H 168.588 4.54676 -0.760977 0
M  V30 1863 H 172.132 5.70653 -4.01249 0
M  V30 1864 H 168.029 5.82404 -2.78344 0
M  V30 1865 H 168.797 6.73762 -4.64744 0
M  V30 1866 N 171.46 0.379036 1.52974 0
M  V30 1867 C 172.37 -0.468639 2.29872 0
M  V30 1868 C 173.386 -1.08067 1.36373 0
M  V30 1869 O 174.562 -1.08871 1.69438 0
M  V30 1870 C 171.627 -1.58594 3.083 0
M  V30 1871 C 170.688 -1.00007 4.17489 0
M  V30 1872 C 169.921 -2.06413 4.92168 0
M  V30 1873 O 170.144 -3.27751 4.66835 0
M  V30 1874 O 169.078 -1.68717 5.7777 0
M  V30 1875 H 172.904 0.157508 3.03291 0
M  V30 1876 H 170.489 0.143035 1.48714 0
M  V30 1877 H 172.371 -2.23525 3.57232 0
M  V30 1878 H 171.046 -2.19724 2.37703 0
M  V30 1879 H 169.953 -0.314299 3.72777 0
M  V30 1880 H 171.286 -0.433135 4.90291 0
M  V30 1881 N 172.938 -1.57226 0.108567 0
M  V30 1882 C 174.163 -1.99604 -0.563303 0
M  V30 1883 C 174.588 -0.987563 -1.6009 0
M  V30 1884 O 173.946 0.0421687 -1.81251 0
M  V30 1885 C 173.994 -3.40902 -1.17552 0
M  V30 1886 O 173.098 -3.42896 -2.2912 0
M  V30 1887 H 172.439 -0.648704 -0.1417 0
M  V30 1888 H 174.969 -2.03679 0.193961 0
M  V30 1889 H 174.979 -3.78886 -1.51357 0
M  V30 1890 H 173.654 -4.1382 -0.415445 0
M  V30 1891 H 172.231 -3.1672 -1.96832 0
M  V30 1892 N 174.416 0.165178 -1.56732 0
M  V30 1893 C 175.693 0.908443 -1.73224 0
M  V30 1894 C 176.073 2.0013 -0.67165 0
M  V30 1895 O 175.421 2.26353 0.31253 0
M  V30 1896 C 175.631 1.46756 -3.16644 0
M  V30 1897 C 176.979 1.93809 -3.77787 0
M  V30 1898 O 178.003 1.56537 -3.1996 0
M  V30 1899 O 176.862 2.62486 -4.79336 0
M  V30 1900 H 173.956 0.428025 -0.707618 0
M  V30 1901 H 176.502 0.152526 -1.69013 0
M  V30 1902 H 175.274 0.68129 -3.85323 0
M  V30 1903 H 174.897 2.28749 -3.25207 0
M  V30 1904 N 175.894 1.51508 0.433938 0
M  V30 1905 C 176.857 1.72473 1.50949 0
M  V30 1906 C 177.857 0.594725 1.49398 0
M  V30 1907 O 179.047 0.862315 1.5136 0
M  V30 1908 C 176.179 1.78431 2.90474 0
M  V30 1909 H 177.372 2.68467 1.33662 0
M  V30 1910 H 174.925 1.41549 0.662836 0
M  V30 1911 H 175.66 0.842645 3.13161 0
M  V30 1912 H 175.445 2.60558 2.93005 0
M  V30 1913 H 176.935 1.96479 3.68491 0
M  V30 1914 N 177.372 -0.689602 1.41712 0
M  V30 1915 C 178.649 -1.44457 1.31877 0
M  V30 1916 C 179.029 -2.11039 -0.0508537 0
M  V30 1917 O 178.377 -2.02138 -1.06547 0
M  V30 1918 C 178.587 -2.45913 2.47645 0
M  V30 1919 C 179.935 -3.10991 2.89084 0
M  V30 1920 O 180.959 -2.56238 2.47428 0
M  V30 1921 O 179.818 -4.10174 3.61137 0
M  V30 1922 H 176.912 -0.64362 0.519309 0
M  V30 1923 H 179.458 -0.719576 1.53689 0
M  V30 1924 H 178.23 -1.95409 3.39015 0
M  V30 1925 H 177.853 -3.25913 2.27742 0
M  V30 1926 N 178.85 -1.27639 -0.924453 0
M  V30 1927 C 180.078 -1.16989 -1.70649 0
M  V30 1928 C 180.493 0.272869 -1.86818 0
M  V30 1929 O 179.85 1.18549 -1.38753 0
M  V30 1930 C 179.901 -1.85229 -3.10439 0
M  V30 1931 O 179.622 -3.23868 -2.95028 0
M  V30 1932 C 181.123 -1.80746 -4.04779 0
M  V30 1933 H 178.343 -0.406595 -0.53378 0
M  V30 1934 H 180.887 -1.68569 -1.15778 0
M  V30 1935 H 179.042 -1.37545 -3.6216 0
M  V30 1936 H 179.456 -3.57889 -3.83426 0
M  V30 1937 H 180.93 -2.33101 -5.00368 0
M  V30 1938 H 181.407 -0.777499 -4.32263 0
M  V30 1939 H 182.013 -2.28059 -3.58984 0
M  V30 1940 N 180.328 1.1314 -1.09713 0
M  V30 1941 C 181.291 2.16831 -0.742751 0
M  V30 1942 C 182.291 1.59159 0.229129 0
M  V30 1943 O 183.481 1.74199 0.00693237 0
M  V30 1944 C 180.613 3.40756 -0.0989168 0
M  V30 1945 H 181.806 2.49695 -1.66109 0
M  V30 1946 H 179.359 1.2802 -0.896699 0
M  V30 1947 H 180.094 3.13485 0.830514 0
M  V30 1948 H 179.879 3.83888 -0.798265 0
M  V30 1949 H 181.369 4.17386 0.133524 0
M  V30 1950 N 181.806 0.884767 1.30421 0
M  V30 1951 C 183.034 0.518044 2.0031 0
M  V30 1952 C 183.449 -0.893408 1.66324 0
M  V30 1953 O 182.806 -1.5875 0.900262 0
M  V30 1954 C 182.857 0.682997 3.54989 0
M  V30 1955 O 182.578 2.03888 3.87764 0
M  V30 1956 C 184.079 0.31924 4.42149 0
M  V30 1957 H 181.299 0.200265 0.640418 0
M  V30 1958 H 183.843 1.19001 1.6631 0
M  V30 1959 H 181.998 0.0584052 3.87356 0
M  V30 1960 H 182.412 2.05735 4.82466 0
M  V30 1961 H 183.886 0.485555 5.4986 0
M  V30 1962 H 184.363 -0.742717 4.32875 0
M  V30 1963 H 184.969 0.920147 4.15227 0
M  V30 1964 N 183.284 -1.43765 0.645699 0
M  V30 1965 C 184.247 -2.29163 -0.0409488 0
M  V30 1966 C 185.247 -1.41813 -0.757996 0
M  V30 1967 O 186.437 -1.63527 -0.600382 0
M  V30 1968 C 183.569 -3.23716 -1.06869 0
M  V30 1969 H 184.762 -2.91366 0.710345 0
M  V30 1970 H 182.315 -1.5092 0.406547 0
M  V30 1971 H 183.05 -2.66393 -1.84947 0
M  V30 1972 H 182.835 -3.88105 -0.558277 0
M  V30 1973 H 184.325 -3.87831 -1.54845 0
M  V30 1974 N 184.763 -0.387143 -1.52771 0
M  V30 1975 C 185.693 0.440551 -2.29306 0
M  V30 1976 C 186.674 1.06535 -1.32606 0
M  V30 1977 O 187.859 1.07853 -1.61497 0
M  V30 1978 C 184.989 1.56919 -3.09829 0
M  V30 1979 C 183.943 1.07054 -4.14395 0
M  V30 1980 C 183.269 2.29109 -4.83129 0
M  V30 1981 C 184.569 0.140015 -5.22112 0
M  V30 1982 H 186.263 -0.198026 -2.98744 0
M  V30 1983 H 183.809 -0.09668 -1.43675 0
M  V30 1984 H 185.762 2.15503 -3.62128 0
M  V30 1985 H 184.486 2.23532 -2.3812 0
M  V30 1986 H 183.145 0.507247 -3.63074 0
M  V30 1987 H 182.793 2.94227 -4.0797 0
M  V30 1988 H 182.493 1.96406 -5.53804 0
M  V30 1989 H 184.017 2.88339 -5.38231 0
M  V30 1990 H 185.431 0.633978 -5.69784 0
M  V30 1991 H 183.828 -0.0971485 -6.00021 0
M  V30 1992 H 184.898 -0.811711 -4.78058 0
M  V30 1993 N 186.241 1.57166 -0.116904 0
M  V30 1994 C 187.469 1.99473 0.549383 0
M  V30 1995 C 187.884 0.996541 1.60357 0
M  V30 1996 O 187.241 -0.0108731 1.82497 0
M  V30 1997 C 187.292 3.41788 1.17741 0
M  V30 1998 O 187.013 4.37788 0.165362 0
M  V30 1999 C 188.514 3.99216 1.92722 0
M  V30 2000 H 185.734 0.655009 0.145616 0
M  V30 2001 H 188.278 2.03494 -0.202625 0
M  V30 2002 H 186.433 3.38713 1.88021 0
M  V30 2003 H 186.847 5.20806 0.621403 0
M  V30 2004 H 188.321 5.00882 2.31995 0
M  V30 2005 H 188.798 3.3824 2.80161 0
M  V30 2006 H 189.404 4.0583 1.27209 0
M  V30 2007 N 187.719 -0.156864 1.56817 0
M  V30 2008 C 189.13 -0.717916 1.72345 0
M  V30 2009 C 189.481 -1.82124 0.729747 0
M  V30 2010 O 188.606 -2.16141 -0.105781 0
M  V30 2011 C 189.201 -1.30904 3.12489 0
M  V30 2012 C 187.76 -1.81676 3.29653 0
M  V30 2013 C 186.907 -0.701349 2.68284 0
M  V30 2014 H 189.858 0.0686989 1.58551 0
M  V30 2015 H 189.879 -2.17882 3.11942 0
M  V30 2016 H 189.391 -0.505796 3.8479 0
M  V30 2017 H 187.492 -2.64598 2.62333 0
M  V30 2018 H 187.605 -1.95226 4.3752 0
M  V30 2019 H 185.969 -1.12548 2.28484 0
M  V30 2020 H 186.752 0.0902846 3.43181 0
M  V30 2021 N 189.197 -1.51736 -0.425897 0
M  V30 2022 C 190.16 -1.73271 -1.50032 0
M  V30 2023 C 191.16 -0.602639 -1.4908 0
M  V30 2024 O 192.35 -0.87033 -1.509 0
M  V30 2025 C 189.482 -1.79969 -2.89523 0
M  V30 2026 H 190.675 -2.69172 -1.32237 0
M  V30 2027 H 188.228 -1.41899 -0.65532 0
M  V30 2028 H 188.963 -0.859241 -3.1271 0
M  V30 2029 H 188.748 -2.62109 -2.91619 0
M  V30 2030 H 190.238 -1.9843 -3.67444 0
M  V30 2031 N 190.675 0.682077 -1.42076 0
M  V30 2032 C 191.921 1.44283 -1.43366 0
M  V30 2033 C 192.276 1.92344 -0.0465775 0
M  V30 2034 O 191.569 1.67517 0.929973 0
M  V30 2035 C 191.763 2.66036 -2.38662 0
M  V30 2036 C 191.592 2.29889 -3.86499 0
M  V30 2037 C 190.362 2.19599 -4.55087 0
M  V30 2038 C 192.56 1.91999 -4.77117 0
M  V30 2039 N 190.542 1.76478 -5.87987 0
M  V30 2040 C 191.913 1.59741 -5.99068 0
M  V30 2041 C 193.968 1.78927 -4.64639 0
M  V30 2042 C 192.671 1.15723 -7.0993 0
M  V30 2043 C 194.697 1.36314 -5.75476 0
M  V30 2044 C 194.059 1.04975 -6.96534 0
M  V30 2045 H 190.158 0.524739 -0.579805 0
M  V30 2046 H 192.742 0.787834 -1.78048 0
M  V30 2047 H 190.913 3.29237 -2.06053 0
M  V30 2048 H 192.645 3.32588 -2.30581 0
M  V30 2049 H 189.4 2.38433 -4.09202 0
M  V30 2050 H 189.824 1.57362 -6.58458 0
M  V30 2051 H 194.466 2.01805 -3.7153 0
M  V30 2052 H 192.184 0.91591 -8.02893 0
M  V30 2053 H 195.77 1.26731 -5.6783 0
M  V30 2054 H 194.65 0.725017 -7.80841 0
M  V30 2055 N 192.153 1.28127 0.917671 0
M  V30 2056 C 193.086 1.06039 2.02067 0
M  V30 2057 C 194.064 -0.0223285 1.62585 0
M  V30 2058 O 195.248 0.124823 1.88086 0
M  V30 2059 C 192.375 0.610596 3.33151 0
M  V30 2060 C 191.421 1.68937 3.91615 0
M  V30 2061 S 192.254 3.28437 4.22953 0
M  V30 2062 C 193.41 2.85283 5.57103 0
M  V30 2063 H 193.643 1.99425 2.20493 0
M  V30 2064 H 191.176 1.12071 1.06205 0
M  V30 2065 H 193.134 0.357778 4.08938 0
M  V30 2066 H 191.795 -0.303364 3.12632 0
M  V30 2067 H 190.988 1.32619 4.86239 0
M  V30 2068 H 190.59 1.89478 3.2245 0
M  V30 2069 H 192.882 2.3121 6.36827 0
M  V30 2070 H 193.825 3.7869 5.98331 0
M  V30 2071 H 194.233 2.24118 5.18104 0
M  V30 2072 N 193.631 -1.12557 1.10312 0
M  V30 2073 C 194.541 -2.21841 0.763142 0
M  V30 2074 C 195.557 -1.72354 -0.238801 0
M  V30 2075 O 196.733 -2.01249 -0.0778746 0
M  V30 2076 C 193.798 -3.46131 0.198632 0
M  V30 2077 C 192.859 -4.10464 1.25769 0
M  V30 2078 C 192.092 -5.28821 0.72002 0
M  V30 2079 O 192.315 -5.6859 -0.453993 0
M  V30 2080 O 191.249 -5.83437 1.47935 0
M  V30 2081 H 195.075 -2.53312 1.67532 0
M  V30 2082 H 192.66 -1.20867 0.878157 0
M  V30 2083 H 194.542 -4.2125 -0.112401 0
M  V30 2084 H 193.217 -3.16338 -0.686419 0
M  V30 2085 H 192.124 -3.3713 1.62156 0
M  V30 2086 H 193.457 -4.44408 2.11571 0
M  V30 2087 N 195.109 -0.891671 -1.2995 0
M  V30 2088 C 196.057 -0.353066 -2.29905 0
M  V30 2089 C 197.051 0.543509 -1.60444 0
M  V30 2090 O 198.257 0.4272 -1.74857 0
M  V30 2091 H 194.632 -0.095531 -0.745907 0
M  V30 2092 H 196.603 -1.20961 -2.72784 0
M  V30 2093 C 195.352 0.411475 -3.45257 0
M  V30 2094 H 194.675 -0.269182 -3.98893 0
M  V30 2095 H 196.115 0.753328 -4.17254 0
M  V30 2096 C 194.574 1.6111 -2.9588 0
M  V30 2097 O 195.104 2.71045 -2.96475 0
M  V30 2098 N 193.31 1.45054 -2.51809 0
M  V30 2099 H 192.857 0.556175 -2.51524 0
M  V30 2100 H 192.815 2.25453 -2.1913 0
M  V30 2101 N 196.587 1.43421 -0.653314 0
M  V30 2102 C 197.998 1.85065 -0.246537 0
M  V30 2103 C 198.349 1.54688 1.2069 0
M  V30 2104 O 197.474 0.995896 1.92122 0
M  V30 2105 C 198.069 3.35922 -0.440666 0
M  V30 2106 C 196.628 3.76297 -0.0882064 0
M  V30 2107 C 195.775 2.67147 -0.743484 0
M  V30 2108 H 198.726 1.33572 -0.856979 0
M  V30 2109 H 198.747 3.79204 0.313798 0
M  V30 2110 H 198.259 3.58 -1.49858 0
M  V30 2111 H 196.36 3.5983 0.96711 0
M  V30 2112 H 196.473 4.76338 -0.513738 0
M  V30 2113 H 194.837 2.54086 -0.176712 0
M  V30 2114 H 195.62 2.92053 -1.80443 0
M  V30 2115 N 198.065 0.39524 1.52563 0
M  V30 2116 C 199.295 -0.184675 2.05773 0
M  V30 2117 C 199.703 -1.40571 1.26635 0
M  V30 2118 O 199.046 -1.81105 0.30769 0
M  V30 2119 C 199.108 -0.613551 3.54226 0
M  V30 2120 C 198.772 0.49484 4.54313 0
M  V30 2121 C 199.769 1.3541 5.01956 0
M  V30 2122 C 197.454 0.663565 4.97898 0
M  V30 2123 C 199.448 2.36716 5.91814 0
M  V30 2124 C 197.135 1.67996 5.87555 0
M  V30 2125 C 198.133 2.53017 6.34406 0
M  V30 2126 O 197.821 3.52917 7.22291 0
M  V30 2127 H 197.553 -0.030077 0.675331 0
M  V30 2128 H 200.107 0.560708 1.97599 0
M  V30 2129 H 198.337 -1.411 3.60038 0
M  V30 2130 H 200.026 -1.11981 3.90148 0
M  V30 2131 H 200.792 1.23509 4.6901 0
M  V30 2132 H 196.671 0.0114913 4.60999 0
M  V30 2133 H 200.215 3.03113 6.28306 0
M  V30 2134 H 196.112 1.79933 6.19915 0
M  V30 2135 H 196.88 3.48996 7.40367 0
M  V30 2136 N 199.544 -1.57102 0.125237 0
M  V30 2137 C 200.793 -1.94582 -0.531095 0
M  V30 2138 C 201.106 -1.01126 -1.6743 0
M  V30 2139 O 202.312 -1.28097 -2.39381 0
M  V30 2140 C 200.768 -3.45839 -0.996164 0
M  V30 2141 C 200.376 -4.47842 0.118926 0
M  V30 2142 C 202.12 -3.92227 -1.62352 0
M  V30 2143 C 200.027 -5.90284 -0.363192 0
M  V30 2144 H 198.957 -0.726391 -0.20217 0
M  V30 2145 H 201.608 -1.82339 0.206092 0
M  V30 2146 H 199.99 -3.53338 -1.78796 0
M  V30 2147 H 201.164 -4.52018 0.895358 0
M  V30 2148 H 199.479 -4.11243 0.653324 0
M  V30 2149 H 202.076 -4.96069 -1.99548 0
M  V30 2150 H 202.419 -3.32552 -2.50429 0
M  V30 2151 H 202.952 -3.87554 -0.897019 0
M  V30 2152 H 199.691 -6.53728 0.481679 0
M  V30 2153 H 199.211 -5.89515 -1.10597 0
M  V30 2154 H 200.89 -6.41752 -0.822377 0
M  V30 2155 N 201.022 0.148545 -1.56898 0
M  V30 2156 C 201.969 1.18345 -1.98149 0
M  V30 2157 C 202.939 1.42772 -0.848848 0
M  V30 2158 O 204.124 1.55132 -1.11079 0
M  V30 2159 C 201.264 2.51231 -2.36594 0
M  V30 2160 C 200.377 2.33991 -3.63142 0
M  V30 2161 C 199.512 3.59902 -3.90697 0
M  V30 2162 C 198.551 3.37692 -5.1052 0
M  V30 2163 N 197.688 4.5573 -5.34092 0
M  V30 2164 H 202.528 0.82467 -2.86362 0
M  V30 2165 H 200.065 0.395756 -1.41676 0
M  V30 2166 H 202.023 3.28713 -2.56912 0
M  V30 2167 H 200.653 2.85059 -1.51463 0
M  V30 2168 H 199.705 1.47572 -3.50609 0
M  V30 2169 H 201.017 2.13539 -4.5078 0
M  V30 2170 H 200.171 4.45813 -4.11505 0
M  V30 2171 H 198.91 3.83357 -3.01477 0
M  V30 2172 H 197.915 2.5017 -4.89587 0
M  V30 2173 H 199.14 3.15637 -6.0129 0
M  V30 2174 H 197.086 4.79361 -4.47827 0
M  V30 2175 H 197.003 4.38274 -6.15996 0
M  V30 2176 H 198.271 5.42858 -5.59397 0
M  V30 2177 N 202.5 1.5196 0.417844 0
M  V30 2178 C 203.746 1.65836 1.16732 0
M  V30 2179 C 204.079 0.382881 1.90388 0
M  V30 2180 O 203.354 -0.618368 1.84408 0
M  V30 2181 C 203.637 2.87466 2.16876 0
M  V30 2182 C 203.49 4.25041 1.47174 0
M  V30 2183 C 204.809 3.04613 3.17646 0
M  V30 2184 H 201.928 0.603515 0.423011 0
M  V30 2185 H 204.57 1.84494 0.454105 0
M  V30 2186 H 202.72 2.71689 2.777 0
M  V30 2187 H 204.392 4.52527 0.895376 0
M  V30 2188 H 202.635 4.26843 0.773806 0
M  V30 2189 H 203.306 5.06176 2.20204 0
M  V30 2190 H 205.782 3.1923 2.66892 0
M  V30 2191 H 204.658 3.91247 3.8499 0
M  V30 2192 H 204.919 2.17541 3.84874 0
M  V30 2193 N 203.978 -0.674533 1.42435 0
M  V30 2194 C 205.255 -1.4305 1.33402 0
M  V30 2195 C 205.635 -2.11081 -0.0284674 0
M  V30 2196 O 204.983 -2.03257 -1.04397 0
M  V30 2197 C 205.193 -2.43272 2.50239 0
M  V30 2198 C 206.541 -3.07907 2.92367 0
M  V30 2199 O 207.565 -2.53599 2.50132 0
M  V30 2200 O 206.424 -4.0632 3.65467 0
M  V30 2201 H 203.518 -0.638076 0.526106 0
M  V30 2202 H 206.064 -0.703235 1.54443 0
M  V30 2203 H 204.836 -1.91803 3.41068 0
M  V30 2204 H 204.459 -3.23479 2.31186 0
M  V30 2205 N 205.456 -1.28612 -0.910864 0
M  V30 2206 C 206.684 -1.18792 -1.69399 0
M  V30 2207 C 207.099 0.253039 -1.87097 0
M  V30 2208 O 206.456 1.17071 -1.40003 0
M  V30 2209 C 206.507 -1.88511 -3.08457 0
M  V30 2210 O 206.228 -3.26979 -2.91576 0
M  V30 2211 C 207.729 -1.85029 -4.02839 0
M  V30 2212 H 204.949 -0.412233 -0.529438 0
M  V30 2213 H 207.493 -1.69788 -1.13984 0
M  V30 2214 H 205.648 -1.41379 -3.60681 0
M  V30 2215 H 206.062 -3.61936 -3.79608 0
M  V30 2216 H 207.536 -2.38395 -4.97867 0
M  V30 2217 H 208.013 -0.823303 -4.31414 0
M  V30 2218 H 208.619 -2.31853 -3.56545 0
M  V30 2219 N 206.934 1.1197 -1.10907 0
M  V30 2220 C 208.18 1.8386 -0.855773 0
M  V30 2221 C 208.513 1.84134 0.617103 0
M  V30 2222 O 207.788 1.29041 1.45529 0
M  V30 2223 C 208.071 3.31305 -1.411 0
M  V30 2224 C 207.924 3.39456 -2.9511 0
M  V30 2225 C 209.243 4.2721 -1.05736 0
M  V30 2226 H 206.362 0.667545 -0.312334 0
M  V30 2227 H 209.004 1.31331 -1.37303 0
M  V30 2228 H 207.154 3.76169 -0.97105 0
M  V30 2229 H 208.826 3.03191 -3.47668 0
M  V30 2230 H 207.069 2.79849 -3.31462 0
M  V30 2231 H 207.74 4.43209 -3.29044 0
M  V30 2232 H 210.216 3.90497 -1.43706 0
M  V30 2233 H 209.092 5.28775 -1.47269 0
M  V30 2234 H 209.353 4.42088 0.0325958 0
M  V30 2235 N 208.412 0.89855 1.29475 0
M  V30 2236 C 209.375 0.380272 2.26023 0
M  V30 2237 C 210.375 -0.484891 1.53315 0
M  V30 2238 O 211.565 -0.290108 1.71767 0
M  V30 2239 C 208.697 -0.45651 3.3783 0
M  V30 2240 H 209.89 1.23295 2.73383 0
M  V30 2241 H 207.443 0.676589 1.40897 0
M  V30 2242 H 208.178 -1.32922 2.95808 0
M  V30 2243 H 207.963 0.163393 3.91759 0
M  V30 2244 H 209.453 -0.810466 4.0966 0
M  V30 2245 N 209.89 -1.43072 0.660911 0
M  V30 2246 C 210.853 -2.29194 -0.0166406 0
M  V30 2247 C 211.853 -1.42609 -0.742912 0
M  V30 2248 O 213.043 -1.64155 -0.583004 0
M  V30 2249 C 210.175 -3.24831 -1.0343 0
M  V30 2250 H 211.368 -2.90596 0.741208 0
M  V30 2251 H 208.921 -1.5048 0.422532 0
M  V30 2252 H 209.656 -2.68339 -1.82111 0
M  V30 2253 H 209.441 -3.88676 -0.517082 0
M  V30 2254 H 210.931 -3.89451 -1.50723 0
M  V30 2255 N 211.368 -0.403325 -1.52352 0
M  V30 2256 C 212.278 0.432009 -2.30588 0
M  V30 2257 C 213.294 1.05884 -1.38075 0
M  V30 2258 O 214.47 1.06161 -1.71148 0
M  V30 2259 C 211.535 1.53669 -3.10784 0
M  V30 2260 C 210.596 0.933525 -4.19027 0
M  V30 2261 C 209.829 1.98557 -4.9539 0
M  V30 2262 O 210.052 3.20283 -4.71991 0
M  V30 2263 O 208.986 1.59504 -5.80381 0
M  V30 2264 H 212.812 -0.205739 -3.03002 0
M  V30 2265 H 210.397 -0.166675 -1.48467 0
M  V30 2266 H 212.279 2.17814 -3.60742 0
M  V30 2267 H 210.954 2.15915 -2.41169 0
M  V30 2268 H 209.861 0.254954 -3.7323 0
M  V30 2269 H 211.194 0.35508 -4.90918 0
M  V30 2270 N 212.846 1.57033 -0.133567 0
M  V30 2271 C 213.796 2.12641 0.822671 0
M  V30 2272 C 214.78 1.05081 1.21847 0
M  V30 2273 O 215.972 1.31287 1.18713 0
M  V30 2274 C 213.101 2.74094 2.06706 0
M  V30 2275 C 212.187 3.88757 1.69497 0
M  V30 2276 N 212.578 4.95194 1.03037 0
M  V30 2277 C 210.876 3.99213 1.98859 0
M  V30 2278 C 211.577 5.75414 0.852873 0
M  V30 2279 N 210.553 5.25726 1.3825 0
M  V30 2280 H 214.355 2.92308 0.305537 0
M  V30 2281 H 211.869 1.62256 0.0684276 0
M  V30 2282 H 213.866 3.12285 2.76195 0
M  V30 2283 H 212.526 1.95896 2.5895 0
M  V30 2284 H 213.537 5.13247 0.692669 0
M  V30 2285 H 210.214 3.32075 2.53047 0
M  V30 2286 H 211.604 6.71089 0.330091 0
M  V30 2287 N 214.325 -0.140222 1.56975 0
M  V30 2288 C 215.255 -1.17456 2.01808 0
M  V30 2289 C 216.236 -1.44415 0.898794 0
M  V30 2290 O 217.421 -1.5522 1.16707 0
M  V30 2291 C 214.551 -2.50607 2.40444 0
M  V30 2292 C 213.505 -2.38155 3.55621 0
M  V30 2293 C 212.831 -3.76078 3.80091 0
M  V30 2294 C 214.131 -1.85991 4.88062 0
M  V30 2295 H 215.825 -0.801743 2.88466 0
M  V30 2296 H 213.371 -0.38422 1.38779 0
M  V30 2297 H 215.324 -3.23197 2.7041 0
M  V30 2298 H 214.048 -2.89737 1.50732 0
M  V30 2299 H 212.707 -1.68016 3.25832 0
M  V30 2300 H 212.355 -4.12656 2.87618 0
M  V30 2301 H 212.055 -3.68606 4.57606 0
M  V30 2302 H 213.579 -4.50206 4.12488 0
M  V30 2303 H 214.993 -2.4838 5.16701 0
M  V30 2304 H 213.39 -1.89393 5.6943 0
M  V30 2305 H 214.46 -0.816023 4.77984 0
M  V30 2306 N 215.803 -1.52179 -0.40978 0
M  V30 2307 C 217.031 -1.70054 -1.17853 0
M  V30 2308 C 217.446 -0.409735 -1.843 0
M  V30 2309 O 216.803 0.614183 -1.71855 0
M  V30 2310 C 216.854 -2.83568 -2.24213 0
M  V30 2311 O 216.575 -4.0765 -1.60478 0
M  V30 2312 C 218.076 -3.12947 -3.13973 0
M  V30 2313 H 215.296 -0.569917 -0.354169 0
M  V30 2314 H 217.84 -1.98734 -0.482198 0
M  V30 2315 H 215.995 -2.57409 -2.89516 0
M  V30 2316 H 216.409 -4.70899 -2.30986 0
M  V30 2317 H 217.883 -3.95889 -3.84677 0
M  V30 2318 H 218.36 -2.26472 -3.76307 0
M  V30 2319 H 218.966 -3.40868 -2.5434 0
M  V30 2320 N 217.281 0.66697 -1.42791 0
M  V30 2321 C 218.697 0.981027 -1.25889 0
M  V30 2322 C 218.897 2.00793 -0.168695 0
M  V30 2323 O 217.953 2.48321 0.45747 0
M  V30 2324 C 219.266 1.47838 -2.61848 0
M  V30 2325 C 220.814 1.59575 -2.69267 0
M  V30 2326 C 221.289 2.12704 -4.05612 0
M  V30 2327 N 222.78 2.20026 -4.07606 0
M  V30 2328 C 223.515 2.62227 -5.09926 0
M  V30 2329 N 223.011 3.03824 -6.22626 0
M  V30 2330 N 224.804 2.62045 -4.97281 0
M  V30 2331 H 216.955 -0.0127891 -2.12396 0
M  V30 2332 H 219.218 0.0568258 -0.946295 0
M  V30 2333 H 218.924 0.798299 -3.4252 0
M  V30 2334 H 218.798 2.45579 -2.86305 0
M  V30 2335 H 221.185 2.26687 -1.88936 0
M  V30 2336 H 221.266 0.60302 -2.48591 0
M  V30 2337 H 220.91 1.46198 -4.86404 0
M  V30 2338 H 220.84 3.12782 -4.23645 0
M  V30 2339 H 223.331 1.90708 -3.2625 0
M  V30 2340 H 223.644 3.34734 -6.96544 0
M  V30 2341 H 221.989 3.01662 -6.26119 0
M  V30 2342 H 225.18 2.28916 -4.08308 0
M  V30 2343 H 225.353 2.94613 -5.77154 0
M  V30 2344 N 218.759 1.29093 0.90403 0
M  V30 2345 C 219.706 1.13853 2.00764 0
M  V30 2346 C 220.676 0.0330084 1.66067 0
M  V30 2347 O 221.861 0.199733 1.89752 0
M  V30 2348 C 219.001 0.816537 3.35301 0
M  V30 2349 C 218.114 2.00206 3.82807 0
M  V30 2350 C 217.249 1.61983 5.059 0
M  V30 2351 C 216.288 2.77143 5.45764 0
M  V30 2352 N 215.425 2.39346 6.60044 0
M  V30 2353 H 220.265 2.08276 2.13132 0
M  V30 2354 H 217.802 1.03648 1.04381 0
M  V30 2355 H 219.76 0.610557 4.12708 0
M  V30 2356 H 218.39 -0.090779 3.22672 0
M  V30 2357 H 217.442 2.31988 3.01473 0
M  V30 2358 H 218.754 2.86512 4.08304 0
M  V30 2359 H 217.908 1.37649 5.90879 0
M  V30 2360 H 216.647 0.728202 4.82233 0
M  V30 2361 H 215.652 3.02165 4.59322 0
M  V30 2362 H 216.877 3.66964 5.71414 0
M  V30 2363 H 214.823 1.52665 6.37989 0
M  V30 2364 H 214.74 3.19185 6.85315 0
M  V30 2365 H 216.008 2.1832 7.48303 0
M  V30 2366 N 220.237 -1.11381 1.11499 0
M  V30 2367 C 221.653 -1.35143 0.849031 0
M  V30 2368 C 221.853 -1.94515 -0.525938 0
M  V30 2369 O 220.909 -2.1785 -1.27662 0
M  V30 2370 C 222.222 -2.28249 1.95762 0
M  V30 2371 C 223.77 -2.41812 1.98736 0
M  V30 2372 C 224.245 -3.3824 3.088 0
M  V30 2373 N 225.736 -3.45803 3.08179 0
M  V30 2374 C 226.471 -4.20358 3.89982 0
M  V30 2375 N 225.967 -4.97884 4.8175 0
M  V30 2376 N 227.76 -4.15877 3.78157 0
M  V30 2377 H 219.911 -0.712062 2.00109 0
M  V30 2378 H 222.174 -0.376025 0.870235 0
M  V30 2379 H 221.88 -1.91817 2.94787 0
M  V30 2380 H 221.754 -3.28473 1.85433 0
M  V30 2381 H 224.141 -2.77518 1.00338 0
M  V30 2382 H 224.222 -1.41437 2.13141 0
M  V30 2383 H 223.866 -3.03261 4.07425 0
M  V30 2384 H 223.796 -4.38471 2.91635 0
M  V30 2385 H 226.287 -2.90506 2.41691 0
M  V30 2386 H 226.6 -5.52142 5.40702 0
M  V30 2387 H 224.945 -4.97043 4.85771 0
M  V30 2388 H 228.136 -3.544 3.05808 0
M  V30 2389 H 228.309 -4.73723 4.42143 0
M  V30 2390 N 221.715 -0.905404 -1.28997 0
M  V30 2391 C 223.126 -0.581953 -1.77398 0
M  V30 2392 C 223.477 0.902552 -1.74208 0
M  V30 2393 O 222.602 1.70584 -1.33154 0
M  V30 2394 C 223.197 -1.04961 -3.22131 0
M  V30 2395 C 221.756 -0.777229 -3.68288 0
M  V30 2396 C 220.903 -1.22109 -2.48967 0
M  V30 2397 H 223.854 -1.08754 -1.15578 0
M  V30 2398 H 223.875 -0.387387 -3.78523 0
M  V30 2399 H 223.387 -2.13008 -3.24421 0
M  V30 2400 H 221.488 0.290383 -3.71467 0
M  V30 2401 H 221.601 -1.37911 -4.58822 0
M  V30 2402 H 219.965 -0.639971 -2.46529 0
M  V30 2403 H 220.748 -2.30972 -2.53982 0
M  V30 2404 N 223.193 1.4272 -0.668489 0
M  V30 2405 C 224.441 2.01226 -0.187769 0
M  V30 2406 C 224.762 1.53092 1.2078 0
M  V30 2407 O 224.032 0.74993 1.80977 0
M  V30 2408 H 222.612 0.744041 -0.0664272 0
M  V30 2409 H 225.274 1.74723 -0.863583 0
M  V30 2410 H 224.37 3.11556 -0.184166 0
M  V30 2411 N 224.671 0.411399 1.52136 0
M  V30 2412 C 225.634 -0.401089 2.25663 0
M  V30 2413 C 226.634 -0.971732 1.28117 0
M  V30 2414 O 227.824 -0.850254 1.52041 0
M  V30 2415 C 224.956 -1.56483 3.02863 0
M  V30 2416 H 226.149 0.24295 2.98914 0
M  V30 2417 H 223.702 0.163968 1.55438 0
M  V30 2418 H 224.437 -2.24567 2.33967 0
M  V30 2419 H 224.222 -1.16211 3.74483 0
M  V30 2420 H 225.712 -2.13951 3.58629 0
M  V30 2421 N 226.149 -1.5696 0.141893 0
M  V30 2422 C 227.059 -2.20066 -0.812905 0
M  V30 2423 C 228.075 -1.18344 -1.27557 0
M  V30 2424 O 229.251 -1.50902 -1.33381 0
M  V30 2425 C 226.316 -2.80583 -2.03652 0
M  V30 2426 C 225.377 -3.97414 -1.62359 0
M  V30 2427 C 224.61 -4.55036 -2.78887 0
M  V30 2428 O 224.833 -4.11538 -3.94959 0
M  V30 2429 O 223.767 -5.45376 -2.54653 0
M  V30 2430 H 227.593 -3.02157 -0.305746 0
M  V30 2431 H 225.178 -1.49159 -0.0848799 0
M  V30 2432 H 227.06 -3.19067 -2.75272 0
M  V30 2433 H 225.735 -2.01508 -2.5333 0
M  V30 2434 H 224.642 -3.63656 -0.877775 0
M  V30 2435 H 225.975 -4.77994 -1.17401 0
M  V30 2436 N 227.627 0.131896 -1.57047 0
M  V30 2437 C 228.59 1.14638 -1.98471 0
M  V30 2438 C 229.59 1.35029 -0.873148 0
M  V30 2439 O 230.78 1.31764 -1.13946 0
M  V30 2440 C 227.912 2.50358 -2.31373 0
M  V30 2441 H 229.105 0.79064 -2.8929 0
M  V30 2442 H 226.658 0.375761 -1.51716 0
M  V30 2443 H 227.393 2.90876 -1.43393 0
M  V30 2444 H 227.178 2.36915 -3.12432 0
M  V30 2445 H 228.668 3.23395 -2.64207 0
M  V30 2446 N 229.106 1.52395 0.401703 0
M  V30 2447 C 230.334 1.70676 1.16949 0
M  V30 2448 C 230.749 0.419503 1.8408 0
M  V30 2449 O 230.106 -0.605061 1.72178 0
M  V30 2450 C 230.157 2.84753 2.22706 0
M  V30 2451 O 229.878 4.08495 1.58314 0
M  V30 2452 C 231.379 3.14608 3.12309 0
M  V30 2453 H 228.599 0.571787 0.351142 0
M  V30 2454 H 231.143 1.98987 0.471652 0
M  V30 2455 H 229.298 2.58941 2.88147 0
M  V30 2456 H 229.712 4.72117 2.28485 0
M  V30 2457 H 231.186 3.97923 3.82572 0
M  V30 2458 H 231.663 2.28464 3.75101 0
M  V30 2459 H 232.269 3.42212 2.52529 0
M  V30 2460 N 230.584 -0.659388 1.43143 0
M  V30 2461 C 231.832 -1.41654 1.44147 0
M  V30 2462 C 232.153 -1.94893 0.0645739 0
M  V30 2463 O 231.423 -1.74044 -0.899198 0
M  V30 2464 H 230.003 -0.525708 0.530697 0
M  V30 2465 H 232.665 -0.778097 1.78694 0
M  V30 2466 H 231.761 -2.26195 2.1504 0
M  V30 2467 N 232.062 -1.29571 -0.897171 0
M  V30 2468 C 233.009 -1.14916 -2.00158 0
M  V30 2469 C 233.979 -0.0418149 -1.66047 0
M  V30 2470 O 235.164 -0.209793 -1.89643 0
M  V30 2471 C 232.304 -0.834307 -3.34863 0
M  V30 2472 C 231.417 -2.02234 -3.8174 0
M  V30 2473 C 230.552 -1.64664 -5.05034 0
M  V30 2474 C 229.591 -2.80033 -5.44286 0
M  V30 2475 N 228.728 -2.42843 -6.58765 0
M  V30 2476 H 233.568 -2.09403 -2.12025 0
M  V30 2477 H 231.105 -1.042 -1.0383 0
M  V30 2478 H 233.063 -0.632436 -4.12379 0
M  V30 2479 H 231.693 0.0736656 -3.22716 0
M  V30 2480 H 230.745 -2.33583 -3.00238 0
M  V30 2481 H 232.057 -2.88673 -4.06779 0
M  V30 2482 H 231.211 -1.4078 -5.9014 0
M  V30 2483 H 229.95 -0.753766 -4.8184 0
M  V30 2484 H 228.955 -3.04596 -4.57713 0
M  V30 2485 H 230.18 -3.69989 -5.6946 0
M  V30 2486 H 228.126 -1.56046 -6.3717 0
M  V30 2487 H 228.043 -3.22815 -6.83613 0
M  V30 2488 H 229.311 -2.22285 -7.47134 0
M  V30 2489 N 233.54 1.10788 -1.12088 0
M  V30 2490 C 234.786 1.82942 -0.875226 0
M  V30 2491 C 235.119 1.84779 0.597538 0
M  V30 2492 O 234.394 1.30578 1.44152 0
M  V30 2493 C 234.677 3.29789 -1.44606 0
M  V30 2494 C 234.53 3.36307 -2.98693 0
M  V30 2495 C 235.849 4.26064 -1.10261 0
M  V30 2496 H 232.968 0.664195 -0.319397 0
M  V30 2497 H 235.61 1.29867 -1.38689 0
M  V30 2498 H 233.76 3.75118 -1.01089 0
M  V30 2499 H 235.432 2.99487 -3.50864 0
M  V30 2500 H 233.675 2.76318 -3.34411 0
M  V30 2501 H 234.346 4.39694 -3.33726 0
M  V30 2502 H 236.822 3.88951 -1.4784 0
M  V30 2503 H 235.698 5.27183 -1.52869 0
M  V30 2504 H 235.959 4.42098 -0.0142953 0
M  V30 2505 N 235.018 0.912232 1.28515 0
M  V30 2506 C 235.966 0.389597 2.29314 0
M  V30 2507 C 236.96 -0.517915 1.61289 0
M  V30 2508 O 238.166 -0.399328 1.75515 0
M  V30 2509 H 234.541 0.107386 0.744293 0
M  V30 2510 H 236.512 1.25286 2.70825 0
M  V30 2511 C 235.261 -0.356496 3.45868 0
M  V30 2512 H 234.584 0.332608 3.98414 0
M  V30 2513 H 236.024 -0.686851 4.184 0
M  V30 2514 C 234.483 -1.56383 2.98406 0
M  V30 2515 O 235.013 -2.66294 3.00749 0
M  V30 2516 N 233.219 -1.41029 2.54085 0
M  V30 2517 H 232.766 -0.516089 2.52377 0
M  V30 2518 H 232.724 -2.21939 2.22689 0
M  V30 2519 N 236.496 -1.42363 0.676048 0
M  V30 2520 C 237.742 -2.0182 0.199125 0
M  V30 2521 C 238.075 -1.53339 -1.19168 0
M  V30 2522 O 237.35 -0.736124 -1.80032 0
M  V30 2523 C 237.633 -3.59331 0.235144 0
M  V30 2524 C 237.486 -4.17989 1.66149 0
M  V30 2525 C 238.805 -4.3813 -0.41595 0
M  V30 2526 H 235.924 -0.733293 0.0738311 0
M  V30 2527 H 238.566 -1.69368 0.86107 0
M  V30 2528 H 236.716 -3.87109 -0.328487 0
M  V30 2529 H 238.388 -4.0116 2.27747 0
M  V30 2530 H 236.631 -3.7377 2.20178 0
M  V30 2531 H 237.302 -5.27126 1.63837 0
M  V30 2532 H 239.778 -4.16051 0.0638529 0
M  V30 2533 H 238.654 -5.47717 -0.360115 0
M  V30 2534 H 238.915 -4.16101 -1.49373 0
M  V30 2535 N 237.974 -0.419461 -1.51915 0
M  V30 2536 C 238.921 0.400927 -2.27291 0
M  V30 2537 C 239.891 1.03224 -1.30131 0
M  V30 2538 O 241.076 1.05455 -1.59009 0
M  V30 2539 C 238.216 1.50603 -3.10504 0
M  V30 2540 C 237.329 0.89462 -4.22635 0
M  V30 2541 C 236.464 1.97328 -4.93189 0
M  V30 2542 C 235.503 1.33935 -5.97267 0
M  V30 2543 N 234.64 2.3586 -6.61298 0
M  V30 2544 H 239.48 -0.248251 -2.96964 0
M  V30 2545 H 237.017 -0.134266 -1.46486 0
M  V30 2546 H 238.975 2.15783 -3.57062 0
M  V30 2547 H 237.605 2.12509 -2.42981 0
M  V30 2548 H 236.657 0.131583 -3.80172 0
M  V30 2549 H 237.969 0.391641 -4.9726 0
M  V30 2550 H 237.123 2.70211 -5.43204 0
M  V30 2551 H 235.862 2.50994 -4.18155 0
M  V30 2552 H 234.867 0.595896 -5.46561 0
M  V30 2553 H 236.092 0.810252 -6.74249 0
M  V30 2554 H 234.038 2.88639 -5.89087 0
M  V30 2555 H 233.955 1.90403 -7.3163 0
M  V30 2556 H 235.223 3.08282 -7.15949 0
M  V30 2557 N 239.452 1.56882 -0.150215 0
M  V30 2558 C 240.68 2.00593 0.506948 0
M  V30 2559 C 241.095 1.03033 1.58208 0
M  V30 2560 O 240.452 0.0278396 1.82479 0
M  V30 2561 C 240.503 3.44209 1.10465 0
M  V30 2562 O 240.224 4.3804 0.0724636 0
M  V30 2563 C 241.725 4.03214 1.84211 0
M  V30 2564 H 238.945 0.65795 0.13169 0
M  V30 2565 H 241.489 2.03018 -0.245743 0
M  V30 2566 H 239.644 3.42625 1.80795 0
M  V30 2567 H 240.058 5.22007 0.510793 0
M  V30 2568 H 241.532 5.0569 2.21318 0
M  V30 2569 H 242.009 3.44107 2.72923 0
M  V30 2570 H 242.615 4.08437 1.18572 0
M  V30 2571 N 240.93 -0.123565 1.57115 0
M  V30 2572 C 241.86 -1.15309 2.03042 0
M  V30 2573 C 242.841 -1.43454 0.914061 0
M  V30 2574 O 244.026 -1.53973 1.18347 0
M  V30 2575 C 241.156 -2.48043 2.43089 0
M  V30 2576 C 240.11 -2.3437 3.58127 0
M  V30 2577 C 239.436 -3.72026 3.84059 0
M  V30 2578 C 240.736 -1.80804 4.90007 0
M  V30 2579 H 242.43 -0.771102 2.893 0
M  V30 2580 H 239.976 -0.369479 1.39179 0
M  V30 2581 H 241.929 -3.20311 2.73823 0
M  V30 2582 H 240.653 -2.88122 1.53796 0
M  V30 2583 H 239.312 -1.64551 3.27595 0
M  V30 2584 H 238.96 -4.09582 2.91979 0
M  V30 2585 H 238.66 -3.63732 4.6149 0
M  V30 2586 H 240.184 -4.45806 4.1724 0
M  V30 2587 H 241.598 -2.42886 5.19307 0
M  V30 2588 H 239.995 -1.83343 5.71407 0
M  V30 2589 H 241.065 -0.76528 4.78823 0
M  V30 2590 N 242.408 -1.52605 -0.393616 0
M  V30 2591 C 243.824 -1.41753 -0.733357 0
M  V30 2592 C 244.024 -0.534293 -1.94287 0
M  V30 2593 O 243.08 -0.0059787 -2.52499 0
M  V30 2594 C 244.393 -2.84531 -0.972772 0
M  V30 2595 C 245.941 -2.93978 -1.07453 0
M  V30 2596 C 246.416 -4.37756 -1.3466 0
M  V30 2597 N 247.907 -4.4106 -1.41492 0
M  V30 2598 C 248.642 -5.49387 -1.642 0
M  V30 2599 N 248.138 -6.67806 -1.8441 0
M  V30 2600 N 249.931 -5.36923 -1.66342 0
M  V30 2601 H 242.082 -2.08555 0.402328 0
M  V30 2602 H 244.345 -0.940654 0.117789 0
M  V30 2603 H 244.051 -3.51353 -0.156204 0
M  V30 2604 H 243.925 -3.26508 -1.88871 0
M  V30 2605 H 246.312 -2.27326 -1.88167 0
M  V30 2606 H 246.393 -2.55435 -0.136605 0
M  V30 2607 H 246.037 -5.04972 -0.544581 0
M  V30 2608 H 245.967 -4.73848 -2.2973 0
M  V30 2609 H 248.458 -3.55705 -1.27601 0
M  V30 2610 H 248.771 -7.46141 -2.01231 0
M  V30 2611 H 247.116 -6.70843 -1.81644 0
M  V30 2612 H 250.307 -4.43381 -1.50102 0
M  V30 2613 H 250.48 -6.21416 -1.837 0
M  V30 2614 N 243.887 0.651787 -1.4349 0
M  V30 2615 C 244.817 1.77621 -1.51569 0
M  V30 2616 C 245.798 1.66022 -0.370253 0
M  V30 2617 O 246.983 1.85095 -0.587658 0
M  V30 2618 C 244.113 3.16056 -1.43966 0
M  V30 2619 C 243.067 3.4242 -2.56774 0
M  V30 2620 C 242.393 4.8067 -2.34223 0
M  V30 2621 C 243.693 3.37023 -3.99015 0
M  V30 2622 H 245.387 1.71117 -2.45681 0
M  V30 2623 H 242.933 0.821825 -1.18246 0
M  V30 2624 H 244.886 3.94472 -1.48221 0
M  V30 2625 H 243.61 3.23293 -0.463586 0
M  V30 2626 H 242.269 2.66375 -2.51873 0
M  V30 2627 H 241.917 4.84585 -1.34856 0
M  V30 2628 H 241.617 4.9927 -3.09844 0
M  V30 2629 H 243.141 5.61342 -2.40265 0
M  V30 2630 H 244.555 4.05374 -4.05395 0
M  V30 2631 H 242.952 3.67159 -4.74673 0
M  V30 2632 H 244.022 2.3518 -4.2405 0
M  V30 2633 N 245.365 1.30045 0.890287 0
M  V30 2634 C 246.613 1.18327 1.63839 0
M  V30 2635 C 246.934 -0.263455 1.93212 0
M  V30 2636 O 246.204 -1.17856 1.56482 0
M  V30 2637 H 244.784 0.434933 0.607324 0
M  V30 2638 H 247.446 1.631 1.06698 0
M  V30 2639 H 246.542 1.74024 2.59079 0
M  V30 2640 N 246.843 -1.10192 1.12674 0
M  V30 2641 C 248.254 -1.63707 0.897604 0
M  V30 2642 C 248.605 -1.87812 -0.567546 0
M  V30 2643 O 247.73 -1.62196 -1.43253 0
M  V30 2644 C 248.325 -2.974 1.62292 0
M  V30 2645 C 246.884 -3.47772 1.43986 0
M  V30 2646 C 246.031 -2.22332 1.65722 0
M  V30 2647 H 248.982 -0.936587 1.28116 0
M  V30 2648 H 249.003 -3.64986 1.07541 0
M  V30 2649 H 248.515 -2.79824 2.68924 0
M  V30 2650 H 246.616 -3.70487 0.396206 0
M  V30 2651 H 246.729 -4.25723 2.19765 0
M  V30 2652 H 245.093 -2.30599 1.08149 0
M  V30 2653 H 245.876 -2.07285 2.73657 0
M  V30 2654 N 248.321 -0.919034 -1.28029 0
M  V30 2655 C 249.251 -0.428581 -2.29533 0
M  V30 2656 C 250.232 0.50659 -1.62381 0
M  V30 2657 O 251.417 0.413195 -1.89753 0
M  V30 2658 C 248.547 0.327388 -3.45753 0
M  V30 2659 C 247.501 -0.519137 -4.2484 0
M  V30 2660 C 246.827 0.365486 -5.33449 0
M  V30 2661 C 248.127 -1.77914 -4.91064 0
M  V30 2662 H 249.821 -1.27687 -2.70807 0
M  V30 2663 H 247.367 -0.615428 -1.30186 0
M  V30 2664 H 249.32 0.681378 -4.15855 0
M  V30 2665 H 248.044 1.20963 -3.03374 0
M  V30 2666 H 246.703 -0.855717 -3.56473 0
M  V30 2667 H 246.351 1.24642 -4.87312 0
M  V30 2668 H 246.051 -0.197356 -5.87268 0
M  V30 2669 H 247.575 0.715241 -6.06396 0
M  V30 2670 H 248.989 -1.49374 -5.53498 0
M  V30 2671 H 247.386 -2.2848 -5.54903 0
M  V30 2672 H 248.456 -2.50382 -4.15255 0
M  V30 2673 N 249.799 1.42003 -0.683588 0
M  V30 2674 C 251.024 2.06265 -0.216647 0
M  V30 2675 C 251.449 1.51059 1.12083 0
M  V30 2676 O 250.807 0.632638 1.69904 0
M  V30 2677 C 250.855 3.60191 -0.171759 0
M  V30 2678 O 249.959 4.03396 0.857069 0
M  V30 2679 H 249.3 0.65502 -0.108834 0
M  V30 2680 H 251.83 1.81982 -0.935077 0
M  V30 2681 H 251.84 4.08 0.0014303 0
M  V30 2682 H 250.515 3.99743 -1.14796 0
M  V30 2683 H 249.092 3.67117 0.654208 0
M  V30 2684 N 251.277 0.427512 1.51691 0
M  V30 2685 C 252.224 -0.388867 2.275 0
M  V30 2686 C 253.194 -1.02532 1.30677 0
M  V30 2687 O 254.379 -1.0461 1.59566 0
M  V30 2688 C 251.519 -1.48954 3.11298 0
M  V30 2689 C 250.632 -0.872194 4.23104 0
M  V30 2690 C 249.767 -1.94709 4.94228 0
M  V30 2691 C 248.806 -1.30766 5.97969 0
M  V30 2692 N 247.943 -2.32349 6.62539 0
M  V30 2693 H 252.783 0.263997 2.96828 0
M  V30 2694 H 250.32 0.142033 1.46413 0
M  V30 2695 H 252.278 -2.13887 3.58201 0
M  V30 2696 H 250.908 -2.11217 2.44105 0
M  V30 2697 H 249.96 -0.111419 3.80237 0
M  V30 2698 H 251.272 -0.365264 4.97461 0
M  V30 2699 H 250.426 -2.67327 5.44629 0
M  V30 2700 H 249.165 -2.48773 4.1948 0
M  V30 2701 H 248.17 -0.566902 5.4687 0
M  V30 2702 H 249.395 -0.774483 6.74669 0
M  V30 2703 H 247.341 -2.85511 5.90609 0
M  V30 2704 H 247.258 -1.8652 7.3263 0
M  V30 2705 H 248.526 -3.04481 7.17574 0
M  V30 2706 N 252.755 -1.56801 0.158532 0
M  V30 2707 C 253.718 -2.16138 -0.762705 0
M  V30 2708 C 254.718 -1.1061 -1.16713 0
M  V30 2709 O 255.908 -1.36191 -1.08617 0
M  V30 2710 C 253.04 -2.73386 -2.03649 0
M  V30 2711 H 254.233 -2.98886 -0.246354 0
M  V30 2712 H 251.786 -1.56035 -0.0909744 0
M  V30 2713 H 252.521 -1.94335 -2.59623 0
M  V30 2714 H 252.306 -3.50601 -1.75559 0
M  V30 2715 H 253.796 -3.19065 -2.6942 0
M  V30 2716 N 254.233 0.115231 -1.57178 0
M  V30 2717 C 255.481 0.820727 -1.84685 0
M  V30 2718 C 255.802 1.80237 -0.744279 0
M  V30 2719 O 255.072 1.94529 0.231375 0
M  V30 2720 H 253.652 0.306084 -0.681411 0
M  V30 2721 H 256.314 0.101656 -1.94635 0
M  V30 2722 H 255.41 1.36366 -2.80733 0
M  V30 2723 N 255.711 1.52812 0.385517 0
M  V30 2724 C 256.958 1.68026 1.1302 0
M  V30 2725 C 257.286 0.421934 1.89868 0
M  V30 2726 O 256.541 -0.595749 1.86412 0
M  V30 2727 C 256.84 2.86856 2.13187 0
M  V30 2728 C 256.506 4.24159 1.5297 0
M  V30 2729 C 255.168 4.61501 1.36274 0
M  V30 2730 C 257.52 5.09627 1.09223 0
M  V30 2731 C 254.848 5.81966 0.743837 0
M  V30 2732 C 257.2 6.30719 0.487411 0
M  V30 2733 C 255.864 6.6679 0.307777 0
M  V30 2734 H 255.134 0.614849 0.413571 0
M  V30 2735 H 257.781 1.86962 0.414405 0
M  V30 2736 H 256.086 2.6235 2.90998 0
M  V30 2737 H 257.783 2.95821 2.70722 0
M  V30 2738 H 254.373 3.94746 1.66954 0
M  V30 2739 H 258.557 4.81343 1.20922 0
M  V30 2740 H 253.813 6.08519 0.592891 0
M  V30 2741 H 257.987 6.96259 0.140143 0
M  V30 2742 H 255.614 7.60001 -0.173879 0
M  V30 2743 N 257.189 -0.644168 1.43834 0
M  V30 2744 C 258.419 -1.42939 1.49171 0
M  V30 2745 C 258.827 -1.88874 0.111048 0
M  V30 2746 O 258.17 -1.60656 -0.8908 0
M  V30 2747 C 258.232 -2.69151 2.38324 0
M  V30 2748 C 257.896 -2.45097 3.85715 0
M  V30 2749 C 258.893 -2.07747 4.76589 0
M  V30 2750 C 256.578 -2.59141 4.30292 0
M  V30 2751 C 258.572 -1.8475 6.10038 0
M  V30 2752 C 256.259 -2.35759 5.63792 0
M  V30 2753 C 257.257 -1.9862 6.53482 0
M  V30 2754 O 256.945 -1.75489 7.84512 0
M  V30 2755 H 256.677 -0.445271 0.508635 0
M  V30 2756 H 259.231 -0.79621 1.8934 0
M  V30 2757 H 257.461 -3.3506 1.93058 0
M  V30 2758 H 259.15 -3.31123 2.3476 0
M  V30 2759 H 259.916 -1.96465 4.43426 0
M  V30 2760 H 255.795 -2.87022 3.60749 0
M  V30 2761 H 259.339 -1.55686 6.80006 0
M  V30 2762 H 255.236 -2.46646 5.9652 0
M  V30 2763 H 256.004 -1.89841 7.9618 0
M  V30 2764 N 258.668 -1.30515 -0.883378 0
M  V30 2765 C 259.598 -1.19607 -2.00541 0
M  V30 2766 C 260.579 -0.086346 -1.69881 0
M  V30 2767 O 261.764 -0.268654 -1.92333 0
M  V30 2768 C 258.894 -0.888758 -3.35736 0
M  V30 2769 C 257.848 -1.95659 -3.8066 0
M  V30 2770 C 257.174 -1.50224 -5.13164 0
M  V30 2771 C 258.474 -3.36788 -3.99213 0
M  V30 2772 H 260.168 -2.13476 -2.09925 0
M  V30 2773 H 257.714 -1.02775 -1.00863 0
M  V30 2774 H 259.667 -0.799094 -4.13754 0
M  V30 2775 H 258.391 0.0856125 -3.26488 0
M  V30 2776 H 257.05 -2.03591 -3.04871 0
M  V30 2777 H 256.698 -0.516092 -5.00345 0
M  V30 2778 H 256.398 -2.2165 -5.44192 0
M  V30 2779 H 257.922 -1.42639 -5.93706 0
M  V30 2780 H 259.336 -3.31605 -4.67665 0
M  V30 2781 H 257.733 -4.06314 -4.41621 0
M  V30 2782 H 258.803 -3.78561 -3.03017 0
M  V30 2783 N 260.146 1.09593 -1.13257 0
M  V30 2784 C 261.109 2.14359 -0.811358 0
M  V30 2785 C 262.109 1.59808 0.178377 0
M  V30 2786 O 263.299 1.74132 -0.0484911 0
M  V30 2787 C 260.431 3.40269 -0.207276 0
M  V30 2788 H 261.624 2.44284 -1.73969 0
M  V30 2789 H 259.177 1.25102 -0.936973 0
M  V30 2790 H 259.912 3.15969 0.73036 0
M  V30 2791 H 259.697 3.81154 -0.919992 0
M  V30 2792 H 261.187 4.176 0.000667944 0
M  V30 2793 N 261.624 0.925811 1.2754 0
M  V30 2794 C 262.871 0.565255 1.94451 0
M  V30 2795 C 263.199 -0.89316 1.7278 0
M  V30 2796 O 262.454 -1.65213 1.04895 0
M  V30 2797 C 262.753 0.835296 3.47502 0
M  V30 2798 C 262.419 2.27515 3.89291 0
M  V30 2799 C 261.081 2.66879 4.00411 0
M  V30 2800 C 263.433 3.21158 4.10496 0
M  V30 2801 C 260.761 3.99014 4.30122 0
M  V30 2802 C 263.113 4.52871 4.4169 0
M  V30 2803 C 261.777 4.92072 4.51023 0
M  V30 2804 H 261.047 0.206841 0.711546 0
M  V30 2805 H 263.694 1.16942 1.51647 0
M  V30 2806 H 261.999 0.148442 3.91519 0
M  V30 2807 H 263.696 0.535322 3.97411 0
M  V30 2808 H 260.286 1.95976 3.81171 0
M  V30 2809 H 264.47 2.9195 4.01346 0
M  V30 2810 H 259.726 4.2907 4.35556 0
M  V30 2811 H 263.9 5.25436 4.57045 0
M  V30 2812 H 261.527 5.9449 4.738 0
M  V30 2813 N 263.102 -1.41638 0.69111 0
M  V30 2814 C 264.034 -2.29194 -0.0161523 0
M  V30 2815 C 265.047 -1.44549 -0.748955 0
M  V30 2816 O 266.236 -1.681 -0.6004 0
M  V30 2817 C 263.336 -3.22325 -1.0469 0
M  V30 2818 C 262.509 -4.35706 -0.384621 0
M  V30 2819 C 261.568 -5.09443 -1.31737 0
M  V30 2820 O 260.594 -5.63386 -0.811451 0
M  V30 2821 N 261.796 -5.16487 -2.64993 0
M  V30 2822 H 264.561 -2.90534 0.735523 0
M  V30 2823 H 262.122 -1.52742 0.53679 0
M  V30 2824 H 264.114 -3.68522 -1.67252 0
M  V30 2825 H 262.684 -2.62323 -1.70015 0
M  V30 2826 H 261.904 -3.91948 0.420804 0
M  V30 2827 H 263.192 -5.08743 0.0760765 0
M  V30 2828 H 262.59 -4.741 -3.08619 0
M  V30 2829 H 261.147 -5.66276 -3.22761 0
M  V30 2830 N 264.58 -0.43555 -1.51462 0
M  V30 2831 C 265.857 0.191364 -1.94662 0
M  V30 2832 C 266.237 1.60254 -1.37411 0
M  V30 2833 O 265.585 2.2152 -0.560458 0
M  V30 2834 C 265.795 0.17091 -3.48581 0
M  V30 2835 C 267.143 0.377357 -4.2292 0
M  V30 2836 O 268.167 0.249104 -3.55328 0
M  V30 2837 O 267.026 0.63247 -5.42828 0
M  V30 2838 H 264.12 0.130932 -0.816569 0
M  V30 2839 H 266.666 -0.4934 -1.62369 0
M  V30 2840 H 265.438 -0.815738 -3.82703 0
M  V30 2841 H 265.061 0.898659 -3.87311 0
M  V30 2842 N 266.058 1.56714 -0.166846 0
M  V30 2843 C 266.99 2.14914 0.796537 0
M  V30 2844 C 268.003 1.10357 1.19688 0
M  V30 2845 O 269.192 1.37561 1.13751 0
M  V30 2846 C 266.292 2.67326 2.08303 0
M  V30 2847 C 265.465 3.96493 1.84696 0
M  V30 2848 C 264.524 4.34014 2.97521 0
M  V30 2849 O 263.55 5.01973 2.6835 0
M  V30 2850 N 264.752 3.95208 4.25196 0
M  V30 2851 H 267.517 2.98205 0.299006 0
M  V30 2852 H 265.078 1.61892 0.0160839 0
M  V30 2853 H 267.07 2.89428 2.82867 0
M  V30 2854 H 265.64 1.88649 2.4926 0
M  V30 2855 H 264.86 3.82814 0.940602 0
M  V30 2856 H 266.148 4.8086 1.66285 0
M  V30 2857 H 265.546 3.40487 4.51758 0
M  V30 2858 H 264.103 4.2232 4.96477 0
M  V30 2859 N 267.536 -0.106894 1.57237 0
M  V30 2860 C 268.784 -0.810921 1.85117 0
M  V30 2861 C 269.105 -1.7984 0.753827 0
M  V30 2862 O 268.375 -1.94649 -0.221056 0
M  V30 2863 H 266.955 -0.302466 0.683025 0
M  V30 2864 H 269.617 -0.0913324 1.94686 0
M  V30 2865 H 268.713 -1.34875 2.81452 0
M  V30 2866 N 269.014 -1.53014 -0.377408 0
M  V30 2867 C 269.977 -1.77957 -1.44444 0
M  V30 2868 C 270.977 -0.649763 -1.47087 0
M  V30 2869 O 272.167 -0.917897 -1.48055 0
M  V30 2870 C 269.299 -1.89089 -2.83651 0
M  V30 2871 H 270.492 -2.73243 -1.23606 0
M  V30 2872 H 268.045 -1.43912 -0.609844 0
M  V30 2873 H 268.78 -0.958293 -3.09818 0
M  V30 2874 H 268.565 -2.71254 -2.83132 0
M  V30 2875 H 270.055 -2.1002 -3.60945 0
M  V30 2876 N 270.492 0.636531 -1.44174 0
M  V30 2877 C 271.732 1.40781 -1.48189 0
M  V30 2878 C 272.096 1.91688 -0.10944 0
M  V30 2879 O 273.297 2.68789 -0.0242741 0
M  V30 2880 C 271.568 2.54575 -2.50851 0
M  V30 2881 S 273.127 3.4284 -2.73873 0
M  V30 2882 H 269.945 0.480345 -0.524204 0
M  V30 2883 H 272.547 0.737416 -1.81059 0
M  V30 2884 H 271.251 2.15478 -3.49281 0
M  V30 2885 H 270.782 3.26447 -2.19536 0
M  V30 2886 H 272.797 4.51846 -2.05059 0
M  V30 2887 N 271.97 1.30982 0.876444 0
M  V30 2888 C 272.903 1.12414 1.98591 0
M  V30 2889 C 273.881 0.0294078 1.62573 0
M  V30 2890 O 275.065 0.184598 1.87594 0
M  V30 2891 C 272.192 0.716276 3.3104 0
M  V30 2892 C 271.238 1.81311 3.86042 0
M  V30 2893 S 272.071 3.41727 4.1229 0
M  V30 2894 C 273.227 3.02863 5.47745 0
M  V30 2895 H 273.46 2.06338 2.14037 0
M  V30 2896 H 270.993 1.15393 1.02586 0
M  V30 2897 H 272.951 0.487697 4.07593 0
M  V30 2898 H 271.612 -0.203749 3.13438 0
M  V30 2899 H 270.805 1.48021 4.81774 0
M  V30 2900 H 270.407 1.99641 3.16259 0
M  V30 2901 H 272.699 2.51353 6.29148 0
M  V30 2902 H 273.642 3.97533 5.8598 0
M  V30 2903 H 274.05 2.40487 5.10711 0
M  V30 2904 N 273.449 -1.08991 1.13837 0
M  V30 2905 C 274.412 -2.13925 0.822715 0
M  V30 2906 C 275.412 -1.599 -0.1699 0
M  V30 2907 O 276.602 -1.74104 0.0577251 0
M  V30 2908 C 273.734 -3.40155 0.225318 0
M  V30 2909 H 274.927 -2.43358 1.75262 0
M  V30 2910 H 272.48 -1.24603 0.943594 0
M  V30 2911 H 273.215 -3.16352 -0.713594 0
M  V30 2912 H 273 -3.80661 0.940193 0
M  V30 2913 H 274.49 -4.17594 0.0214784 0
M  V30 2914 N 274.927 -0.932562 -1.27047 0
M  V30 2915 C 275.857 -0.452902 -2.29066 0
M  V30 2916 C 276.838 0.489338 -1.62909 0
M  V30 2917 O 278.023 0.393046 -1.90181 0
M  V30 2918 C 275.153 0.290698 -3.46081 0
M  V30 2919 C 274.107 -0.564168 -4.24265 0
M  V30 2920 C 273.433 0.308886 -5.33807 0
M  V30 2921 C 274.733 -1.83112 -4.89149 0
M  V30 2922 H 276.427 -1.30552 -2.69437 0
M  V30 2923 H 273.973 -0.629201 -1.29526 0
M  V30 2924 H 275.926 0.637233 -4.16554 0
M  V30 2925 H 274.65 1.17738 -3.0464 0
M  V30 2926 H 273.309 -0.893477 -3.55545 0
M  V30 2927 H 272.957 1.19467 -4.88607 0
M  V30 2928 H 272.657 -0.259633 -5.87026 0
M  V30 2929 H 274.181 0.650884 -6.07121 0
M  V30 2930 H 275.595 -1.55236 -5.51883 0
M  V30 2931 H 273.992 -2.34353 -5.52448 0
M  V30 2932 H 275.062 -2.54772 -4.12576 0
M  V30 2933 N 276.405 1.4127 -0.698611 0
M  V30 2934 C 277.335 2.33447 -0.049629 0
M  V30 2935 C 278.316 1.51982 0.763898 0
M  V30 2936 O 279.501 1.80509 0.716257 0
M  V30 2937 C 276.631 3.35828 0.885267 0
M  V30 2938 C 275.585 4.27627 0.178613 0
M  V30 2939 C 274.911 5.20406 1.22807 0
M  V30 2940 C 276.211 5.13459 -0.956933 0
M  V30 2941 H 277.905 2.87966 -0.81951 0
M  V30 2942 H 275.451 1.38461 -0.395538 0
M  V30 2943 H 277.404 3.9924 1.34854 0
M  V30 2944 H 276.128 2.79666 1.68685 0
M  V30 2945 H 274.787 3.65643 -0.26466 0
M  V30 2946 H 274.435 4.60558 2.02226 0
M  V30 2947 H 274.135 5.82661 0.760239 0
M  V30 2948 H 275.659 5.86695 1.69179 0
M  V30 2949 H 277.073 5.70421 -0.573805 0
M  V30 2950 H 275.47 5.8467 -1.35205 0
M  V30 2951 H 276.54 4.50443 -1.79524 0
M  V30 2952 N 277.883 0.443576 1.51229 0
M  V30 2953 C 279.108 -0.121648 2.07043 0
M  V30 2954 C 279.533 -1.35156 1.30823 0
M  V30 2955 O 278.891 -1.7793 0.347934 0
M  V30 2956 C 278.939 -0.41624 3.5819 0
M  V30 2957 O 278.043 -1.50163 3.8409 0
M  V30 2958 H 277.384 0.000871367 0.663999 0
M  V30 2959 H 279.914 0.626706 1.94765 0
M  V30 2960 H 279.924 -0.664867 4.02546 0
M  V30 2961 H 278.599 0.482653 4.1309 0
M  V30 2962 H 277.176 -1.24248 3.51592 0
M  V30 2963 N 279.361 -1.56624 0.175154 0
M  V30 2964 C 280.291 -2.21155 -0.749195 0
M  V30 2965 C 281.272 -1.16836 -1.23626 0
M  V30 2966 O 282.457 -1.45277 -1.28873 0
M  V30 2967 C 279.587 -2.8553 -1.97711 0
M  V30 2968 C 278.541 -3.95921 -1.62575 0
M  V30 2969 C 277.867 -4.47365 -2.92864 0
M  V30 2970 C 279.167 -5.15323 -0.850838 0
M  V30 2971 H 280.861 -2.98653 -0.211295 0
M  V30 2972 H 278.407 -1.43651 -0.100188 0
M  V30 2973 H 280.36 -3.2935 -2.62881 0
M  V30 2974 H 279.084 -2.05406 -2.53921 0
M  V30 2975 H 277.743 -3.52762 -0.997719 0
M  V30 2976 H 277.391 -3.64027 -3.47122 0
M  V30 2977 H 277.091 -5.21839 -2.70106 0
M  V30 2978 H 278.615 -4.93873 -3.59056 0
M  V30 2979 H 280.029 -5.55812 -1.40521 0
M  V30 2980 H 278.426 -5.95739 -0.722154 0
M  V30 2981 H 279.496 -4.84661 0.152082 0
M  V30 2982 N 280.839 0.0985539 -1.57292 0
M  V30 2983 C 281.789 1.1261 -1.9825 0
M  V30 2984 C 282.773 1.35961 -0.860426 0
M  V30 2985 O 283.965 1.36711 -1.12424 0
M  V30 2986 C 281.094 2.44727 -2.40757 0
M  V30 2987 C 280.18 2.24764 -3.59642 0
M  V30 2988 N 280.571 1.74661 -4.74687 0
M  V30 2989 C 278.869 2.55344 -3.65672 0
M  V30 2990 C 279.57 1.68887 -5.56644 0
M  V30 2991 N 278.546 2.13976 -4.99715 0
M  V30 2992 H 282.348 0.731604 -2.84648 0
M  V30 2993 H 279.862 0.306029 -1.59491 0
M  V30 2994 H 281.859 3.19072 -2.68326 0
M  V30 2995 H 280.519 2.84917 -1.55733 0
M  V30 2996 H 281.53 1.43908 -4.97505 0
M  V30 2997 H 278.207 2.99081 -2.91302 0
M  V30 2998 H 279.597 1.3123 -6.5896 0
M  V30 2999 N 282.317 1.53212 0.369288 0
M  V30 3000 C 283.247 1.82365 1.45826 0
M  V30 3001 C 284.228 0.676907 1.56051 0
M  V30 3002 O 285.413 0.926401 1.70679 0
M  V30 3003 C 282.543 2.01023 2.83208 0
M  V30 3004 C 281.497 3.1678 2.8781 0
M  V30 3005 C 280.823 3.20724 4.27832 0
M  V30 3006 C 282.123 4.55447 2.55667 0
M  V30 3007 H 283.817 2.73559 1.21678 0
M  V30 3008 H 281.363 1.3163 0.583911 0
M  V30 3009 H 283.316 2.20001 3.59413 0
M  V30 3010 H 282.04 1.06536 3.08736 0
M  V30 3011 H 280.699 2.97616 2.14056 0
M  V30 3012 H 280.347 2.23882 4.50429 0
M  V30 3013 H 280.047 3.98496 4.31827 0
M  V30 3014 H 281.571 3.41881 5.05915 0
M  V30 3015 H 282.985 4.74611 3.21586 0
M  V30 3016 H 281.382 5.35432 2.70984 0
M  V30 3017 H 282.452 4.60812 1.5093 0
M  V30 3018 N 283.795 -0.628877 1.44509 0
M  V30 3019 C 285.042 -1.38839 1.47411 0
M  V30 3020 C 285.37 -1.94202 0.10757 0
M  V30 3021 O 284.625 -1.74243 -0.890947 0
M  V30 3022 C 284.924 -2.56995 2.48371 0
M  V30 3023 C 284.59 -2.19908 3.93639 0
M  V30 3024 C 283.252 -2.09506 4.33198 0
M  V30 3025 C 285.604 -1.9064 4.85083 0
M  V30 3026 C 282.932 -1.68028 5.62124 0
M  V30 3027 C 285.284 -1.50655 6.14399 0
M  V30 3028 C 283.948 -1.38796 6.5291 0
M  V30 3029 H 283.218 -0.508048 0.539414 0
M  V30 3030 H 285.865 -0.712913 1.77735 0
M  V30 3031 H 284.17 -3.29786 2.11538 0
M  V30 3032 H 285.867 -3.15223 2.47861 0
M  V30 3033 H 282.457 -2.28922 3.62343 0
M  V30 3034 H 286.641 -1.97585 4.55273 0
M  V30 3035 H 281.897 -1.57452 5.90778 0
M  V30 3036 H 286.071 -1.27048 6.84713 0
M  V30 3037 H 283.698 -1.06429 7.52713 0
M  V30 3038 N 285.273 -1.31445 -0.869486 0
M  V30 3039 C 286.503 -1.23942 -1.65294 0
M  V30 3040 C 286.911 0.197561 -1.88166 0
M  V30 3041 O 286.254 1.14019 -1.44033 0
M  V30 3042 C 286.316 -1.91385 -3.04322 0
M  V30 3043 C 285.98 -3.40726 -3.04557 0
M  V30 3044 C 286.977 -4.36464 -2.82481 0
M  V30 3045 C 284.662 -3.82425 -3.25663 0
M  V30 3046 C 286.656 -5.71876 -2.8149 0
M  V30 3047 C 284.343 -5.1795 -3.243 0
M  V30 3048 C 285.341 -6.12486 -3.02241 0
M  V30 3049 O 285.029 -7.45534 -3.00724 0
M  V30 3050 H 284.761 -0.429459 -0.522054 0
M  V30 3051 H 287.315 -1.73873 -1.0935 0
M  V30 3052 H 285.545 -1.36004 -3.61994 0
M  V30 3053 H 287.234 -1.77791 -3.64891 0
M  V30 3054 H 288 -4.05576 -2.65956 0
M  V30 3055 H 283.879 -3.09274 -3.41863 0
M  V30 3056 H 287.423 -6.45638 -2.64191 0
M  V30 3057 H 283.32 -5.48473 -3.40365 0
M  V30 3058 H 284.088 -7.54713 -3.16782 0
M  V30 3059 N 286.751 1.08385 -1.14413 0
M  V30 3060 C 287.698 2.15311 -0.831265 0
M  V30 3061 C 288.668 1.64751 0.211292 0
M  V30 3062 O 289.853 1.90627 0.0811674 0
M  V30 3063 C 286.993 3.43658 -0.315143 0
M  V30 3064 C 286.106 4.08064 -1.41802 0
M  V30 3065 C 285.241 5.24207 -0.859126 0
M  V30 3066 C 284.28 5.80554 -1.93967 0
M  V30 3067 N 283.417 6.88042 -1.39793 0
M  V30 3068 H 288.257 2.41415 -1.74708 0
M  V30 3069 H 285.794 1.18474 -0.871909 0
M  V30 3070 H 287.752 4.172 0.00230884 0
M  V30 3071 H 286.382 3.17839 0.56378 0
M  V30 3072 H 285.434 3.3228 -1.85187 0
M  V30 3073 H 286.746 4.45962 -2.23427 0
M  V30 3074 H 285.9 6.04689 -0.49359 0
M  V30 3075 H 284.639 4.87699 -0.011932 0
M  V30 3076 H 283.644 4.98725 -2.31415 0
M  V30 3077 H 284.869 6.19121 -2.79046 0
M  V30 3078 H 282.815 6.53493 -0.572919 0
M  V30 3079 H 282.732 7.24767 -2.15054 0
M  V30 3080 H 284 7.72255 -1.0603 0
M  V30 3081 N 288.23 0.939286 1.26551 0
M  V30 3082 C 289.177 0.446088 2.26448 0
M  V30 3083 C 290.147 -0.493234 1.58608 0
M  V30 3084 O 291.332 -0.409857 1.86346 0
M  V30 3085 C 288.472 -0.284375 3.43926 0
M  V30 3086 C 287.585 0.690399 4.26448 0
M  V30 3087 C 286.72 -0.0610712 5.31165 0
M  V30 3088 C 285.759 0.905649 6.05363 0
M  V30 3089 N 284.896 0.186055 7.01853 0
M  V30 3090 H 289.736 1.30291 2.68008 0
M  V30 3091 H 287.273 0.65371 1.31776 0
M  V30 3092 H 289.231 -0.724313 4.10864 0
M  V30 3093 H 287.861 -1.10535 3.03285 0
M  V30 3094 H 286.913 1.24885 3.59316 0
M  V30 3095 H 288.225 1.42873 4.779 0
M  V30 3096 H 287.379 -0.56038 6.04106 0
M  V30 3097 H 286.118 -0.832297 4.80546 0
M  V30 3098 H 285.123 1.4161 5.3125 0
M  V30 3099 H 286.348 1.67685 6.58072 0
M  V30 3100 H 284.294 -0.566714 6.53548 0
M  V30 3101 H 284.211 0.863752 7.51049 0
M  V30 3102 H 285.479 -0.292221 7.78952 0
M  V30 3103 N 289.708 -1.40897 0.706093 0
M  V30 3104 C 290.948 -2.02916 0.245827 0
M  V30 3105 C 291.312 -1.54751 -1.13649 0
M  V30 3106 O 292.513 -2.08768 -1.69321 0
M  V30 3107 C 290.784 -3.56031 0.312537 0
M  V30 3108 S 292.343 -4.38741 -0.0721388 0
M  V30 3109 H 289.161 -0.704186 0.0982007 0
M  V30 3110 H 291.763 -1.72168 0.926207 0
M  V30 3111 H 290.467 -3.88579 1.32039 0
M  V30 3112 H 289.998 -3.91495 -0.386641 0
M  V30 3113 H 292.013 -4.78952 -1.29692 0
M  V30 3114 N 291.186 -0.45159 -1.50991 0
M  V30 3115 C 292.149 0.341117 -2.26647 0
M  V30 3116 C 293.149 0.937422 -1.30649 0
M  V30 3117 O 294.339 0.809644 -1.54241 0
M  V30 3118 C 291.471 1.48398 -3.06905 0
M  V30 3119 H 292.664 -0.322117 -2.98165 0
M  V30 3120 H 290.217 -0.205122 -1.54948 0
M  V30 3121 H 290.952 2.18284 -2.39838 0
M  V30 3122 H 290.737 1.06241 -3.77432 0
M  V30 3123 H 292.227 2.04367 -3.64176 0
M  V30 3124 N 292.664 1.56529 -0.183458 0
M  V30 3125 C 293.596 2.15747 0.773697 0
M  V30 3126 C 294.609 1.1162 1.1851 0
M  V30 3127 O 295.798 1.3876 1.12285 0
M  V30 3128 C 292.898 2.6952 2.05456 0
M  V30 3129 C 292.071 3.98429 1.8048 0
M  V30 3130 C 291.13 4.37145 2.92901 0
M  V30 3131 O 290.156 5.04791 2.6301 0
M  V30 3132 N 291.358 3.99695 4.2098 0
M  V30 3133 H 294.123 2.98505 0.26736 0
M  V30 3134 H 291.684 1.619 -0.0010878 0
M  V30 3135 H 293.676 2.92412 2.79781 0
M  V30 3136 H 292.246 1.91282 2.47245 0
M  V30 3137 H 291.466 3.8379 0.899947 0
M  V30 3138 H 292.754 4.82597 1.61175 0
M  V30 3139 H 292.152 3.4526 4.48121 0
M  V30 3140 H 290.709 4.27562 4.9197 0
M  V30 3141 N 294.142 -0.090211 1.57342 0
M  V30 3142 C 295.072 -1.10976 2.05443 0
M  V30 3143 C 296.053 -1.41482 0.944284 0
M  V30 3144 O 297.238 -1.51428 1.21586 0
M  V30 3145 C 294.368 -2.42831 2.48295 0
M  V30 3146 C 293.322 -2.26721 3.63018 0
M  V30 3147 C 292.648 -3.63796 3.91863 0
M  V30 3148 C 293.948 -1.7037 4.93732 0
M  V30 3149 H 295.642 -0.709564 2.9087 0
M  V30 3150 H 293.188 -0.339874 1.39932 0
M  V30 3151 H 295.141 -3.14431 2.80555 0
M  V30 3152 H 293.865 -2.84795 1.59873 0
M  V30 3153 H 292.524 -1.57565 3.31012 0
M  V30 3154 H 292.172 -4.03297 3.00601 0
M  V30 3155 H 291.872 -3.53861 4.69101 0
M  V30 3156 H 293.396 -4.36855 4.26603 0
M  V30 3157 H 294.81 -2.31816 5.24342 0
M  V30 3158 H 293.207 -1.71181 5.75167 0
M  V30 3159 H 294.277 -0.663542 4.80339 0
M  V30 3160 N 295.62 -1.53406 -0.361157 0
M  V30 3161 C 296.848 -1.73717 -1.12383 0
M  V30 3162 C 297.263 -0.468161 -1.82904 0
M  V30 3163 O 296.62 0.559198 -1.73722 0
M  V30 3164 C 296.671 -2.90558 -2.15078 0
M  V30 3165 O 296.392 -4.12549 -1.47428 0
M  V30 3166 C 297.893 -3.22777 -3.03858 0
M  V30 3167 H 295.113 -0.580896 -0.335858 0
M  V30 3168 H 297.657 -2.00167 -0.418728 0
M  V30 3169 H 295.812 -2.66489 -2.8118 0
M  V30 3170 H 296.226 -4.78009 -2.15887 0
M  V30 3171 H 297.7 -4.07927 -3.71887 0
M  V30 3172 H 298.177 -2.38329 -3.68912 0
M  V30 3173 H 298.783 -3.48787 -2.43367 0
M  V30 3174 N 297.098 0.621204 -1.44841 0
M  V30 3175 C 298.344 1.3826 -1.48365 0
M  V30 3176 C 298.677 1.93831 -0.119624 0
M  V30 3177 O 297.952 1.74251 0.864111 0
M  V30 3178 C 298.235 2.54058 -2.55199 0
M  V30 3179 C 298.088 2.03772 -4.00995 0
M  V30 3180 C 299.407 3.56225 -2.58442 0
M  V30 3181 H 296.526 0.501374 -0.540179 0
M  V30 3182 H 299.168 0.7015 -1.76576 0
M  V30 3183 H 297.318 3.12162 -2.31274 0
M  V30 3184 H 298.99 1.50423 -4.36086 0
M  V30 3185 H 297.233 1.34876 -4.12299 0
M  V30 3186 H 297.904 2.87185 -4.71411 0
M  V30 3187 H 300.38 3.07939 -2.79844 0
M  V30 3188 H 299.256 4.34756 -3.3508 0
M  V30 3189 H 299.517 4.10949 -1.63013 0
M  V30 3190 N 298.576 1.31904 0.862503 0
M  V30 3191 C 299.524 1.20125 1.9918 0
M  V30 3192 C 300.518 0.107824 1.69056 0
M  V30 3193 O 301.724 0.270223 1.7796 0
M  V30 3194 H 298.099 0.372148 0.65346 0
M  V30 3195 H 300.07 2.15652 2.06244 0
M  V30 3196 C 298.819 0.933099 3.34946 0
M  V30 3197 H 298.142 1.76664 3.5865 0
M  V30 3198 H 299.582 0.890892 4.14535 0
M  V30 3199 C 298.041 -0.364172 3.34926 0
M  V30 3200 O 298.571 -1.37858 3.77304 0
M  V30 3201 N 296.777 -0.383362 2.8806 0
M  V30 3202 H 296.324 0.442651 2.53768 0
M  V30 3203 H 296.282 -1.25123 2.8843 0
M  V30 3204 N 300.054 -1.07777 1.14986 0
M  V30 3205 C 300.984 -2.16865 0.865557 0
M  V30 3206 C 301.965 -1.69123 -0.182083 0
M  V30 3207 O 303.15 -1.94164 -0.0373815 0
M  V30 3208 C 300.28 -3.45539 0.349313 0
M  V30 3209 C 299.234 -4.06708 1.33313 0
M  V30 3210 C 298.56 -5.30411 0.675918 0
M  V30 3211 C 299.86 -4.47241 2.69764 0
M  V30 3212 H 301.554 -2.40905 1.77778 0
M  V30 3213 H 299.1 -1.15781 0.856203 0
M  V30 3214 H 301.053 -4.21174 0.137983 0
M  V30 3215 H 299.777 -3.21072 -0.598362 0
M  V30 3216 H 298.436 -3.33112 1.53075 0
M  V30 3217 H 298.084 -5.02232 -0.277767 0
M  V30 3218 H 297.784 -5.72293 1.33244 0
M  V30 3219 H 299.308 -6.08755 0.474262 0
M  V30 3220 H 300.722 -5.14025 2.53873 0
M  V30 3221 H 299.119 -5.00062 3.3175 0
M  V30 3222 H 300.189 -3.58818 3.26156 0
M  V30 3223 N 301.532 -0.945985 -1.26051 0
M  V30 3224 C 302.76 -0.613025 -1.9761 0
M  V30 3225 C 303.175 0.813035 -1.70397 0
M  V30 3226 O 302.532 1.54274 -0.974979 0
M  V30 3227 C 302.583 -0.85159 -3.51326 0
M  V30 3228 O 302.304 -2.22157 -3.77595 0
M  V30 3229 C 303.805 -0.529831 -4.40122 0
M  V30 3230 H 301.025 -0.230593 -0.630133 0
M  V30 3231 H 303.569 -1.268 -1.60443 0
M  V30 3232 H 301.724 -0.243151 -3.86636 0
M  V30 3233 H 302.138 -2.2852 -4.721 0
M  V30 3234 H 303.612 -0.747348 -5.46917 0
M  V30 3235 H 304.089 0.535341 -4.35925 0
M  V30 3236 H 304.695 -1.11721 -4.10364 0
M  V30 3237 N 303.011 1.40521 -0.713556 0
M  V30 3238 C 304.427 1.54839 -0.386907 0
M  V30 3239 C 304.627 1.68532 1.1045 0
M  V30 3240 O 303.683 1.67377 1.89053 0
M  V30 3241 C 304.996 2.77792 -1.15118 0
M  V30 3242 C 306.544 2.91607 -1.13729 0
M  V30 3243 C 307.019 4.1747 -1.88368 0
M  V30 3244 N 308.51 4.24466 -1.85427 0
M  V30 3245 C 309.245 5.20755 -2.40004 0
M  V30 3246 N 308.741 6.22965 -3.03129 0
M  V30 3247 N 310.534 5.1282 -2.30158 0
M  V30 3248 H 302.685 1.29879 -1.68063 0
M  V30 3249 H 304.948 0.627896 -0.710247 0
M  V30 3250 H 304.654 2.73944 -2.20561 0
M  V30 3251 H 304.528 3.6984 -0.741477 0
M  V30 3252 H 306.915 2.94959 -0.0910608 0
M  V30 3253 H 306.996 2.00682 -1.5862 0
M  V30 3254 H 306.64 4.1488 -2.9298 0
M  V30 3255 H 306.57 5.074 -1.40898 0
M  V30 3256 H 309.061 3.51241 -1.3942 0
M  V30 3257 H 309.374 6.92859 -3.42295 0
M  V30 3258 H 307.719 6.23415 -3.07212 0
M  V30 3259 H 310.91 4.31899 -1.80501 0
M  V30 3260 H 311.083 5.87689 -2.72993 0
M  V30 3261 N 304.489 0.459591 1.5075 0
M  V30 3262 C 305.736 -0.0993495 2.02256 0
M  V30 3263 C 306.064 -1.40751 1.34237 0
M  V30 3264 O 305.319 -1.90379 0.453228 0
M  V30 3265 C 305.618 -0.342866 3.55752 0
M  V30 3266 C 305.284 0.88218 4.42186 0
M  V30 3267 C 303.946 1.21808 4.65528 0
M  V30 3268 C 306.298 1.69837 4.92752 0
M  V30 3269 C 303.626 2.37045 5.36681 0
M  V30 3270 C 305.978 2.84192 5.65171 0
M  V30 3271 C 304.642 3.1821 5.8677 0
M  V30 3272 H 303.912 -0.0363545 0.740108 0
M  V30 3273 H 306.559 0.611329 1.8148 0
M  V30 3274 H 304.864 -1.13567 3.7498 0
M  V30 3275 H 306.561 -0.789121 3.93159 0
M  V30 3276 H 303.151 0.610467 4.2423 0
M  V30 3277 H 307.335 1.45205 4.74583 0
M  V30 3278 H 302.591 2.63689 5.51614 0
M  V30 3279 H 306.765 3.4779 6.03337 0
M  V30 3280 H 304.392 4.07613 6.41682 0
M  V30 3281 N 305.967 -1.56429 0.191757 0
M  V30 3282 C 307.378 -1.83912 -0.321428 0
M  V30 3283 C 307.729 -1.11231 -1.61623 0
M  V30 3284 O 306.854 -0.37202 -2.13178 0
M  V30 3285 C 307.449 -3.33624 -0.589961 0
M  V30 3286 C 306.008 -3.6153 -1.04753 0
M  V30 3287 C 305.155 -2.7714 -0.0943327 0
M  V30 3288 H 308.106 -1.53161 0.415612 0
M  V30 3289 H 308.127 -3.52213 -1.43966 0
M  V30 3290 H 307.639 -3.86495 0.352588 0
M  V30 3291 H 305.74 -3.14089 -2.00447 0
M  V30 3292 H 305.853 -4.69737 -0.942549 0
M  V30 3293 H 304.217 -2.47638 -0.595589 0
M  V30 3294 H 305 -3.32799 0.842601 0
M  V30 3295 N 307.445 0.0818655 -1.57387 0
M  V30 3296 C 308.355 1.11642 -2.06333 0
M  V30 3297 C 309.371 1.43033 -0.99083 0
M  V30 3298 O 310.547 1.53411 -1.30488 0
M  V30 3299 C 307.612 2.41342 -2.48907 0
M  V30 3300 C 306.673 2.17014 -3.7041 0
M  V30 3301 C 305.906 3.4053 -4.10944 0
M  V30 3302 O 306.129 4.4927 -3.51444 0
M  V30 3303 O 305.063 3.29336 -5.03807 0
M  V30 3304 H 308.889 0.730657 -2.9478 0
M  V30 3305 H 306.474 0.295301 -1.46452 0
M  V30 3306 H 308.356 3.17691 -2.76858 0
M  V30 3307 H 307.031 2.79319 -1.63593 0
M  V30 3308 H 305.938 1.38403 -3.47556 0
M  V30 3309 H 307.271 1.83923 -4.56545 0
M  V30 3310 N 308.923 1.53595 0.353017 0
M  V30 3311 C 310.151 1.74311 1.1146 0
M  V30 3312 C 310.566 0.477854 1.82653 0
M  V30 3313 O 309.923 -0.549977 1.74016 0
M  V30 3314 C 309.974 2.91694 2.13534 0
M  V30 3315 O 309.695 4.13325 1.45238 0
M  V30 3316 C 311.196 3.24384 3.02142 0
M  V30 3317 H 308.416 0.582669 0.332773 0
M  V30 3318 H 310.96 2.00386 0.408107 0
M  V30 3319 H 309.115 2.67977 2.79763 0
M  V30 3320 H 309.529 4.79148 2.13349 0
M  V30 3321 H 311.003 4.09893 3.69718 0
M  V30 3322 H 311.48 2.40282 3.67643 0
M  V30 3323 H 312.086 3.50073 2.41514 0
M  V30 3324 N 310.401 -0.613514 1.45168 0
M  V30 3325 C 311.647 -1.37471 1.49096 0
M  V30 3326 C 311.98 -1.93765 0.129901 0
M  V30 3327 O 311.255 -1.74707 -0.854858 0
M  V30 3328 C 311.538 -2.52701 2.56542 0
M  V30 3329 C 311.391 -2.01643 4.0207 0
M  V30 3330 C 312.71 -3.54849 2.60327 0
M  V30 3331 H 309.829 -0.498502 0.54283 0
M  V30 3332 H 312.471 -0.692125 1.76945 0
M  V30 3333 H 310.621 -3.10931 2.32926 0
M  V30 3334 H 312.293 -1.48108 4.36877 0
M  V30 3335 H 310.536 -1.32688 4.13009 0
M  V30 3336 H 311.207 -2.84681 4.72928 0
M  V30 3337 H 313.683 -3.0645 2.81474 0
M  V30 3338 H 312.559 -4.32973 3.37381 0
M  V30 3339 H 312.82 -4.10079 1.6519 0
M  V30 3340 N 311.879 -1.3236 -0.855495 0
M  V30 3341 C 313.29 -1.2056 -1.42556 0
M  V30 3342 C 313.641 0.182209 -1.95352 0
M  V30 3343 O 312.766 1.08088 -1.87472 0
M  V30 3344 C 313.361 -2.1826 -2.59129 0
M  V30 3345 C 311.92 -2.10351 -3.12137 0
M  V30 3346 C 311.067 -2.06674 -1.84882 0
M  V30 3347 H 314.018 -1.442 -0.662727 0
M  V30 3348 H 314.039 -1.78064 -3.36264 0
M  V30 3349 H 313.551 -3.19257 -2.20673 0
M  V30 3350 H 311.652 -1.12599 -3.55179 0
M  V30 3351 H 311.765 -3.00135 -3.73438 0
M  V30 3352 H 310.129 -1.51901 -2.04446 0
M  V30 3353 H 310.912 -3.09451 -1.48643 0
M  V30 3354 N 313.357 1.07166 -1.15556 0
M  V30 3355 C 314.773 1.31899 -0.898603 0
M  V30 3356 C 314.973 1.96333 0.453383 0
M  V30 3357 O 314.029 2.22438 1.19489 0
M  V30 3358 C 315.342 2.20826 -2.04099 0
M  V30 3359 C 316.89 2.34269 -2.07574 0
M  V30 3360 C 317.365 3.26546 -3.21141 0
M  V30 3361 N 318.856 3.34127 -3.20801 0
M  V30 3362 C 319.591 4.05595 -4.05315 0
M  V30 3363 N 319.087 4.79661 -4.99897 0
M  V30 3364 N 320.88 4.01555 -3.93332 0
M  V30 3365 H 313.031 0.637302 -2.02613 0
M  V30 3366 H 315.294 0.343468 -0.883591 0
M  V30 3367 H 315 1.80744 -3.01703 0
M  V30 3368 H 314.874 3.21364 -1.97496 0
M  V30 3369 H 317.261 2.73603 -1.10568 0
M  V30 3370 H 317.342 1.33429 -2.18244 0
M  V30 3371 H 316.986 2.87931 -4.184 0
M  V30 3372 H 316.916 4.27345 -3.07708 0
M  V30 3373 H 319.407 2.81336 -2.52306 0
M  V30 3374 H 319.72 5.31694 -5.60822 0
M  V30 3375 H 318.065 4.78671 -5.03884 0
M  V30 3376 H 321.256 3.42806 -3.18751 0
M  V30 3377 H 321.429 4.56987 -4.5942 0
M  V30 3378 N 314.835 0.952656 1.25548 0
M  V30 3379 C 315.745 0.47782 2.29682 0
M  V30 3380 C 316.761 -0.453859 1.67977 0
M  V30 3381 O 317.937 -0.330587 1.98668 0
M  V30 3382 C 315.002 -0.238655 3.45878 0
M  V30 3383 C 314.063 0.730994 4.23031 0
M  V30 3384 C 313.296 0.0486165 5.33678 0
M  V30 3385 O 313.519 -1.16612 5.58353 0
M  V30 3386 O 312.453 0.733152 5.97418 0
M  V30 3387 H 316.279 1.34312 2.72386 0
M  V30 3388 H 313.864 0.719026 1.30959 0
M  V30 3389 H 315.746 -0.641774 4.16484 0
M  V30 3390 H 314.421 -1.07916 3.05181 0
M  V30 3391 H 313.328 1.18428 3.5486 0
M  V30 3392 H 314.661 1.53946 4.67506 0
M  V30 3393 N 316.313 -1.40141 0.720998 0
M  V30 3394 C 317.243 -2.33339 0.0867621 0
M  V30 3395 C 318.224 -1.53178 -0.739622 0
M  V30 3396 O 319.409 -1.81625 -0.687449 0
M  V30 3397 C 316.539 -3.37194 -0.831728 0
M  V30 3398 C 315.493 -4.27857 -0.110558 0
M  V30 3399 C 314.819 -5.22294 -1.14513 0
M  V30 3400 C 316.119 -5.11872 1.0385 0
M  V30 3401 H 317.813 -2.86626 0.865219 0
M  V30 3402 H 315.359 -1.37814 0.417516 0
M  V30 3403 H 317.312 -4.01335 -1.28485 0
M  V30 3404 H 316.036 -2.82314 -1.64214 0
M  V30 3405 H 314.695 -3.65176 0.322797 0
M  V30 3406 H 314.343 -4.63717 -1.94874 0
M  V30 3407 H 314.043 -5.83797 -0.667446 0
M  V30 3408 H 315.567 -5.89312 -1.59824 0
M  V30 3409 H 316.981 -5.69436 0.664482 0
M  V30 3410 H 315.378 -5.82445 1.4449 0
M  V30 3411 H 316.448 -4.4753 1.86668 0
M  V30 3412 N 317.792 -0.46758 -1.50504 0
M  V30 3413 C 319.038 0.0887532 -2.02606 0
M  V30 3414 C 319.371 1.39686 -1.34913 0
M  V30 3415 O 318.646 1.88644 -0.473694 0
M  V30 3416 C 318.929 0.276206 -3.59039 0
M  V30 3417 C 318.782 -1.05267 -4.37309 0
M  V30 3418 C 320.101 1.03235 -4.27821 0
M  V30 3419 H 317.22 0.0307814 -0.736357 0
M  V30 3420 H 319.862 -0.612485 -1.79857 0
M  V30 3421 H 318.012 0.8735 -3.78553 0
M  V30 3422 H 319.684 -1.68628 -4.29374 0
M  V30 3423 H 317.927 -1.65015 -4.01189 0
M  V30 3424 H 318.598 -0.875197 -5.45018 0
M  V30 3425 H 321.074 0.526111 -4.12761 0
M  V30 3426 H 319.95 1.1323 -5.37094 0
M  V30 3427 H 320.211 2.06806 -3.90748 0
M  V30 3428 N 319.27 1.56325 -0.20005 0
M  V30 3429 C 320.516 1.98012 0.438059 0
M  V30 3430 C 320.849 1.08702 1.60927 0
M  V30 3431 O 320.124 0.140064 1.93995 0
M  V30 3432 C 320.407 3.48841 0.893419 0
M  V30 3433 C 320.26 4.48928 -0.279947 0
M  V30 3434 C 321.579 4.03498 1.75719 0
M  V30 3435 H 318.698 0.719918 0.157757 0
M  V30 3436 H 321.34 1.87743 -0.291968 0
M  V30 3437 H 319.49 3.57723 1.51547 0
M  V30 3438 H 321.162 4.52079 -0.91772 0
M  V30 3439 H 319.405 4.23694 -0.930919 0
M  V30 3440 H 320.076 5.5194 0.0812601 0
M  V30 3441 H 322.552 3.97427 1.23253 0
M  V30 3442 H 321.428 5.09393 2.04476 0
M  V30 3443 H 321.689 3.4906 2.71311 0
M  V30 3444 N 320.748 -0.0735177 1.57428 0
M  V30 3445 C 322.159 -0.625551 1.75908 0
M  V30 3446 C 322.51 -1.78 0.825261 0
M  V30 3447 O 321.635 -2.16398 0.00893964 0
M  V30 3448 C 322.23 -1.14155 3.18989 0
M  V30 3449 C 320.789 -1.63946 3.38819 0
M  V30 3450 C 319.936 -0.558151 2.71625 0
M  V30 3451 H 322.887 0.152647 1.57964 0
M  V30 3452 H 322.908 -2.0104 3.23053 0
M  V30 3453 H 322.42 -0.301116 3.8693 0
M  V30 3454 H 320.521 -2.50321 2.7599 0
M  V30 3455 H 320.634 -1.71759 4.47253 0
M  V30 3456 H 318.998 -1.00278 2.34129 0
M  V30 3457 H 319.781 0.272071 3.4222 0
M  V30 3458 N 322.226 -1.5378 -0.344866 0
M  V30 3459 C 323.472 -1.71216 -1.08687 0
M  V30 3460 C 323.805 -0.473281 -1.88345 0
M  V30 3461 O 323.08 0.52968 -1.87149 0
M  V30 3462 C 323.363 -2.97486 -2.02914 0
M  V30 3463 C 323.216 -4.31579 -1.26727 0
M  V30 3464 C 324.535 -3.19422 -3.0275 0
M  V30 3465 H 321.654 -0.62301 -0.393735 0
M  V30 3466 H 324.296 -1.8645 -0.365563 0
M  V30 3467 H 322.446 -2.84629 -2.64421 0
M  V30 3468 H 324.118 -4.56284 -0.67845 0
M  V30 3469 H 322.361 -4.30049 -0.569273 0
M  V30 3470 H 323.032 -5.16106 -1.95803 0
M  V30 3471 H 325.508 -3.316 -2.51357 0
M  V30 3472 H 324.384 -4.09169 -3.65885 0
M  V30 3473 H 324.645 -2.35656 -3.74057 0
M  V30 3474 N 323.704 0.605807 -1.45491 0
M  V30 3475 C 324.667 1.69836 -1.5391 0
M  V30 3476 C 325.667 1.55261 -0.418424 0
M  V30 3477 O 326.857 1.60296 -0.681965 0
M  V30 3478 C 323.989 3.09117 -1.43734 0
M  V30 3479 H 325.182 1.63738 -2.51257 0
M  V30 3480 H 322.735 0.821689 -1.32959 0
M  V30 3481 H 323.47 3.20791 -0.475788 0
M  V30 3482 H 323.255 3.21104 -2.25021 0
M  V30 3483 H 324.745 3.88696 -1.52661 0
M  V30 3484 N 325.182 1.32811 0.848464 0
M  V30 3485 C 326.43 1.23479 1.59991 0
M  V30 3486 C 326.751 -0.201853 1.93952 0
M  V30 3487 O 326.021 -1.12818 1.60153 0
M  V30 3488 H 324.601 0.454034 0.593179 0
M  V30 3489 H 327.263 1.66412 1.01455 0
M  V30 3490 H 326.359 1.82178 2.53412 0
M  V30 3491 N 326.66 -1.06551 1.16123 0
M  V30 3492 C 327.885 -1.83544 0.965735 0
M  V30 3493 C 328.31 -1.81843 -0.481102 0
M  V30 3494 O 327.668 -1.21732 -1.34354 0
M  V30 3495 C 327.716 -3.28169 1.49457 0
M  V30 3496 O 326.82 -4.0643 0.699157 0
M  V30 3497 H 326.161 -0.568026 0.343864 0
M  V30 3498 H 328.691 -1.34362 1.54299 0
M  V30 3499 H 328.701 -3.78992 1.51092 0
M  V30 3500 H 327.376 -3.28722 2.54784 0
M  V30 3501 H 325.953 -3.65216 0.7531 0
M  V30 3502 N 328.138 -0.959301 -1.25041 0
M  V30 3503 C 329.378 -0.624343 -1.94631 0
M  V30 3504 C 329.742 0.82403 -1.73418 0
M  V30 3505 O 330.943 1.26881 -2.3697 0
M  V30 3506 C 329.214 -0.978805 -3.43736 0
M  V30 3507 S 330.773 -0.757127 -4.32219 0
M  V30 3508 H 327.591 -0.229327 -0.673001 0
M  V30 3509 H 330.193 -1.23447 -1.51595 0
M  V30 3510 H 328.897 -2.02997 -3.56679 0
M  V30 3511 H 328.428 -0.359117 -3.91757 0
M  V30 3512 H 330.443 0.369759 -4.9482 0
M  V30 3513 N 329.616 1.39756 -0.72842 0
M  V30 3514 C 330.862 2.00942 -0.273892 0
M  V30 3515 C 331.195 1.57656 1.13394 0
M  V30 3516 O 330.47 0.802434 1.77176 0
M  V30 3517 C 330.753 3.58211 -0.368346 0
M  V30 3518 C 330.606 4.11534 -1.81548 0
M  V30 3519 C 331.925 4.39372 0.253054 0
M  V30 3520 H 329.044 0.730047 -0.100996 0
M  V30 3521 H 331.686 1.66056 -0.923337 0
M  V30 3522 H 329.836 3.88061 0.184588 0
M  V30 3523 H 331.508 3.92431 -2.42478 0
M  V30 3524 H 329.751 3.65341 -2.33898 0
M  V30 3525 H 330.422 5.20682 -1.83288 0
M  V30 3526 H 332.898 4.15527 -0.218224 0
M  V30 3527 H 331.774 5.48677 0.156585 0
M  V30 3528 H 332.035 4.21358 1.33826 0
M  V30 3529 N 331.094 0.475555 1.50254 0
M  V30 3530 C 332.34 -0.0780073 2.0265 0
M  V30 3531 C 332.673 -1.38968 1.35652 0
M  V30 3532 O 331.948 -1.8839 0.483691 0
M  V30 3533 C 332.231 -0.257161 3.59181 0
M  V30 3534 C 332.084 1.07585 4.36744 0
M  V30 3535 C 333.403 -1.00965 4.28362 0
M  V30 3536 H 330.522 -0.0268758 0.73651 0
M  V30 3537 H 333.164 0.622015 1.7953 0
M  V30 3538 H 331.314 -0.853412 3.79011 0
M  V30 3539 H 332.986 1.70902 4.28474 0
M  V30 3540 H 331.229 1.6714 4.00308 0
M  V30 3541 H 331.9 0.904088 5.44546 0
M  V30 3542 H 334.376 -0.504214 4.13034 0
M  V30 3543 H 333.252 -1.10381 5.37687 0
M  V30 3544 H 333.513 -2.04731 3.91839 0
M  V30 3545 N 332.573 -1.56217 0.208337 0
M  V30 3546 C 333.85 -1.89739 -0.475234 0
M  V30 3547 C 334.23 -1.1238 -1.78701 0
M  V30 3548 O 333.578 -0.228979 -2.2735 0
M  V30 3549 C 333.788 -3.42289 -0.681101 0
M  V30 3550 C 335.136 -4.12789 -0.994507 0
M  V30 3551 O 336.16 -3.47814 -0.768357 0
M  V30 3552 O 335.019 -5.27649 -1.42299 0
M  V30 3553 H 332.113 -0.788478 -0.249461 0
M  V30 3554 H 334.659 -1.67855 0.249538 0
M  V30 3555 H 333.431 -3.90534 0.244722 0
M  V30 3556 H 333.054 -3.69909 -1.45785 0
M  V30 3557 N 334.051 0.0651679 -1.57465 0
M  V30 3558 C 335.014 1.06117 -2.03155 0
M  V30 3559 C 336.014 1.31204 -0.929632 0
M  V30 3560 O 337.204 1.26813 -1.19432 0
M  V30 3561 C 334.336 2.4032 -2.41783 0
M  V30 3562 H 335.529 0.667231 -2.92383 0
M  V30 3563 H 333.082 0.311075 -1.53173 0
M  V30 3564 H 333.817 2.84532 -1.55601 0
M  V30 3565 H 333.602 2.23451 -3.22199 0
M  V30 3566 H 335.092 3.11898 -2.77685 0
M  V30 3567 N 335.529 1.53961 0.336706 0
M  V30 3568 C 336.775 1.7179 1.07777 0
M  V30 3569 C 337.108 0.483263 1.88091 0
M  V30 3570 O 336.383 -0.519747 1.87427 0
M  V30 3571 C 336.666 2.98558 2.01334 0
M  V30 3572 C 336.519 4.32245 1.24437 0
M  V30 3573 C 337.838 3.21023 3.01052 0
M  V30 3574 H 334.957 0.625089 0.390426 0
M  V30 3575 H 337.599 1.86641 0.35567 0
M  V30 3576 H 335.749 2.86028 2.62908 0
M  V30 3577 H 337.421 4.56637 0.654243 0
M  V30 3578 H 335.664 4.30344 0.546458 0
M  V30 3579 H 336.335 5.17137 1.93063 0
M  V30 3580 H 338.811 3.32929 2.49595 0
M  V30 3581 H 337.687 4.11104 3.6371 0
M  V30 3582 H 337.948 2.37637 3.72802 0
M  V30 3583 N 337.007 -0.598083 1.45811 0
M  V30 3584 C 338.418 -1.18011 1.44673 0
M  V30 3585 C 338.769 -1.95378 0.179364 0
M  V30 3586 O 337.894 -2.04124 -0.718509 0
M  V30 3587 C 338.489 -2.14677 2.62105 0
M  V30 3588 C 337.048 -2.68236 2.64057 0
M  V30 3589 C 336.195 -1.43816 2.37091 0
M  V30 3590 H 339.146 -0.38686 1.53913 0
M  V30 3591 H 339.167 -2.97878 2.36746 0
M  V30 3592 H 338.679 -1.5834 3.5433 0
M  V30 3593 H 336.78 -3.28486 1.75864 0
M  V30 3594 H 336.893 -3.12021 3.63566 0
M  V30 3595 H 335.257 -1.731 1.86838 0
M  V30 3596 H 336.04 -0.893333 3.31473 0
M  V30 3597 N 338.485 -1.33259 -0.841409 0
M  V30 3598 C 339.448 -1.23221 -1.9326 0
M  V30 3599 C 340.448 -0.151895 -1.60081 0
M  V30 3600 O 341.638 -0.403246 -1.69468 0
M  V30 3601 C 338.77 -0.898123 -3.28856 0
M  V30 3602 H 339.963 -2.2021 -2.03587 0
M  V30 3603 H 337.516 -1.17281 -1.03319 0
M  V30 3604 H 338.251 0.0693841 -3.24226 0
M  V30 3605 H 338.036 -1.67934 -3.54317 0
M  V30 3606 H 339.526 -0.852563 -4.08805 0
M  V30 3607 N 339.963 1.05934 -1.16686 0
M  V30 3608 C 341.374 1.60263 -0.957745 0
M  V30 3609 C 341.725 1.89789 0.49745 0
M  V30 3610 O 340.85 1.67401 1.37135 0
M  V30 3611 C 341.445 2.91172 -1.73218 0
M  V30 3612 C 340.004 3.42188 -1.56794 0
M  V30 3613 C 339.151 2.16028 -1.73859 0
M  V30 3614 H 342.102 0.888392 -1.31504 0
M  V30 3615 H 342.123 3.60744 -1.21014 0
M  V30 3616 H 341.635 2.6965 -2.79124 0
M  V30 3617 H 339.736 3.68762 -0.533437 0
M  V30 3618 H 339.849 4.17273 -2.35414 0
M  V30 3619 H 338.213 2.26426 -1.16633 0
M  V30 3620 H 338.996 1.96985 -2.81161 0
M  V30 3621 N 341.441 0.965919 1.2453 0
M  V30 3622 C 342.689 0.625593 1.92174 0
M  V30 3623 C 343.01 -0.841652 1.75901 0
M  V30 3624 O 342.28 -1.60061 1.12948 0
M  V30 3625 H 340.86 0.228388 0.71123 0
M  V30 3626 H 343.522 1.2266 1.51461 0
M  V30 3627 H 342.618 0.864653 2.99884 0
M  V30 3628 N 342.919 -1.39368 0.735821 0
M  V30 3629 C 344.33 -1.83313 0.354015 0
M  V30 3630 C 344.681 -1.61461 -1.11466 0
M  V30 3631 O 343.806 -1.10621 -1.85989 0
M  V30 3632 C 344.401 -3.32781 0.635769 0
M  V30 3633 C 342.96 -3.75142 0.307448 0
M  V30 3634 C 342.107 -2.62358 0.897974 0
M  V30 3635 H 345.058 -1.28349 0.933398 0
M  V30 3636 H 345.079 -3.80388 -0.0921773 0
M  V30 3637 H 344.591 -3.48654 1.70476 0
M  V30 3638 H 342.692 -3.64857 -0.755674 0
M  V30 3639 H 342.805 -4.72532 0.790583 0
M  V30 3640 H 341.169 -2.52624 0.324551 0
M  V30 3641 H 341.952 -2.81036 1.97164 0
M  V30 3642 N 344.397 -0.483516 -1.5 0
M  V30 3643 C 345.622 0.0667119 -2.07293 0
M  V30 3644 C 346.047 1.3164 -1.3436 0
M  V30 3645 O 345.405 1.76945 -0.394987 0
M  V30 3646 C 345.453 0.321126 -3.59167 0
M  V30 3647 O 344.557 1.39927 -3.87936 0
M  V30 3648 H 343.898 -0.0184758 -0.663743 0
M  V30 3649 H 346.428 -0.678125 -1.93035 0
M  V30 3650 H 346.438 0.557906 -4.04168 0
M  V30 3651 H 345.113 -0.592007 -4.11665 0
M  V30 3652 H 343.69 1.14882 -3.54763 0
M  V30 3653 N 345.875 1.56104 -0.216619 0
M  V30 3654 C 347.286 1.844 0.292128 0
M  V30 3655 C 347.637 1.13788 1.59833 0
M  V30 3656 O 346.762 0.405888 2.12559 0
M  V30 3657 C 347.357 3.3452 0.53681 0
M  V30 3658 C 345.916 3.63151 0.989876 0
M  V30 3659 C 345.063 2.77255 0.0502302 0
M  V30 3660 H 348.014 1.52481 -0.439926 0
M  V30 3661 H 348.035 3.54459 1.38345 0
M  V30 3662 H 347.547 3.85885 -0.414031 0
M  V30 3663 H 345.648 3.17238 1.95425 0
M  V30 3664 H 345.761 4.71177 0.867698 0
M  V30 3665 H 344.125 2.48555 0.556117 0
M  V30 3666 H 344.908 3.31416 -0.89544 0
M  V30 3667 N 347.353 -0.0568162 1.57498 0
M  V30 3668 C 348.578 -0.769402 1.92601 0
M  V30 3669 C 349.003 -1.69559 0.814336 0
M  V30 3670 O 348.361 -1.79811 -0.231903 0
M  V30 3671 C 348.409 -1.52634 3.26704 0
M  V30 3672 O 347.513 -2.63797 3.16994 0
M  V30 3673 H 346.854 -0.208909 0.63028 0
M  V30 3674 H 349.384 -0.0205798 2.0459 0
M  V30 3675 H 349.394 -1.90234 3.60936 0
M  V30 3676 H 348.069 -0.846875 4.07186 0
M  V30 3677 H 346.646 -2.28943 2.94346 0
M  V30 3678 N 348.832 -1.54138 -0.328536 0
M  V30 3679 C 349.762 -1.86167 -1.40939 0
M  V30 3680 C 350.743 -0.718044 -1.54202 0
M  V30 3681 O 351.928 -0.971328 -1.68163 0
M  V30 3682 C 349.058 -2.08461 -2.77779 0
M  V30 3683 C 348.012 -3.24299 -2.7931 0
M  V30 3684 C 347.338 -3.31955 -4.19178 0
M  V30 3685 C 348.638 -4.62065 -2.43502 0
M  V30 3686 H 350.332 -2.76689 -1.14383 0
M  V30 3687 H 347.878 -1.33132 -0.548806 0
M  V30 3688 H 349.831 -2.29453 -3.53454 0
M  V30 3689 H 348.555 -1.14684 -3.05802 0
M  V30 3690 H 347.214 -3.03187 -2.0609 0
M  V30 3691 H 346.862 -2.35745 -4.44335 0
M  V30 3692 H 346.562 -4.09805 -4.2111 0
M  V30 3693 H 348.086 -3.55175 -4.96672 0
M  V30 3694 H 349.5 -4.8297 -3.08889 0
M  V30 3695 H 347.897 -5.42429 -2.56693 0
M  V30 3696 H 348.967 -4.64652 -1.38659 0
M  V30 3697 N 350.31 0.590341 -1.46126 0
M  V30 3698 C 351.54 1.37304 -1.54373 0
M  V30 3699 C 351.948 1.88332 -0.181071 0
M  V30 3700 O 351.291 1.63852 0.830559 0
M  V30 3701 C 351.353 2.6012 -2.48149 0
M  V30 3702 C 351.017 2.30613 -3.94546 0
M  V30 3703 C 352.014 1.89915 -4.83971 0
M  V30 3704 C 349.699 2.42993 -4.39613 0
M  V30 3705 C 351.693 1.61981 -6.16475 0
M  V30 3706 C 349.38 2.14672 -5.72153 0
M  V30 3707 C 350.378 1.7423 -6.60404 0
M  V30 3708 O 350.066 1.46251 -7.90485 0
M  V30 3709 H 349.798 0.426086 -0.524811 0
M  V30 3710 H 352.352 0.72539 -1.92165 0
M  V30 3711 H 350.582 3.27664 -2.05361 0
M  V30 3712 H 352.271 3.22182 -2.46887 0
M  V30 3713 H 353.037 1.79872 -4.50412 0
M  V30 3714 H 348.916 2.73435 -3.71153 0
M  V30 3715 H 352.46 1.30341 -6.85315 0
M  V30 3716 H 348.357 2.24337 -6.05263 0
M  V30 3717 H 349.125 1.6016 -8.02677 0
M  V30 3718 N 351.788 1.33704 0.83433 0
M  V30 3719 C 353.028 1.26754 1.60352 0
M  V30 3720 C 353.392 -0.163182 1.91305 0
M  V30 3721 O 354.593 -0.3567 2.66423 0
M  V30 3722 C 352.864 2.12262 2.8754 0
M  V30 3723 S 354.423 2.22549 3.78176 0
M  V30 3724 H 351.241 0.450879 0.549753 0
M  V30 3725 H 353.843 1.68788 0.986444 0
M  V30 3726 H 352.547 3.15238 2.62779 0
M  V30 3727 H 352.078 1.71082 3.54252 0
M  V30 3728 H 354.093 1.3899 4.76336 0
M  V30 3729 N 353.266 -1.05314 1.17247 0
M  V30 3730 C 354.682 -1.30452 0.919473 0
M  V30 3731 C 354.882 -1.9703 -0.42209 0
M  V30 3732 O 353.938 -2.24311 -1.15935 0
M  V30 3733 C 355.251 -2.17551 2.07586 0
M  V30 3734 C 356.799 -2.30937 2.11275 0
M  V30 3735 C 357.274 -3.21396 3.26296 0
M  V30 3736 N 358.765 -3.28981 3.26076 0
M  V30 3737 C 359.5 -3.99095 4.11716 0
M  V30 3738 N 358.996 -4.71648 5.07465 0
M  V30 3739 N 360.789 -3.95247 3.9967 0
M  V30 3740 H 352.94 -0.604988 2.03602 0
M  V30 3741 H 355.203 -0.329368 0.888944 0
M  V30 3742 H 354.909 -1.75921 3.0454 0
M  V30 3743 H 354.783 -3.18182 2.02584 0
M  V30 3744 H 357.17 -2.71809 1.14907 0
M  V30 3745 H 357.251 -1.2994 2.20339 0
M  V30 3746 H 356.895 -2.81238 4.22927 0
M  V30 3747 H 356.825 -4.22395 3.14467 0
M  V30 3748 H 359.316 -2.77286 2.5675 0
M  V30 3749 H 359.629 -5.22705 5.6921 0
M  V30 3750 H 357.974 -4.70594 5.11435 0
M  V30 3751 H 361.165 -3.37691 3.24164 0
M  V30 3752 H 361.338 -4.4962 4.66632 0
M  V30 3753 N 354.744 -0.972509 -1.24016 0
M  V30 3754 C 355.654 -0.5143 -2.28893 0
M  V30 3755 C 356.67 0.427078 -1.68677 0
M  V30 3756 O 357.846 0.298939 -1.99169 0
M  V30 3757 C 354.911 0.183598 -3.46214 0
M  V30 3758 C 353.972 -0.798202 -4.21814 0
M  V30 3759 C 353.205 -0.133514 -5.33533 0
M  V30 3760 O 353.428 1.07714 -5.60137 0
M  V30 3761 O 352.362 -0.828103 -5.96176 0
M  V30 3762 H 356.188 -1.38629 -2.70214 0
M  V30 3763 H 353.773 -0.739769 -1.29799 0
M  V30 3764 H 355.655 0.575433 -4.17453 0
M  V30 3765 H 354.33 1.03048 -3.0686 0
M  V30 3766 H 353.237 -1.24059 -3.52931 0
M  V30 3767 H 354.57 -1.61364 -4.64997 0
M  V30 3768 N 356.222 1.38976 -0.743202 0
M  V30 3769 C 357.499 1.94351 -0.220705 0
M  V30 3770 C 357.879 1.67935 1.2791 0
M  V30 3771 O 357.227 1.01211 2.04862 0
M  V30 3772 C 357.437 3.44426 -0.563171 0
M  V30 3773 C 358.785 4.2144 -0.517046 0
M  V30 3774 O 359.809 3.52661 -0.500846 0
M  V30 3775 O 358.668 5.44032 -0.518806 0
M  V30 3776 H 355.762 0.825879 -0.043047 0
M  V30 3777 H 358.308 1.48429 -0.822618 0
M  V30 3778 H 357.08 3.5712 -1.59941 0
M  V30 3779 H 356.703 3.97543 0.0672883 0
M  V30 3780 N 357.7 0.491464 1.49741 0
M  V30 3781 C 358.948 -0.0563141 2.02022 0
M  V30 3782 C 359.269 -1.38363 1.37407 0
M  V30 3783 O 358.539 -1.88702 0.526166 0
M  V30 3784 H 357.119 -0.0238014 0.746621 0
M  V30 3785 H 359.781 0.646533 1.83864 0
M  V30 3786 H 358.877 -0.192967 3.11503 0
M  V30 3787 N 359.178 -1.55987 0.224894 0
M  V30 3788 C 360.11 -2.17722 -0.716224 0
M  V30 3789 C 361.123 -1.14723 -1.15509 0
M  V30 3790 O 362.312 -1.41688 -1.08567 0
M  V30 3791 C 359.412 -2.74873 -1.98238 0
M  V30 3792 C 358.585 -4.03074 -1.69853 0
M  V30 3793 C 357.644 -4.44757 -2.81208 0
M  V30 3794 O 356.67 -5.11587 -2.49534 0
M  V30 3795 N 357.872 -4.10716 -4.10235 0
M  V30 3796 H 360.637 -2.99109 -0.188123 0
M  V30 3797 H 358.198 -1.6184 0.0440123 0
M  V30 3798 H 360.19 -2.99727 -2.7193 0
M  V30 3799 H 358.76 -1.9777 -2.42086 0
M  V30 3800 H 357.98 -3.86041 -0.797875 0
M  V30 3801 H 359.268 -4.86701 -1.48324 0
M  V30 3802 H 358.666 -3.57019 -4.38809 0
M  V30 3803 H 357.223 -4.40455 -4.80461 0
M  V30 3804 N 360.656 0.0484629 -1.57525 0
M  V30 3805 C 361.902 0.738854 -1.89506 0
M  V30 3806 C 362.257 1.73989 -0.821319 0
M  V30 3807 O 361.55 1.90825 0.172129 0
M  V30 3808 C 361.744 1.46632 -3.25935 0
M  V30 3809 C 361.573 0.537254 -4.46479 0
M  V30 3810 C 360.343 0.165484 -5.05029 0
M  V30 3811 C 362.541 -0.176085 -5.13998 0
M  V30 3812 N 360.523 -0.766868 -6.09091 0
M  V30 3813 C 361.894 -0.96478 -6.12448 0
M  V30 3814 C 363.949 -0.24509 -4.97296 0
M  V30 3815 C 362.652 -1.8161 -6.95996 0
M  V30 3816 C 364.678 -1.08347 -5.81391 0
M  V30 3817 C 364.04 -1.86014 -6.79395 0
M  V30 3818 H 360.139 0.245067 -0.742608 0
M  V30 3819 H 362.723 -0.000476161 -1.947 0
M  V30 3820 H 360.894 2.17623 -3.21706 0
M  V30 3821 H 362.626 2.10757 -3.45491 0
M  V30 3822 H 359.381 0.523466 -4.70698 0
M  V30 3823 H 359.805 -1.22698 -6.65788 0
M  V30 3824 H 364.447 0.341063 -4.21422 0
M  V30 3825 H 362.165 -2.41313 -7.71229 0
M  V30 3826 H 365.751 -1.14014 -5.70519 0
M  V30 3827 H 364.631 -2.4984 -7.43337 0
M  V30 3828 N 362.134 1.5431 0.320358 0
M  V30 3829 C 363.097 1.83195 1.3774 0
M  V30 3830 C 364.097 0.703906 1.44575 0
M  V30 3831 O 365.287 0.972214 1.44546 0
M  V30 3832 C 362.419 1.99487 2.76438 0
M  V30 3833 H 363.612 2.77642 1.1338 0
M  V30 3834 H 361.165 1.46076 0.556012 0
M  V30 3835 H 361.9 1.07262 3.06048 0
M  V30 3836 H 361.685 2.81575 2.7287 0
M  V30 3837 H 363.175 2.23271 3.52902 0
M  V30 3838 N 363.613 -0.582584 1.46437 0
M  V30 3839 C 364.523 -1.71949 1.59595 0
M  V30 3840 C 365.539 -1.67264 0.479443 0
M  V30 3841 O 366.715 -1.87171 0.743579 0
M  V30 3842 C 363.78 -3.08452 1.58298 0
M  V30 3843 C 362.841 -3.244 2.81182 0
M  V30 3844 C 362.074 -4.54391 2.79937 0
M  V30 3845 O 362.297 -5.38287 1.8869 0
M  V30 3846 O 361.231 -4.73588 3.71481 0
M  V30 3847 H 365.057 -1.63795 2.55744 0
M  V30 3848 H 362.642 -0.749643 1.29231 0
M  V30 3849 H 364.524 -3.89732 1.60271 0
M  V30 3850 H 363.199 -3.17043 0.653094 0
M  V30 3851 H 362.106 -2.42613 2.84763 0
M  V30 3852 H 363.439 -3.20699 3.7338 0
M  V30 3853 N 365.091 -1.34144 -0.827227 0
M  V30 3854 C 366.023 -1.21206 -1.9453 0
M  V30 3855 C 367.036 -0.140176 -1.62195 0
M  V30 3856 O 368.225 -0.391647 -1.7415 0
M  V30 3857 C 365.325 -0.839141 -3.28347 0
M  V30 3858 C 364.498 -2.0051 -3.88734 0
M  V30 3859 C 363.557 -1.61128 -5.00923 0
M  V30 3860 O 362.583 -2.32726 -5.19449 0
M  V30 3861 N 363.785 -0.522958 -5.7814 0
M  V30 3862 H 366.55 -2.17525 -2.06162 0
M  V30 3863 H 364.111 -1.27043 -1.00358 0
M  V30 3864 H 366.103 -0.557556 -4.00841 0
M  V30 3865 H 364.673 0.0337293 -3.12582 0
M  V30 3866 H 363.893 -2.45166 -3.08686 0
M  V30 3867 H 365.181 -2.78498 -4.25812 0
M  V30 3868 H 364.579 0.0723518 -5.65654 0
M  V30 3869 H 363.136 -0.301089 -6.51104 0
M  V30 3870 N 366.569 1.04691 -1.17803 0
M  V30 3871 C 367.98 1.59238 -0.974689 0
M  V30 3872 C 368.331 1.90306 0.477292 0
M  V30 3873 O 367.456 1.68846 1.35352 0
M  V30 3874 C 368.051 2.89318 -1.76296 0
M  V30 3875 C 366.61 3.40506 -1.60414 0
M  V30 3876 C 365.757 2.14172 -1.76141 0
M  V30 3877 H 368.708 0.874395 -1.32439 0
M  V30 3878 H 368.729 3.5944 -1.24833 0
M  V30 3879 H 368.241 2.66675 -2.81968 0
M  V30 3880 H 366.342 3.68175 -0.572519 0
M  V30 3881 H 366.455 4.14753 -2.39827 0
M  V30 3882 H 364.819 2.25176 -1.19028 0
M  V30 3883 H 365.602 1.93992 -2.83235 0
M  V30 3884 N 368.047 0.979072 1.23499 0
M  V30 3885 C 369.293 0.648178 1.92163 0
M  V30 3886 C 369.626 -0.816049 1.76222 0
M  V30 3887 O 368.901 -1.58849 1.12237 0
M  V30 3888 C 369.184 1.03773 3.44824 0
M  V30 3889 C 369.037 2.55948 3.69879 0
M  V30 3890 C 370.356 0.580653 4.36253 0
M  V30 3891 H 367.475 0.236952 0.69787 0
M  V30 3892 H 370.117 1.22012 1.45647 0
M  V30 3893 H 368.267 0.551058 3.84572 0
M  V30 3894 H 369.939 3.12179 3.3962 0
M  V30 3895 H 368.182 2.98641 3.14636 0
M  V30 3896 H 368.853 2.78255 4.76737 0
M  V30 3897 H 371.329 0.998465 4.03943 0
M  V30 3898 H 370.205 0.881663 5.41773 0
M  V30 3899 H 370.466 -0.519052 4.39042 0
M  V30 3900 N 369.525 -1.3858 0.750561 0
M  V30 3901 C 370.753 -2.04471 0.316098 0
M  V30 3902 C 371.168 -1.56606 -1.05452 0
M  V30 3903 O 370.525 -0.737784 -1.66922 0
M  V30 3904 C 370.576 -3.60025 0.326275 0
M  V30 3905 O 370.297 -4.06133 1.6428 0
M  V30 3906 C 371.798 -4.43131 -0.122429 0
M  V30 3907 H 369.018 -0.65717 0.135528 0
M  V30 3908 H 371.562 -1.77329 1.01857 0
M  V30 3909 H 369.717 -3.86014 -0.327431 0
M  V30 3910 H 370.131 -5.00547 1.56693 0
M  V30 3911 H 371.605 -5.51963 -0.0641473 0
M  V30 3912 H 372.082 -4.23333 -1.16988 0
M  V30 3913 H 372.688 -4.22323 0.50229 0
M  V30 3914 N 371.003 -0.499398 -1.49478 0
M  V30 3915 C 372.251 0.0455996 -2.02049 0
M  V30 3916 C 372.572 1.37633 -1.38138 0
M  V30 3917 O 371.842 1.8842 -0.536166 0
M  V30 3918 H 370.422 0.0198416 -0.746736 0
M  V30 3919 H 373.084 -0.656274 -1.83519 0
M  V30 3920 H 372.18 0.176445 -3.11601 0
M  V30 3921 N 372.481 1.55866 -0.233164 0
M  V30 3922 C 373.721 2.00506 0.397078 0
M  V30 3923 C 374.085 1.1176 1.56121 0
M  V30 3924 O 375.286 1.45796 2.25825 0
M  V30 3925 C 373.557 3.4811 0.809601 0
M  V30 3926 S 375.116 4.14765 1.43231 0
M  V30 3927 H 371.934 0.699828 0.125547 0
M  V30 3928 H 374.536 1.92429 -0.345177 0
M  V30 3929 H 373.24 4.10373 -0.0471601 0
M  V30 3930 H 372.771 3.60085 1.58438 0
M  V30 3931 H 374.786 4.14914 2.7214 0
M  V30 3932 N 373.959 -0.0401083 1.57549 0
M  V30 3933 C 375.184 -0.748931 1.93406 0
M  V30 3934 C 375.609 -1.68686 0.832274 0
M  V30 3935 O 374.967 -1.80047 -0.212818 0
M  V30 3936 C 375.015 -1.4916 3.28304 0
M  V30 3937 O 374.119 -2.6042 3.19774 0
M  V30 3938 H 373.46 -0.202212 0.63246 0
M  V30 3939 H 375.99 0.00112086 2.046 0
M  V30 3940 H 376 -1.86395 3.62934 0
M  V30 3941 H 374.675 -0.80364 4.08062 0
M  V30 3942 H 373.252 -2.25808 2.96758 0
M  V30 3943 N 375.437 -1.54477 -0.31217 0
M  V30 3944 C 376.677 -1.74958 -1.05684 0
M  V30 3945 C 377.041 -0.518414 -1.84869 0
M  V30 3946 O 378.242 -0.600759 -2.62001 0
M  V30 3947 C 376.513 -2.99656 -1.94785 0
M  V30 3948 S 378.072 -3.4109 -2.76049 0
M  V30 3949 H 374.89 -0.615104 -0.356606 0
M  V30 3950 H 377.492 -1.92669 -0.331514 0
M  V30 3951 H 376.196 -3.87397 -1.35468 0
M  V30 3952 H 375.727 -2.845 -2.71704 0
M  V30 3953 H 377.742 -2.97283 -3.97287 0
M  V30 3954 N 376.915 0.57481 -1.46744 0
M  V30 3955 C 377.878 1.66533 -1.57478 0
M  V30 3956 C 378.878 1.54338 -0.451263 0
M  V30 3957 O 380.068 1.58814 -0.715813 0
M  V30 3958 C 377.2 3.05999 -1.50259 0
M  V30 3959 H 378.393 1.58372 -2.54673 0
M  V30 3960 H 375.946 0.793301 -1.34672 0
M  V30 3961 H 376.681 3.19709 -0.543725 0
M  V30 3962 H 376.466 3.16259 -2.31781 0
M  V30 3963 H 377.956 3.8537 -1.60872 0
M  V30 3964 N 378.394 1.34581 0.820102 0
M  V30 3965 C 379.805 1.24298 1.39309 0
M  V30 3966 C 380.156 -0.130351 1.95767 0
M  V30 3967 O 379.281 -1.0308 1.90272 0
M  V30 3968 C 379.876 2.25054 2.53251 0
M  V30 3969 C 378.435 2.18552 3.0645 0
M  V30 3970 C 377.582 2.11503 1.79337 0
M  V30 3971 H 380.533 1.45906 0.624262 0
M  V30 3972 H 380.554 1.86917 3.31425 0
M  V30 3973 H 380.066 3.24996 2.1213 0
M  V30 3974 H 378.167 1.21976 3.52069 0
M  V30 3975 H 378.28 3.0993 3.65349 0
M  V30 3976 H 376.644 1.57268 2.00347 0
M  V30 3977 H 377.427 3.13284 1.40386 0
M  V30 3978 N 379.872 -1.04064 1.18357 0
M  V30 3979 C 381.12 -1.76915 0.977013 0
M  V30 3980 C 381.441 -1.88624 -0.494577 0
M  V30 3981 O 380.711 -1.41125 -1.3587 0
M  V30 3982 H 379.291 -0.65535 0.358504 0
M  V30 3983 H 381.953 -1.25592 1.49039 0
M  V30 3984 H 381.049 -2.78178 1.41504 0
M  V30 3985 N 381.35 -0.985608 -1.22978 0
M  V30 3986 C 382.597 -0.657386 -1.91532 0
M  V30 3987 C 382.925 0.809707 -1.76845 0
M  V30 3988 O 382.18 1.60021 -1.12658 0
M  V30 3989 C 382.479 -1.00014 -3.43121 0
M  V30 3990 C 382.145 -2.4583 -3.77993 0
M  V30 3991 C 380.807 -2.85679 -3.87222 0
M  V30 3992 C 383.159 -3.40378 -3.94705 0
M  V30 3993 C 380.487 -4.19081 -4.10595 0
M  V30 3994 C 382.839 -4.73429 -4.1958 0
M  V30 3995 C 381.503 -5.1303 -4.27032 0
M  V30 3996 H 380.773 -0.240555 -0.700867 0
M  V30 3997 H 383.42 -1.24044 -1.45895 0
M  V30 3998 H 381.725 -0.335072 -3.90365 0
M  V30 3999 H 383.422 -0.724322 -3.94404 0
M  V30 4000 H 380.012 -2.13939 -3.71387 0
M  V30 4001 H 384.196 -3.10766 -3.8696 0
M  V30 4002 H 379.452 -4.49362 -4.14589 0
M  V30 4003 H 383.626 -5.46644 -4.31455 0
M  V30 4004 H 381.253 -6.16418 -4.44896 0
M  V30 4005 N 382.828 1.3818 -0.7579 0
M  V30 4006 C 383.738 2.3421 -0.135247 0
M  V30 4007 C 384.754 1.59487 0.695683 0
M  V30 4008 O 385.93 1.91657 0.618832 0
M  V30 4009 C 382.995 3.3862 0.744139 0
M  V30 4010 C 382.056 4.2918 -0.101658 0
M  V30 4011 C 381.289 5.28603 0.735851 0
M  V30 4012 O 381.512 5.35166 1.97366 0
M  V30 4013 O 380.446 6.01707 0.152372 0
M  V30 4014 H 384.272 2.8916 -0.928436 0
M  V30 4015 H 381.857 1.40101 -0.518855 0
M  V30 4016 H 383.739 4.02539 1.2466 0
M  V30 4017 H 382.414 2.86019 1.51575 0
M  V30 4018 H 381.321 3.68407 -0.650167 0
M  V30 4019 H 382.654 4.85048 -0.836024 0
M  V30 4020 N 384.306 0.507319 1.49211 0
M  V30 4021 C 385.269 -0.256763 2.27757 0
M  V30 4022 C 386.269 -0.888287 1.34038 0
M  V30 4023 O 387.459 -0.751841 1.5714 0
M  V30 4024 C 384.591 -1.36905 3.12202 0
M  V30 4025 H 385.784 0.432557 2.96764 0
M  V30 4026 H 383.337 0.262488 1.5408 0
M  V30 4027 H 384.072 -2.09233 2.47775 0
M  V30 4028 H 383.857 -0.921599 3.81115 0
M  V30 4029 H 385.347 -1.9071 3.7151 0
M  V30 4030 N 385.784 -1.5574 0.241426 0
M  V30 4031 C 386.747 -2.19877 -0.647063 0
M  V30 4032 C 387.747 -1.16642 -1.10686 0
M  V30 4033 O 388.937 -1.41757 -1.01245 0
M  V30 4034 C 386.069 -2.83797 -1.88871 0
M  V30 4035 H 387.262 -2.99772 -0.087574 0
M  V30 4036 H 384.815 -1.56298 -0.00813574 0
M  V30 4037 H 385.55 -2.07824 -2.48957 0
M  V30 4038 H 385.335 -3.59414 -1.56728 0
M  V30 4039 H 386.825 -3.32898 -2.52129 0
M  V30 4040 N 387.262 0.0317525 -1.57568 0
M  V30 4041 C 388.172 1.05021 -2.0978 0
M  V30 4042 C 389.188 1.39809 -1.03583 0
M  V30 4043 O 390.364 1.49182 -1.35302 0
M  V30 4044 C 387.429 2.33301 -2.56459 0
M  V30 4045 C 386.49 2.0512 -3.77127 0
M  V30 4046 C 385.723 3.27283 -4.2157 0
M  V30 4047 O 385.946 4.37861 -3.65559 0
M  V30 4048 O 384.88 3.13141 -5.14029 0
M  V30 4049 H 388.706 0.636505 -2.96955 0
M  V30 4050 H 386.291 0.248559 -1.47318 0
M  V30 4051 H 388.173 3.08722 -2.86825 0
M  V30 4052 H 386.848 2.73973 -1.72397 0
M  V30 4053 H 385.755 1.27276 -3.51784 0
M  V30 4054 H 387.088 1.69305 -4.62165 0
M  V30 4055 N 388.74 1.54641 0.303973 0
M  V30 4056 C 389.988 1.73437 1.0375 0
M  V30 4057 C 390.309 0.521449 1.87899 0
M  V30 4058 O 389.579 -0.46432 1.90318 0
M  V30 4059 H 388.159 0.639518 0.386039 0
M  V30 4060 H 390.821 1.91988 0.335675 0
M  V30 4061 H 389.917 2.62235 1.69231 0
M  V30 4062 N 390.218 -0.567019 1.47046 0
M  V30 4063 C 391.166 -1.69593 1.59188 0
M  V30 4064 C 392.16 -1.63046 0.459609 0
M  V30 4065 O 393.366 -1.6835 0.637058 0
M  V30 4066 H 389.741 -0.560993 0.500791 0
M  V30 4067 H 391.712 -1.56488 2.54075 0
M  V30 4068 C 390.461 -3.07964 1.61411 0
M  V30 4069 H 389.784 -3.13679 2.47881 0
M  V30 4070 H 391.224 -3.86671 1.73958 0
M  V30 4071 C 389.683 -3.35123 0.34559 0
M  V30 4072 O 390.213 -3.97812 -0.557521 0
M  V30 4073 N 388.419 -2.89699 0.22864 0
M  V30 4074 H 387.966 -2.38863 0.964479 0
M  V30 4075 H 387.924 -3.08242 -0.619192 0
M  V30 4076 N 391.696 -1.35014 -0.812953 0
M  V30 4077 C 392.924 -1.31031 -1.6012 0
M  V30 4078 C 393.339 0.113558 -1.88458 0
M  V30 4079 O 392.696 1.06363 -1.48301 0
M  V30 4080 C 392.747 -2.10872 -2.93624 0
M  V30 4081 O 392.468 -3.47706 -2.66518 0
M  V30 4082 C 393.969 -2.14401 -3.88004 0
M  V30 4083 H 391.189 -0.45037 -0.497401 0
M  V30 4084 H 393.733 -1.77775 -1.01076 0
M  V30 4085 H 391.888 -1.67744 -3.492 0
M  V30 4086 H 392.302 -3.89097 -3.51715 0
M  V30 4087 H 393.776 -2.74669 -4.78812 0
M  V30 4088 H 394.253 -1.14105 -4.24119 0
M  V30 4089 H 394.859 -2.57662 -3.38364 0
M  V30 4090 N 393.175 1.03435 -1.18907 0
M  V30 4091 C 394.122 2.11591 -0.921837 0
M  V30 4092 C 395.092 1.65499 0.141226 0
M  V30 4093 O 396.277 1.908 0.000242829 0
M  V30 4094 C 393.417 3.42012 -0.460616 0
M  V30 4095 C 392.53 4.01682 -1.58982 0
M  V30 4096 C 391.665 5.20091 -1.08069 0
M  V30 4097 C 390.704 5.71805 -2.18416 0
M  V30 4098 N 389.841 6.81494 -1.68849 0
M  V30 4099 H 394.681 2.33787 -1.8479 0
M  V30 4100 H 392.218 1.1467 -0.921373 0
M  V30 4101 H 394.176 4.16834 -0.174642 0
M  V30 4102 H 392.806 3.19944 0.428467 0
M  V30 4103 H 391.858 3.24127 -1.99113 0
M  V30 4104 H 393.17 4.36084 -2.4214 0
M  V30 4105 H 392.324 6.02051 -0.749615 0
M  V30 4106 H 391.063 4.87209 -0.218771 0
M  V30 4107 H 390.068 4.88461 -2.5236 0
M  V30 4108 H 391.293 6.06728 -3.05054 0
M  V30 4109 H 389.239 6.50475 -0.849572 0
M  V30 4110 H 389.156 7.14994 -2.45601 0
M  V30 4111 H 390.424 7.67063 -1.38689 0
M  V30 4112 N 394.653 0.992116 1.22453 0
M  V30 4113 C 395.893 0.675727 1.92907 0
M  V30 4114 C 396.257 -0.777762 1.75542 0
M  V30 4115 O 397.458 -1.20553 2.40251 0
M  V30 4116 C 395.729 1.0696 3.4102 0
M  V30 4117 S 397.288 0.871456 4.30059 0
M  V30 4118 H 394.106 0.247089 0.666684 0
M  V30 4119 H 396.708 1.27423 1.48269 0
M  V30 4120 H 395.412 2.12383 3.51172 0
M  V30 4121 H 394.943 0.462858 3.90668 0
M  V30 4122 H 396.958 -0.238436 4.95627 0
M  V30 4123 N 396.131 -1.37776 0.765217 0
M  V30 4124 C 397.547 -1.53297 0.444108 0
M  V30 4125 C 397.747 -1.72515 -1.04119 0
M  V30 4126 O 396.803 -1.74278 -1.82711 0
M  V30 4127 C 398.116 -2.73328 1.25349 0
M  V30 4128 C 399.664 -2.87185 1.24473 0
M  V30 4129 C 400.139 -4.10191 2.03733 0
M  V30 4130 N 401.63 -4.17291 2.01053 0
M  V30 4131 C 402.365 -5.11488 2.59166 0
M  V30 4132 N 401.861 -6.11285 3.26041 0
M  V30 4133 N 403.654 -5.03924 2.49032 0
M  V30 4134 H 395.805 -1.23552 1.72768 0
M  V30 4135 H 398.068 -0.601103 0.733062 0
M  V30 4136 H 397.774 -2.6557 2.30577 0
M  V30 4137 H 397.648 -3.66834 0.87823 0
M  V30 4138 H 400.035 -2.94418 0.20047 0
M  V30 4139 H 400.116 -1.94657 1.65959 0
M  V30 4140 H 399.76 -4.0372 3.08176 0
M  V30 4141 H 399.69 -5.01821 1.59633 0
M  V30 4142 H 402.181 -3.45825 1.5236 0
M  V30 4143 H 402.494 -6.79678 3.67774 0
M  V30 4144 H 400.839 -6.11583 3.30138 0
M  V30 4145 H 404.03 -4.24902 1.96407 0
M  V30 4146 H 404.203 -5.77152 2.94617 0
M  V30 4147 N 397.609 -0.515225 -1.4894 0
M  V30 4148 C 398.572 0.244681 -2.2789 0
M  V30 4149 C 399.572 0.881166 -1.34507 0
M  V30 4150 O 400.762 0.743497 -1.57537 0
M  V30 4151 C 397.894 1.35247 -3.12923 0
M  V30 4152 H 399.087 -0.448289 -2.96531 0
M  V30 4153 H 396.64 -0.270656 -1.53939 0
M  V30 4154 H 397.375 2.07916 -2.48881 0
M  V30 4155 H 397.16 0.901374 -3.81599 0
M  V30 4156 H 398.65 1.88737 -3.72516 0
M  V30 4157 N 399.087 1.5561 -0.249682 0
M  V30 4158 C 400.327 2.00916 0.37579 0
M  V30 4159 C 400.691 1.13409 1.54927 0
M  V30 4160 O 401.892 1.48183 2.24266 0
M  V30 4161 C 400.163 3.48949 0.772633 0
M  V30 4162 S 401.722 4.16261 1.38824 0
M  V30 4163 H 398.54 0.70112 0.118117 0
M  V30 4164 H 401.142 1.92052 -0.365567 0
M  V30 4165 H 399.846 4.103 -0.090683 0
M  V30 4166 H 399.377 3.61745 1.5461 0
M  V30 4167 H 401.392 4.17778 2.67724 0
M  V30 4168 N 400.565 -0.0233959 1.57583 0
M  V30 4169 C 401.528 -1.00693 2.05897 0
M  V30 4170 C 402.528 -1.28693 0.964092 0
M  V30 4171 O 403.718 -1.23602 1.22753 0
M  V30 4172 C 400.85 -2.33825 2.4807 0
M  V30 4173 H 402.043 -0.589476 2.9405 0
M  V30 4174 H 399.596 -0.270354 1.53944 0
M  V30 4175 H 400.331 -2.80307 1.6309 0
M  V30 4176 H 400.116 -2.1483 3.2801 0
M  V30 4177 H 401.606 -3.04426 2.85857 0
M  V30 4178 N 402.043 -1.548 -0.295768 0
M  V30 4179 C 402.975 -1.82492 -1.3867 0
M  V30 4180 C 403.988 -0.708134 -1.46592 0
M  V30 4181 O 405.177 -0.985686 -1.48817 0
M  V30 4182 C 402.277 -1.95256 -2.76999 0
M  V30 4183 C 401.45 -3.25709 -2.91946 0
M  V30 4184 C 400.509 -3.28824 -4.10806 0
M  V30 4185 O 399.535 -4.02328 -4.02643 0
M  V30 4186 N 400.737 -2.5459 -5.21694 0
M  V30 4187 H 403.502 -2.76646 -1.15269 0
M  V30 4188 H 401.063 -1.54438 -0.485849 0
M  V30 4189 H 403.055 -1.94736 -3.54768 0
M  V30 4190 H 401.625 -1.08072 -2.93324 0
M  V30 4191 H 400.845 -3.38959 -2.01247 0
M  V30 4192 H 402.133 -4.11786 -2.98847 0
M  V30 4193 H 401.531 -1.94512 -5.31208 0
M  V30 4194 H 400.088 -2.59818 -5.97778 0
M  V30 4195 N 403.521 0.559213 -1.47345 0
M  V30 4196 C 404.769 1.31388 -1.53563 0
M  V30 4197 C 405.09 1.93985 -0.198678 0
M  V30 4198 O 404.36 1.79825 0.777167 0
M  V30 4199 H 402.94 0.487901 -0.565652 0
M  V30 4200 H 405.602 0.65315 -1.8363 0
M  V30 4201 H 404.698 2.10844 -2.30111 0
M  V30 4202 N 404.999 1.35443 0.805782 0
M  V30 4203 C 406.227 1.31878 1.59423 0
M  V30 4204 C 406.642 -0.103562 1.88516 0
M  V30 4205 O 405.999 -1.05575 1.48863 0
M  V30 4206 C 406.05 2.12426 2.92502 0
M  V30 4207 O 405.771 3.49115 2.6467 0
M  V30 4208 C 407.272 2.16455 3.86862 0
M  V30 4209 H 404.492 0.453002 0.495005 0
M  V30 4210 H 407.036 1.78309 1.00131 0
M  V30 4211 H 405.191 1.69593 3.48306 0
M  V30 4212 H 405.605 3.90957 3.49647 0
M  V30 4213 H 407.079 2.77204 4.77349 0
M  V30 4214 H 407.556 1.16352 4.23508 0
M  V30 4215 H 408.162 2.59453 3.36993 0
M  V30 4216 N 406.477 -1.02803 1.19454 0
M  V30 4217 C 407.724 -1.76217 0.997693 0
M  V30 4218 C 408.052 -1.887 -0.47144 0
M  V30 4219 O 407.307 -1.4011 -1.3663 0
M  V30 4220 C 407.606 -3.18941 1.6128 0
M  V30 4221 C 407.272 -3.26463 3.11019 0
M  V30 4222 C 405.934 -3.28223 3.51885 0
M  V30 4223 C 408.286 -3.25542 4.07028 0
M  V30 4224 C 405.614 -3.26719 4.8731 0
M  V30 4225 C 407.966 -3.25579 5.42385 0
M  V30 4226 C 406.63 -3.25637 5.82681 0
M  V30 4227 H 405.9 -0.644823 0.365082 0
M  V30 4228 H 408.547 -1.20655 1.4871 0
M  V30 4229 H 406.852 -3.77587 1.04572 0
M  V30 4230 H 408.549 -3.74415 1.43577 0
M  V30 4231 H 405.139 -3.25822 2.78457 0
M  V30 4232 H 409.323 -3.23362 3.76498 0
M  V30 4233 H 404.579 -3.25089 5.1781 0
M  V30 4234 H 408.753 -3.23817 6.16535 0
M  V30 4235 H 406.38 -3.24226 6.87591 0
M  V30 4236 N 407.956 -0.998596 -1.21925 0
M  V30 4237 C 408.903 -0.553621 -2.24062 0
M  V30 4238 C 409.873 0.416999 -1.6078 0
M  V30 4239 O 411.058 0.320482 -1.88089 0
M  V30 4240 C 408.198 0.119959 -3.44891 0
M  V30 4241 C 407.311 -0.893077 -4.22668 0
M  V30 4242 C 406.446 -0.192424 -5.30851 0
M  V30 4243 C 405.485 -1.19344 -6.00353 0
M  V30 4244 N 404.622 -0.520707 -7.00166 0
M  V30 4245 H 409.462 -1.4293 -2.61486 0
M  V30 4246 H 406.999 -0.715838 -1.28507 0
M  V30 4247 H 408.957 0.527459 -4.13852 0
M  V30 4248 H 407.587 0.959389 -3.08214 0
M  V30 4249 H 406.639 -1.41886 -3.52948 0
M  V30 4250 H 407.951 -1.65512 -4.70539 0
M  V30 4251 H 407.105 0.271515 -6.06092 0
M  V30 4252 H 405.844 0.602075 -4.83969 0
M  V30 4253 H 404.849 -1.66795 -5.23889 0
M  V30 4254 H 406.074 -1.98891 -6.49322 0
M  V30 4255 H 404.02 0.254252 -6.55507 0
M  V30 4256 H 403.937 -1.2211 -7.46073 0
M  V30 4257 H 405.205 -0.0797596 -7.79459 0
M  V30 4258 N 409.434 1.37368 -0.772513 0
M  V30 4259 C 410.845 1.8231 -0.402493 0
M  V30 4260 C 411.196 1.6436 1.07146 0
M  V30 4261 O 410.321 1.15514 1.82991 0
M  V30 4262 C 410.916 3.30979 -0.723776 0
M  V30 4263 C 409.475 3.74195 -0.406802 0
M  V30 4264 C 408.622 2.59885 -0.967218 0
M  V30 4265 H 411.573 1.25829 -0.967099 0
M  V30 4266 H 411.594 3.80499 -0.00870832 0
M  V30 4267 H 411.106 3.44011 -1.7966 0
M  V30 4268 H 409.207 3.66732 0.658673 0
M  V30 4269 H 409.32 4.7027 -0.915588 0
M  V30 4270 H 407.684 2.51674 -0.391416 0
M  V30 4271 H 408.467 2.7571 -2.04546 0
M  V30 4272 N 410.912 0.523116 1.48665 0
M  V30 4273 C 411.842 -0.23231 2.32342 0
M  V30 4274 C 412.823 -0.941637 1.41659 0
M  V30 4275 O 414.008 -0.928751 1.70552 0
M  V30 4276 C 411.138 -1.28387 3.22698 0
M  V30 4277 C 410.092 -0.693098 4.22351 0
M  V30 4278 C 409.418 -1.8468 5.01794 0
M  V30 4279 C 410.718 0.33063 5.21252 0
M  V30 4280 H 412.412 0.466192 2.95748 0
M  V30 4281 H 409.958 0.225643 1.42221 0
M  V30 4282 H 411.911 -1.82024 3.80059 0
M  V30 4283 H 410.635 -2.01186 2.57278 0
M  V30 4284 H 409.294 -0.178299 3.66166 0
M  V30 4285 H 408.942 -2.56301 4.32804 0
M  V30 4286 H 408.642 -1.45747 5.69238 0
M  V30 4287 H 410.166 -2.38709 5.62006 0
M  V30 4288 H 411.58 -0.118407 5.73178 0
M  V30 4289 H 409.977 0.636974 5.9671 0
M  V30 4290 H 411.047 1.23883 4.68808 0
M  V30 4291 N 412.39 -1.55475 0.257931 0
M  V30 4292 C 413.615 -2.04064 -0.370488 0
M  V30 4293 C 414.04 -1.13565 -1.49948 0
M  V30 4294 O 413.398 -0.130781 -1.80828 0
M  V30 4295 C 413.446 -3.50554 -0.845237 0
M  V30 4296 O 412.55 -3.63173 -1.95394 0
M  V30 4297 H 411.891 -0.659257 -0.0792243 0
M  V30 4298 H 414.421 -2.00903 0.387212 0
M  V30 4299 H 414.431 -3.91588 -1.14555 0
M  V30 4300 H 413.106 -4.15896 -0.0191259 0
M  V30 4301 H 411.683 -3.34039 -1.65748 0
M  V30 4302 N 413.868 0.0150385 -1.57593 0
M  V30 4303 C 415.116 0.701613 -1.8953 0
M  V30 4304 C 415.437 1.75139 -0.857396 0
M  V30 4305 O 414.707 1.95607 0.107194 0
M  V30 4306 H 413.287 0.26213 -0.699498 0
M  V30 4307 H 415.949 -0.0223304 -1.94887 0
M  V30 4308 H 415.045 1.18236 -2.88837 0
M  V30 4309 N 415.346 1.54954 0.287554 0
M  V30 4310 C 416.256 1.8991 1.37736 0
M  V30 4311 C 417.272 0.794701 1.54792 0
M  V30 4312 O 418.448 1.09243 1.69198 0
M  V30 4313 C 415.513 2.15108 2.71899 0
M  V30 4314 C 414.574 3.38752 2.63715 0
M  V30 4315 C 413.807 3.62739 3.91479 0
M  V30 4316 O 414.03 2.89492 4.91478 0
M  V30 4317 O 412.964 4.56267 3.92561 0
M  V30 4318 H 416.79 2.82652 1.11092 0
M  V30 4319 H 414.375 1.41315 0.484807 0
M  V30 4320 H 416.257 2.32806 3.51254 0
M  V30 4321 H 414.932 1.25551 2.9836 0
M  V30 4322 H 413.839 3.26405 1.82786 0
M  V30 4323 H 415.172 4.28483 2.42205 0
M  V30 4324 N 416.824 -0.551391 1.4764 0
M  V30 4325 C 418.072 -1.30572 1.54258 0
M  V30 4326 C 418.393 -1.93877 0.208963 0
M  V30 4327 O 417.663 -1.80234 -0.767619 0
M  V30 4328 H 416.243 -0.484894 0.568231 0
M  V30 4329 H 418.905 -0.643402 1.83974 0
M  V30 4330 H 418.001 -2.09621 2.31226 0
M  V30 4331 N 418.302 -1.35869 -0.798587 0
M  V30 4332 C 419.527 -1.32883 -1.59238 0
M  V30 4333 C 419.952 0.0894587 -1.87887 0
M  V30 4334 O 419.31 1.05869 -1.47178 0
M  V30 4335 C 419.358 -2.14892 -2.89575 0
M  V30 4336 O 418.462 -1.53512 -3.82763 0
M  V30 4337 H 417.803 -0.455236 -0.48338 0
M  V30 4338 H 420.333 -1.79024 -0.990539 0
M  V30 4339 H 420.343 -2.27139 -3.38928 0
M  V30 4340 H 419.018 -3.17998 -2.68049 0
M  V30 4341 H 417.595 -1.50153 -3.41334 0
M  V30 4342 N 419.78 1.02168 -1.19998 0
M  V30 4343 C 421.02 1.77232 -1.01825 0
M  V30 4344 C 421.384 1.86833 0.442428 0
M  V30 4345 O 422.585 2.58293 0.744189 0
M  V30 4346 C 420.856 3.15601 -1.67722 0
M  V30 4347 S 422.415 4.06765 -1.64584 0
M  V30 4348 H 419.233 0.610021 -0.365233 0
M  V30 4349 H 421.835 1.22368 -1.52467 0
M  V30 4350 H 420.539 3.06235 -2.73218 0
M  V30 4351 H 420.07 3.7554 -1.17189 0
M  V30 4352 H 422.085 4.91586 -0.67511 0
M  V30 4353 N 421.258 1.00505 1.21394 0
M  V30 4354 C 422.19 0.52372 2.23136 0
M  V30 4355 C 423.203 -0.387714 1.58116 0
M  V30 4356 O 424.392 -0.187905 1.77508 0
M  V30 4357 C 421.492 -0.258885 3.3791 0
M  V30 4358 C 420.665 0.651634 4.32519 0
M  V30 4359 C 419.724 -0.0813705 5.26137 0
M  V30 4360 O 418.75 0.537295 5.66658 0
M  V30 4361 N 419.952 -1.35992 5.64346 0
M  V30 4362 H 422.717 1.39865 2.65062 0
M  V30 4363 H 420.278 0.881196 1.35818 0
M  V30 4364 H 422.27 -0.758208 3.97534 0
M  V30 4365 H 420.84 -1.035 2.94968 0
M  V30 4366 H 420.06 1.33145 3.71034 0
M  V30 4367 H 421.348 1.27129 4.92662 0
M  V30 4368 H 420.746 -1.88368 5.33417 0
M  V30 4369 H 419.303 -1.8042 6.26332 0
M  V30 4370 N 422.737 -1.36956 0.779787 0
M  V30 4371 C 424.148 -1.82094 0.412156 0
M  V30 4372 C 424.499 -1.64926 -1.06273 0
M  V30 4373 O 423.624 -1.16483 -1.82375 0
M  V30 4374 C 424.219 -3.3059 0.741319 0
M  V30 4375 C 422.778 -3.73974 0.426641 0
M  V30 4376 C 421.925 -2.59368 0.980987 0
M  V30 4377 H 424.876 -1.25314 0.973758 0
M  V30 4378 H 424.897 -3.80489 0.028887 0
M  V30 4379 H 424.409 -3.43054 1.81482 0
M  V30 4380 H 422.51 -3.67076 -0.639215 0
M  V30 4381 H 422.623 -4.69778 0.940515 0
M  V30 4382 H 420.987 -2.51463 0.404757 0
M  V30 4383 H 421.77 -2.74621 2.06005 0
M  V30 4384 N 424.215 -0.530993 -1.48385 0
M  V30 4385 C 425.455 0.000718982 -2.044 0
M  V30 4386 C 425.819 1.31485 -1.39913 0
M  V30 4387 O 427.02 1.93265 -1.86821 0
M  V30 4388 C 425.291 0.119177 -3.57201 0
M  V30 4389 S 426.85 0.600806 -4.34667 0
M  V30 4390 H 423.668 -0.0125473 -0.710889 0
M  V30 4391 H 426.27 -0.711783 -1.82082 0
M  V30 4392 H 424.974 -0.842061 -4.01668 0
M  V30 4393 H 424.505 0.856026 -3.83974 0
M  V30 4394 H 426.52 1.86514 -4.59812 0
M  V30 4395 N 425.693 1.55336 -0.266172 0
M  V30 4396 C 427.104 1.85236 0.233315 0
M  V30 4397 C 427.455 1.18816 1.56132 0
M  V30 4398 O 426.58 0.473307 2.11161 0
M  V30 4399 C 427.175 3.36059 0.430113 0
M  V30 4400 C 425.734 3.66116 0.873842 0
M  V30 4401 C 424.881 2.77274 -0.0380016 0
M  V30 4402 H 427.832 1.51004 -0.488214 0
M  V30 4403 H 427.853 3.58681 1.26998 0
M  V30 4404 H 427.365 3.84373 -0.536588 0
M  V30 4405 H 425.466 3.23295 1.85233 0
M  V30 4406 H 425.579 4.73699 0.717358 0
M  V30 4407 H 423.943 2.50198 0.476759 0
M  V30 4408 H 424.726 3.284 -1.00042 0
M  V30 4409 N 427.171 -0.0066808 1.57599 0
M  V30 4410 C 428.134 -0.985035 2.06953 0
M  V30 4411 C 429.134 -1.27663 0.977687 0
M  V30 4412 O 430.324 -1.22293 1.24057 0
M  V30 4413 C 427.456 -2.3118 2.50536 0
M  V30 4414 H 428.649 -0.558255 2.94658 0
M  V30 4415 H 426.202 -0.254011 1.54222 0
M  V30 4416 H 426.937 -2.78561 1.66054 0
M  V30 4417 H 426.722 -2.11338 3.3027 0
M  V30 4418 H 428.212 -3.01377 2.8907 0
M  V30 4419 N 428.649 -1.55105 -0.279332 0
M  V30 4420 C 429.597 -1.88333 -1.36505 0
M  V30 4421 C 430.591 -0.759043 -1.51443 0
M  V30 4422 O 431.797 -0.943312 -1.53302 0
M  V30 4423 H 428.172 -0.59766 -0.456406 0
M  V30 4424 H 430.143 -2.79041 -1.05728 0
M  V30 4425 C 428.892 -2.16628 -2.7197 0
M  V30 4426 H 428.215 -3.02624 -2.61264 0
M  V30 4427 H 429.655 -2.43803 -3.46895 0
M  V30 4428 C 428.114 -0.971807 -3.22579 0
M  V30 4429 O 428.644 -0.203228 -4.01186 0
M  V30 4430 N 426.85 -0.771238 -2.80179 0
M  V30 4431 H 426.397 -1.39792 -2.1637 0
M  V30 4432 H 426.355 0.0263667 -3.14389 0
M  V30 4433 N 430.127 0.543554 -1.4793 0
M  V30 4434 C 431.352 1.32995 -1.59145 0
M  V30 4435 C 431.777 1.86472 -0.246956 0
M  V30 4436 O 431.135 1.63696 0.779324 0
M  V30 4437 C 431.183 2.46623 -2.63077 0
M  V30 4438 O 430.287 3.49261 -2.19295 0
M  V30 4439 H 429.628 0.394472 -0.534124 0
M  V30 4440 H 432.158 0.655489 -1.93816 0
M  V30 4441 H 432.168 2.93001 -2.83926 0
M  V30 4442 H 430.843 2.07059 -3.60693 0
M  V30 4443 H 429.42 3.09094 -2.08603 0
M  V30 4444 N 431.605 1.3629 0.791371 0
M  V30 4445 C 432.555 1.26988 1.89362 0
M  V30 4446 C 433.539 0.161795 1.60084 0
M  V30 4447 O 434.731 0.394426 1.72549 0
M  V30 4448 C 431.86 1.05944 3.26544 0
M  V30 4449 C 430.946 2.21211 3.61838 0
M  V30 4450 N 431.337 3.46518 3.68455 0
M  V30 4451 C 429.635 2.12933 3.91887 0
M  V30 4452 C 430.336 4.2241 3.99931 0
M  V30 4453 N 429.312 3.51329 4.14812 0
M  V30 4454 H 433.114 2.21908 1.92702 0
M  V30 4455 H 430.628 1.28982 0.986787 0
M  V30 4456 H 432.625 0.973666 4.05371 0
M  V30 4457 H 431.285 0.119223 3.24481 0
M  V30 4458 H 432.296 3.80677 3.51148 0
M  V30 4459 H 428.973 1.26855 3.97761 0
M  V30 4460 H 430.363 5.30767 4.1199 0
M  V30 4461 N 433.083 -1.0153 1.20538 0
M  V30 4462 C 434.308 -1.79283 1.04271 0
M  V30 4463 C 434.733 -1.8372 -0.403544 0
M  V30 4464 O 434.091 -1.27321 -1.2907 0
M  V30 4465 C 434.139 -3.21535 1.63241 0
M  V30 4466 O 433.243 -4.03099 0.870908 0
M  V30 4467 H 432.584 -0.55293 0.367647 0
M  V30 4468 H 435.114 -1.27696 1.59859 0
M  V30 4469 H 435.124 -3.72243 1.6703 0
M  V30 4470 H 433.799 -3.1762 2.68497 0
M  V30 4471 H 432.376 -3.61693 0.907323 0
M  V30 4472 N 434.561 -1.01147 -1.20859 0
M  V30 4473 C 435.509 -0.57059 -2.25493 0
M  V30 4474 C 436.503 0.388109 -1.64894 0
M  V30 4475 O 437.709 0.258592 -1.78133 0
M  V30 4476 H 434.084 -0.166191 -0.733406 0
M  V30 4477 H 436.055 -1.46411 -2.60012 0
M  V30 4478 C 434.804 0.0805241 -3.47607 0
M  V30 4479 H 434.127 -0.648156 -3.94511 0
M  V30 4480 H 435.567 0.352197 -4.22535 0
M  V30 4481 C 434.026 1.32175 -3.09889 0
M  V30 4482 O 434.556 2.41553 -3.20959 0
M  V30 4483 N 432.762 1.20392 -2.64488 0
M  V30 4484 H 432.309 0.313905 -2.5568 0
M  V30 4485 H 432.267 2.03541 -2.39621 0
M  V30 4486 N 436.039 1.36541 -0.78704 0
M  V30 4487 C 437.267 2.03561 -0.370199 0
M  V30 4488 C 437.682 1.59347 1.01263 0
M  V30 4489 O 437.039 0.781781 1.64907 0
M  V30 4490 C 437.09 3.59033 -0.421614 0
M  V30 4491 O 436.811 4.01634 -1.7499 0
M  V30 4492 C 438.312 4.433 0.00489763 0
M  V30 4493 H 435.532 0.653346 -0.152904 0
M  V30 4494 H 438.076 1.74566 -1.06522 0
M  V30 4495 H 436.231 3.86746 0.224971 0
M  V30 4496 H 436.645 4.96217 -1.69909 0
M  V30 4497 H 438.119 5.51939 -0.0822184 0
M  V30 4498 H 438.596 4.26285 1.05723 0
M  V30 4499 H 439.202 4.20843 -0.614085 0
M  V30 4500 N 437.518 0.538854 1.48102 0
M  V30 4501 C 438.767 0.0059532 2.01699 0
M  V30 4502 C 439.08 -1.34476 1.42041 0
M  V30 4503 O 440.286 -1.96653 1.87189 0
M  V30 4504 C 438.742 -0.0397627 3.59878 0
M  V30 4505 C 438.35 1.30659 4.28523 0
M  V30 4506 C 440.094 -0.521024 4.2129 0
M  V30 4507 C 438.001 1.22098 5.78659 0
M  V30 4508 H 436.931 -0.00154456 0.753998 0
M  V30 4509 H 439.582 0.683963 1.70277 0
M  V30 4510 H 437.964 -0.783037 3.88181 0
M  V30 4511 H 439.138 2.06613 4.11883 0
M  V30 4512 H 437.453 1.7243 3.79021 0
M  V30 4513 H 440.05 -0.603184 5.31287 0
M  V30 4514 H 440.393 -1.52885 3.8721 0
M  V30 4515 H 440.926 0.166834 3.9745 0
M  V30 4516 H 437.665 2.20424 6.17328 0
M  V30 4517 H 437.185 0.50295 5.97688 0
M  V30 4518 H 438.864 0.915345 6.40492 0
M  V30 4519 N 438.996 -1.55193 0.274407 0
M  V30 4520 C 440.244 -1.99187 -0.341902 0
M  V30 4521 C 440.565 -1.16422 -1.56431 0
M  V30 4522 O 439.835 -0.253573 -1.94252 0
M  V30 4523 H 438.415 -0.735721 -0.129317 0
M  V30 4524 H 441.077 -1.91168 0.379578 0
M  V30 4525 H 440.173 -3.05629 -0.632253 0
M  V30 4526 N 440.474 -0.00167713 -1.576 0
M  V30 4527 C 441.699 0.69739 -1.95323 0
M  V30 4528 C 442.124 1.6642 -0.876706 0
M  V30 4529 O 441.482 1.80548 0.165007 0
M  V30 4530 C 441.53 1.40403 -3.32144 0
M  V30 4531 O 440.634 2.5185 -3.26566 0
M  V30 4532 H 439.975 0.185373 -0.637599 0
M  V30 4533 H 442.505 -0.0553665 -2.04525 0
M  V30 4534 H 442.515 1.76707 -3.67748 0
M  V30 4535 H 441.19 0.695167 -4.10049 0
M  V30 4536 H 439.767 2.17861 -3.0264 0
M  V30 4537 N 441.952 1.55251 0.271103 0
M  V30 4538 C 442.915 1.87484 1.31842 0
M  V30 4539 C 443.915 0.749545 1.42262 0
M  V30 4540 O 445.105 1.01771 1.4138 0
M  V30 4541 C 442.237 2.0818 2.69951 0
M  V30 4542 H 443.43 2.81108 1.0449 0
M  V30 4543 H 440.983 1.47771 0.509258 0
M  V30 4544 H 441.718 1.16944 3.02481 0
M  V30 4545 H 441.503 2.90114 2.63774 0
M  V30 4546 H 442.993 2.34385 3.4562 0
M  V30 4547 N 443.43 -0.535701 1.48216 0
M  V30 4548 C 444.676 -1.29375 1.56173 0
M  V30 4549 C 445.009 -1.92804 0.232429 0
M  V30 4550 O 444.284 -1.78992 -0.761048 0
M  V30 4551 C 444.567 -2.38747 2.69577 0
M  V30 4552 C 444.42 -1.80046 4.12193 0
M  V30 4553 C 445.739 -3.40551 2.78771 0
M  V30 4554 H 442.858 -0.469027 0.568491 0
M  V30 4555 H 445.5 -0.597358 1.80365 0
M  V30 4556 H 443.65 -2.98147 2.4908 0
M  V30 4557 H 445.322 -1.24742 4.44114 0
M  V30 4558 H 443.565 -1.10609 4.19462 0
M  V30 4559 H 444.236 -2.59212 4.87353 0
M  V30 4560 H 446.712 -2.91099 2.97322 0
M  V30 4561 H 445.588 -4.1448 3.59857 0
M  V30 4562 H 445.849 -4.00746 1.86696 0
M  V30 4563 N 444.908 -1.36708 -0.784132 0
M  V30 4564 C 446.148 -1.32618 -1.55537 0
M  V30 4565 C 446.512 0.0920681 -1.91779 0
M  V30 4566 O 447.713 0.257573 -2.67563 0
M  V30 4567 C 445.984 -2.22788 -2.79464 0
M  V30 4568 S 447.543 -2.36432 -3.69656 0
M  V30 4569 H 444.361 -0.470973 -0.53264 0
M  V30 4570 H 446.963 -1.72333 -0.92312 0
M  V30 4571 H 445.667 -3.24774 -2.50899 0
M  V30 4572 H 445.198 -1.84112 -3.47658 0
M  V30 4573 H 447.213 -1.56573 -4.7085 0
M  V30 4574 N 446.386 1.0089 -1.21074 0
M  V30 4575 C 447.318 2.09737 -0.924291 0
M  V30 4576 C 448.331 1.62546 0.0909809 0
M  V30 4577 O 449.52 1.77942 -0.141021 0
M  V30 4578 C 446.62 3.36922 -0.36559 0
M  V30 4579 C 445.793 4.13216 -1.43426 0
M  V30 4580 C 444.852 5.18696 -0.885496 0
M  V30 4581 O 443.878 5.47176 -1.56801 0
M  V30 4582 N 445.08 5.79718 0.301227 0
M  V30 4583 H 447.845 2.34895 -1.8613 0
M  V30 4584 H 445.406 1.17341 -1.11546 0
M  V30 4585 H 447.398 4.04697 0.0158407 0
M  V30 4586 H 445.968 3.08952 0.476149 0
M  V30 4587 H 445.188 3.40301 -1.9897 0
M  V30 4588 H 446.476 4.60967 -2.15376 0
M  V30 4589 H 445.874 5.58926 0.872849 0
M  V30 4590 H 444.431 6.48804 0.624211 0
M  V30 4591 N 447.864 1.01787 1.20321 0
M  V30 4592 C 449.104 0.716493 1.91431 0
M  V30 4593 C 449.468 -0.740352 1.77152 0
M  V30 4594 O 450.669 -1.1543 2.42754 0
M  V30 4595 C 448.94 1.14169 3.38674 0
M  V30 4596 S 450.499 0.962482 4.28114 0
M  V30 4597 H 447.317 0.261175 0.661293 0
M  V30 4598 H 449.919 1.30539 1.45533 0
M  V30 4599 H 448.623 2.19784 3.46588 0
M  V30 4600 H 448.154 0.545621 3.89598 0
M  V30 4601 H 450.169 -0.133253 4.96021 0
M  V30 4602 N 449.342 -1.36122 0.79427 0
M  V30 4603 C 450.758 -1.5232 0.476525 0
M  V30 4604 C 450.958 -1.74685 -1.00436 0
M  V30 4605 O 450.014 -1.78115 -1.78973 0
M  V30 4606 C 451.327 -2.70607 1.31119 0
M  V30 4607 C 452.875 -2.8448 1.30537 0
M  V30 4608 C 453.35 -4.05778 2.12387 0
M  V30 4609 N 454.841 -4.12933 2.09859 0
M  V30 4610 C 455.576 -5.05876 2.69957 0
M  V30 4611 N 455.072 -6.04232 3.38934 0
M  V30 4612 N 456.865 -4.98528 2.59665 0
M  V30 4613 H 449.016 -1.1986 1.75349 0
M  V30 4614 H 451.279 -0.585418 0.745647 0
M  V30 4615 H 450.985 -2.60619 2.36158 0
M  V30 4616 H 450.859 -3.64888 0.955843 0
M  V30 4617 H 453.246 -2.93927 0.262876 0
M  V30 4618 H 453.327 -1.91093 1.70051 0
M  V30 4619 H 452.971 -3.97092 3.1667 0
M  V30 4620 H 452.901 -4.98323 1.70242 0
M  V30 4621 H 455.392 -3.42515 1.59662 0
M  V30 4622 H 455.705 -6.71724 3.82109 0
M  V30 4623 H 454.05 -6.04443 3.43036 0
M  V30 4624 H 457.241 -4.20641 2.05375 0
M  V30 4625 H 457.414 -5.70773 3.06793 0
M  V30 4626 N 450.82 -0.546701 -1.47814 0
M  V30 4627 C 452.066 -0.0187684 -2.02791 0
M  V30 4628 C 452.399 1.32338 -1.42128 0
M  V30 4629 O 451.674 1.85867 -0.573023 0
M  V30 4630 C 451.957 0.0854985 -3.59998 0
M  V30 4631 C 451.81 -1.283 -4.31114 0
M  V30 4632 C 453.129 0.80412 -4.32691 0
M  V30 4633 H 450.248 -0.0082946 -0.736953 0
M  V30 4634 H 452.89 -0.706962 -1.76358 0
M  V30 4635 H 451.04 0.671609 -3.82651 0
M  V30 4636 H 452.712 -1.91151 -4.19832 0
M  V30 4637 H 450.955 -1.86049 -3.91878 0
M  V30 4638 H 451.626 -1.16287 -5.39612 0
M  V30 4639 H 454.102 0.306576 -4.14969 0
M  V30 4640 H 452.978 0.846011 -5.42341 0
M  V30 4641 H 453.239 1.85802 -4.01161 0
M  V30 4642 N 452.299 1.55045 -0.282633 0
M  V30 4643 C 453.547 1.99365 0.331334 0
M  V30 4644 C 453.868 1.1725 1.55812 0
M  V30 4645 O 453.138 0.263871 1.94115 0
M  V30 4646 H 451.718 0.736397 0.125414 0
M  V30 4647 H 454.38 1.90964 -0.389711 0
M  V30 4648 H 453.476 3.0596 0.616036 0
M  V30 4649 N 453.777 0.010035 1.57597 0
M  V30 4650 C 455.007 -0.682422 1.95004 0
M  V30 4651 C 455.415 -1.67278 0.884014 0
M  V30 4652 O 454.758 -1.83129 -0.144672 0
M  V30 4653 C 454.82 -1.46141 3.28456 0
M  V30 4654 C 454.484 -0.631523 4.52615 0
M  V30 4655 C 455.481 0.0850905 5.1983 0
M  V30 4656 C 453.166 -0.574539 4.99003 0
M  V30 4657 C 455.16 0.847566 6.3174 0
M  V30 4658 C 452.847 0.191655 6.10799 0
M  V30 4659 C 453.845 0.901432 6.77025 0
M  V30 4660 O 453.533 1.65511 7.86677 0
M  V30 4661 H 453.265 -0.194361 0.647456 0
M  V30 4662 H 455.819 0.060312 2.05311 0
M  V30 4663 H 454.049 -2.24885 3.14585 0
M  V30 4664 H 455.738 -2.04016 3.50902 0
M  V30 4665 H 456.504 0.0502812 4.84974 0
M  V30 4666 H 452.383 -1.11654 4.47274 0
M  V30 4667 H 455.927 1.4021 6.83364 0
M  V30 4668 H 451.824 0.228249 6.45096 0
M  V30 4669 H 452.592 1.57287 8.03245 0
M  V30 4670 N 455.255 -1.55392 -0.262866 0
M  V30 4671 C 456.502 -1.76476 -0.993109 0
M  V30 4672 C 456.83 -0.571479 -1.85915 0
M  V30 4673 O 456.085 0.445733 -1.90556 0
M  V30 4674 C 456.384 -3.02889 -1.89718 0
M  V30 4675 C 456.05 -4.34974 -1.18781 0
M  V30 4676 C 454.712 -4.7087 -0.991699 0
M  V30 4677 C 457.064 -5.16695 -0.683798 0
M  V30 4678 C 454.392 -5.86036 -0.279024 0
M  V30 4679 C 456.744 -6.32598 0.0153327 0
M  V30 4680 C 455.408 -6.67127 0.223062 0
M  V30 4681 H 454.678 -0.64577 -0.363404 0
M  V30 4682 H 457.325 -1.89664 -0.264525 0
M  V30 4683 H 455.63 -2.84644 -2.6923 0
M  V30 4684 H 457.327 -3.16399 -2.46359 0
M  V30 4685 H 453.917 -4.06765 -1.35058 0
M  V30 4686 H 458.101 -4.8943 -0.8229 0
M  V30 4687 H 453.357 -6.11306 -0.107456 0
M  V30 4688 H 457.531 -6.95171 0.413584 0
M  V30 4689 H 455.158 -7.56216 0.777265 0
M  V30 4690 N 456.733 0.527833 -1.48498 0
M  V30 4691 C 458.149 0.856571 -1.34666 0
M  V30 4692 C 458.349 1.98271 -0.35931 0
M  V30 4693 O 457.405 2.51551 0.218703 0
M  V30 4694 C 458.718 1.22207 -2.74747 0
M  V30 4695 C 460.266 1.33183 -2.83251 0
M  V30 4696 C 460.741 1.73075 -4.24039 0
M  V30 4697 N 462.232 1.80174 -4.26722 0
M  V30 4698 C 462.967 2.1243 -5.32598 0
M  V30 4699 N 462.463 2.43096 -6.4875 0
M  V30 4700 N 464.256 2.13454 -5.19994 0
M  V30 4701 H 456.407 -0.215174 -2.11307 0
M  V30 4702 H 458.67 -0.0336281 -0.947403 0
M  V30 4703 H 458.376 0.468195 -3.4857 0
M  V30 4704 H 458.25 2.17173 -3.08409 0
M  V30 4705 H 460.637 2.07647 -2.09683 0
M  V30 4706 H 460.718 0.363333 -2.53206 0
M  V30 4707 H 460.362 0.991712 -4.98124 0
M  V30 4708 H 460.292 2.70979 -4.51529 0
M  V30 4709 H 462.783 1.58744 -3.42942 0
M  V30 4710 H 463.096 2.6682 -7.25277 0
M  V30 4711 H 461.441 2.40611 -6.52021 0
M  V30 4712 H 464.632 1.88956 -4.28268 0
M  V30 4713 H 464.805 2.38261 -6.02608 0
M  V30 4714 N 458.211 1.37122 0.776871 0
M  V30 4715 C 459.174 1.32301 1.8716 0
M  V30 4716 C 460.174 0.228099 1.59174 0
M  V30 4717 O 461.364 0.483642 1.67352 0
M  V30 4718 C 458.496 1.054 3.24197 0
M  V30 4719 H 459.689 2.29673 1.92848 0
M  V30 4720 H 457.242 1.22077 0.97606 0
M  V30 4721 H 457.977 0.0853872 3.24188 0
M  V30 4722 H 457.762 1.84648 3.45901 0
M  V30 4723 H 459.252 1.04664 4.04271 0
M  V30 4724 N 459.689 -1.00246 1.21608 0
M  V30 4725 C 461.105 -1.26435 0.973975 0
M  V30 4726 C 461.305 -1.98642 -0.338143 0
M  V30 4727 O 460.361 -2.29026 -1.06317 0
M  V30 4728 C 461.674 -2.08551 2.16626 0
M  V30 4729 C 463.222 -2.21769 2.20879 0
M  V30 4730 C 463.697 -3.07267 3.39633 0
M  V30 4731 N 465.188 -3.14855 3.39736 0
M  V30 4732 C 465.923 -3.81274 4.28273 0
M  V30 4733 N 465.419 -4.497 5.27012 0
M  V30 4734 N 467.212 -3.7794 4.16074 0
M  V30 4735 H 459.363 -0.518089 2.05984 0
M  V30 4736 H 461.626 -0.291368 0.902113 0
M  V30 4737 H 461.332 -1.62847 3.11727 0
M  V30 4738 H 461.206 -3.09303 2.15897 0
M  V30 4739 H 463.593 -2.66691 1.26332 0
M  V30 4740 H 463.674 -1.20478 2.25652 0
M  V30 4741 H 463.318 -2.63047 4.34475 0
M  V30 4742 H 463.248 -4.08678 3.321 0
M  V30 4743 H 465.739 -2.66147 2.6828 0
M  V30 4744 H 466.052 -4.98092 5.90867 0
M  V30 4745 H 464.397 -4.48479 5.30935 0
M  V30 4746 H 467.588 -3.23638 3.38195 0
M  V30 4747 H 467.761 -4.29424 4.85282 0
M  V30 4748 N 461.167 -1.02423 -1.1978 0
M  V30 4749 C 462.395 -0.737456 -1.93311 0
M  V30 4750 C 462.81 0.703023 -1.75223 0
M  V30 4751 O 462.167 1.47761 -1.07112 0
M  V30 4752 C 462.218 -1.0733 -3.45199 0
M  V30 4753 O 461.939 -2.4572 -3.62702 0
M  V30 4754 C 463.44 -0.80866 -4.35862 0
M  V30 4755 H 460.66 -0.2702 -0.614193 0
M  V30 4756 H 463.204 -1.36747 -1.52054 0
M  V30 4757 H 461.359 -0.488545 -3.84307 0
M  V30 4758 H 461.773 -2.58081 -4.56612 0
M  V30 4759 H 463.247 -1.09365 -5.41057 0
M  V30 4760 H 463.724 0.257025 -4.38447 0
M  V30 4761 H 464.33 -1.37592 -4.02428 0
M  V30 4762 N 462.645 1.35699 -0.801477 0
M  V30 4763 C 463.922 1.9324 -0.302937 0
M  V30 4764 C 464.302 1.73209 1.20672 0
M  V30 4765 O 463.65 1.09809 2.00385 0
M  V30 4766 C 463.86 3.41728 -0.708747 0
M  V30 4767 C 465.208 4.18868 -0.695328 0
M  V30 4768 O 466.232 3.5022 -0.649971 0
M  V30 4769 O 465.091 5.41342 -0.749081 0
M  V30 4770 H 462.185 0.82331 -0.0780367 0
M  V30 4771 H 464.731 1.44806 -0.884832 0
M  V30 4772 H 463.503 3.50015 -1.74944 0
M  V30 4773 H 463.126 3.97471 -0.101384 0
M  V30 4774 N 464.123 0.554532 1.47522 0
M  V30 4775 C 465.534 0.120446 1.86311 0
M  V30 4776 C 465.885 -1.30904 1.46145 0
M  V30 4777 O 465.01 -1.98434 0.863294 0
M  V30 4778 C 465.605 0.211808 3.38137 0
M  V30 4779 C 464.164 -0.167224 3.76028 0
M  V30 4780 C 463.311 0.560576 2.71575 0
M  V30 4781 H 466.262 0.764408 1.39077 0
M  V30 4782 H 466.283 -0.570275 3.76202 0
M  V30 4783 H 465.795 1.25232 3.6734 0
M  V30 4784 H 463.896 -1.20894 3.52442 0
M  V30 4785 H 464.009 0.189473 4.78725 0
M  V30 4786 H 462.373 0.00396836 2.547 0
M  V30 4787 H 463.156 1.60219 3.0362 0
M  V30 4788 N 465.601 -1.54893 0.290851 0
M  V30 4789 C 467.017 -1.59476 -0.0628432 0
M  V30 4790 C 467.217 -1.30795 -1.5328 0
M  V30 4791 O 466.273 -1.07644 -2.28406 0
M  V30 4792 C 467.586 -2.98928 0.325962 0
M  V30 4793 C 469.134 -3.11799 0.273882 0
M  V30 4794 C 469.609 -4.53544 0.637359 0
M  V30 4795 N 471.1 -4.59433 0.589507 0
M  V30 4796 C 471.835 -5.67164 0.84335 0
M  V30 4797 N 471.331 -6.82975 1.16263 0
M  V30 4798 N 473.124 -5.56786 0.771091 0
M  V30 4799 H 465.275 -1.71798 1.24896 0
M  V30 4800 H 467.538 -0.801879 0.505663 0
M  V30 4801 H 467.244 -3.24805 1.34887 0
M  V30 4802 H 467.118 -3.75793 -0.325441 0
M  V30 4803 H 469.505 -2.85677 -0.739765 0
M  V30 4804 H 469.586 -2.37112 0.959766 0
M  V30 4805 H 469.23 -4.80394 1.64877 0
M  V30 4806 H 469.16 -5.26553 -0.0704866 0
M  V30 4807 H 471.651 -3.76245 0.353252 0
M  V30 4808 H 471.964 -7.61048 1.34257 0
M  V30 4809 H 470.309 -6.84552 1.20057 0
M  V30 4810 H 473.5 -4.65187 0.521383 0
M  V30 4811 H 473.673 -6.40664 0.972295 0
M  V30 4812 N 467.08 -0.0183926 -1.57589 0
M  V30 4813 C 468.328 0.661253 -1.90976 0
M  V30 4814 C 468.649 1.73281 -0.894353 0
M  V30 4815 O 467.919 1.9579 0.0656788 0
M  V30 4816 H 466.499 0.247233 -0.704901 0
M  V30 4817 H 469.161 -0.0636639 -1.94796 0
M  V30 4818 H 468.257 1.12083 -2.9128 0
M  V30 4819 N 468.558 1.5553 0.254621 0
M  V30 4820 C 469.521 1.88872 1.29846 0
M  V30 4821 C 470.521 0.764591 1.41459 0
M  V30 4822 O 471.711 1.03265 1.40293 0
M  V30 4823 C 468.843 2.11032 2.67728 0
M  V30 4824 H 470.036 2.82201 1.01502 0
M  V30 4825 H 467.589 1.48303 0.493556 0
M  V30 4826 H 468.324 1.20146 3.01223 0
M  V30 4827 H 468.109 2.92895 2.60682 0
M  V30 4828 H 469.599 2.38038 3.43115 0
M  V30 4829 N 470.036 -0.519951 1.48776 0
M  V30 4830 C 471.447 -1.10177 1.50725 0
M  V30 4831 C 471.798 -1.94153 0.282678 0
M  V30 4832 O 470.923 -2.07645 -0.609298 0
M  V30 4833 C 471.518 -2.00482 2.73116 0
M  V30 4834 C 470.077 -2.53862 2.77905 0
M  V30 4835 C 469.224 -1.31047 2.44381 0
M  V30 4836 H 472.175 -0.30473 1.55747 0
M  V30 4837 H 472.196 -2.8491 2.52203 0
M  V30 4838 H 471.708 -1.39335 3.62225 0
M  V30 4839 H 469.809 -3.18702 1.93029 0
M  V30 4840 H 469.922 -2.9231 3.79594 0
M  V30 4841 H 468.286 -1.62953 1.95751 0
M  V30 4842 H 469.069 -0.71637 3.35743 0
M  V30 4843 N 471.514 -1.37532 -0.769588 0
M  V30 4844 C 472.754 -1.34261 -1.54122 0
M  V30 4845 C 473.118 0.0717222 -1.91866 0
M  V30 4846 O 474.319 0.22918 -2.67821 0
M  V30 4847 C 472.59 -2.2574 -2.77086 0
M  V30 4848 S 474.149 -2.40339 -3.67127 0
M  V30 4849 H 470.967 -0.476595 -0.527615 0
M  V30 4850 H 473.569 -1.73303 -0.90479 0
M  V30 4851 H 472.273 -3.27417 -2.4744 0
M  V30 4852 H 471.804 -1.87789 -3.45686 0
M  V30 4853 H 473.819 -1.61558 -4.69163 0
M  V30 4854 N 472.992 0.995999 -1.22138 0
M  V30 4855 C 474.22 1.77066 -1.07029 0
M  V30 4856 C 474.635 1.8495 0.379357 0
M  V30 4857 O 473.992 1.3174 1.26297 0
M  V30 4858 C 474.043 3.20533 -1.67155 0
M  V30 4859 O 473.764 3.13082 -3.06449 0
M  V30 4860 C 475.265 4.14461 -1.5728 0
M  V30 4861 H 472.485 0.556179 -0.375374 0
M  V30 4862 H 475.029 1.25238 -1.61666 0
M  V30 4863 H 473.184 3.6944 -1.16589 0
M  V30 4864 H 473.598 4.03283 -3.35355 0
M  V30 4865 H 475.072 5.1289 -2.04078 0
M  V30 4866 H 475.549 4.36005 -0.528795 0
M  V30 4867 H 476.155 3.71449 -2.07136 0
M  V30 4868 N 474.47 1.03057 1.19235 0
M  V30 4869 C 475.698 0.747697 1.92917 0
M  V30 4870 C 476.113 -0.69372 1.75593 0
M  V30 4871 O 475.47 -1.47191 1.07894 0
M  V30 4872 C 475.521 1.09159 3.44625 0
M  V30 4873 O 475.242 2.47641 3.61394 0
M  V30 4874 C 476.743 0.831763 4.35427 0
M  V30 4875 H 473.963 0.273453 0.612751 0
M  V30 4876 H 476.507 1.37552 1.51327 0
M  V30 4877 H 474.662 0.508919 3.84043 0
M  V30 4878 H 475.076 2.60499 4.55237 0
M  V30 4879 H 476.55 1.12233 5.4047 0
M  V30 4880 H 477.027 -0.233769 4.38577 0
M  V30 4881 H 477.633 1.39725 4.01693 0
M  V30 4882 N 475.948 -1.35272 0.808662 0
M  V30 4883 C 477.359 -1.81179 0.450688 0
M  V30 4884 C 477.71 -1.67143 -1.02751 0
M  V30 4885 O 476.835 -1.20325 -1.79864 0
M  V30 4886 C 477.43 -3.28943 0.811275 0
M  V30 4887 C 475.989 -3.72985 0.505871 0
M  V30 4888 C 475.136 -2.57229 1.03578 0
M  V30 4889 H 478.087 -1.2322 1.00012 0
M  V30 4890 H 478.108 -3.80342 0.109588 0
M  V30 4891 H 477.62 -3.39127 1.88718 0
M  V30 4892 H 475.721 -3.68349 -0.561209 0
M  V30 4893 H 475.834 -4.67677 1.03995 0
M  V30 4894 H 474.198 -2.50548 0.458005 0
M  V30 4895 H 474.981 -2.7019 2.11784 0
M  V30 4896 N 477.426 -0.562348 -1.47226 0
M  V30 4897 C 478.837 -0.130325 -1.86245 0
M  V30 4898 C 479.188 1.30128 -1.46838 0
M  V30 4899 O 478.313 1.97974 -0.873805 0
M  V30 4900 C 478.908 -0.229738 -3.3802 0
M  V30 4901 C 477.467 0.14728 -3.76112 0
M  V30 4902 C 476.614 -0.574971 -2.71274 0
M  V30 4903 H 479.565 -0.771773 -1.3867 0
M  V30 4904 H 479.586 0.550316 -3.76499 0
M  V30 4905 H 479.098 -1.27178 -3.66671 0
M  V30 4906 H 477.199 1.19023 -3.53078 0
M  V30 4907 H 477.312 -0.214858 -4.78618 0
M  V30 4908 H 475.676 -0.0174756 -2.54694 0
M  V30 4909 H 476.459 -1.61827 -3.02766 0
M  V30 4910 N 478.904 1.54736 -0.299062 0
M  V30 4911 C 480.129 2.04975 0.316254 0
M  V30 4912 C 480.554 1.17501 1.46885 0
M  V30 4913 O 479.912 0.178678 1.80417 0
M  V30 4914 C 479.96 3.52672 0.751997 0
M  V30 4915 O 479.064 3.68226 1.85697 0
M  V30 4916 H 478.405 0.661126 0.0617175 0
M  V30 4917 H 480.935 1.99805 -0.440341 0
M  V30 4918 H 480.945 3.94488 1.04133 0
M  V30 4919 H 479.62 4.158 -0.0911482 0
M  V30 4920 H 478.197 3.38316 1.56834 0
M  V30 4921 N 480.382 0.0267497 1.57577 0
M  V30 4922 C 481.345 -0.940916 2.08996 0
M  V30 4923 C 482.345 -1.25561 1.00455 0
M  V30 4924 O 483.535 -1.19634 1.26623 0
M  V30 4925 C 480.667 -2.25814 2.55384 0
M  V30 4926 H 481.86 -0.495628 2.95776 0
M  V30 4927 H 479.413 -0.221241 1.54726 0
M  V30 4928 H 480.148 -2.74976 1.71926 0
M  V30 4929 H 479.933 -2.04285 3.34679 0
M  V30 4930 H 481.423 -2.95178 2.95398 0
M  V30 4931 N 481.861 -1.55662 -0.24637 0
M  V30 4932 C 483.272 -1.67953 -0.81539 0
M  V30 4933 C 483.623 -0.624302 -1.86002 0
M  V30 4934 O 482.748 0.229328 -2.15181 0
M  V30 4935 C 483.343 -3.04484 -1.48576 0
M  V30 4936 C 481.902 -3.18713 -2.00248 0
M  V30 4937 C 481.049 -2.6383 -0.853766 0
M  V30 4938 H 484 -1.58685 -0.0221692 0
M  V30 4939 H 484.021 -2.98959 -2.3538 0
M  V30 4940 H 483.533 -3.81264 -0.725222 0
M  V30 4941 H 481.634 -2.46757 -2.79181 0
M  V30 4942 H 481.747 -4.25628 -2.1995 0
M  V30 4943 H 480.111 -2.21667 -1.25442 0
M  V30 4944 H 480.894 -3.43135 -0.106302 0
M  V30 4945 N 483.339 0.512053 -1.4905 0
M  V30 4946 C 484.755 0.84224 -1.35567 0
M  V30 4947 C 484.955 1.97878 -0.380319 0
M  V30 4948 O 484.011 2.51769 0.19201 0
M  V30 4949 C 485.324 1.19286 -2.76028 0
M  V30 4950 C 486.872 1.30171 -2.84648 0
M  V30 4951 C 487.347 1.68568 -4.25851 0
M  V30 4952 N 488.838 1.75638 -4.28609 0
M  V30 4953 C 489.573 2.06769 -5.34821 0
M  V30 4954 N 489.069 2.36201 -6.51292 0
M  V30 4955 N 490.862 2.07927 -5.22229 0
M  V30 4956 H 483.013 -0.237574 -2.11067 0
M  V30 4957 H 485.276 -0.0436747 -0.946993 0
M  V30 4958 H 484.982 0.431199 -3.49047 0
M  V30 4959 H 484.856 2.13889 -3.10695 0
M  V30 4960 H 487.243 2.05411 -2.11873 0
M  V30 4961 H 487.324 0.336457 -2.53578 0
M  V30 4962 H 486.968 0.938824 -4.99148 0
M  V30 4963 H 486.898 2.66174 -4.54377 0
M  V30 4964 H 489.389 1.55097 -3.44606 0
M  V30 4965 H 489.702 2.59112 -7.28066 0
M  V30 4966 H 488.047 2.33681 -6.54536 0
M  V30 4967 H 491.238 1.84403 -4.30248 0
M  V30 4968 H 491.411 2.31856 -6.05101 0
M  V30 4969 N 484.817 1.37938 0.762283 0
M  V30 4970 C 486.042 1.37059 1.55659 0
M  V30 4971 C 486.467 -0.0396123 1.88058 0
M  V30 4972 O 485.825 -1.01929 1.49934 0
M  V30 4973 C 485.873 2.22494 2.83776 0
M  V30 4974 O 484.977 1.63607 3.78559 0
M  V30 4975 H 484.318 0.467892 0.47114 0
M  V30 4976 H 486.848 1.81587 0.942725 0
M  V30 4977 H 486.858 2.36045 3.32786 0
M  V30 4978 H 485.533 3.24993 2.59524 0
M  V30 4979 H 484.11 1.5915 3.37233 0
M  V30 4980 N 486.295 -0.989507 1.22664 0
M  V30 4981 C 487.541 -1.7321 1.05481 0
M  V30 4982 C 487.874 -1.89852 -0.408635 0
M  V30 4983 O 487.149 -1.44416 -1.30285 0
M  V30 4984 C 487.432 -3.1357 1.77047 0
M  V30 4985 C 487.285 -3.04555 3.31008 0
M  V30 4986 C 488.604 -4.12812 1.5256 0
M  V30 4987 H 485.723 -0.628697 0.384589 0
M  V30 4988 H 488.365 -1.15258 1.51049 0
M  V30 4989 H 486.515 -3.63046 1.3831 0
M  V30 4990 H 488.187 -2.62674 3.7921 0
M  V30 4991 H 486.43 -2.41278 3.6051 0
M  V30 4992 H 487.101 -4.03894 3.76263 0
M  V30 4993 H 489.577 -3.72106 1.86215 0
M  V30 4994 H 488.453 -5.09132 2.05124 0
M  V30 4995 H 488.714 -4.39711 0.458936 0
M  V30 4996 N 487.773 -1.03688 -1.18687 0
M  V30 4997 C 489.019 -0.739123 -1.88851 0
M  V30 4998 C 489.352 0.731042 -1.79915 0
M  V30 4999 O 488.627 1.53313 -1.19688 0
M  V30 5000 C 488.91 -1.20106 -3.3948 0
M  V30 5001 C 488.763 -2.73304 -3.57246 0
M  V30 5002 C 490.082 -0.788134 -4.32986 0
M  V30 5003 H 487.201 -0.269978 -0.68577 0
M  V30 5004 H 489.843 -1.28822 -1.3966 0
M  V30 5005 H 487.993 -0.733915 -3.81505 0
M  V30 5006 H 489.665 -3.28027 -3.24339 0
M  V30 5007 H 487.908 -3.13313 -3.00029 0
M  V30 5008 H 488.579 -3.00684 -4.62918 0
M  V30 5009 H 491.055 -1.19005 -3.98719 0
M  V30 5010 H 489.931 -1.13915 -5.36949 0
M  V30 5011 H 490.192 0.308988 -4.41019 0
M  V30 5012 N 489.251 1.34841 -0.815825 0
M  V30 5013 C 490.476 2.03261 -0.41226 0
M  V30 5014 C 490.901 1.61055 0.971751 0
M  V30 5015 O 490.259 0.7917 1.63101 0
M  V30 5016 C 490.307 3.56914 -0.514289 0
M  V30 5017 O 489.411 4.09728 0.468675 0
M  V30 5018 H 488.752 0.641664 -0.170771 0
M  V30 5019 H 491.282 1.72241 -1.10427 0
M  V30 5020 H 491.292 4.06156 -0.387457 0
M  V30 5021 H 489.967 3.86982 -1.52375 0
M  V30 5022 H 488.544 3.71681 0.301316 0
M  V30 5023 N 490.729 0.570148 1.46925 0
M  V30 5024 C 492.145 0.23087 1.57921 0
M  V30 5025 C 492.345 -1.26676 1.56702 0
M  V30 5026 O 491.401 -2.04774 1.47729 0
M  V30 5027 C 492.714 0.868973 2.8787 0
M  V30 5028 C 494.262 0.841397 3.01479 0
M  V30 5029 C 494.737 1.45881 4.34146 0
M  V30 5030 N 496.228 1.42258 4.40814 0
M  V30 5031 C 496.963 1.8698 5.42057 0
M  V30 5032 N 496.459 2.39618 6.50042 0
M  V30 5033 N 498.252 1.77972 5.33181 0
M  V30 5034 H 490.403 1.54301 1.45962 0
M  V30 5035 H 492.666 0.644224 0.69547 0
M  V30 5036 H 492.372 1.922 2.94537 0
M  V30 5037 H 492.246 0.369682 3.75384 0
M  V30 5038 H 494.633 -0.202973 2.94401 0
M  V30 5039 H 494.714 1.37858 2.15474 0
M  V30 5040 H 494.358 2.50231 4.4198 0
M  V30 5041 H 494.288 0.896958 5.18905 0
M  V30 5042 H 496.779 1.03768 3.63374 0
M  V30 5043 H 497.092 2.71633 7.23488 0
M  V30 5044 H 495.437 2.43636 6.50897 0
M  V30 5045 H 498.628 1.36617 4.4772 0
M  V30 5046 H 498.801 2.13143 6.11943 0
M  V30 5047 N 492.207 -1.54576 0.307264 0
M  V30 5048 C 493.137 -2.26708 -0.55907 0
M  V30 5049 C 494.118 -1.26893 -1.1328 0
M  V30 5050 O 495.303 -1.55677 -1.16097 0
M  V30 5051 C 492.433 -3.01259 -1.72801 0
M  V30 5052 C 491.387 -4.08275 -1.28435 0
M  V30 5053 C 490.713 -4.70575 -2.53895 0
M  V30 5054 C 492.013 -5.2068 -0.411038 0
M  V30 5055 H 493.707 -2.9937 0.042576 0
M  V30 5056 H 491.253 -1.43983 0.0219173 0
M  V30 5057 H 493.206 -3.50444 -2.34023 0
M  V30 5058 H 491.93 -2.26187 -2.356 0
M  V30 5059 H 490.589 -3.59949 -0.695161 0
M  V30 5060 H 490.237 -3.92136 -3.15021 0
M  V30 5061 H 489.937 -5.42854 -2.24908 0
M  V30 5062 H 491.461 -5.22527 -3.15908 0
M  V30 5063 H 492.875 -5.65721 -0.929097 0
M  V30 5064 H 491.272 -5.99716 -0.214664 0
M  V30 5065 H 492.342 -4.81629 0.562287 0
M  V30 5066 N 493.685 -0.035106 -1.57561 0
M  V30 5067 C 494.633 0.962707 -2.11742 0
M  V30 5068 C 495.627 1.33296 -1.0454 0
M  V30 5069 O 496.833 1.31449 -1.22968 0
M  V30 5070 H 493.208 0.32826 -0.676572 0
M  V30 5071 H 495.179 0.48048 -2.94506 0
M  V30 5072 C 493.928 2.23388 -2.66445 0
M  V30 5073 H 493.251 1.95774 -3.48587 0
M  V30 5074 H 494.691 2.91402 -3.07995 0
M  V30 5075 C 493.15 2.96769 -1.59467 0
M  V30 5076 O 493.68 3.89105 -0.998 0
M  V30 5077 N 491.886 2.59212 -1.31369 0
M  V30 5078 H 491.433 1.84202 -1.80076 0
M  V30 5079 H 491.391 3.08618 -0.600173 0
M  V30 5080 N 495.163 1.55791 0.238111 0
M  V30 5081 C 496.411 1.77681 0.963001 0
M  V30 5082 C 496.732 0.600674 1.85518 0
M  V30 5083 O 496.002 -0.383182 1.92116 0
M  V30 5084 H 494.582 0.655315 0.358568 0
M  V30 5085 H 497.244 1.93239 0.253945 0
M  V30 5086 H 496.34 2.69177 1.57956 0
M  V30 5087 N 496.642 -0.504142 1.49319 0
M  V30 5088 C 497.867 -1.28729 1.62615 0
M  V30 5089 C 498.292 -1.85752 0.296309 0
M  V30 5090 O 497.65 -1.65704 -0.735649 0
M  V30 5091 C 497.698 -2.39561 2.69524 0
M  V30 5092 O 496.802 -3.43324 2.28478 0
M  V30 5093 H 496.143 -0.380172 0.544395 0
M  V30 5094 H 498.673 -0.603872 1.95485 0
M  V30 5095 H 498.683 -2.8537 2.91595 0
M  V30 5096 H 497.358 -1.97423 3.66056 0
M  V30 5097 H 495.935 -3.03455 2.16725 0
M  V30 5098 N 498.12 -1.38341 -0.754957 0
M  V30 5099 C 499.345 -1.37882 -1.5493 0
M  V30 5100 C 499.77 0.0296385 -1.88077 0
M  V30 5101 O 499.128 1.01133 -1.50472 0
M  V30 5102 C 499.176 -2.23996 -2.82592 0
M  V30 5103 O 498.28 -1.65612 -3.77686 0
M  V30 5104 H 497.621 -0.470384 -0.468652 0
M  V30 5105 H 500.151 -1.82084 -0.933082 0
M  V30 5106 H 500.161 -2.37806 -3.3153 0
M  V30 5107 H 498.836 -3.26365 -2.57796 0
M  V30 5108 H 497.413 -1.60936 -3.36384 0
M  V30 5109 N 499.598 0.982988 -1.23187 0
M  V30 5110 C 500.528 2.09301 -1.03515 0
M  V30 5111 C 501.509 1.70035 0.0471136 0
M  V30 5112 O 502.694 1.93847 -0.117029 0
M  V30 5113 C 499.824 3.4167 -0.622791 0
M  V30 5114 C 498.778 3.94828 -1.65211 0
M  V30 5115 C 498.104 5.23362 -1.09527 0
M  V30 5116 C 499.404 4.2439 -3.04451 0
M  V30 5117 H 501.098 2.26016 -1.96359 0
M  V30 5118 H 498.644 1.08611 -0.945501 0
M  V30 5119 H 500.597 4.18746 -0.472233 0
M  V30 5120 H 499.321 3.24811 0.341329 0
M  V30 5121 H 497.98 3.19895 -1.79061 0
M  V30 5122 H 497.628 5.02852 -0.122211 0
M  V30 5123 H 497.328 5.59895 -1.783 0
M  V30 5124 H 498.852 6.03062 -0.956511 0
M  V30 5125 H 500.266 4.92225 -2.93917 0
M  V30 5126 H 498.663 4.72118 -3.70438 0
M  V30 5127 H 499.733 3.31765 -3.53638 0
M  V30 5128 N 501.076 1.04316 1.18135 0
M  V30 5129 C 502.026 0.606731 2.19779 0
M  V30 5130 C 503.01 -0.352144 1.56999 0
M  V30 5131 O 504.202 -0.170795 1.76174 0
M  V30 5132 C 501.331 -0.0262443 3.4329 0
M  V30 5133 C 500.417 0.955928 4.13186 0
M  V30 5134 N 500.808 2.12395 4.59045 0
M  V30 5135 C 499.106 0.782473 4.39082 0
M  V30 5136 C 499.807 2.74458 5.12882 0
M  V30 5137 N 498.783 2.02316 5.04548 0
M  V30 5138 H 502.585 1.49679 2.5293 0
M  V30 5139 H 500.099 0.912088 1.34368 0
M  V30 5140 H 502.096 -0.356617 4.15372 0
M  V30 5141 H 500.756 -0.911811 3.11635 0
M  V30 5142 H 501.767 2.50272 4.53414 0
M  V30 5143 H 498.444 -0.0527906 4.17467 0
M  V30 5144 H 499.834 3.73459 5.5855 0
M  V30 5145 N 502.554 -1.34406 0.822964 0
M  V30 5146 C 503.484 -2.32052 0.259608 0
M  V30 5147 C 504.465 -1.58243 -0.623961 0
M  V30 5148 O 505.65 -1.86224 -0.55083 0
M  V30 5149 C 502.78 -3.42434 -0.579314 0
M  V30 5150 C 501.734 -4.27499 0.20712 0
M  V30 5151 C 501.06 -5.29349 -0.754547 0
M  V30 5152 C 502.36 -5.02758 1.41533 0
M  V30 5153 H 504.054 -2.79418 1.07545 0
M  V30 5154 H 501.6 -1.34338 0.518593 0
M  V30 5155 H 503.553 -4.0976 -0.983612 0
M  V30 5156 H 502.277 -2.93717 -1.4282 0
M  V30 5157 H 500.936 -3.61776 0.592787 0
M  V30 5158 H 500.584 -4.76895 -1.59939 0
M  V30 5159 H 500.284 -5.8714 -0.232561 0
M  V30 5160 H 501.808 -5.99544 -1.1567 0
M  V30 5161 H 503.222 -5.62938 1.08504 0
M  V30 5162 H 501.619 -5.70123 1.87296 0
M  V30 5163 H 502.689 -4.32451 2.1935 0
M  V30 5164 N 504.032 -0.577932 -1.46621 0
M  V30 5165 C 504.942 0.160651 -2.34049 0
M  V30 5166 C 505.958 0.890911 -1.49462 0
M  V30 5167 O 507.134 0.855166 -1.82343 0
M  V30 5168 C 504.199 1.16447 -3.26559 0
M  V30 5169 C 503.26 0.4394 -4.27045 0
M  V30 5170 C 502.493 1.3954 -5.15135 0
M  V30 5171 O 502.716 2.63162 -5.06065 0
M  V30 5172 O 501.65 0.908585 -5.95003 0
M  V30 5173 H 505.476 -0.557057 -2.98547 0
M  V30 5174 H 503.061 -0.338369 -1.45518 0
M  V30 5175 H 504.943 1.7434 -3.83645 0
M  V30 5176 H 503.618 1.86373 -2.64663 0
M  V30 5177 H 502.525 -0.181247 -3.73661 0
M  V30 5178 H 503.858 -0.218799 -4.91713 0
M  V30 5179 N 505.51 1.54411 -0.315457 0
M  V30 5180 C 506.756 2.01425 0.282775 0
M  V30 5181 C 507.111 1.19978 1.5041 0
M  V30 5182 O 506.404 0.271766 1.89663 0
M  V30 5183 C 506.598 3.50936 0.676652 0
M  V30 5184 C 506.427 4.46856 -0.504954 0
M  V30 5185 C 505.197 4.95275 -1.00152 0
M  V30 5186 C 507.395 4.96141 -1.35456 0
M  V30 5187 N 505.377 5.75081 -2.14838 0
M  V30 5188 C 506.748 5.73791 -2.3487 0
M  V30 5189 C 508.803 4.78299 -1.38327 0
M  V30 5190 C 507.506 6.35498 -3.36949 0
M  V30 5191 C 509.532 5.40836 -2.39271 0
M  V30 5192 C 508.894 6.1833 -3.37413 0
M  V30 5193 H 504.993 0.779078 0.0675398 0
M  V30 5194 H 507.577 1.8946 -0.448656 0
M  V30 5195 H 505.748 3.63162 1.37723 0
M  V30 5196 H 507.48 3.84728 1.25566 0
M  V30 5197 H 504.235 4.70107 -0.574123 0
M  V30 5198 H 504.659 6.19664 -2.72665 0
M  V30 5199 H 509.301 4.17956 -0.638196 0
M  V30 5200 H 507.019 6.94967 -4.12367 0
M  V30 5201 H 510.605 5.28952 -2.42284 0
M  V30 5202 H 509.485 6.65861 -4.14244 0
M  V30 5203 N 506.988 0.0434614 1.5754 0
M  V30 5204 C 508.213 -0.645358 1.97104 0
M  V30 5205 C 508.638 -1.64037 0.920521 0
M  V30 5206 O 507.996 -1.80922 -0.11708 0
M  V30 5207 C 508.044 -1.31547 3.35749 0
M  V30 5208 O 507.148 -2.43103 3.33129 0
M  V30 5209 H 506.489 -0.168403 0.64229 0
M  V30 5210 H 509.019 0.109573 2.04306 0
M  V30 5211 H 509.029 -1.66895 3.72304 0
M  V30 5212 H 507.704 -0.586205 4.11748 0
M  V30 5213 H 506.281 -2.0976 3.0831 0
M  V30 5214 N 508.466 -1.55915 -0.229846 0
M  V30 5215 C 509.429 -1.90914 -1.26824 0
M  V30 5216 C 510.429 -0.786999 -1.40225 0
M  V30 5217 O 511.619 -1.05484 -1.38632 0
M  V30 5218 C 508.751 -2.15264 -2.64337 0
M  V30 5219 H 509.944 -2.8378 -0.969998 0
M  V30 5220 H 507.497 -1.49069 -0.4699 0
M  V30 5221 H 508.232 -1.24923 -2.99274 0
M  V30 5222 H 508.017 -2.97005 -2.55989 0
M  V30 5223 H 509.507 -2.43467 -3.39284 0
M  V30 5224 N 509.944 0.496216 -1.49584 0
M  V30 5225 C 511.355 1.07765 -1.52459 0
M  V30 5226 C 511.706 1.93679 -0.31353 0
M  V30 5227 O 510.831 2.08588 0.576186 0
M  V30 5228 C 511.426 1.96111 -2.76271 0
M  V30 5229 C 509.985 2.49409 -2.81908 0
M  V30 5230 C 509.132 1.27142 -2.46435 0
M  V30 5231 H 512.083 0.279914 -1.56212 0
M  V30 5232 H 512.104 2.80862 -2.56704 0
M  V30 5233 H 511.616 1.33555 -3.64396 0
M  V30 5234 H 509.717 3.1559 -1.98074 0
M  V30 5235 H 509.83 2.86234 -3.84196 0
M  V30 5236 H 508.194 1.59818 -1.98319 0
M  V30 5237 H 508.977 0.662866 -3.3684 0
M  V30 5238 N 511.423 1.38739 0.74761 0
M  V30 5239 C 512.353 1.39173 1.87492 0
M  V30 5240 C 513.334 0.256794 1.6815 0
M  V30 5241 O 514.519 0.460762 1.88655 0
M  V30 5242 C 511.649 1.22197 3.25093 0
M  V30 5243 C 510.603 2.32957 3.59047 0
M  V30 5244 C 509.929 2.01082 4.95449 0
M  V30 5245 C 511.229 3.75237 3.6331 0
M  V30 5246 H 512.923 2.3351 1.87386 0
M  V30 5247 H 510.469 1.12399 0.900134 0
M  V30 5248 H 512.422 1.21124 4.03617 0
M  V30 5249 H 511.146 0.243241 3.25693 0
M  V30 5250 H 509.805 2.33226 2.82845 0
M  V30 5251 H 509.453 1.01678 4.92616 0
M  V30 5252 H 509.153 2.75267 5.19136 0
M  V30 5253 H 510.677 2.01638 5.76346 0
M  V30 5254 H 512.091 3.76966 4.31937 0
M  V30 5255 H 510.488 4.48677 3.98509 0
M  V30 5256 H 511.558 4.07122 2.634 0
M  V30 5257 N 512.901 -0.976442 1.23707 0
M  V30 5258 C 513.811 -2.10359 1.03856 0
M  V30 5259 C 514.827 -1.73991 -0.0180919 0
M  V30 5260 O 516.003 -2.0061 0.178211 0
M  V30 5261 C 513.068 -3.40809 0.636387 0
M  V30 5262 C 512.129 -3.91179 1.76854 0
M  V30 5263 C 511.362 -5.15404 1.38546 0
M  V30 5264 O 511.585 -5.69754 0.27142 0
M  V30 5265 O 510.519 -5.5994 2.20797 0
M  V30 5266 H 514.345 -2.29997 1.98331 0
M  V30 5267 H 511.93 -1.08742 1.02448 0
M  V30 5268 H 513.812 -4.19269 0.423223 0
M  V30 5269 H 512.487 -3.22493 -0.279322 0
M  V30 5270 H 511.394 -3.13819 2.03638 0
M  V30 5271 H 512.727 -4.13958 2.6627 0
M  V30 5272 N 514.379 -1.04941 -1.1758 0
M  V30 5273 C 515.604 -0.778253 -1.92245 0
M  V30 5274 C 516.029 0.659707 -1.76152 0
M  V30 5275 O 515.387 1.45803 -1.07755 0
M  V30 5276 C 515.435 -1.16051 -3.41416 0
M  V30 5277 O 514.539 -0.291153 -4.11371 0
M  V30 5278 H 513.88 -0.285619 -0.599431 0
M  V30 5279 H 516.41 -1.40159 -1.49052 0
M  V30 5280 H 516.42 -1.12619 -3.92149 0
M  V30 5281 H 515.095 -2.208 -3.52449 0
M  V30 5282 H 513.672 -0.385851 -3.70898 0
M  V30 5283 N 515.857 1.33968 -0.830081 0
M  V30 5284 C 517.105 1.97672 -0.420734 0
M  V30 5285 C 517.426 1.66111 1.02138 0
M  V30 5286 O 516.696 0.955503 1.71017 0
M  V30 5287 H 515.276 0.73125 -0.152587 0
M  V30 5288 H 517.938 1.63483 -1.0611 0
M  V30 5289 H 517.034 3.07294 -0.545588 0
M  V30 5290 N 517.335 0.585699 1.46312 0
M  V30 5291 C 518.583 0.072278 2.01971 0
M  V30 5292 C 518.904 -1.29345 1.45928 0
M  V30 5293 O 518.174 -1.84973 0.645109 0
M  V30 5294 H 516.754 0.023729 0.746623 0
M  V30 5295 H 519.416 0.762155 1.7938 0
M  V30 5296 H 518.512 0.00552767 3.121 0
M  V30 5297 N 518.813 -1.54241 0.323641 0
M  V30 5298 C 520.229 -1.59574 -0.0290018 0
M  V30 5299 C 520.429 -1.34017 -1.50472 0
M  V30 5300 O 519.485 -1.12464 -2.26071 0
M  V30 5301 C 520.798 -2.98169 0.389295 0
M  V30 5302 C 522.346 -3.11148 0.339958 0
M  V30 5303 C 522.821 -4.5209 0.733418 0
M  V30 5304 N 524.312 -4.5808 0.686827 0
M  V30 5305 C 525.047 -5.65248 0.963464 0
M  V30 5306 N 524.543 -6.80355 1.30724 0
M  V30 5307 N 526.336 -5.55025 0.88902 0
M  V30 5308 H 518.487 -1.6911 1.28512 0
M  V30 5309 H 520.75 -0.790972 0.522558 0
M  V30 5310 H 520.456 -3.21871 1.41746 0
M  V30 5311 H 520.33 -3.76399 -0.245657 0
M  V30 5312 H 522.717 -2.87182 -0.679002 0
M  V30 5313 H 522.798 -2.35023 1.00985 0
M  V30 5314 H 522.442 -4.76788 1.75029 0
M  V30 5315 H 522.372 -5.26584 0.0412189 0
M  V30 5316 H 524.863 -3.75411 0.43298 0
M  V30 5317 H 525.176 -7.58029 1.5037 0
M  V30 5318 H 523.521 -6.81851 1.3455 0
M  V30 5319 H 526.712 -4.63977 0.619939 0
M  V30 5320 H 526.885 -6.38458 1.10797 0
M  V30 5321 N 520.291 -0.0518155 -1.57515 0
M  V30 5322 C 521.201 0.937539 -2.15052 0
M  V30 5323 C 522.217 1.34121 -1.10849 0
M  V30 5324 O 523.393 1.418 -1.4302 0
M  V30 5325 C 520.458 2.19379 -2.68466 0
M  V30 5326 C 519.519 1.84841 -3.87469 0
M  V30 5327 C 518.752 3.04477 -4.38326 0
M  V30 5328 O 518.975 4.17868 -3.88256 0
M  V30 5329 O 517.909 2.85453 -5.29906 0
M  V30 5330 H 521.735 0.478201 -2.99912 0
M  V30 5331 H 519.32 0.17012 -1.48428 0
M  V30 5332 H 521.202 2.93084 -3.02787 0
M  V30 5333 H 519.877 2.64449 -1.86677 0
M  V30 5334 H 518.784 1.08449 -3.58036 0
M  V30 5335 H 520.117 1.44569 -4.7049 0
M  V30 5336 N 521.769 1.56035 0.221574 0
M  V30 5337 C 523.046 1.69837 0.970301 0
M  V30 5338 C 523.426 0.599065 2.02421 0
M  V30 5339 O 522.774 -0.393929 2.25079 0
M  V30 5340 C 522.984 3.11148 1.58076 0
M  V30 5341 C 524.332 3.70555 2.07302 0
M  V30 5342 O 525.356 3.14109 1.6797 0
M  V30 5343 O 524.215 4.69562 2.79596 0
M  V30 5344 H 521.309 0.691727 0.453257 0
M  V30 5345 H 523.855 1.68353 0.213358 0
M  V30 5346 H 522.627 3.82617 0.819759 0
M  V30 5347 H 522.25 3.16749 2.40324 0
M  V30 5348 N 523.247 -0.488276 1.49845 0
M  V30 5349 C 524.177 -1.59675 1.70371 0
M  V30 5350 C 525.158 -1.60878 0.552473 0
M  V30 5351 O 526.343 -1.77417 0.78973 0
M  V30 5352 C 523.473 -2.98098 1.782 0
M  V30 5353 C 522.427 -3.11761 2.93239 0
M  V30 5354 C 521.753 -4.51661 2.86193 0
M  V30 5355 C 523.053 -2.90589 4.33999 0
M  V30 5356 H 524.747 -1.42752 2.63177 0
M  V30 5357 H 522.293 -0.685317 1.26647 0
M  V30 5358 H 524.246 -3.75555 1.91144 0
M  V30 5359 H 522.97 -3.16138 0.820018 0
M  V30 5360 H 521.629 -2.36732 2.79917 0
M  V30 5361 H 521.277 -4.66595 1.87877 0
M  V30 5362 H 520.977 -4.61742 3.63412 0
M  V30 5363 H 522.501 -5.31162 3.01163 0
M  V30 5364 H 523.915 -3.57807 4.47936 0
M  V30 5365 H 522.312 -3.1213 5.12538 0
M  V30 5366 H 523.382 -1.86595 4.4756 0
M  V30 5367 N 524.725 -1.39134 -0.740242 0
M  V30 5368 C 525.953 -1.39334 -1.5295 0
M  V30 5369 C 526.368 0.0135008 -1.88795 0
M  V30 5370 O 525.725 0.983524 -1.5373 0
M  V30 5371 C 525.776 -2.2614 -2.82034 0
M  V30 5372 O 525.497 -3.61345 -2.47712 0
M  V30 5373 C 526.998 -2.34666 -3.76094 0
M  V30 5374 H 524.218 -0.476103 -0.472828 0
M  V30 5375 H 526.762 -1.82883 -0.9151 0
M  V30 5376 H 524.917 -1.86018 -3.39818 0
M  V30 5377 H 525.331 -4.07194 -3.30595 0
M  V30 5378 H 526.805 -2.99663 -4.63579 0
M  V30 5379 H 527.282 -1.36426 -4.17474 0
M  V30 5380 H 527.888 -2.75236 -3.2423 0
M  V30 5381 N 526.204 0.969867 -1.24223 0
M  V30 5382 C 527.434 1.74502 -1.106 0
M  V30 5383 C 527.842 1.86038 0.344483 0
M  V30 5384 O 527.185 1.3465 1.24961 0
M  V30 5385 C 527.247 3.18391 -1.66935 0
M  V30 5386 C 526.911 3.30334 -3.15798 0
M  V30 5387 C 527.908 3.15832 -4.12973 0
M  V30 5388 C 525.593 3.54644 -3.55715 0
M  V30 5389 C 527.587 3.25461 -5.48045 0
M  V30 5390 C 525.274 3.63912 -4.90929 0
M  V30 5391 C 526.272 3.49332 -5.86904 0
M  V30 5392 O 525.96 3.58251 -7.1966 0
M  V30 5393 H 525.692 0.554119 -0.387206 0
M  V30 5394 H 528.246 1.22646 -1.64764 0
M  V30 5395 H 526.476 3.71543 -1.07203 0
M  V30 5396 H 528.165 3.77707 -1.48634 0
M  V30 5397 H 528.931 2.96937 -3.83476 0
M  V30 5398 H 524.81 3.65059 -2.81519 0
M  V30 5399 H 528.354 3.13998 -6.22937 0
M  V30 5400 H 524.251 3.82319 -5.20098 0
M  V30 5401 H 525.019 3.7498 -7.27552 0
M  V30 5402 N 527.682 1.05563 1.17022 0
M  V30 5403 C 528.645 0.664098 2.19368 0
M  V30 5404 C 529.645 -0.286358 1.5823 0
M  V30 5405 O 530.835 -0.069728 1.7406 0
M  V30 5406 C 527.967 -0.0239932 3.40892 0
M  V30 5407 H 529.16 1.57 2.55521 0
M  V30 5408 H 526.713 0.849964 1.31169 0
M  V30 5409 H 527.448 -0.942988 3.10287 0
M  V30 5410 H 527.233 0.659351 3.86516 0
M  V30 5411 H 528.723 -0.283909 4.16634 0
M  V30 5412 N 529.16 -1.33526 0.837174 0
M  V30 5413 C 530.09 -2.31764 0.284206 0
M  V30 5414 C 531.071 -1.58896 -0.607142 0
M  V30 5415 O 532.256 -1.86798 -0.531047 0
M  V30 5416 C 529.386 -3.43029 -0.542962 0
M  V30 5417 C 528.34 -4.27255 0.252451 0
M  V30 5418 C 527.666 -5.3012 -0.69836 0
M  V30 5419 C 528.966 -5.01229 1.46858 0
M  V30 5420 H 530.66 -2.78262 1.10502 0
M  V30 5421 H 528.206 -1.3378 0.532812 0
M  V30 5422 H 530.159 -4.1078 -0.940096 0
M  V30 5423 H 528.883 -2.95216 -1.39697 0
M  V30 5424 H 527.542 -3.61127 0.631124 0
M  V30 5425 H 527.19 -4.78564 -1.54872 0
M  V30 5426 H 526.89 -5.87353 -0.170274 0
M  V30 5427 H 528.414 -6.00737 -1.09305 0
M  V30 5428 H 529.828 -5.61756 1.14469 0
M  V30 5429 H 528.225 -5.68104 1.93333 0
M  V30 5430 H 529.295 -4.301 2.23924 0
M  V30 5431 N 530.638 -0.59345 -1.46 0
M  V30 5432 C 532.054 -0.255965 -1.57534 0
M  V30 5433 C 532.254 1.24167 -1.58697 0
M  V30 5434 O 531.31 2.02398 -1.50968 0
M  V30 5435 C 532.623 -0.91466 -2.86451 0
M  V30 5436 C 534.171 -0.889253 -3.00102 0
M  V30 5437 C 534.646 -1.52769 -4.3177 0
M  V30 5438 N 536.137 -1.49253 -4.38495 0
M  V30 5439 C 536.872 -1.9558 -5.39014 0
M  V30 5440 N 536.368 -2.49929 -6.46148 0
M  V30 5441 N 538.161 -1.86432 -5.30282 0
M  V30 5442 H 530.312 -1.56604 -1.43489 0
M  V30 5443 H 532.575 -0.655207 -0.685133 0
M  V30 5444 H 532.281 -1.96861 -2.91442 0
M  V30 5445 H 532.155 -0.429356 -3.74748 0
M  V30 5446 H 534.542 0.156111 -2.94687 0
M  V30 5447 H 534.623 -1.41268 -2.13253 0
M  V30 5448 H 534.267 -2.57231 -4.37944 0
M  V30 5449 H 534.197 -0.979398 -5.17412 0
M  V30 5450 H 536.688 -1.09536 -3.61677 0
M  V30 5451 H 537.001 -2.83109 -7.19075 0
M  V30 5452 H 535.346 -2.53961 -6.46938 0
M  V30 5453 H 538.537 -1.43722 -4.4549 0
M  V30 5454 H 538.71 -2.22852 -6.08474 0
M  V30 5455 N 532.116 1.54067 -0.331816 0
M  V30 5456 C 533.356 2.02625 0.26876 0
M  V30 5457 C 533.72 1.21462 1.48697 0
M  V30 5458 O 534.921 1.59863 2.16096 0
M  V30 5459 C 533.192 3.52554 0.586577 0
M  V30 5460 S 534.751 4.23035 1.16563 0
M  V30 5461 H 531.569 0.706395 0.0807862 0
M  V30 5462 H 534.171 1.89844 -0.466856 0
M  V30 5463 H 532.875 4.09242 -0.308046 0
M  V30 5464 H 532.406 3.69432 1.35217 0
M  V30 5465 H 534.421 4.31382 2.45203 0
M  V30 5466 N 533.594 0.0601682 1.57485 0
M  V30 5467 C 535.01 -0.296422 1.56823 0
M  V30 5468 C 535.21 -1.70831 1.0686 0
M  V30 5469 O 534.266 -2.4174 0.729245 0
M  V30 5470 C 535.579 -0.116681 3.00474 0
M  V30 5471 C 537.127 -0.187103 3.1244 0
M  V30 5472 C 537.602 -0.035783 4.57986 0
M  V30 5473 N 539.093 -0.0917676 4.63109 0
M  V30 5474 C 539.828 0.00107251 5.734 0
M  V30 5475 N 539.324 0.146773 6.92645 0
M  V30 5476 N 541.117 -0.0551577 5.62073 0
M  V30 5477 H 533.268 0.983055 1.88281 0
M  V30 5478 H 535.531 0.382386 0.867459 0
M  V30 5479 H 535.237 0.85712 3.41096 0
M  V30 5480 H 535.111 -0.873929 3.66936 0
M  V30 5481 H 537.498 -1.15138 2.71712 0
M  V30 5482 H 537.579 0.601052 2.48638 0
M  V30 5483 H 537.223 0.925212 4.99402 0
M  V30 5484 H 537.153 -0.843196 5.19806 0
M  V30 5485 H 539.644 -0.203261 3.77353 0
M  V30 5486 H 539.957 0.210076 7.72514 0
M  V30 5487 H 538.302 0.181979 6.94762 0
M  V30 5488 H 541.493 -0.167605 4.678 0
M  V30 5489 H 541.666 0.020652 6.47997 0
M  V30 5490 N 535.072 -1.5615 -0.213296 0
M  V30 5491 C 535.982 -1.96265 -1.28519 0
M  V30 5492 C 536.998 -0.86765 -1.50824 0
M  V30 5493 O 538.174 -1.17191 -1.63793 0
M  V30 5494 C 535.239 -2.27836 -2.61327 0
M  V30 5495 C 534.3 -3.50949 -2.47252 0
M  V30 5496 C 533.533 -3.81004 -3.73727 0
M  V30 5497 O 533.756 -3.12612 -4.77106 0
M  V30 5498 O 532.69 -4.74477 -3.70344 0
M  V30 5499 H 536.516 -2.87631 -0.974795 0
M  V30 5500 H 534.101 -1.43467 -0.416832 0
M  V30 5501 H 535.983 -2.49299 -3.39747 0
M  V30 5502 H 534.658 -1.39643 -2.9203 0
M  V30 5503 H 533.565 -3.34754 -1.67004 0
M  V30 5504 H 534.898 -4.39551 -2.21486 0
M  V30 5505 N 536.55 0.480323 -1.50102 0
M  V30 5506 C 537.79 1.24301 -1.62261 0
M  V30 5507 C 538.154 1.89452 -0.311758 0
M  V30 5508 O 539.355 2.67022 -0.308696 0
M  V30 5509 C 537.626 2.26588 -2.76392 0
M  V30 5510 S 539.185 3.11919 -3.08629 0
M  V30 5511 H 536.003 0.42215 -0.57211 0
M  V30 5512 H 538.605 0.541591 -1.87848 0
M  V30 5513 H 537.309 1.7729 -3.70131 0
M  V30 5514 H 536.84 3.01371 -2.52862 0
M  V30 5515 H 538.855 4.27598 -2.51742 0
M  V30 5516 N 538.028 1.39524 0.732853 0
M  V30 5517 C 539.444 1.21176 1.03868 0
M  V30 5518 C 539.644 0.0748448 2.01361 0
M  V30 5519 O 538.7 -0.57281 2.45917 0
M  V30 5520 C 540.013 2.54667 1.59892 0
M  V30 5521 C 541.561 2.6153 1.71962 0
M  V30 5522 C 542.036 3.95248 2.31394 0
M  V30 5523 N 543.527 3.96899 2.38801 0
M  V30 5524 C 544.262 4.97138 2.85729 0
M  V30 5525 N 543.758 6.07775 3.32537 0
M  V30 5526 N 545.551 4.84516 2.84957 0
M  V30 5527 H 537.702 2.12225 0.086304 0
M  V30 5528 H 539.965 0.942614 0.100907 0
M  V30 5529 H 539.671 3.38423 0.95721 0
M  V30 5530 H 539.545 2.74538 2.58668 0
M  V30 5531 H 541.932 1.78156 2.35254 0
M  V30 5532 H 542.013 2.45507 0.718327 0
M  V30 5533 H 541.657 4.79054 1.68729 0
M  V30 5534 H 541.587 4.08593 3.32204 0
M  V30 5535 H 544.078 3.16998 2.05719 0
M  V30 5536 H 544.391 6.8017 3.66862 0
M  V30 5537 H 542.736 6.11366 3.30541 0
M  V30 5538 H 545.927 3.97185 2.47713 0
M  V30 5539 H 546.1 5.62783 3.21215 0
M  V30 5540 N 539.506 -0.963266 1.24736 0
M  V30 5541 C 540.917 -1.52145 1.08207 0
M  V30 5542 C 541.268 -1.93142 -0.345061 0
M  V30 5543 O 540.393 -1.77769 -1.23399 0
M  V30 5544 C 540.988 -2.76486 1.95808 0
M  V30 5545 C 539.547 -3.28646 1.8349 0
M  V30 5546 C 538.694 -2.01529 1.90476 0
M  V30 5547 H 541.645 -0.781083 1.38148 0
M  V30 5548 H 541.666 -3.49986 1.49297 0
M  V30 5549 H 541.178 -2.46617 2.99669 0
M  V30 5550 H 539.279 -3.63357 0.824787 0
M  V30 5551 H 539.392 -3.97246 2.67829 0
M  V30 5552 H 537.756 -2.16442 1.34258 0
M  V30 5553 H 538.539 -1.7402 2.95926 0
M  V30 5554 N 540.985 -1.06182 -1.16461 0
M  V30 5555 C 542.233 -0.776326 -1.86595 0
M  V30 5556 C 542.554 0.69921 -1.82033 0
M  V30 5557 O 541.824 1.50579 -1.2531 0
M  V30 5558 H 540.404 -0.284184 -0.690832 0
M  V30 5559 H 543.066 -1.34308 -1.41235 0
M  V30 5560 H 542.162 -1.10022 -2.92064 0
M  V30 5561 N 542.463 1.3308 -0.844243 0
M  V30 5562 C 543.711 1.97215 -0.441676 0
M  V30 5563 C 544.032 1.67185 1.0037 0
M  V30 5564 O 543.302 0.973588 1.69994 0
M  V30 5565 H 541.882 0.72959 -0.160335 0
M  V30 5566 H 544.544 1.62348 -1.07838 0
M  V30 5567 H 543.64 3.06698 -0.57815 0
M  V30 5568 N 543.941 0.601185 1.45683 0
M  V30 5569 C 545.166 0.0982245 2.07167 0
M  V30 5570 C 545.591 -1.20546 1.44396 0
M  V30 5571 O 544.949 -1.73247 0.534347 0
M  V30 5572 C 544.997 -0.0346976 3.60583 0
M  V30 5573 O 544.101 -1.08657 3.97828 0
M  V30 5574 H 543.442 0.0711618 0.660176 0
M  V30 5575 H 545.972 0.829376 1.87036 0
M  V30 5576 H 545.982 -0.234969 4.07323 0
M  V30 5577 H 544.657 0.917265 4.05659 0
M  V30 5578 H 543.234 -0.863275 3.6277 0
M  V30 5579 N 545.419 -1.53889 0.339982 0
M  V30 5580 C 546.659 -2.02765 -0.258011 0
M  V30 5581 C 547.023 -1.22249 -1.48051 0
M  V30 5582 O 548.224 -1.61007 -2.15245 0
M  V30 5583 C 546.495 -3.5286 -0.567872 0
M  V30 5584 S 548.054 -4.23647 -1.14318 0
M  V30 5585 H 544.872 -0.706814 -0.0770389 0
M  V30 5586 H 547.474 -1.89594 0.476917 0
M  V30 5587 H 546.178 -4.09073 0.329745 0
M  V30 5588 H 545.709 -3.70144 -1.33256 0
M  V30 5589 H 547.724 -4.32676 -2.42911 0
M  V30 5590 N 546.897 -0.0685191 -1.57451 0
M  V30 5591 C 547.86 0.885173 -2.11417 0
M  V30 5592 C 548.86 1.22853 -1.03748 0
M  V30 5593 O 550.05 1.16235 -1.2975 0
M  V30 5594 C 547.182 2.18964 -2.61281 0
M  V30 5595 H 548.375 0.417034 -2.96986 0
M  V30 5596 H 545.928 0.18014 -1.55258 0
M  V30 5597 H 546.663 2.70321 -1.79156 0
M  V30 5598 H 546.448 1.9534 -3.39977 0
M  V30 5599 H 547.938 2.87242 -3.0312 0
M  V30 5600 N 548.375 1.56261 0.205012 0
M  V30 5601 C 549.786 1.70056 0.770574 0
M  V30 5602 C 550.137 0.673398 1.84282 0
M  V30 5603 O 549.262 -0.172196 2.15714 0
M  V30 5604 C 549.857 3.08316 1.40451 0
M  V30 5605 C 548.416 3.2391 1.91727 0
M  V30 5606 C 547.563 2.66001 0.783516 0
M  V30 5607 H 550.514 1.58688 -0.019911 0
M  V30 5608 H 550.535 3.05094 2.27371 0
M  V30 5609 H 550.047 3.83053 0.623882 0
M  V30 5610 H 548.148 2.54072 2.7254 0
M  V30 5611 H 548.261 4.3131 2.08588 0
M  V30 5612 H 546.625 2.24915 1.19521 0
M  V30 5613 H 547.408 3.43297 0.0152883 0
M  V30 5614 N 549.853 -0.472356 1.50355 0
M  V30 5615 C 551.093 -1.23439 1.62918 0
M  V30 5616 C 551.457 -1.89284 0.321801 0
M  V30 5617 O 552.658 -2.66854 0.322852 0
M  V30 5618 C 550.929 -2.25119 2.7759 0
M  V30 5619 S 552.488 -3.10278 3.10279 0
M  V30 5620 H 549.306 -0.41911 0.574341 0
M  V30 5621 H 551.908 -0.531621 1.88133 0
M  V30 5622 H 550.612 -1.75324 3.71066 0
M  V30 5623 H 550.143 -3.00026 2.54457 0
M  V30 5624 H 552.158 -4.26257 2.54007 0
M  V30 5625 N 551.331 -1.39911 -0.725443 0
M  V30 5626 C 552.579 -1.37382 -1.48224 0
M  V30 5627 C 552.9 0.0264107 -1.94982 0
M  V30 5628 O 552.17 0.979408 -1.6966 0
M  V30 5629 H 550.75 -0.505596 -0.549892 0
M  V30 5630 H 553.412 -1.7487 -0.860608 0
M  V30 5631 H 552.508 -2.04254 -2.3598 0
M  V30 5632 N 552.809 0.956637 -1.25245 0
M  V30 5633 C 554.057 1.69764 -1.09657 0
M  V30 5634 C 554.378 1.91583 0.363464 0
M  V30 5635 O 553.648 1.50149 1.25825 0
M  V30 5636 H 552.228 0.629097 -0.402798 0
M  V30 5637 H 554.89 1.15026 -1.57337 0
M  V30 5638 H 553.986 2.67769 -1.60331 0
M  V30 5639 N 554.287 1.06798 1.15896 0
M  V30 5640 C 555.564 0.701057 1.82605 0
M  V30 5641 C 555.944 -0.817066 1.94646 0
M  V30 5642 O 555.292 -1.72933 1.49353 0
M  V30 5643 C 555.502 1.40895 3.19296 0
M  V30 5644 C 556.85 1.55744 3.95005 0
M  V30 5645 O 557.874 1.36927 3.28831 0
M  V30 5646 O 556.733 1.86658 5.13635 0
M  V30 5647 H 553.827 0.248791 0.78869 0
M  V30 5648 H 556.373 1.16857 1.23055 0
M  V30 5649 H 555.145 2.4439 3.05596 0
M  V30 5650 H 554.768 0.931847 3.86526 0
M  V30 5651 N 555.766 -1.3263 0.851289 0
M  V30 5652 C 556.696 -2.31449 0.308771 0
M  V30 5653 C 557.677 -1.59531 -0.590255 0
M  V30 5654 O 558.862 -1.87351 -0.511205 0
M  V30 5655 C 555.992 -3.43586 -0.506548 0
M  V30 5656 C 554.946 -4.26963 0.297753 0
M  V30 5657 C 554.272 -5.30831 -0.642094 0
M  V30 5658 C 555.572 -4.99643 1.52166 0
M  V30 5659 H 557.266 -2.77074 1.13447 0
M  V30 5660 H 554.812 -1.33207 0.546971 0
M  V30 5661 H 556.765 -4.11754 -0.896474 0
M  V30 5662 H 555.489 -2.96681 -1.36558 0
M  V30 5663 H 554.148 -3.60437 0.669391 0
M  V30 5664 H 553.796 -4.8018 -1.49788 0
M  V30 5665 H 553.496 -5.87501 -0.107968 0
M  V30 5666 H 555.02 -6.01862 -1.02927 0
M  V30 5667 H 556.434 -5.6051 1.20421 0
M  V30 5668 H 554.831 -5.66022 1.99347 0
M  V30 5669 H 555.901 -4.27701 2.28474 0
M  V30 5670 N 557.244 -0.608902 -1.45362 0
M  V30 5671 C 558.472 -0.111013 -2.06602 0
M  V30 5672 C 558.887 1.20516 -1.45332 0
M  V30 5673 O 558.244 1.73437 -0.567978 0
M  V30 5674 C 558.295 0.033688 -3.61484 0
M  V30 5675 O 558.016 -1.23041 -4.20467 0
M  V30 5676 C 559.517 0.562882 -4.39712 0
M  V30 5677 H 556.737 -0.0694453 -0.667397 0
M  V30 5678 H 559.281 -0.837008 -1.86586 0
M  V30 5679 H 557.436 0.710016 -3.80838 0
M  V30 5680 H 557.85 -1.06094 -5.13658 0
M  V30 5681 H 559.324 0.613213 -5.48583 0
M  V30 5682 H 559.801 1.58543 -4.09586 0
M  V30 5683 H 560.407 -0.0794454 -4.25226 0
M  V30 5684 N 558.722 1.53707 -0.348139 0
M  V30 5685 C 559.969 2.00988 0.246966 0
M  V30 5686 C 560.297 1.23586 1.50189 0
M  V30 5687 O 559.552 0.312817 1.93184 0
M  V30 5688 C 559.851 3.52292 0.602061 0
M  V30 5689 C 559.517 4.47453 -0.556509 0
M  V30 5690 C 558.179 4.73188 -0.874446 0
M  V30 5691 C 560.531 5.03851 -1.33354 0
M  V30 5692 C 557.859 5.52577 -1.9717 0
M  V30 5693 C 560.211 5.84437 -2.42108 0
M  V30 5694 C 558.875 6.08465 -2.74456 0
M  V30 5695 H 558.145 0.735469 0.0903712 0
M  V30 5696 H 560.792 1.85464 -0.477001 0
M  V30 5697 H 559.097 3.65672 1.40681 0
M  V30 5698 H 560.794 3.86337 1.07447 0
M  V30 5699 H 557.384 4.27558 -0.298652 0
M  V30 5700 H 561.568 4.8393 -1.10117 0
M  V30 5701 H 556.824 5.69418 -2.22651 0
M  V30 5702 H 560.998 6.27151 -3.02745 0
M  V30 5703 H 558.625 6.69768 -3.59604 0
M  V30 5704 N 560.2 0.0768682 1.57412 0
M  V30 5705 C 561.477 -0.632359 1.85096 0
M  V30 5706 C 561.857 -1.87479 0.9703 0
M  V30 5707 O 561.205 -2.28469 0.0379062 0
M  V30 5708 C 561.415 -0.965174 3.35388 0
M  V30 5709 C 562.763 -1.33648 4.03018 0
M  V30 5710 O 563.787 -1.05675 3.40164 0
M  V30 5711 O 562.646 -1.85959 5.13889 0
M  V30 5712 H 559.74 -0.314574 0.764835 0
M  V30 5713 H 562.286 0.108184 1.69355 0
M  V30 5714 H 561.058 -0.0829745 3.91212 0
M  V30 5715 H 560.681 -1.76231 3.5641 0
M  V30 5716 N 561.678 -1.56367 -0.196722 0
M  V30 5717 C 563.089 -1.70462 -0.761545 0
M  V30 5718 C 563.44 -0.683161 -1.83922 0
M  V30 5719 O 562.565 0.160753 -2.15802 0
M  V30 5720 C 563.16 -3.09057 -1.38814 0
M  V30 5721 C 561.719 -3.24922 -1.90007 0
M  V30 5722 C 560.866 -2.66412 -0.769399 0
M  V30 5723 H 563.817 -1.58675 0.0283263 0
M  V30 5724 H 563.838 -3.06296 -2.2575 0
M  V30 5725 H 563.35 -3.83378 -0.603559 0
M  V30 5726 H 561.451 -2.55514 -2.71189 0
M  V30 5727 H 561.564 -4.3241 -2.06297 0
M  V30 5728 H 559.928 -2.25546 -1.18326 0
M  V30 5729 H 560.711 -3.433 0.00291773 0
M  V30 5730 N 563.156 0.464375 -1.50603 0
M  V30 5731 C 564.404 1.21356 -1.61608 0
M  V30 5732 C 564.725 1.92329 -0.321643 0
M  V30 5733 O 563.995 1.84403 0.661232 0
M  V30 5734 H 562.575 0.45094 -0.595535 0
M  V30 5735 H 565.237 0.535046 -1.87412 0
M  V30 5736 H 564.333 1.95783 -2.43054 0
M  V30 5737 N 564.634 1.40294 0.718013 0
M  V30 5738 C 566.045 1.34289 1.29705 0
M  V30 5739 C 566.396 0.0152228 1.96194 0
M  V30 5740 O 565.521 -0.88682 1.97394 0
M  V30 5741 C 566.116 2.43219 2.3586 0
M  V30 5742 C 564.675 2.40682 2.89394 0
M  V30 5743 C 563.822 2.24223 1.63154 0
M  V30 5744 H 566.773 1.50135 0.514312 0
M  V30 5745 H 566.794 2.10986 3.16647 0
M  V30 5746 H 566.306 3.39836 1.87439 0
M  V30 5747 H 564.407 1.47756 3.42051 0
M  V30 5748 H 564.52 3.36177 3.41353 0
M  V30 5749 H 562.884 1.71696 1.88129 0
M  V30 5750 H 563.667 3.22834 1.16761 0
M  V30 5751 N 566.112 -0.949982 1.2575 0
M  V30 5752 C 567.528 -1.22191 1.02672 0
M  V30 5753 C 567.728 -1.99898 -0.253588 0
M  V30 5754 O 566.784 -2.33329 -0.965076 0
M  V30 5755 C 568.097 -1.99175 2.25277 0
M  V30 5756 C 569.645 -2.12201 2.30087 0
M  V30 5757 C 570.12 -2.92586 3.5236 0
M  V30 5758 N 571.611 -3.00163 3.52784 0
M  V30 5759 C 572.346 -3.62766 4.44059 0
M  V30 5760 N 571.842 -4.26943 5.45611 0
M  V30 5761 N 573.635 -3.59953 4.3173 0
M  V30 5762 H 565.786 -0.430258 2.07996 0
M  V30 5763 H 568.049 -0.252844 0.91366 0
M  V30 5764 H 567.755 -1.49479 3.18354 0
M  V30 5765 H 567.629 -2.99868 2.28821 0
M  V30 5766 H 570.016 -2.61093 1.3753 0
M  V30 5767 H 570.097 -1.10799 2.30559 0
M  V30 5768 H 569.741 -2.44383 4.45241 0
M  V30 5769 H 569.671 -3.94224 3.49134 0
M  V30 5770 H 572.162 -2.54529 2.79327 0
M  V30 5771 H 572.475 -4.72583 6.11461 0
M  V30 5772 H 570.82 -4.25557 5.49478 0
M  V30 5773 H 574.011 -3.09003 3.51617 0
M  V30 5774 H 574.184 -4.08455 5.03059 0
M  V30 5775 N 567.59 -1.07411 -1.15328 0
M  V30 5776 C 568.867 -0.710732 -1.82231 0
M  V30 5777 C 569.247 0.806732 -1.95077 0
M  V30 5778 O 568.595 1.72139 -1.50268 0
M  V30 5779 C 568.805 -1.42586 -3.18544 0
M  V30 5780 C 570.153 -1.57836 -3.94174 0
M  V30 5781 O 571.177 -1.38669 -3.281 0
M  V30 5782 O 570.036 -1.8938 -5.12638 0
M  V30 5783 H 567.13 -0.25297 -0.78736 0
M  V30 5784 H 569.676 -1.17508 -1.22434 0
M  V30 5785 H 568.448 -2.46008 -3.04296 0
M  V30 5786 H 568.071 -0.952332 -3.86026 0
M  V30 5787 N 569.068 1.32177 -0.85831 0
M  V30 5788 C 569.998 2.31282 -0.321041 0
M  V30 5789 C 570.979 1.59841 0.581786 0
M  V30 5790 O 572.164 1.87619 0.501262 0
M  V30 5791 C 569.294 3.4385 0.48832 0
M  V30 5792 C 568.248 4.26799 -0.320391 0
M  V30 5793 C 567.574 5.31164 0.613934 0
M  V30 5794 C 568.874 4.98829 -1.54813 0
M  V30 5795 H 570.568 2.76469 -1.14915 0
M  V30 5796 H 568.114 1.32916 -0.554028 0
M  V30 5797 H 570.067 4.12224 0.874626 0
M  V30 5798 H 568.791 2.97401 1.34983 0
M  V30 5799 H 567.45 3.60077 -0.688497 0
M  V30 5800 H 567.098 4.80967 1.47239 0
M  V30 5801 H 566.798 5.8755 0.0768097 0
M  V30 5802 H 568.322 6.024 0.997336 0
M  V30 5803 H 569.736 5.59864 -1.23392 0
M  V30 5804 H 568.133 5.64957 -2.02346 0
M  V30 5805 H 569.203 4.26483 -2.30739 0
M  V30 5806 N 570.547 0.616602 1.45037 0
M  V30 5807 C 571.793 0.115501 2.02471 0
M  V30 5808 C 572.126 -1.25406 1.4828 0
M  V30 5809 O 571.401 -1.82922 0.661051 0
M  V30 5810 C 571.684 0.0863588 3.59996 0
M  V30 5811 C 571.537 1.48723 4.24501 0
M  V30 5812 C 572.856 -0.596762 4.36035 0
M  V30 5813 H 569.975 0.0434461 0.735718 0
M  V30 5814 H 572.617 0.7903 1.72784 0
M  V30 5815 H 570.767 -0.488277 3.85419 0
M  V30 5816 H 572.439 2.10964 4.10234 0
M  V30 5817 H 570.682 2.04534 3.82555 0
M  V30 5818 H 571.353 1.419 5.3345 0
M  V30 5819 H 573.829 -0.10824 4.15959 0
M  V30 5820 H 572.705 -0.586289 5.4576 0
M  V30 5821 H 572.966 -1.66451 4.09569 0
M  V30 5822 N 572.025 -1.5352 0.356285 0
M  V30 5823 C 572.935 -2.29151 -0.502712 0
M  V30 5824 C 573.951 -1.34753 -1.1008 0
M  V30 5825 O 575.127 -1.67803 -1.11374 0
M  V30 5826 C 572.192 -3.05911 -1.63154 0
M  V30 5827 C 571.253 -4.15958 -1.06194 0
M  V30 5828 C 570.486 -4.8905 -2.13696 0
M  V30 5829 O 570.709 -4.61919 -3.34645 0
M  V30 5830 O 569.643 -5.75202 -1.77275 0
M  V30 5831 H 573.469 -3.03492 0.112466 0
M  V30 5832 H 571.054 -1.4891 0.120942 0
M  V30 5833 H 572.936 -3.53874 -2.28804 0
M  V30 5834 H 571.611 -2.34415 -2.23229 0
M  V30 5835 H 570.518 -3.7227 -0.369603 0
M  V30 5836 H 571.851 -4.89593 -0.505872 0
M  V30 5837 N 573.503 -0.0852151 -1.57369 0
M  V30 5838 C 574.914 0.445428 -1.81309 0
M  V30 5839 C 575.265 1.68795 -1.00013 0
M  V30 5840 O 574.39 2.15211 -0.226573 0
M  V30 5841 C 574.985 0.814887 -3.28854 0
M  V30 5842 C 573.544 1.29032 -3.53592 0
M  V30 5843 C 572.691 0.282089 -2.75861 0
M  V30 5844 H 575.642 -0.310771 -1.55627 0
M  V30 5845 H 575.663 1.67524 -3.41637 0
M  V30 5846 H 575.175 -0.0896309 -3.87996 0
M  V30 5847 H 573.276 2.21289 -2.9977 0
M  V30 5848 H 573.389 1.25898 -4.62262 0
M  V30 5849 H 571.753 0.762182 -2.43029 0
M  V30 5850 H 572.536 -0.614936 -3.37748 0
M  V30 5851 N 574.981 1.5647 0.188427 0
M  V30 5852 C 576.227 1.82181 0.904534 0
M  V30 5853 C 576.582 0.663258 1.80606 0
M  V30 5854 O 575.875 -0.341231 1.88537 0
M  V30 5855 C 576.069 3.11596 1.7505 0
M  V30 5856 C 575.898 4.39928 0.932372 0
M  V30 5857 C 574.668 5.01554 0.61417 0
M  V30 5858 C 576.866 5.13527 0.281936 0
M  V30 5859 N 574.848 6.13499 -0.221896 0
M  V30 5860 C 576.219 6.18603 -0.416037 0
M  V30 5861 C 578.274 4.97505 0.198345 0
M  V30 5862 C 576.977 7.09394 -1.18965 0
M  V30 5863 C 579.003 5.88725 -0.561887 0
M  V30 5864 C 578.365 6.93251 -1.24828 0
M  V30 5865 H 574.464 0.717858 0.310168 0
M  V30 5866 H 577.048 1.93932 0.172757 0
M  V30 5867 H 575.219 3.01068 2.45383 0
M  V30 5868 H 576.951 3.25369 2.4066 0
M  V30 5869 H 573.706 4.64174 0.940187 0
M  V30 5870 H 574.13 6.74065 -0.629735 0
M  V30 5871 H 578.772 4.16716 0.714665 0
M  V30 5872 H 576.49 7.8964 -1.71737 0
M  V30 5873 H 580.076 5.78401 -0.628009 0
M  V30 5874 H 578.956 7.62618 -1.82712 0
M  V30 5875 N 576.459 -0.456382 1.50847 0
M  V30 5876 C 577.705 -1.20914 1.62811 0
M  V30 5877 C 578.038 -1.91301 0.334304 0
M  V30 5878 O 577.313 -1.82775 -0.665098 0
M  V30 5879 C 577.596 -2.24122 2.81853 0
M  V30 5880 C 577.449 -1.57944 4.21158 0
M  V30 5881 C 578.768 -3.25295 2.96431 0
M  V30 5882 H 575.887 -0.438233 0.592554 0
M  V30 5883 H 578.529 -0.50091 1.83278 0
M  V30 5884 H 576.679 -2.84524 2.64534 0
M  V30 5885 H 578.351 -1.01025 4.50102 0
M  V30 5886 H 576.594 -0.882185 4.24735 0
M  V30 5887 H 577.265 -2.33014 5.00408 0
M  V30 5888 H 579.741 -2.7493 3.12335 0
M  V30 5889 H 578.617 -3.94822 3.81322 0
M  V30 5890 H 578.878 -3.90286 2.07676 0
M  V30 5891 N 577.937 -1.40673 -0.710563 0
M  V30 5892 C 579.183 -1.39428 -1.47267 0
M  V30 5893 C 579.516 0.00182129 -1.942 0
M  V30 5894 O 578.791 0.971387 -1.68506 0
M  V30 5895 C 579.074 -2.38812 -2.6952 0
M  V30 5896 C 578.927 -3.87467 -2.28449 0
M  V30 5897 C 580.246 -2.3566 -3.71689 0
M  V30 5898 H 577.365 -0.507768 -0.534173 0
M  V30 5899 H 580.007 -1.71843 -0.810547 0
M  V30 5900 H 578.157 -2.113 -3.26013 0
M  V30 5901 H 579.829 -4.25825 -1.77399 0
M  V30 5902 H 578.072 -4.03058 -1.60395 0
M  V30 5903 H 578.743 -4.5253 -3.16103 0
M  V30 5904 H 581.219 -2.6004 -3.24836 0
M  V30 5905 H 580.095 -3.07237 -4.54859 0
M  V30 5906 H 580.356 -1.36996 -4.20339 0
M  V30 5907 N 579.415 0.9433 -1.26252 0
M  V30 5908 C 580.661 1.69175 -1.11837 0
M  V30 5909 C 580.994 1.91238 0.337891 0
M  V30 5910 O 580.269 1.49152 1.24836 0
M  V30 5911 C 580.552 3.06783 -1.88563 0
M  V30 5912 C 580.405 2.9206 -3.42083 0
M  V30 5913 C 581.724 4.06865 -1.67776 0
M  V30 5914 H 578.843 0.61399 -0.407658 0
M  V30 5915 H 581.485 1.09572 -1.55222 0
M  V30 5916 H 579.635 3.57663 -1.51689 0
M  V30 5917 H 581.307 2.48419 -3.88698 0
M  V30 5918 H 579.55 2.27731 -3.69217 0
M  V30 5919 H 580.221 3.89651 -3.90994 0
M  V30 5920 H 582.697 3.64939 -1.99897 0
M  V30 5921 H 581.573 5.01168 -2.23879 0
M  V30 5922 H 581.834 4.37705 -0.621816 0
M  V30 5923 N 580.893 1.08022 1.14757 0
M  V30 5924 C 582.309 0.807072 1.3769 0
M  V30 5925 C 582.509 -0.585504 1.92806 0
M  V30 5926 O 581.565 -1.34301 2.13821 0
M  V30 5927 C 582.878 1.88651 2.34161 0
M  V30 5928 C 584.426 1.91206 2.47809 0
M  V30 5929 C 584.901 2.98253 3.47576 0
M  V30 5930 N 586.392 2.974 3.55117 0
M  V30 5931 C 587.127 3.76872 4.32152 0
M  V30 5932 N 586.623 4.66212 5.12463 0
M  V30 5933 N 588.416 3.6519 4.27309 0
M  V30 5934 H 580.567 1.97824 0.77326 0
M  V30 5935 H 582.83 0.85826 0.402608 0
M  V30 5936 H 582.536 2.88749 2.00791 0
M  V30 5937 H 582.41 1.75244 3.3402 0
M  V30 5938 H 584.797 0.917564 2.80472 0
M  V30 5939 H 584.878 2.08691 1.47925 0
M  V30 5940 H 584.522 3.97907 3.15646 0
M  V30 5941 H 584.452 2.78014 4.47231 0
M  V30 5942 H 586.943 2.32643 2.97801 0
M  V30 5943 H 587.256 5.23468 5.68508 0
M  V30 5944 H 585.601 4.70257 5.11745 0
M  V30 5945 H 588.792 2.94765 3.63636 0
M  V30 5946 H 588.965 4.27366 4.87095 0
M  V30 5947 N 582.371 -1.3172 0.865308 0
M  V30 5948 C 583.619 -1.96487 0.472995 0
M  V30 5949 C 583.94 -1.68761 -0.976975 0
M  V30 5950 O 583.21 -1.00051 -1.68424 0
M  V30 5951 H 581.79 -0.726947 0.171922 0
M  V30 5952 H 584.452 -1.60612 1.10407 0
M  V30 5953 H 583.548 -3.0574 0.62687 0
M  V30 5954 N 583.85 -0.624285 -1.44708 0
M  V30 5955 C 584.779 0.0717025 -2.3339 0
M  V30 5956 C 585.76 0.841814 -1.47809 0
M  V30 5957 O 586.946 0.809056 -1.76544 0
M  V30 5958 C 584.076 1.05852 -3.30776 0
M  V30 5959 C 583.029 0.400503 -4.26122 0
M  V30 5960 C 582.356 1.49674 -5.13324 0
M  V30 5961 C 583.656 -0.688924 -5.17737 0
M  V30 5962 H 585.35 -0.668819 -2.91834 0
M  V30 5963 H 582.896 -0.32308 -1.40329 0
M  V30 5964 H 584.849 1.5541 -3.91696 0
M  V30 5965 H 583.572 1.82984 -2.70526 0
M  V30 5966 H 582.231 -0.0743687 -3.66525 0
M  V30 5967 H 581.88 2.25877 -4.49431 0
M  V30 5968 H 581.58 1.06188 -5.77926 0
M  V30 5969 H 583.104 1.99427 -5.77115 0
M  V30 5970 H 584.518 -0.276724 -5.72632 0
M  V30 5971 H 582.915 -1.04652 -5.90904 0
M  V30 5972 H 583.985 -1.55884 -4.5916 0
M  V30 5973 N 585.328 1.53329 -0.364422 0
M  V30 5974 C 586.744 1.59594 -0.0133165 0
M  V30 5975 C 586.944 1.37959 1.46865 0
M  V30 5976 O 586 1.18418 2.2301 0
M  V30 5977 C 587.313 2.97032 -0.468213 0
M  V30 5978 C 588.861 3.10138 -0.422334 0
M  V30 5979 C 589.336 4.49986 -0.853024 0
M  V30 5980 N 590.827 4.56098 -0.808037 0
M  V30 5981 C 591.562 5.62495 -1.11299 0
M  V30 5982 N 591.058 6.7665 -1.48717 0
M  V30 5983 N 592.851 5.52473 -1.03586 0
M  V30 5984 H 585.002 1.65644 -1.32951 0
M  V30 5985 H 587.265 0.77684 -0.543345 0
M  V30 5986 H 586.971 3.18 -1.5023 0
M  V30 5987 H 586.845 3.76918 0.145775 0
M  V30 5988 H 589.232 2.88881 0.602622 0
M  V30 5989 H 589.313 2.32263 -1.0718 0
M  V30 5990 H 588.957 4.7198 -1.87609 0
M  V30 5991 H 588.887 5.26289 -0.180819 0
M  V30 5992 H 591.378 3.74131 -0.532361 0
M  V30 5993 H 591.691 7.53776 -1.70415 0
M  V30 5994 H 590.036 6.78044 -1.52581 0
M  V30 5995 H 593.227 4.6217 -0.742736 0
M  V30 5996 H 593.4 6.35295 -1.27686 0
M  V30 5997 N 586.806 0.0935595 1.57322 0
M  V30 5998 C 588.217 -0.435807 1.81542 0
M  V30 5999 C 588.568 -1.68263 1.00907 0
M  V30 6000 O 587.693 -2.15087 0.237983 0
M  V30 6001 C 588.288 -0.797436 3.29282 0
M  V30 6002 C 586.847 -1.27155 3.54272 0
M  V30 6003 C 585.994 -0.267455 2.76007 0
M  V30 6004 H 588.945 0.31902 1.5546 0
M  V30 6005 H 588.966 -1.6571 3.42521 0
M  V30 6006 H 588.478 0.110206 3.87943 0
M  V30 6007 H 586.579 -2.19696 3.00939 0
M  V30 6008 H 586.692 -1.23445 4.62923 0
M  V30 6009 H 585.056 -0.749282 2.43429 0
M  V30 6010 H 585.839 0.632839 3.37417 0
M  V30 6011 N 588.284 -1.56567 -0.180126 0
M  V30 6012 C 589.561 -1.7235 -0.924931 0
M  V30 6013 C 589.941 -0.652523 -2.00762 0
M  V30 6014 O 589.289 0.334115 -2.26044 0
M  V30 6015 C 589.499 -3.1523 -1.49771 0
M  V30 6016 C 590.847 -3.75921 -1.97405 0
M  V30 6017 O 591.871 -3.18452 -1.59583 0
M  V30 6018 O 590.73 -4.7681 -2.67048 0
M  V30 6019 H 587.824 -0.703502 -0.434758 0
M  V30 6020 H 590.37 -1.6886 -0.168647 0
M  V30 6021 H 589.142 -3.84656 -0.718027 0
M  V30 6022 H 588.765 -3.23009 -2.31842 0
M  V30 6023 N 589.762 0.448376 -1.51087 0
M  V30 6024 C 591.009 1.19872 -1.63209 0
M  V30 6025 C 591.337 1.91451 -0.343062 0
M  V30 6026 O 590.592 1.83789 0.672321 0
M  V30 6027 C 590.891 2.24866 -2.77795 0
M  V30 6028 C 590.557 1.70378 -4.17471 0
M  V30 6029 C 589.219 1.55241 -4.55471 0
M  V30 6030 C 591.571 1.30203 -5.04675 0
M  V30 6031 C 588.899 0.983844 -5.78392 0
M  V30 6032 C 591.251 0.747798 -6.28165 0
M  V30 6033 C 589.915 0.583233 -6.64947 0
M  V30 6034 H 589.185 0.438642 -0.597222 0
M  V30 6035 H 591.832 0.49136 -1.85089 0
M  V30 6036 H 590.137 3.01598 -2.50092 0
M  V30 6037 H 591.834 2.82723 -2.84374 0
M  V30 6038 H 588.424 1.83134 -3.87505 0
M  V30 6039 H 592.608 1.40723 -4.75932 0
M  V30 6040 H 587.864 0.844007 -6.05546 0
M  V30 6041 H 592.038 0.427927 -6.95084 0
M  V30 6042 H 589.665 0.140532 -7.6007 0
M  V30 6043 N 591.24 1.41047 0.703093 0
M  V30 6044 C 592.468 1.4334 1.49202 0
M  V30 6045 C 592.883 0.0365596 1.88765 0
M  V30 6046 O 592.24 -0.942419 1.56284 0
M  V30 6047 C 592.291 2.33538 2.75939 0
M  V30 6048 O 592.012 3.67786 2.38045 0
M  V30 6049 C 593.513 2.44555 3.6974 0
M  V30 6050 H 590.733 0.488472 0.460039 0
M  V30 6051 H 593.277 1.85245 0.86629 0
M  V30 6052 H 591.432 1.94962 3.34766 0
M  V30 6053 H 591.846 4.15816 3.19683 0
M  V30 6054 H 593.32 3.11849 4.55471 0
M  V30 6055 H 593.797 1.47447 4.1371 0
M  V30 6056 H 594.403 2.83735 3.16819 0
M  V30 6057 N 592.718 -0.936591 1.26751 0
M  V30 6058 C 593.948 -1.71509 1.15188 0
M  V30 6059 C 594.356 -1.86885 -0.295037 0
M  V30 6060 O 593.699 -1.37915 -1.21347 0
M  V30 6061 C 593.761 -3.13853 1.75318 0
M  V30 6062 C 593.425 -3.21845 3.24445 0
M  V30 6063 C 594.422 -3.04771 4.21201 0
M  V30 6064 C 592.107 -3.45088 3.64992 0
M  V30 6065 C 594.101 -3.10816 5.56482 0
M  V30 6066 C 591.788 -3.50767 5.00405 0
M  V30 6067 C 592.786 -3.33648 5.9596 0
M  V30 6068 O 592.474 -3.39045 7.28906 0
M  V30 6069 H 592.206 -0.543658 0.401761 0
M  V30 6070 H 594.76 -1.18234 1.67958 0
M  V30 6071 H 592.99 -3.6857 1.17016 0
M  V30 6072 H 594.679 -3.73634 1.58596 0
M  V30 6073 H 595.445 -2.86665 3.91214 0
M  V30 6074 H 591.324 -3.57467 2.91098 0
M  V30 6075 H 594.868 -2.97372 6.31043 0
M  V30 6076 H 590.765 -3.68396 5.30052 0
M  V30 6077 H 591.533 -3.55558 7.37238 0
M  V30 6078 N 594.196 -1.08629 -1.14182 0
M  V30 6079 C 595.424 -0.838889 -1.8913 0
M  V30 6080 C 595.839 0.609153 -1.78703 0
M  V30 6081 O 595.196 1.41876 -1.14794 0
M  V30 6082 C 595.247 -1.25477 -3.39025 0
M  V30 6083 O 594.968 -2.64601 -3.49167 0
M  V30 6084 C 596.469 -1.03856 -4.30963 0
M  V30 6085 H 593.689 -0.302377 -0.599007 0
M  V30 6086 H 596.233 -1.44615 -1.44592 0
M  V30 6087 H 594.388 -0.691571 -3.81177 0
M  V30 6088 H 594.802 -2.81922 -4.42289 0
M  V30 6089 H 596.276 -1.37892 -5.345 0
M  V30 6090 H 596.753 0.0242522 -4.39193 0
M  V30 6091 H 597.359 -1.58731 -3.94569 0
M  V30 6092 N 595.674 1.31259 -0.872281 0
M  V30 6093 C 596.921 1.96622 -0.484365 0
M  V30 6094 C 597.249 1.68939 0.963841 0
M  V30 6095 O 596.504 0.97974 1.6941 0
M  V30 6096 C 596.803 3.50659 -0.690889 0
M  V30 6097 C 596.469 3.98366 -2.11224 0
M  V30 6098 C 595.131 4.11104 -2.50094 0
M  V30 6099 C 597.483 4.23425 -3.0391 0
M  V30 6100 C 594.811 4.46254 -3.80887 0
M  V30 6101 C 597.163 4.60039 -4.3422 0
M  V30 6102 C 595.827 4.70984 -4.73001 0
M  V30 6103 H 595.097 0.71949 -0.177242 0
M  V30 6104 H 597.744 1.56353 -1.10571 0
M  V30 6105 H 596.049 3.91798 0.0135782 0
M  V30 6106 H 597.746 3.99284 -0.370534 0
M  V30 6107 H 594.336 3.88949 -1.80047 0
M  V30 6108 H 598.52 4.13075 -2.75104 0
M  V30 6109 H 593.776 4.52926 -4.10692 0
M  V30 6110 H 597.95 4.78381 -5.06088 0
M  V30 6111 H 595.577 4.97977 -5.7439 0
M  V30 6112 N 597.152 0.631951 1.44375 0
M  V30 6113 C 598.062 -0.073674 2.34484 0
M  V30 6114 C 599.078 -0.834825 1.52665 0
M  V30 6115 O 600.254 -0.786902 1.85391 0
M  V30 6116 C 597.319 -1.04247 3.30656 0
M  V30 6117 C 596.38 -0.280602 4.28382 0
M  V30 6118 C 595.613 -1.20325 5.19959 0
M  V30 6119 O 595.836 -2.44199 5.15484 0
M  V30 6120 O 594.77 -0.687128 5.97965 0
M  V30 6121 H 598.596 0.667477 2.96274 0
M  V30 6122 H 596.181 0.392144 1.44162 0
M  V30 6123 H 598.063 -1.59981 3.89851 0
M  V30 6124 H 596.738 -1.76422 2.71398 0
M  V30 6125 H 595.645 0.319804 3.72731 0
M  V30 6126 H 596.978 0.401144 4.90563 0
M  V30 6127 N 598.631 -1.53133 0.372548 0
M  V30 6128 C 599.877 -2.01654 -0.215277 0
M  V30 6129 C 600.21 -1.25914 -1.47849 0
M  V30 6130 O 599.485 -0.3548 -1.91237 0
M  V30 6131 C 599.768 -3.56609 -0.500187 0
M  V30 6132 C 599.621 -4.43036 0.777145 0
M  V30 6133 C 600.94 -4.20528 -1.29786 0
M  V30 6134 H 598.059 -0.732991 -0.0767686 0
M  V30 6135 H 600.701 -1.83335 0.498814 0
M  V30 6136 H 598.851 -3.7235 -1.10852 0
M  V30 6137 H 600.523 -4.39079 1.41447 0
M  V30 6138 H 598.766 -4.10723 1.39604 0
M  V30 6139 H 599.437 -5.49424 0.532662 0
M  V30 6140 H 601.913 -4.08663 -0.783198 0
M  V30 6141 H 600.789 -5.28962 -1.46596 0
M  V30 6142 H 601.05 -3.77051 -2.30836 0
M  V30 6143 N 600.109 -0.101901 -1.5727 0
M  V30 6144 C 601.337 0.568392 -1.98939 0
M  V30 6145 C 601.752 1.61301 -0.981194 0
M  V30 6146 O 601.109 1.82478 0.0282869 0
M  V30 6147 C 601.16 1.20997 -3.40649 0
M  V30 6148 O 600.881 0.207129 -4.3761 0
M  V30 6149 C 602.382 1.96523 -3.97358 0
M  V30 6150 H 599.602 0.15186 -0.65359 0
M  V30 6151 H 602.146 -0.183198 -2.03678 0
M  V30 6152 H 600.301 1.91245 -3.36904 0
M  V30 6153 H 600.715 0.671071 -5.20189 0
M  V30 6154 H 602.189 2.36764 -4.98645 0
M  V30 6155 H 602.666 2.83376 -3.35552 0
M  V30 6156 H 603.272 1.31076 -4.04598 0
M  V30 6157 N 601.587 1.56661 0.17182 0
M  V30 6158 C 602.55 1.9549 1.19651 0
M  V30 6159 C 603.55 0.838501 1.37207 0
M  V30 6160 O 604.74 1.10556 1.34622 0
M  V30 6161 C 601.872 2.24927 2.56166 0
M  V30 6162 H 603.065 2.87184 0.864007 0
M  V30 6163 H 600.618 1.50711 0.41425 0
M  V30 6164 H 601.353 1.35944 2.94431 0
M  V30 6165 H 601.138 3.06301 2.4479 0
M  V30 6166 H 602.628 2.55891 3.30014 0
M  V30 6167 N 603.065 -0.440357 1.51323 0
M  V30 6168 C 603.995 -1.54174 1.75364 0
M  V30 6169 C 604.976 -1.59039 0.603375 0
M  V30 6170 O 606.161 -1.74815 0.845774 0
M  V30 6171 C 603.291 -2.92277 1.87593 0
M  V30 6172 C 602.245 -3.02274 3.03009 0
M  V30 6173 C 601.571 -4.42327 3.00418 0
M  V30 6174 C 602.871 -2.76634 4.43024 0
M  V30 6175 H 604.565 -1.34307 2.67585 0
M  V30 6176 H 602.111 -0.644678 1.28763 0
M  V30 6177 H 604.064 -3.69284 2.02995 0
M  V30 6178 H 602.788 -3.13369 0.920179 0
M  V30 6179 H 601.447 -2.27706 2.87307 0
M  V30 6180 H 601.095 -4.60382 2.02626 0
M  V30 6181 H 600.795 -4.49946 3.77918 0
M  V30 6182 H 602.319 -5.21312 3.17909 0
M  V30 6183 H 603.733 -3.43376 4.59093 0
M  V30 6184 H 602.13 -2.95666 5.22208 0
M  V30 6185 H 603.2 -1.72262 4.5327 0
M  V30 6186 N 604.543 -1.41418 -0.695603 0
M  V30 6187 C 605.491 -1.43467 -1.83084 0
M  V30 6188 C 606.485 -0.312719 -1.66489 0
M  V30 6189 O 607.691 -0.484744 -1.7335 0
M  V30 6190 H 604.066 -0.448891 -0.603325 0
M  V30 6191 H 606.037 -2.39144 -1.78473 0
M  V30 6192 C 604.786 -1.3337 -3.21104 0
M  V30 6193 H 604.109 -2.18989 -3.3449 0
M  V30 6194 H 605.549 -1.38865 -4.00615 0
M  V30 6195 C 604.008 -0.0460484 -3.36869 0
M  V30 6196 O 604.538 0.909258 -3.91274 0
M  V30 6197 N 602.744 0.0300222 -2.90584 0
M  V30 6198 H 602.291 -0.748129 -2.46497 0
M  V30 6199 H 602.249 0.890991 -3.01511 0
M  V30 6200 N 606.021 0.929856 -1.27246 0
M  V30 6201 C 607.269 1.674 -1.13233 0
M  V30 6202 C 607.59 1.92311 0.322744 0
M  V30 6203 O 606.86 1.52784 1.22612 0
M  V30 6204 H 605.44 0.620411 -0.416052 0
M  V30 6205 H 608.102 1.11663 -1.59741 0
M  V30 6206 H 607.198 2.64308 -1.65975 0
M  V30 6207 N 607.499 1.09233 1.13605 0
M  V30 6208 C 608.745 0.828385 1.8511 0
M  V30 6209 C 609.078 -0.64437 1.83198 0
M  V30 6210 O 608.353 -1.47428 1.26867 0
M  V30 6211 C 608.636 1.36167 3.33363 0
M  V30 6212 C 608.489 2.90038 3.438 0
M  V30 6213 C 609.808 0.993819 4.28732 0
M  V30 6214 H 606.927 0.30239 0.672108 0
M  V30 6215 H 609.569 1.35339 1.33355 0
M  V30 6216 H 607.719 0.9151 3.77569 0
M  V30 6217 H 609.391 3.43128 3.08319 0
M  V30 6218 H 607.634 3.27271 2.84739 0
M  V30 6219 H 608.305 3.22428 4.48045 0
M  V30 6220 H 610.781 1.37893 3.92587 0
M  V30 6221 H 609.657 1.39403 5.30903 0
M  V30 6222 H 609.918 -0.0982206 4.41991 0
M  V30 6223 N 608.977 -1.30795 0.87923 0
M  V30 6224 C 610.202 -2.01063 0.508769 0
M  V30 6225 C 610.627 -1.65508 -0.893803 0
M  V30 6226 O 609.985 -0.868616 -1.59138 0
M  V30 6227 C 610.033 -3.54054 0.683991 0
M  V30 6228 O 609.137 -4.11498 -0.272654 0
M  V30 6229 H 608.478 -0.632786 0.201191 0
M  V30 6230 H 611.008 -1.66776 1.18519 0
M  V30 6231 H 611.018 -4.03845 0.580798 0
M  V30 6232 H 609.693 -3.79271 1.70665 0
M  V30 6233 H 608.27 -3.72695 -0.12364 0
M  V30 6234 N 610.455 -0.639598 -1.44038 0
M  V30 6235 C 611.68 -0.153117 -2.06834 0
M  V30 6236 C 612.105 1.16676 -1.47541 0
M  V30 6237 O 611.463 1.71769 -0.580093 0
M  V30 6238 C 611.511 -0.0609169 -3.60549 0
M  V30 6239 O 610.615 0.98071 -4.00569 0
M  V30 6240 H 609.956 -0.0886402 -0.658057 0
M  V30 6241 H 612.486 -0.878674 -1.84771 0
M  V30 6242 H 612.496 0.126892 -4.07803 0
M  V30 6243 H 611.171 -1.0245 -4.03084 0
M  V30 6244 H 609.748 0.766789 -3.64931 0
M  V30 6245 N 611.933 1.52934 -0.380664 0
M  V30 6246 C 612.863 2.29118 0.450268 0
M  V30 6247 C 613.844 1.32153 1.07096 0
M  V30 6248 O 615.029 1.61038 1.08537 0
M  V30 6249 C 612.159 3.09161 1.58231 0
M  V30 6250 C 611.113 4.13938 1.0881 0
M  V30 6251 C 610.439 4.82153 2.31155 0
M  V30 6252 C 611.739 5.22048 0.162146 0
M  V30 6253 H 613.433 2.98826 -0.185361 0
M  V30 6254 H 610.979 1.43715 -0.0905886 0
M  V30 6255 H 612.932 3.61211 2.17036 0
M  V30 6256 H 611.656 2.3717 2.2454 0
M  V30 6257 H 610.315 3.62855 0.522633 0
M  V30 6258 H 609.963 4.06719 2.95953 0
M  V30 6259 H 609.663 5.52966 1.98752 0
M  V30 6260 H 611.187 5.37004 2.90618 0
M  V30 6261 H 612.601 5.6951 0.658126 0
M  V30 6262 H 610.998 6.00057 -0.0717122 0
M  V30 6263 H 612.068 4.78398 -0.791438 0
M  V30 6264 N 613.412 0.11024 1.57214 0
M  V30 6265 C 614.375 -0.828808 2.1369 0
M  V30 6266 C 615.375 -1.20059 1.06969 0
M  V30 6267 O 616.565 -1.12754 1.32786 0
M  V30 6268 C 613.697 -2.11959 2.66994 0
M  V30 6269 H 614.89 -0.338146 2.97988 0
M  V30 6270 H 612.443 -0.138913 1.55681 0
M  V30 6271 H 613.178 -2.65476 1.8626 0
M  V30 6272 H 612.963 -1.86258 3.45037 0
M  V30 6273 H 614.453 -2.79105 3.10629 0
M  V30 6274 N 614.89 -1.56749 -0.16351 0
M  V30 6275 C 616.118 -1.86577 -0.894233 0
M  V30 6276 C 616.533 -0.696543 -1.75481 0
M  V30 6277 O 615.89 0.334161 -1.79415 0
M  V30 6278 C 615.941 -3.15508 -1.76456 0
M  V30 6279 O 615.662 -4.27926 -0.938685 0
M  V30 6280 C 617.163 -3.58737 -2.60428 0
M  V30 6281 H 614.383 -0.618829 -0.259405 0
M  V30 6282 H 616.927 -2.03863 -0.161259 0
M  V30 6283 H 615.082 -3.00025 -2.45079 0
M  V30 6284 H 615.496 -5.01546 -1.53465 0
M  V30 6285 H 616.97 -4.51832 -3.17099 0
M  V30 6286 H 617.447 -2.83229 -3.35675 0
M  V30 6287 H 618.053 -3.76858 -1.97125 0
M  V30 6288 N 616.368 0.432326 -1.51554 0
M  V30 6289 C 617.616 1.17901 -1.64146 0
M  V30 6290 C 617.937 1.91604 -0.362367 0
M  V30 6291 O 617.207 1.85764 0.621968 0
M  V30 6292 H 615.787 0.438206 -0.604966 0
M  V30 6293 H 618.449 0.495172 -1.88505 0
M  V30 6294 H 617.545 1.90584 -2.47152 0
M  V30 6295 N 617.846 1.41785 0.688094 0
M  V30 6296 C 619.257 1.3701 1.26828 0
M  V30 6297 C 619.608 0.056835 1.96118 0
M  V30 6298 O 618.733 -0.84475 1.99231 0
M  V30 6299 C 619.328 2.48168 2.30648 0
M  V30 6300 C 617.887 2.46766 2.84224 0
M  V30 6301 C 617.034 2.27633 1.58361 0
M  V30 6302 H 619.985 1.51192 0.482351 0
M  V30 6303 H 620.006 2.17655 3.121 0
M  V30 6304 H 619.518 3.43735 1.80188 0
M  V30 6305 H 617.619 1.54978 3.3884 0
M  V30 6306 H 617.732 3.43342 3.34145 0
M  V30 6307 H 616.096 1.75648 1.84445 0
M  V30 6308 H 616.879 3.25238 1.09887 0
M  V30 6309 N 619.324 -0.923095 1.27737 0
M  V30 6310 C 620.57 -1.67375 1.14514 0
M  V30 6311 C 620.903 -1.91751 -0.307424 0
M  V30 6312 O 620.178 -1.51119 -1.22447 0
M  V30 6313 C 620.461 -3.03745 1.9342 0
M  V30 6314 C 620.314 -2.86581 3.46686 0
M  V30 6315 C 621.633 -4.04144 1.74228 0
M  V30 6316 H 618.752 -0.607427 0.417374 0
M  V30 6317 H 621.394 -1.07089 1.56946 0
M  V30 6318 H 619.544 -3.55204 1.5736 0
M  V30 6319 H 621.216 -2.42203 3.92601 0
M  V30 6320 H 619.459 -2.21829 3.72793 0
M  V30 6321 H 620.13 -3.83381 3.97143 0
M  V30 6322 H 622.606 -3.61712 2.05678 0
M  V30 6323 H 621.482 -4.97543 2.31824 0
M  V30 6324 H 621.743 -4.36661 0.691373 0
M  V30 6325 N 620.802 -1.09834 -1.13024 0
M  V30 6326 C 622.213 -0.855651 -1.65938 0
M  V30 6327 C 622.564 0.615159 -1.86307 0
M  V30 6328 O 621.689 1.47335 -1.58497 0
M  V30 6329 C 622.284 -1.5467 -3.01434 0
M  V30 6330 C 620.843 -1.35088 -3.51323 0
M  V30 6331 C 619.99 -1.6001 -2.26478 0
M  V30 6332 H 622.941 -1.25691 -0.968889 0
M  V30 6333 H 622.962 -0.982179 -3.67605 0
M  V30 6334 H 622.474 -2.61715 -2.86578 0
M  V30 6335 H 620.575 -0.30179 -3.71376 0
M  V30 6336 H 620.688 -2.0886 -4.31178 0
M  V30 6337 H 619.052 -1.02246 -2.33276 0
M  V30 6338 H 619.835 -2.68293 -2.14182 0
M  V30 6339 N 622.28 1.30327 -0.886154 0
M  V30 6340 C 623.527 1.96097 -0.505192 0
M  V30 6341 C 623.855 1.69952 0.945868 0
M  V30 6342 O 623.11 0.997653 1.68361 0
M  V30 6343 C 623.409 3.49906 -0.728042 0
M  V30 6344 C 623.075 3.96103 -2.15437 0
M  V30 6345 C 621.737 4.08428 -2.5444 0
M  V30 6346 C 624.089 4.20177 -3.08384 0
M  V30 6347 C 621.417 4.42189 -3.85598 0
M  V30 6348 C 623.769 4.55407 -4.39075 0
M  V30 6349 C 622.433 4.65941 -4.7797 0
M  V30 6350 H 621.703 0.71757 -0.184863 0
M  V30 6351 H 624.35 1.55171 -1.12223 0
M  V30 6352 H 622.655 3.9179 -0.027978 0
M  V30 6353 H 624.352 3.98869 -0.412862 0
M  V30 6354 H 620.942 3.87017 -1.84162 0
M  V30 6355 H 625.126 4.10134 -2.7947 0
M  V30 6356 H 620.382 4.48544 -4.15473 0
M  V30 6357 H 624.556 4.72986 -5.11133 0
M  V30 6358 H 622.183 4.91856 -5.79639 0
M  V30 6359 N 623.758 0.647228 1.43697 0
M  V30 6360 C 624.668 -0.0487997 2.34549 0
M  V30 6361 C 625.684 -0.818586 1.53542 0
M  V30 6362 O 626.86 -0.767195 1.86215 0
M  V30 6363 C 623.925 -1.00734 3.31743 0
M  V30 6364 C 622.986 -0.23515 4.28655 0
M  V30 6365 C 622.219 -1.14803 5.21206 0
M  V30 6366 O 622.442 -2.38717 5.18045 0
M  V30 6367 O 621.376 -0.623667 5.9866 0
M  V30 6368 H 625.202 0.698863 2.9555 0
M  V30 6369 H 622.787 0.407412 1.43738 0
M  V30 6370 H 624.669 -1.55837 3.91526 0
M  V30 6371 H 623.344 -1.73534 2.73254 0
M  V30 6372 H 622.251 0.359319 3.7237 0
M  V30 6373 H 623.584 0.453152 4.9011 0
M  V30 6374 N 625.236 -1.5273 0.388769 0
M  V30 6375 C 626.647 -1.86505 -0.0853788 0
M  V30 6376 C 626.998 -1.30847 -1.46197 0
M  V30 6377 O 626.123 -0.639609 -2.06732 0
M  V30 6378 C 626.718 -3.38414 -0.161703 0
M  V30 6379 C 625.277 -3.71902 -0.580144 0
M  V30 6380 C 624.424 -2.76095 0.258218 0
M  V30 6381 H 627.375 -1.46647 0.606665 0
M  V30 6382 H 627.396 -3.67638 -0.980936 0
M  V30 6383 H 626.908 -3.78893 0.840333 0
M  V30 6384 H 625.009 -3.36992 -1.58957 0
M  V30 6385 H 625.122 -4.77902 -0.338663 0
M  V30 6386 H 623.486 -2.53195 -0.276432 0
M  V30 6387 H 624.269 -3.19411 1.25822 0
M  V30 6388 N 626.714 -0.118576 -1.57153 0
M  V30 6389 C 627.96 0.540326 -1.95469 0
M  V30 6390 C 628.293 1.66356 -1.00196 0
M  V30 6391 O 627.568 1.94461 -0.039104 0
M  V30 6392 C 627.851 1.07342 -3.43729 0
M  V30 6393 C 627.704 -0.0463732 -4.49776 0
M  V30 6394 C 629.023 1.96442 -3.93826 0
M  V30 6395 H 626.142 0.19494 -0.710751 0
M  V30 6396 H 628.784 -0.19405 -1.89006 0
M  V30 6397 H 626.934 1.69925 -3.49368 0
M  V30 6398 H 628.606 -0.681648 -4.56236 0
M  V30 6399 H 626.849 -0.709574 -4.27957 0
M  V30 6400 H 627.52 0.367856 -5.50773 0
M  V30 6401 H 629.996 1.43731 -3.90488 0
M  V30 6402 H 628.872 2.3066 -4.98084 0
M  V30 6403 H 629.133 2.89077 -3.34495 0
M  V30 6404 N 628.193 1.56834 0.155195 0
M  V30 6405 C 629.141 1.98584 1.21107 0
M  V30 6406 C 630.135 0.876987 1.44932 0
M  V30 6407 O 631.341 1.06215 1.45322 0
M  V30 6408 H 627.716 0.632039 0.407469 0
M  V30 6409 H 629.687 2.86561 0.832195 0
M  V30 6410 C 628.436 2.37555 2.53895 0
M  V30 6411 H 627.759 3.22428 2.3639 0
M  V30 6412 H 629.199 2.70598 3.26424 0
M  V30 6413 C 627.658 1.22507 3.13837 0
M  V30 6414 O 628.188 0.521388 3.98302 0
M  V30 6415 N 626.394 0.991444 2.73164 0
M  V30 6416 H 625.941 1.56544 2.04577 0
M  V30 6417 H 625.899 0.223546 3.13604 0
M  V30 6418 N 629.671 -0.424282 1.51781 0
M  V30 6419 C 630.917 -1.17434 1.6534 0
M  V30 6420 C 631.25 -1.90549 0.374806 0
M  V30 6421 O 630.525 -1.84145 -0.626179 0
M  V30 6422 C 630.808 -2.18093 2.86544 0
M  V30 6423 C 630.661 -1.48975 4.24413 0
M  V30 6424 C 631.98 -3.18934 3.03264 0
M  V30 6425 H 629.099 -0.425566 0.601716 0
M  V30 6426 H 631.741 -0.461921 1.84299 0
M  V30 6427 H 629.891 -2.78849 2.7051 0
M  V30 6428 H 631.563 -0.914551 4.52143 0
M  V30 6429 H 629.806 -0.791893 4.26511 0
M  V30 6430 H 630.477 -2.22347 5.05238 0
M  V30 6431 H 632.953 -2.68243 3.18096 0
M  V30 6432 H 631.829 -3.86645 3.89611 0
M  V30 6433 H 632.09 -3.85793 2.15908 0
M  V30 6434 N 631.149 -1.42148 -0.680565 0
M  V30 6435 C 632.377 -1.45696 -1.46902 0
M  V30 6436 C 632.792 -0.0665858 -1.88683 0
M  V30 6437 O 632.149 0.917436 -1.57764 0
M  V30 6438 C 632.2 -2.37898 -2.72188 0
M  V30 6439 O 631.921 -3.71526 -2.32163 0
M  V30 6440 C 633.422 -2.50407 -3.65802 0
M  V30 6441 H 630.642 -0.495729 -0.45221 0
M  V30 6442 H 633.186 -1.866 -0.836709 0
M  V30 6443 H 631.341 -2.00263 -3.31622 0
M  V30 6444 H 631.755 -4.20849 -3.13027 0
M  V30 6445 H 633.229 -3.19056 -4.50452 0
M  V30 6446 H 633.706 -1.5401 -4.11312 0
M  V30 6447 H 634.312 -2.8874 -3.12265 0
M  V30 6448 N 632.627 0.916307 -1.28225 0
M  V30 6449 C 633.855 1.69901 -1.18073 0
M  V30 6450 C 634.27 1.86988 0.260968 0
M  V30 6451 O 633.627 1.39505 1.17663 0
M  V30 6452 C 633.678 3.09254 -1.87201 0
M  V30 6453 O 633.399 2.92959 -3.2574 0
M  V30 6454 C 634.9 4.0362 -1.83319 0
M  V30 6455 H 632.12 0.531181 -0.409985 0
M  V30 6456 H 634.664 1.14703 -1.69303 0
M  V30 6457 H 632.819 3.61277 -1.39848 0
M  V30 6458 H 633.233 3.81139 -3.60324 0
M  V30 6459 H 634.707 4.98873 -2.36282 0
M  V30 6460 H 635.184 4.3176 -0.805007 0
M  V30 6461 H 635.79 3.57524 -2.3034 0
M  V30 6462 N 634.105 1.10431 1.1244 0
M  V30 6463 C 635.382 0.758797 1.80282 0
M  V30 6464 C 635.762 -0.754727 1.97147 0
M  V30 6465 O 635.11 -1.68094 1.54779 0
M  V30 6466 C 635.32 1.50982 3.14651 0
M  V30 6467 C 636.668 1.68232 3.8985 0
M  V30 6468 O 637.692 1.47319 3.24308 0
M  V30 6469 O 636.551 2.02905 5.07437 0
M  V30 6470 H 633.645 0.273756 0.780376 0
M  V30 6471 H 636.191 1.20713 1.19275 0
M  V30 6472 H 634.963 2.53989 2.97666 0
M  V30 6473 H 634.586 1.05435 3.83366 0
M  V30 6474 N 635.583 -1.29855 0.893053 0
M  V30 6475 C 636.999 -1.48366 0.588199 0
M  V30 6476 C 637.199 -1.81654 -0.872018 0
M  V30 6477 O 636.255 -1.909 -1.65268 0
M  V30 6478 C 637.568 -2.60136 1.5083 0
M  V30 6479 C 639.116 -2.74014 1.51279 0
M  V30 6480 C 639.591 -3.88905 2.41902 0
M  V30 6481 N 641.082 -3.96228 2.39911 0
M  V30 6482 C 641.817 -4.84458 3.06738 0
M  V30 6483 N 641.313 -5.77426 3.8282 0
M  V30 6484 N 643.106 -4.77894 2.95929 0
M  V30 6485 H 635.257 -1.06522 1.83757 0
M  V30 6486 H 637.52 -0.528495 0.787018 0
M  V30 6487 H 637.226 -2.42383 2.54839 0
M  V30 6488 H 637.1 -3.56793 1.22388 0
M  V30 6489 H 639.487 -2.91167 0.480179 0
M  V30 6490 H 639.568 -1.77952 1.83757 0
M  V30 6491 H 639.212 -3.72508 3.45253 0
M  V30 6492 H 639.142 -4.84322 2.06737 0
M  V30 6493 H 641.633 -3.29728 1.84629 0
M  V30 6494 H 641.946 -6.41529 4.30883 0
M  V30 6495 H 640.291 -5.77332 3.86927 0
M  V30 6496 H 643.482 -4.04248 2.36012 0
M  V30 6497 H 643.655 -5.46444 3.48286 0
M  V30 6498 N 637.061 -0.65484 -1.43351 0
M  V30 6499 C 637.971 0.0363603 -2.34572 0
M  V30 6500 C 638.987 0.810432 -1.53974 0
M  V30 6501 O 640.163 0.757308 -1.86619 0
M  V30 6502 C 637.228 0.989733 -3.32273 0
M  V30 6503 C 636.289 0.212414 -4.28774 0
M  V30 6504 C 635.522 1.12038 -5.21808 0
M  V30 6505 O 635.745 2.35967 -5.19303 0
M  V30 6506 O 634.679 0.59191 -5.98982 0
M  V30 6507 H 638.505 -0.714527 -2.95175 0
M  V30 6508 H 636.09 -0.415029 -1.4352 0
M  V30 6509 H 637.972 1.53759 -3.92347 0
M  V30 6510 H 636.647 1.72082 -2.74171 0
M  V30 6511 H 635.554 -0.379062 -3.72175 0
M  V30 6512 H 636.887 -0.479138 -4.89862 0
M  V30 6513 N 638.539 1.52521 -0.396863 0
M  V30 6514 C 639.785 2.01971 0.183169 0
M  V30 6515 C 640.118 1.2825 1.45827 0
M  V30 6516 O 639.393 0.385179 1.90648 0
M  V30 6517 C 639.676 3.5736 0.443391 0
M  V30 6518 C 639.529 4.41743 -0.84753 0
M  V30 6519 C 640.848 4.22539 1.2308 0
M  V30 6520 H 637.967 0.734119 0.0650976 0
M  V30 6521 H 640.609 1.82519 -0.527918 0
M  V30 6522 H 638.759 3.74066 1.04914 0
M  V30 6523 H 640.431 4.36773 -1.48414 0
M  V30 6524 H 638.674 4.0845 -1.4612 0
M  V30 6525 H 639.345 5.48507 -0.620003 0
M  V30 6526 H 641.821 4.09857 0.718084 0
M  V30 6527 H 640.697 5.31227 1.38162 0
M  V30 6528 H 640.958 3.80675 2.24808 0
M  V30 6529 N 640.017 0.126909 1.57088 0
M  V30 6530 C 641.428 -0.397201 1.82426 0
M  V30 6531 C 641.779 -1.66084 1.04453 0
M  V30 6532 O 640.904 -2.14534 0.283552 0
M  V30 6533 C 641.499 -0.727411 3.30899 0
M  V30 6534 C 640.058 -1.19612 3.56889 0
M  V30 6535 C 639.205 -0.20885 2.76512 0
M  V30 6536 H 642.156 0.351924 1.54749 0
M  V30 6537 H 642.177 -1.58407 3.45959 0
M  V30 6538 H 641.689 0.19247 3.87622 0
M  V30 6539 H 639.79 -2.13263 3.05532 0
M  V30 6540 H 639.903 -1.13598 4.65438 0
M  V30 6541 H 638.267 -0.697479 2.44964 0
M  V30 6542 H 639.05 0.704267 3.35998 0
M  V30 6543 N 641.495 -1.56914 -0.146875 0
M  V30 6544 C 642.906 -1.72799 -0.706928 0
M  V30 6545 C 643.257 -0.741329 -1.81656 0
M  V30 6546 O 642.382 0.0920162 -2.16204 0
M  V30 6547 C 642.977 -3.13317 -1.28911 0
M  V30 6548 C 641.536 -3.30803 -1.79573 0
M  V30 6549 C 640.683 -2.68725 -0.684252 0
M  V30 6550 H 643.634 -1.58504 0.0787931 0
M  V30 6551 H 643.655 -3.13323 -2.15891 0
M  V30 6552 H 643.167 -3.85104 -0.481284 0
M  V30 6553 H 641.268 -2.64012 -2.62923 0
M  V30 6554 H 641.381 -4.38754 -1.92436 0
M  V30 6555 H 639.745 -2.29196 -1.11091 0
M  V30 6556 H 640.528 -3.43117 0.112134 0
M  V30 6557 N 642.974 0.416227 -1.52004 0
M  V30 6558 C 643.937 1.48926 -1.74223 0
M  V30 6559 C 644.937 1.48693 -0.612119 0
M  V30 6560 O 646.127 1.50343 -0.879921 0
M  V30 6561 C 643.259 2.88372 -1.81809 0
M  V30 6562 H 644.452 1.3052 -2.70008 0
M  V30 6563 H 642.005 0.646271 -1.42313 0
M  V30 6564 H 642.74 3.12157 -0.879135 0
M  V30 6565 H 642.525 2.89944 -2.6396 0
M  V30 6566 H 644.015 3.66173 -2.00766 0
M  V30 6567 N 644.452 1.42507 0.673017 0
M  V30 6568 C 645.698 1.43284 1.43519 0
M  V30 6569 C 646.031 0.049668 1.94136 0
M  V30 6570 O 645.306 -0.926369 1.71022 0
M  V30 6571 C 645.589 2.45874 2.63093 0
M  V30 6572 C 645.442 3.93388 2.18096 0
M  V30 6573 C 646.761 2.45431 3.6531 0
M  V30 6574 H 643.88 0.521752 0.520522 0
M  V30 6575 H 646.522 1.73932 0.764701 0
M  V30 6576 H 644.672 2.19869 3.20296 0
M  V30 6577 H 646.344 4.30379 1.66046 0
M  V30 6578 H 644.587 4.07169 1.49652 0
M  V30 6579 H 645.258 4.60752 3.03993 0
M  V30 6580 H 647.734 2.68561 3.17827 0
M  V30 6581 H 646.61 3.19189 4.46553 0
M  V30 6582 H 646.871 1.48092 4.16559 0
M  V30 6583 N 645.93 -0.909495 1.28709 0
M  V30 6584 C 647.155 -1.69801 1.1909 0
M  V30 6585 C 647.58 -1.86479 -0.246388 0
M  V30 6586 O 646.938 -1.37802 -1.17815 0
M  V30 6587 C 646.986 -3.06543 1.89904 0
M  V30 6588 O 646.09 -3.94268 1.2094 0
M  V30 6589 H 645.431 -0.519783 0.413185 0
M  V30 6590 H 647.961 -1.13689 1.70106 0
M  V30 6591 H 647.971 -3.56748 1.97977 0
M  V30 6592 H 646.646 -2.93722 2.94449 0
M  V30 6593 H 645.223 -3.52702 1.2106 0
M  V30 6594 N 647.408 -1.11026 -1.11852 0
M  V30 6595 C 648.685 -0.768347 -1.79877 0
M  V30 6596 C 649.065 0.744261 -1.97545 0
M  V30 6597 O 648.413 1.67271 -1.55669 0
M  V30 6598 C 648.623 -1.52648 -3.13846 0
M  V30 6599 C 649.971 -1.70297 -3.88953 0
M  V30 6600 O 650.995 -1.49037 -3.23522 0
M  V30 6601 O 649.854 -2.05593 -5.06353 0
M  V30 6602 H 646.948 -0.277891 -0.778913 0
M  V30 6603 H 649.494 -1.21343 -1.18633 0
M  V30 6604 H 648.266 -2.55564 -2.96315 0
M  V30 6605 H 647.889 -1.07466 -3.82801 0
M  V30 6606 N 648.886 1.2938 -0.899927 0
M  V30 6607 C 650.135 1.9483 -0.521937 0
M  V30 6608 C 650.448 1.71725 0.936473 0
M  V30 6609 O 651.654 2.31282 1.42199 0
M  V30 6610 C 650.11 3.48911 -0.88255 0
M  V30 6611 C 649.718 3.80815 -2.35974 0
M  V30 6612 C 651.462 4.20595 -0.57448 0
M  V30 6613 C 649.369 5.28142 -2.66121 0
M  V30 6614 H 648.299 0.729285 -0.191468 0
M  V30 6615 H 650.95 1.47103 -1.09695 0
M  V30 6616 H 649.332 3.95293 -0.236459 0
M  V30 6617 H 650.506 3.45291 -3.05141 0
M  V30 6618 H 648.821 3.22271 -2.63686 0
M  V30 6619 H 651.418 5.29031 -0.776556 0
M  V30 6620 H 651.761 4.13442 0.487005 0
M  V30 6621 H 652.294 3.79945 -1.17842 0
M  V30 6622 H 649.033 5.4036 -3.71068 0
M  V30 6623 H 648.553 5.64913 -2.01578 0
M  V30 6624 H 650.232 5.95738 -2.52399 0
M  V30 6625 N 650.364 0.662433 1.43002 0
M  V30 6626 C 651.78 0.330835 1.56133 0
M  V30 6627 C 651.98 -1.16454 1.64441 0
M  V30 6628 O 651.036 -1.94964 1.60453 0
M  V30 6629 C 652.349 1.05029 2.81761 0
M  V30 6630 C 653.897 1.03142 2.95518 0
M  V30 6631 C 654.372 1.73196 4.2399 0
M  V30 6632 N 655.863 1.70004 4.30875 0
M  V30 6633 C 656.598 2.21074 5.29069 0
M  V30 6634 N 656.094 2.80473 6.33488 0
M  V30 6635 N 657.887 2.1152 5.20784 0
M  V30 6636 H 650.038 1.63272 1.35853 0
M  V30 6637 H 652.301 0.687149 0.653092 0
M  V30 6638 H 652.007 2.10542 2.81718 0
M  V30 6639 H 651.881 0.607664 3.72273 0
M  V30 6640 H 654.268 -0.0153339 2.95096 0
M  V30 6641 H 654.349 1.51282 2.0627 0
M  V30 6642 H 653.993 2.77833 4.25172 0
M  V30 6643 H 653.923 1.22515 5.1215 0
M  V30 6644 H 656.414 1.26667 3.56039 0
M  V30 6645 H 656.727 3.17094 7.04749 0
M  V30 6646 H 655.072 2.84538 6.34085 0
M  V30 6647 H 658.263 1.64814 4.38126 0
M  V30 6648 H 658.436 2.51629 5.97149 0
M  V30 6649 N 651.842 -1.52309 0.404946 0
M  V30 6650 C 653.088 -2.02065 -0.172455 0
M  V30 6651 C 653.421 -1.29022 -1.45145 0
M  V30 6652 O 652.696 -0.395284 -1.90441 0
M  V30 6653 C 652.979 -3.5759 -0.424433 0
M  V30 6654 C 652.832 -4.41287 0.870945 0
M  V30 6655 C 654.151 -4.23186 -1.20837 0
M  V30 6656 H 651.27 -0.734454 -0.0612035 0
M  V30 6657 H 653.912 -1.82236 0.53759 0
M  V30 6658 H 652.062 -3.74617 -1.02929 0
M  V30 6659 H 653.734 -4.3598 1.50729 0
M  V30 6660 H 651.977 -4.07669 1.48284 0
M  V30 6661 H 652.648 -5.48171 0.649083 0
M  V30 6662 H 655.124 -4.10232 -0.696338 0
M  V30 6663 H 654 -5.31953 -1.35343 0
M  V30 6664 H 654.261 -3.81862 -2.22786 0
M  V30 6665 N 653.32 -0.135238 -1.57019 0
M  V30 6666 C 654.548 0.526066 -2.001 0
M  V30 6667 C 654.963 1.59184 -1.01519 0
M  V30 6668 O 654.32 1.82497 -0.0104258 0
M  V30 6669 C 654.371 1.13744 -3.43139 0
M  V30 6670 O 654.092 0.114259 -4.37951 0
M  V30 6671 C 655.593 1.8805 -4.01438 0
M  V30 6672 H 652.813 0.137962 -0.656664 0
M  V30 6673 H 655.357 -0.226359 -2.03243 0
M  V30 6674 H 653.512 1.84056 -3.40885 0
M  V30 6675 H 653.926 0.56058 -5.21496 0
M  V30 6676 H 655.4 2.26133 -5.03555 0
M  V30 6677 H 655.877 2.76194 -3.41487 0
M  V30 6678 H 656.483 1.22464 -4.07287 0
M  V30 6679 N 654.798 1.5699 0.138552 0
M  V30 6680 C 656.214 1.51844 0.491472 0
M  V30 6681 C 656.414 0.845063 1.82923 0
M  V30 6682 O 655.47 0.419143 2.48997 0
M  V30 6683 C 656.783 2.96615 0.493987 0
M  V30 6684 C 658.331 3.076 0.578913 0
M  V30 6685 C 658.806 4.53893 0.612009 0
M  V30 6686 N 660.297 4.5827 0.673997 0
M  V30 6687 C 661.032 5.68852 0.720729 0
M  V30 6688 N 660.528 6.88982 0.726292 0
M  V30 6689 N 662.321 5.56908 0.762253 0
M  V30 6690 H 654.472 1.99158 -0.738228 0
M  V30 6691 H 656.735 0.908693 -0.270149 0
M  V30 6692 H 656.441 3.49172 -0.420933 0
M  V30 6693 H 656.315 3.53017 1.32887 0
M  V30 6694 H 658.702 2.55057 1.48425 0
M  V30 6695 H 658.783 2.54227 -0.283286 0
M  V30 6696 H 658.427 5.07076 -0.289208 0
M  V30 6697 H 658.357 5.05057 1.49082 0
M  V30 6698 H 660.848 3.71793 0.676654 0
M  V30 6699 H 661.161 7.69014 0.764032 0
M  V30 6700 H 659.506 6.91526 0.69403 0
M  V30 6701 H 662.697 4.61969 0.755135 0
M  V30 6702 H 662.87 6.43102 0.795207 0
M  V30 6703 N 656.276 -0.40816 1.52223 0
M  V30 6704 C 657.501 -1.18127 1.70472 0
M  V30 6705 C 657.926 -1.83491 0.41384 0
M  V30 6706 O 657.284 -1.70047 -0.628778 0
M  V30 6707 C 657.332 -2.21935 2.84213 0
M  V30 6708 O 656.436 -3.28099 2.4985 0
M  V30 6709 H 655.777 -0.344781 0.56747 0
M  V30 6710 H 658.307 -0.478328 1.9893 0
M  V30 6711 H 658.317 -2.66248 3.09153 0
M  V30 6712 H 656.992 -1.73744 3.7787 0
M  V30 6713 H 655.569 -2.89058 2.35584 0
M  V30 6714 N 657.755 -1.42862 -0.66545 0
M  V30 6715 C 658.98 -1.47456 -1.45848 0
M  V30 6716 C 659.405 -0.0900312 -1.87884 0
M  V30 6717 O 658.763 0.913587 -1.56599 0
M  V30 6718 C 658.811 -2.41514 -2.67774 0
M  V30 6719 O 657.915 -1.89296 -3.66389 0
M  V30 6720 H 657.256 -0.499236 -0.437789 0
M  V30 6721 H 659.786 -1.8765 -0.815394 0
M  V30 6722 H 659.796 -2.58409 -3.15735 0
M  V30 6723 H 658.471 -3.42099 -2.36519 0
M  V30 6724 H 657.048 -1.82003 -3.25468 0
M  V30 6725 N 659.233 0.902656 -1.29189 0
M  V30 6726 C 660.644 1.46809 -1.15343 0
M  V30 6727 C 660.995 1.94568 0.252517 0
M  V30 6728 O 660.12 1.83454 1.14777 0
M  V30 6729 C 660.715 2.66829 -2.08776 0
M  V30 6730 C 659.274 3.19518 -1.98961 0
M  V30 6731 C 658.421 1.92212 -1.99874 0
M  V30 6732 H 661.372 0.714282 -1.41717 0
M  V30 6733 H 661.393 3.42465 -1.65826 0
M  V30 6734 H 660.905 2.32039 -3.11094 0
M  V30 6735 H 659.006 3.59008 -0.99721 0
M  V30 6736 H 659.119 3.84016 -2.86477 0
M  V30 6737 H 657.483 2.0979 -1.44431 0
M  V30 6738 H 658.266 1.59702 -3.03891 0
M  V30 6739 N 660.711 1.11618 1.11262 0
M  V30 6740 C 661.936 0.889013 1.8738 0
M  V30 6741 C 662.361 -0.555884 1.79698 0
M  V30 6742 O 661.719 -1.39272 1.16073 0
M  V30 6743 C 661.767 1.35759 3.34069 0
M  V30 6744 O 660.871 0.530499 4.08974 0
M  V30 6745 H 660.212 0.320082 0.581759 0
M  V30 6746 H 662.742 1.48611 1.40627 0
M  V30 6747 H 662.752 1.35291 3.84916 0
M  V30 6748 H 661.427 2.40973 3.38976 0
M  V30 6749 H 660.004 0.601439 3.68018 0
M  V30 6750 N 662.189 -1.289 0.906776 0
M  V30 6751 C 663.414 -1.99939 0.551303 0
M  V30 6752 C 663.839 -1.67366 -0.858496 0
M  V30 6753 O 663.197 -0.902176 -1.57259 0
M  V30 6754 C 663.245 -3.52523 0.758937 0
M  V30 6755 O 662.349 -4.11983 -0.185308 0
M  V30 6756 H 661.69 -0.628376 0.214568 0
M  V30 6757 H 664.22 -1.64225 1.2203 0
M  V30 6758 H 664.23 -4.02522 0.666329 0
M  V30 6759 H 662.905 -3.75566 1.78671 0
M  V30 6760 H 661.482 -3.72873 -0.0445577 0
M  V30 6761 N 663.667 -0.670007 -1.42649 0
M  V30 6762 C 664.597 -0.00258501 -2.335 0
M  V30 6763 C 665.578 0.794364 -1.50412 0
M  V30 6764 O 666.763 0.75248 -1.79029 0
M  V30 6765 C 663.893 0.952748 -3.33976 0
M  V30 6766 C 662.847 0.264733 -4.2718 0
M  V30 6767 C 662.173 1.33267 -5.17826 0
M  V30 6768 C 663.473 -0.853289 -5.15283 0
M  V30 6769 H 665.167 -0.761326 -2.89559 0
M  V30 6770 H 662.713 -0.367561 -1.3923 0
M  V30 6771 H 664.666 1.4287 -3.96442 0
M  V30 6772 H 663.39 1.74285 -2.7621 0
M  V30 6773 H 662.049 -0.190938 -3.66102 0
M  V30 6774 H 661.697 2.11464 -4.5639 0
M  V30 6775 H 661.397 0.877476 -5.81011 0
M  V30 6776 H 662.921 1.80965 -5.83167 0
M  V30 6777 H 664.335 -0.458763 -5.71462 0
M  V30 6778 H 662.732 -1.23398 -5.87276 0
M  V30 6779 H 663.802 -1.70412 -4.53969 0
M  V30 6780 N 665.145 1.52092 -0.413018 0
M  V30 6781 C 666.37 2.06756 0.163338 0
M  V30 6782 C 666.795 1.28073 1.37764 0
M  V30 6783 O 666.153 0.312015 1.78595 0
M  V30 6784 C 666.201 3.57278 0.488322 0
M  V30 6785 O 665.305 3.80986 1.57871 0
M  V30 6786 H 664.646 0.663882 0.0125068 0
M  V30 6787 H 667.176 1.95988 -0.587339 0
M  V30 6788 H 667.186 4.01125 0.745836 0
M  V30 6789 H 665.861 4.13978 -0.399327 0
M  V30 6790 H 664.438 3.49017 1.31306 0
M  V30 6791 N 666.623 0.143563 1.56945 0
M  V30 6792 C 667.553 -0.7936 2.196 0
M  V30 6793 C 668.534 -1.25955 1.14321 0
M  V30 6794 O 669.719 -1.31773 1.42651 0
M  V30 6795 C 666.849 -2.03424 2.81489 0
M  V30 6796 C 665.803 -1.70519 3.92565 0
M  V30 6797 C 665.129 -3.01817 4.41373 0
M  V30 6798 C 666.429 -0.95449 5.13504 0
M  V30 6799 H 668.123 -0.271423 2.98167 0
M  V30 6800 H 665.669 -0.12911 1.4342 0
M  V30 6801 H 667.622 -2.69463 3.23987 0
M  V30 6802 H 666.346 -2.58008 2.00248 0
M  V30 6803 H 665.005 -1.06859 3.5068 0
M  V30 6804 H 664.653 -3.54386 3.56959 0
M  V30 6805 H 664.353 -2.80565 5.16292 0
M  V30 6806 H 665.877 -3.68934 4.86539 0
M  V30 6807 H 667.291 -1.5169 5.52868 0
M  V30 6808 H 665.688 -0.842035 5.94163 0
M  V30 6809 H 666.758 0.0544033 4.84869 0
M  V30 6810 N 668.101 -1.57061 -0.130224 0
M  V30 6811 C 669.064 -1.98593 -1.14426 0
M  V30 6812 C 670.064 -0.874584 -1.34936 0
M  V30 6813 O 671.254 -1.14086 -1.31643 0
M  V30 6814 C 668.386 -2.31639 -2.50112 0
M  V30 6815 H 669.579 -2.89374 -0.787561 0
M  V30 6816 H 667.132 -1.51756 -0.374146 0
M  V30 6817 H 667.867 -1.43703 -2.90723 0
M  V30 6818 H 667.652 -3.12684 -2.36583 0
M  V30 6819 H 669.142 -2.64551 -3.23114 0
M  V30 6820 N 669.579 0.400081 -1.52437 0
M  V30 6821 C 670.825 1.14456 -1.68141 0
M  V30 6822 C 671.18 1.87965 -0.410722 0
M  V30 6823 O 670.473 1.82121 0.595195 0
M  V30 6824 C 670.667 2.15914 -2.84808 0
M  V30 6825 C 670.496 1.5237 -4.231 0
M  V30 6826 C 669.266 1.29252 -4.8849 0
M  V30 6827 C 671.464 0.979722 -5.04882 0
M  V30 6828 N 669.446 0.616955 -6.10792 0
M  V30 6829 C 670.817 0.43159 -6.18496 0
M  V30 6830 C 672.872 0.875059 -4.9015 0
M  V30 6831 C 671.575 -0.210958 -7.18991 0
M  V30 6832 C 673.601 0.246351 -5.90887 0
M  V30 6833 C 672.963 -0.291062 -7.03798 0
M  V30 6834 H 669.062 0.405181 -0.668844 0
M  V30 6835 H 671.646 0.435655 -1.89763 0
M  V30 6836 H 669.817 2.84154 -2.64785 0
M  V30 6837 H 671.549 2.8279 -2.89503 0
M  V30 6838 H 668.304 1.56451 -4.47012 0
M  V30 6839 H 668.728 0.295536 -6.76355 0
M  V30 6840 H 673.37 1.27636 -4.03074 0
M  V30 6841 H 671.088 -0.6243 -8.05685 0
M  V30 6842 H 674.674 0.166765 -5.81561 0
M  V30 6843 H 673.554 -0.76988 -7.80412 0
M  V30 6844 N 671.057 1.43213 0.657864 0
M  V30 6845 C 672.02 1.47687 1.75275 0
M  V30 6846 C 673.02 0.362179 1.56668 0
M  V30 6847 O 674.21 0.623734 1.62651 0
M  V30 6848 C 671.342 1.32497 3.14098 0
M  V30 6849 H 672.535 2.4519 1.7269 0
M  V30 6850 H 670.088 1.2991 0.869087 0
M  V30 6851 H 670.823 0.359831 3.22298 0
M  V30 6852 H 670.608 2.13299 3.29008 0
M  V30 6853 H 672.098 1.38549 3.93946 0
M  V30 6854 N 672.536 -0.895792 1.29666 0
M  V30 6855 C 673.782 -1.64908 1.18039 0
M  V30 6856 C 674.115 -1.9236 -0.266682 0
M  V30 6857 O 673.39 -1.53682 -1.19214 0
M  V30 6858 C 673.673 -2.99574 1.99819 0
M  V30 6859 C 673.526 -2.79163 3.52687 0
M  V30 6860 C 674.845 -4.00358 1.82761 0
M  V30 6861 H 671.964 -0.598437 0.430165 0
M  V30 6862 H 674.606 -1.03736 1.59182 0
M  V30 6863 H 672.756 -3.51786 1.64859 0
M  V30 6864 H 674.428 -2.33821 3.9765 0
M  V30 6865 H 672.671 -2.13871 3.77414 0
M  V30 6866 H 673.342 -3.74871 4.05186 0
M  V30 6867 H 675.818 -3.57268 2.13304 0
M  V30 6868 H 674.694 -4.92514 2.42325 0
M  V30 6869 H 674.955 -4.35096 0.783839 0
M  V30 6870 N 674.014 -1.12206 -1.10668 0
M  V30 6871 C 675.425 -0.890657 -1.64086 0
M  V30 6872 C 675.776 0.575502 -1.8757 0
M  V30 6873 O 674.901 1.4394 -1.61587 0
M  V30 6874 C 675.496 -1.61029 -2.98085 0
M  V30 6875 C 674.055 -1.4251 -3.48379 0
M  V30 6876 C 673.202 -1.64778 -2.23033 0
M  V30 6877 H 676.153 -1.27718 -0.94201 0
M  V30 6878 H 676.174 -1.05993 -3.65439 0
M  V30 6879 H 675.686 -2.67735 -2.80962 0
M  V30 6880 H 673.787 -0.380497 -3.70652 0
M  V30 6881 H 673.9 -2.17959 -4.26651 0
M  V30 6882 H 672.264 -1.07171 -2.31055 0
M  V30 6883 H 673.047 -2.72776 -2.08443 0
M  V30 6884 N 675.492 1.28418 -0.913599 0
M  V30 6885 C 676.908 1.47411 -0.611728 0
M  V30 6886 C 677.108 1.83018 0.843008 0
M  V30 6887 O 676.164 1.93505 1.6221 0
M  V30 6888 C 677.477 2.57703 -1.5495 0
M  V30 6889 C 679.025 2.71572 -1.5562 0
M  V30 6890 C 679.5 3.85008 -2.48058 0
M  V30 6891 N 680.991 3.92361 -2.46184 0
M  V30 6892 C 681.726 4.79516 -3.14407 0
M  V30 6893 N 681.222 5.71262 -3.91958 0
M  V30 6894 N 683.015 4.73125 -3.03495 0
M  V30 6895 H 675.166 1.03585 -1.85429 0
M  V30 6896 H 677.429 0.515907 -0.795326 0
M  V30 6897 H 677.135 2.38298 -2.58663 0
M  V30 6898 H 677.009 3.54801 -1.28048 0
M  V30 6899 H 679.396 2.90366 -0.526441 0
M  V30 6900 H 679.477 1.75006 -1.86565 0
M  V30 6901 H 679.121 3.66969 -3.51136 0
M  V30 6902 H 679.051 4.80971 -2.14416 0
M  V30 6903 H 681.542 3.26749 -1.89851 0
M  V30 6904 H 681.855 6.34593 -4.41034 0
M  V30 6905 H 680.2 5.71103 -3.96063 0
M  V30 6906 H 683.391 4.00442 -2.42413 0
M  V30 6907 H 683.564 5.40834 -3.56935 0
M  V30 6908 N 676.97 0.677563 1.42291 0
M  V30 6909 C 677.933 0.0101085 2.29198 0
M  V30 6910 C 678.933 -0.726219 1.43467 0
M  V30 6911 O 680.123 -0.563807 1.64824 0
M  V30 6912 C 677.255 -0.996316 3.26016 0
M  V30 6913 H 678.448 0.775071 2.89711 0
M  V30 6914 H 676.001 0.440065 1.49977 0
M  V30 6915 H 676.736 -1.78967 2.70446 0
M  V30 6916 H 676.521 -0.471687 3.89253 0
M  V30 6917 H 678.011 -1.46167 3.91184 0
M  V30 6918 N 678.448 -1.51871 0.421078 0
M  V30 6919 C 679.859 -1.86644 -0.0457991 0
M  V30 6920 C 680.21 -1.33919 -1.43388 0
M  V30 6921 O 679.335 -0.683316 -2.05328 0
M  V30 6922 C 679.93 -3.38681 -0.0898844 0
M  V30 6923 C 678.489 -3.73049 -0.501127 0
M  V30 6924 C 677.636 -2.75485 0.316723 0
M  V30 6925 H 680.587 -1.45327 0.637635 0
M  V30 6926 H 680.608 -3.69636 -0.902734 0
M  V30 6927 H 680.12 -3.77025 0.920513 0
M  V30 6928 H 678.221 -3.40288 -1.51773 0
M  V30 6929 H 678.334 -4.78512 -0.237217 0
M  V30 6930 H 676.698 -2.53725 -0.222663 0
M  V30 6931 H 677.481 -3.16671 1.32569 0
M  V30 6932 N 679.926 -0.151884 -1.56866 0
M  V30 6933 C 681.151 0.508044 -2.01081 0
M  V30 6934 C 681.576 1.57306 -1.03134 0
M  V30 6935 O 680.934 1.81298 -0.0078309 0
M  V30 6936 C 680.982 1.08106 -3.44014 0
M  V30 6937 O 680.086 2.19577 -3.49084 0
M  V30 6938 H 679.427 0.123757 -0.652365 0
M  V30 6939 H 681.957 -0.250055 -2.03066 0
M  V30 6940 H 681.967 1.40851 -3.82916 0
M  V30 6941 H 680.642 0.301168 -4.14808 0
M  V30 6942 H 679.219 1.88023 -3.22027 0
M  V30 6943 N 681.404 1.57128 0.121893 0
M  V30 6944 C 682.652 1.84335 0.828548 0
M  V30 6945 C 682.973 0.736632 1.80551 0
M  V30 6946 O 682.243 -0.23962 1.94429 0
M  V30 6947 H 680.823 0.680108 0.30897 0
M  V30 6948 H 683.485 1.9459 0.109906 0
M  V30 6949 H 682.581 2.80152 1.37554 0
M  V30 6950 N 682.882 -0.391992 1.52647 0
M  V30 6951 C 683.845 -1.46135 1.7657 0
M  V30 6952 C 684.845 -1.47701 0.635698 0
M  V30 6953 O 686.035 -1.48924 0.903728 0
M  V30 6954 C 683.167 -2.85443 1.86374 0
M  V30 6955 H 684.36 -1.26208 2.72051 0
M  V30 6956 H 681.913 -0.623549 1.43323 0
M  V30 6957 H 682.648 -3.10718 0.928685 0
M  V30 6958 H 682.433 -2.85708 2.68539 0
M  V30 6959 H 683.923 -3.62933 2.06566 0
M  V30 6960 N 684.36 -1.4356 -0.65026 0
M  V30 6961 C 685.606 -1.45549 -1.41221 0
M  V30 6962 C 685.939 -0.0805472 -1.94033 0
M  V30 6963 O 685.214 0.899043 -1.72475 0
M  V30 6964 C 685.497 -2.50028 -2.59148 0
M  V30 6965 C 685.35 -3.96808 -2.1181 0
M  V30 6966 C 686.669 -2.51212 -3.61359 0
M  V30 6967 H 683.788 -0.529967 -0.512156 0
M  V30 6968 H 686.43 -1.75127 -0.736933 0
M  V30 6969 H 684.58 -2.24937 -3.16758 0
M  V30 6970 H 686.252 -4.32966 -1.59178 0
M  V30 6971 H 684.495 -4.09498 -1.43156 0
M  V30 6972 H 685.166 -4.6553 -2.96625 0
M  V30 6973 H 687.642 -2.73583 -3.13515 0
M  V30 6974 H 686.518 -3.26252 -4.41419 0
M  V30 6975 H 686.779 -1.54701 -4.1415 0
M  V30 6976 N 685.838 0.888903 -1.30139 0
M  V30 6977 C 686.768 2.01046 -1.18755 0
M  V30 6978 C 687.749 1.69916 -0.0791438 0
M  V30 6979 O 688.934 1.92445 -0.260498 0
M  V30 6980 C 686.064 3.36109 -0.874518 0
M  V30 6981 C 685.018 3.81486 -1.94043 0
M  V30 6982 C 684.344 5.13796 -1.48047 0
M  V30 6983 C 685.644 4.00637 -3.35093 0
M  V30 6984 H 687.338 2.10828 -2.12584 0
M  V30 6985 H 684.884 1.01298 -1.02346 0
M  V30 6986 H 686.837 4.14089 -0.781548 0
M  V30 6987 H 685.561 3.26449 0.0994519 0
M  V30 6988 H 684.22 3.05731 -2.02297 0
M  V30 6989 H 683.868 5.0056 -0.494878 0
M  V30 6990 H 683.568 5.45127 -2.19341 0
M  V30 6991 H 685.092 5.94305 -1.40121 0
M  V30 6992 H 686.506 4.69067 -3.2962 0
M  V30 6993 H 684.903 4.43339 -4.04438 0
M  V30 6994 H 685.973 3.0462 -3.77273 0
M  V30 6995 N 687.317 1.12792 1.10072 0
M  V30 6996 C 688.594 0.796867 1.78632 0
M  V30 6997 C 688.974 -0.712739 1.98704 0
M  V30 6998 O 688.322 -1.64773 1.5831 0
M  V30 6999 C 688.532 1.57622 3.11378 0
M  V30 7000 C 689.88 1.76463 3.86194 0
M  V30 7001 O 690.904 1.54165 3.2111 0
M  V30 7002 O 689.763 2.13623 5.03018 0
M  V30 7003 H 686.857 0.290248 0.774394 0
M  V30 7004 H 689.403 1.23215 1.16688 0
M  V30 7005 H 688.175 2.60246 2.92212 0
M  V30 7006 H 687.798 1.13543 3.81043 0
M  V30 7007 N 688.795 -1.27931 0.920396 0
M  V30 7008 C 690.025 -1.98516 0.572256 0
M  V30 7009 C 690.433 -1.68912 -0.852375 0
M  V30 7010 O 689.776 -0.94203 -1.57707 0
M  V30 7011 C 689.838 -3.5243 0.709485 0
M  V30 7012 C 689.502 -4.0564 2.10489 0
M  V30 7013 C 690.499 -4.1897 3.07831 0
M  V30 7014 C 688.184 -4.40168 2.41986 0
M  V30 7015 C 690.178 -4.66093 4.34783 0
M  V30 7016 C 687.865 -4.86983 3.69176 0
M  V30 7017 C 688.863 -4.99903 4.65388 0
M  V30 7018 O 688.551 -5.45694 5.90316 0
M  V30 7019 H 688.283 -0.64047 0.216274 0
M  V30 7020 H 690.837 -1.6393 1.23758 0
M  V30 7021 H 689.067 -3.86698 -0.0129263 0
M  V30 7022 H 690.756 -4.04233 0.367474 0
M  V30 7023 H 691.522 -3.92562 2.84816 0
M  V30 7024 H 687.401 -4.29358 1.67846 0
M  V30 7025 H 690.945 -4.76092 5.09884 0
M  V30 7026 H 686.842 -5.12832 3.92012 0
M  V30 7027 H 687.61 -5.63965 5.932 0
M  V30 7028 N 690.273 -0.685099 -1.4193 0
M  V30 7029 C 691.183 -0.013404 -2.34596 0
M  V30 7030 C 692.199 0.777589 -1.55658 0
M  V30 7031 O 693.375 0.717553 -1.88184 0
M  V30 7032 C 690.44 0.919031 -3.34297 0
M  V30 7033 C 689.501 0.121417 -4.29128 0
M  V30 7034 C 688.734 1.00944 -5.24067 0
M  V30 7035 O 688.957 2.24898 -5.24192 0
M  V30 7036 O 687.891 0.464724 -6.00103 0
M  V30 7037 H 691.717 -0.776978 -2.93593 0
M  V30 7038 H 689.302 -0.445379 -1.42607 0
M  V30 7039 H 691.184 1.45402 -3.9552 0
M  V30 7040 H 689.859 1.66228 -2.77759 0
M  V30 7041 H 688.766 -0.45792 -3.71287 0
M  V30 7042 H 690.099 -0.582937 -4.88736 0
M  V30 7043 N 691.751 1.51645 -0.429126 0
M  V30 7044 C 692.997 2.02314 0.140286 0
M  V30 7045 C 693.33 1.31314 1.43074 0
M  V30 7046 O 692.605 0.425531 1.89788 0
M  V30 7047 C 692.888 3.5822 0.36749 0
M  V30 7048 C 692.741 4.39846 -0.941039 0
M  V30 7049 C 694.06 4.25055 1.14089 0
M  V30 7050 H 691.179 0.735335 0.0495112 0
M  V30 7051 H 693.821 1.81358 -0.566514 0
M  V30 7052 H 691.971 3.76207 0.969556 0
M  V30 7053 H 693.643 4.33527 -1.57646 0
M  V30 7054 H 691.886 4.05259 -1.54751 0
M  V30 7055 H 692.557 5.47069 -0.73621 0
M  V30 7056 H 695.033 4.11288 0.630986 0
M  V30 7057 H 693.909 5.34038 1.26863 0
M  V30 7058 H 694.17 3.85358 2.16683 0
M  V30 7059 N 693.229 0.160201 1.56784 0
M  V30 7060 C 694.176 -0.774416 2.1742 0
M  V30 7061 C 695.146 -1.23483 1.11091 0
M  V30 7062 O 696.331 -1.30499 1.39193 0
M  V30 7063 C 693.471 -2.00283 2.81035 0
M  V30 7064 C 692.584 -1.58701 4.01793 0
M  V30 7065 C 691.719 -2.76824 4.53367 0
M  V30 7066 C 690.758 -2.31679 5.66561 0
M  V30 7067 N 689.895 -3.42856 6.12694 0
M  V30 7068 H 694.735 -0.250542 2.96945 0
M  V30 7069 H 692.272 -0.111943 1.46673 0
M  V30 7070 H 694.23 -2.72316 3.16069 0
M  V30 7071 H 692.86 -2.5006 2.04132 0
M  V30 7072 H 691.912 -0.76384 3.72652 0
M  V30 7073 H 693.224 -1.21555 4.83762 0
M  V30 7074 H 692.378 -3.57029 4.90525 0
M  V30 7075 H 691.117 -3.17223 3.70433 0
M  V30 7076 H 690.122 -1.49917 5.28966 0
M  V30 7077 H 691.347 -1.9235 6.5129 0
M  V30 7078 H 689.293 -3.82852 5.32692 0
M  V30 7079 H 689.21 -3.09767 6.89624 0
M  V30 7080 H 690.478 -4.23379 6.545 0
M  V30 7081 N 694.707 -1.5719 -0.113559 0
M  V30 7082 C 695.937 -1.89053 -0.833212 0
M  V30 7083 C 696.345 -0.750139 -1.73694 0
M  V30 7084 O 695.688 0.287808 -1.81431 0
M  V30 7085 C 695.75 -3.15986 -1.71443 0
M  V30 7086 C 695.414 -4.46271 -0.984449 0
M  V30 7087 C 696.411 -5.18897 -0.322741 0
M  V30 7088 C 694.096 -4.92963 -0.964011 0
M  V30 7089 C 696.09 -6.3644 0.349646 0
M  V30 7090 C 693.777 -6.10422 -0.287828 0
M  V30 7091 C 694.775 -6.82009 0.36784 0
M  V30 7092 O 694.463 -7.97233 1.03322 0
M  V30 7093 H 694.195 -0.630225 -0.244526 0
M  V30 7094 H 696.749 -2.05152 -0.100847 0
M  V30 7095 H 694.979 -2.95984 -2.48858 0
M  V30 7096 H 696.668 -3.33826 -2.309 0
M  V30 7097 H 697.434 -4.83875 -0.330114 0
M  V30 7098 H 693.313 -4.37143 -1.46379 0
M  V30 7099 H 696.857 -6.92254 0.861996 0
M  V30 7100 H 692.754 -6.449 -0.278237 0
M  V30 7101 H 693.522 -8.13105 0.938247 0
M  V30 7102 N 696.185 0.383891 -1.52853 0
M  V30 7103 C 697.135 1.46892 -1.74375 0
M  V30 7104 C 698.119 1.49378 -0.597909 0
M  V30 7105 O 699.311 1.54929 -0.855929 0
M  V30 7106 C 696.44 2.84547 -1.92063 0
M  V30 7107 C 695.526 2.8661 -3.12594 0
M  V30 7108 N 695.917 2.58339 -4.3485 0
M  V30 7109 C 694.215 3.17777 -3.12944 0
M  V30 7110 C 694.916 2.67616 -5.16485 0
M  V30 7111 N 693.892 3.01561 -4.52285 0
M  V30 7112 H 697.694 1.23869 -2.66522 0
M  V30 7113 H 695.208 0.591895 -1.51229 0
M  V30 7114 H 697.205 3.62674 -2.05604 0
M  V30 7115 H 695.865 3.08549 -1.01133 0
M  V30 7116 H 696.876 2.32266 -4.62896 0
M  V30 7117 H 693.553 3.47211 -2.31842 0
M  V30 7118 H 694.943 2.4926 -6.23955 0
M  V30 7119 N 697.663 1.43903 0.642637 0
M  V30 7120 C 698.573 1.52349 1.78401 0
M  V30 7121 C 699.589 0.409869 1.69104 0
M  V30 7122 O 700.765 0.665548 1.90085 0
M  V30 7123 C 697.83 1.45408 3.14734 0
M  V30 7124 C 696.891 2.67528 3.35749 0
M  V30 7125 C 696.124 2.60909 4.65577 0
M  V30 7126 O 696.347 1.6627 5.45628 0
M  V30 7127 O 695.281 3.5158 4.88544 0
M  V30 7128 H 699.107 2.48752 1.7423 0
M  V30 7129 H 696.692 1.26021 0.802439 0
M  V30 7130 H 698.574 1.44019 3.96026 0
M  V30 7131 H 697.249 0.521437 3.19473 0
M  V30 7132 H 696.156 2.74487 2.5418 0
M  V30 7133 H 697.489 3.598 3.35864 0
M  V30 7134 N 699.141 -0.881989 1.30609 0
M  V30 7135 C 700.088 -1.98803 1.17244 0
M  V30 7136 C 701.058 -1.65987 0.0611905 0
M  V30 7137 O 702.243 -1.89385 0.231911 0
M  V30 7138 C 699.383 -3.33867 0.87333 0
M  V30 7139 C 698.496 -3.79354 2.06675 0
M  V30 7140 C 697.631 -5.03078 1.70547 0
M  V30 7141 C 696.67 -5.40981 2.86366 0
M  V30 7142 N 695.807 -6.55886 2.50514 0
M  V30 7143 H 700.647 -2.09566 2.11863 0
M  V30 7144 H 698.184 -1.02607 1.05405 0
M  V30 7145 H 700.142 -4.11612 0.680519 0
M  V30 7146 H 698.772 -3.2278 -0.0359983 0
M  V30 7147 H 697.824 -2.97492 2.37071 0
M  V30 7148 H 699.136 -4.03382 2.93401 0
M  V30 7149 H 698.29 -5.88457 1.47658 0
M  V30 7150 H 697.029 -4.80927 0.809947 0
M  V30 7151 H 696.034 -4.54127 3.09917 0
M  V30 7152 H 697.259 -5.65104 3.76609 0
M  V30 7153 H 695.205 -6.35306 1.63471 0
M  V30 7154 H 695.122 -6.79799 3.30771 0
M  V30 7155 H 696.39 -7.44489 2.30989 0
M  V30 7156 N 700.619 -1.13374 -1.09472 0
M  V30 7157 C 701.867 -0.893422 -1.8128 0
M  V30 7158 C 702.188 0.582029 -1.86111 0
M  V30 7159 O 701.458 1.42305 -1.34633 0
M  V30 7160 H 700.038 -0.327543 -0.67136 0
M  V30 7161 H 702.7 -1.43018 -1.32408 0
M  V30 7162 H 701.796 -1.28374 -2.84476 0
M  V30 7163 N 702.098 1.27442 -0.927168 0
M  V30 7164 C 703.061 2.2512 -0.430525 0
M  V30 7165 C 704.061 1.54357 0.450619 0
M  V30 7166 O 705.251 1.72371 0.251774 0
M  V30 7167 C 702.383 3.38763 0.381144 0
M  V30 7168 H 703.576 2.70569 -1.29354 0
M  V30 7169 H 701.129 1.39355 -0.707806 0
M  V30 7170 H 701.864 2.98695 1.263 0
M  V30 7171 H 701.649 3.91298 -0.250618 0
M  V30 7172 H 703.139 4.11364 0.719012 0
M  V30 7173 N 703.576 0.692616 1.41565 0
M  V30 7174 C 704.486 0.0258451 2.34586 0
M  V30 7175 C 705.502 -0.769324 1.56069 0
M  V30 7176 O 706.678 -0.707563 1.88562 0
M  V30 7177 C 703.743 -0.901289 3.3478 0
M  V30 7178 C 702.804 -0.0986579 4.29187 0
M  V30 7179 C 702.037 -0.981634 5.24595 0
M  V30 7180 O 702.26 -2.22115 5.25377 0
M  V30 7181 O 701.194 -0.432892 6.00341 0
M  V30 7182 H 705.02 0.792537 2.93177 0
M  V30 7183 H 702.605 0.452935 1.42369 0
M  V30 7184 H 704.487 -1.43302 3.96286 0
M  V30 7185 H 703.162 -1.64752 2.78637 0
M  V30 7186 H 702.069 0.477604 3.71039 0
M  V30 7187 H 703.402 0.608848 4.8842 0
M  V30 7188 N 705.054 -1.51416 0.437162 0
M  V30 7189 C 706.302 -2.01687 -0.129108 0
M  V30 7190 C 706.623 -1.32329 -1.43227 0
M  V30 7191 O 705.893 -0.457796 -1.90476 0
M  V30 7192 H 704.473 -0.745277 -0.0507023 0
M  V30 7193 H 707.135 -1.86075 0.579828 0
M  V30 7194 H 706.231 -3.10605 -0.305141 0
M  V30 7195 N 706.532 -0.168513 -1.56696 0
M  V30 7196 C 707.943 0.348694 -1.83415 0
M  V30 7197 C 708.294 1.63257 -1.0882 0
M  V30 7198 O 707.419 2.13707 -0.340333 0
M  V30 7199 C 708.014 0.639423 -3.32711 0
M  V30 7200 C 706.573 1.10108 -3.59935 0
M  V30 7201 C 705.72 0.135464 -2.76969 0
M  V30 7202 H 708.671 -0.392829 -1.53761 0
M  V30 7203 H 708.692 1.49179 -3.50037 0
M  V30 7204 H 708.204 -0.295173 -3.86976 0
M  V30 7205 H 706.305 2.05088 -3.11079 0
M  V30 7206 H 706.418 1.01218 -4.68286 0
M  V30 7207 H 704.782 0.632286 -2.46727 0
M  V30 7208 H 705.565 -0.793104 -3.34013 0
M  V30 7209 N 708.01 1.57248 0.105221 0
M  V30 7210 C 709.235 1.90143 0.828264 0
M  V30 7211 C 709.66 0.761811 1.71983 0
M  V30 7212 O 709.018 -0.287086 1.79013 0
M  V30 7213 C 709.066 3.21856 1.62608 0
M  V30 7214 O 708.17 3.08732 2.7342 0
M  V30 7215 H 707.511 0.623558 0.228192 0
M  V30 7216 H 710.041 2.0443 0.0834826 0
M  V30 7217 H 710.051 3.54916 2.01243 0
M  V30 7218 H 708.726 4.0439 0.971687 0
M  V30 7219 H 707.303 2.87167 2.37886 0
M  V30 7220 N 709.488 -0.375779 1.53054 0
M  V30 7221 C 710.713 -1.14484 1.7294 0
M  V30 7222 C 711.138 -1.82572 0.452668 0
M  V30 7223 O 710.496 -1.71343 -0.592567 0
M  V30 7224 C 710.544 -2.15857 2.88857 0
M  V30 7225 O 709.648 -3.22725 2.56753 0
M  V30 7226 H 708.989 -0.332666 0.574656 0
M  V30 7227 H 711.519 -0.436025 1.999 0
M  V30 7228 H 711.529 -2.59631 3.14731 0
M  V30 7229 H 710.204 -1.65689 3.81471 0
M  V30 7230 H 708.781 -2.83996 2.41663 0
M  V30 7231 N 710.966 -1.44241 -0.634997 0
M  V30 7232 C 712.212 -1.47038 -1.39669 0
M  V30 7233 C 712.545 -0.101122 -1.93937 0
M  V30 7234 O 711.82 0.880699 -1.73418 0
M  V30 7235 C 712.103 -2.52763 -2.56482 0
M  V30 7236 C 711.956 -3.99032 -2.07589 0
M  V30 7237 C 713.275 -2.55031 -3.58674 0
M  V30 7238 H 710.394 -0.53537 -0.506506 0
M  V30 7239 H 713.036 -1.75898 -0.718317 0
M  V30 7240 H 711.186 -2.28284 -3.14354 0
M  V30 7241 H 712.858 -4.3463 -1.54577 0
M  V30 7242 H 711.101 -4.10994 -1.38804 0
M  V30 7243 H 711.772 -4.68649 -2.91671 0
M  V30 7244 H 714.248 -2.76893 -3.10595 0
M  V30 7245 H 713.124 -3.30916 -4.37934 0
M  V30 7246 H 713.385 -1.59085 -4.12486 0
M  V30 7247 N 712.444 0.87505 -1.31075 0
M  V30 7248 C 713.86 1.15997 -1.09622 0
M  V30 7249 C 714.06 2.01036 0.136611 0
M  V30 7250 O 713.116 2.38559 0.827397 0
M  V30 7251 C 714.429 1.85702 -2.36506 0
M  V30 7252 C 715.977 1.98425 -2.42067 0
M  V30 7253 C 716.452 2.71544 -3.68819 0
M  V30 7254 N 717.943 2.79084 -3.69684 0
M  V30 7255 C 718.678 3.36259 -4.64454 0
M  V30 7256 N 718.174 3.94406 -5.69575 0
M  V30 7257 N 719.967 3.34169 -4.51982 0
M  V30 7258 H 712.118 0.308258 -2.10151 0
M  V30 7259 H 714.381 0.199145 -0.926847 0
M  V30 7260 H 714.087 1.30663 -3.26527 0
M  V30 7261 H 713.961 2.86017 -2.45915 0
M  V30 7262 H 716.348 2.5263 -1.52518 0
M  V30 7263 H 716.429 0.971682 -2.36626 0
M  V30 7264 H 716.073 2.18008 -4.58732 0
M  V30 7265 H 716.003 3.73198 -3.71525 0
M  V30 7266 H 718.494 2.3781 -2.93691 0
M  V30 7267 H 718.807 4.36129 -6.37974 0
M  V30 7268 H 717.152 3.92797 -5.73355 0
M  V30 7269 H 720.343 2.87977 -3.69035 0
M  V30 7270 H 720.516 3.78431 -5.26017 0
M  V30 7271 N 713.922 1.13953 1.08869 0
M  V30 7272 C 715.169 0.90481 1.81161 0
M  V30 7273 C 715.497 -0.568824 1.85996 0
M  V30 7274 O 714.752 -1.43723 1.32823 0
M  V30 7275 C 715.051 1.44495 3.26888 0
M  V30 7276 C 714.717 2.93641 3.42178 0
M  V30 7277 C 713.379 3.34361 3.46059 0
M  V30 7278 C 715.731 3.89568 3.46246 0
M  V30 7279 C 713.059 4.69681 3.51592 0
M  V30 7280 C 715.411 5.2474 3.53314 0
M  V30 7281 C 714.075 5.64979 3.55465 0
M  V30 7282 H 713.345 0.331094 0.662916 0
M  V30 7283 H 715.992 1.42242 1.28217 0
M  V30 7284 H 714.297 0.848169 3.82509 0
M  V30 7285 H 715.994 1.23934 3.81368 0
M  V30 7286 H 712.584 2.61156 3.39846 0
M  V30 7287 H 716.768 3.59192 3.42483 0
M  V30 7288 H 712.024 5.00224 3.51547 0
M  V30 7289 H 716.198 5.98882 3.55406 0
M  V30 7290 H 713.825 6.69821 3.59505 0
M  V30 7291 N 715.4 -1.26948 0.933913 0
M  V30 7292 C 716.33 -2.29017 0.45534 0
M  V30 7293 C 717.311 -1.62961 -0.487605 0
M  V30 7294 O 718.496 -1.90223 -0.391022 0
M  V30 7295 C 715.626 -3.46112 -0.287015 0
M  V30 7296 C 714.58 -4.24205 0.568682 0
M  V30 7297 C 713.906 -5.3384 -0.303206 0
M  V30 7298 C 715.206 -4.88954 1.83633 0
M  V30 7299 H 716.9 -2.69298 1.30839 0
M  V30 7300 H 714.446 -1.29459 0.630579 0
M  V30 7301 H 716.399 -4.16622 -0.6328 0
M  V30 7302 H 715.123 -3.04765 -1.17414 0
M  V30 7303 H 713.782 -3.5545 0.897261 0
M  V30 7304 H 713.43 -4.88734 -1.18947 0
M  V30 7305 H 713.13 -5.86998 0.265879 0
M  V30 7306 H 714.654 -6.0719 -0.644423 0
M  V30 7307 H 716.068 -5.51717 1.55823 0
M  V30 7308 H 714.465 -5.52198 2.34941 0
M  V30 7309 H 715.535 -4.12305 2.55211 0
M  V30 7310 N 716.879 -0.700114 -1.41195 0
M  V30 7311 C 717.826 -0.0376652 -2.30769 0
M  V30 7312 C 718.796 0.766544 -1.47354 0
M  V30 7313 O 719.981 0.73365 -1.76131 0
M  V30 7314 C 717.121 0.889452 -3.33441 0
M  V30 7315 C 716.234 0.076373 -4.31932 0
M  V30 7316 C 715.369 1.00155 -5.21673 0
M  V30 7317 C 714.408 0.181644 -6.1183 0
M  V30 7318 N 713.545 1.06087 -6.94039 0
M  V30 7319 H 718.385 -0.80726 -2.86858 0
M  V30 7320 H 715.922 -0.409798 -1.41277 0
M  V30 7321 H 717.88 1.44107 -3.91522 0
M  V30 7322 H 716.51 1.6254 -2.78892 0
M  V30 7323 H 715.562 -0.592223 -3.75762 0
M  V30 7324 H 716.874 -0.559076 -4.95657 0
M  V30 7325 H 716.028 1.62223 -5.8461 0
M  V30 7326 H 714.767 1.67085 -4.58186 0
M  V30 7327 H 713.772 -0.452085 -5.47938 0
M  V30 7328 H 714.997 -0.483925 -6.77374 0
M  V30 7329 H 712.943 1.7161 -6.33156 0
M  V30 7330 H 712.86 0.481094 -7.54468 0
M  V30 7331 H 714.128 1.66822 -7.6144 0
M  V30 7332 N 718.357 1.51182 -0.445186 0
M  V30 7333 C 719.585 2.06568 0.117091 0
M  V30 7334 C 720 1.31182 1.35781 0
M  V30 7335 O 719.357 0.373605 1.78635 0
M  V30 7336 C 719.408 3.58917 0.431408 0
M  V30 7337 O 719.129 4.31456 -0.760078 0
M  V30 7338 C 720.63 4.30843 1.0435 0
M  V30 7339 H 717.85 0.670985 0.00444436 0
M  V30 7340 H 720.394 1.94666 -0.626525 0
M  V30 7341 H 718.549 3.70708 1.12493 0
M  V30 7342 H 718.963 5.22215 -0.489048 0
M  V30 7343 H 720.437 5.38499 1.21337 0
M  V30 7344 H 720.914 3.89644 2.02667 0
M  V30 7345 H 721.52 4.23516 0.38913 0
M  V30 7346 N 719.835 0.176821 1.56605 0
M  V30 7347 C 721.06 -0.47599 2.01864 0
M  V30 7348 C 721.485 -1.55645 1.05623 0
M  V30 7349 O 720.843 -1.81263 0.0366729 0
M  V30 7350 C 720.891 -1.02619 3.4569 0
M  V30 7351 O 719.995 -2.13996 3.52533 0
M  V30 7352 H 719.336 -0.113363 0.654251 0
M  V30 7353 H 721.866 0.28233 2.02643 0
M  V30 7354 H 721.876 -1.34742 3.85109 0
M  V30 7355 H 720.551 -0.235138 4.15235 0
M  V30 7356 H 719.128 -1.82876 3.24978 0
M  V30 7357 N 721.313 -1.57302 -0.09688 0
M  V30 7358 C 722.223 -2.05258 -1.13606 0
M  V30 7359 C 723.239 -0.977137 -1.43972 0
M  V30 7360 O 724.415 -1.29018 -1.54649 0
M  V30 7361 C 721.48 -2.46593 -2.43706 0
M  V30 7362 C 720.541 -3.68322 -2.20538 0
M  V30 7363 C 719.774 -4.07676 -3.44435 0
M  V30 7364 O 719.997 -3.47141 -4.52603 0
M  V30 7365 O 718.931 -5.00641 -3.34129 0
M  V30 7366 H 722.757 -2.94069 -0.758752 0
M  V30 7367 H 720.342 -1.46164 -0.309263 0
M  V30 7368 H 722.224 -2.73814 -3.20318 0
M  V30 7369 H 720.899 -1.6092 -2.80867 0
M  V30 7370 H 719.806 -3.4622 -1.41713 0
M  V30 7371 H 721.139 -4.54769 -1.88271 0
M  V30 7372 N 722.791 0.367657 -1.53252 0
M  V30 7373 C 723.739 1.47061 -1.8021 0
M  V30 7374 C 724.733 1.55539 -0.671112 0
M  V30 7375 O 725.939 1.58451 -0.854014 0
M  V30 7376 H 722.314 0.489868 -0.570555 0
M  V30 7377 H 724.285 1.21527 -2.72532 0
M  V30 7378 C 723.034 2.83924 -2.00706 0
M  V30 7379 H 722.357 2.78158 -2.87172 0
M  V30 7380 H 723.797 3.60281 -2.23547 0
M  V30 7381 C 722.256 3.27613 -0.785568 0
M  V30 7382 O 722.786 4.01691 0.0267459 0
M  V30 7383 N 720.992 2.84134 -0.609597 0
M  V30 7384 H 720.539 2.24017 -1.27178 0
M  V30 7385 H 720.497 3.13723 0.206281 0
M  V30 7386 N 724.269 1.44576 0.627338 0
M  V30 7387 C 725.685 1.28546 0.945938 0
M  V30 7388 C 725.885 0.224003 2.00251 0
M  V30 7389 O 724.941 -0.388817 2.49488 0
M  V30 7390 C 726.254 2.65825 1.40561 0
M  V30 7391 C 727.802 2.73566 1.52088 0
M  V30 7392 C 728.277 4.11323 2.01438 0
M  V30 7393 N 729.768 4.13519 2.08702 0
M  V30 7394 C 730.503 5.16964 2.48065 0
M  V30 7395 N 729.999 6.30768 2.86538 0
M  V30 7396 N 731.792 5.04319 2.48232 0
M  V30 7397 H 723.943 2.1228 -0.0713567 0
M  V30 7398 H 726.206 0.947503 0.0307081 0
M  V30 7399 H 725.912 3.44591 0.703539 0
M  V30 7400 H 725.786 2.92969 2.37591 0
M  V30 7401 H 728.173 1.95116 2.21391 0
M  V30 7402 H 728.254 2.50159 0.534237 0
M  V30 7403 H 727.898 4.9025 1.32729 0
M  V30 7404 H 727.828 4.32109 3.0098 0
M  V30 7405 H 730.319 3.31385 1.81638 0
M  V30 7406 H 730.632 7.0551 3.15398 0
M  V30 7407 H 728.977 6.342 2.84281 0
M  V30 7408 H 732.168 4.14465 2.17569 0
M  V30 7409 H 732.341 5.85059 2.78585 0
M  V30 7410 N 725.747 -0.868086 1.31537 0
M  V30 7411 C 726.71 -1.95703 1.19302 0
M  V30 7412 C 727.71 -1.60355 0.119612 0
M  V30 7413 O 728.9 -1.70247 0.36902 0
M  V30 7414 C 726.032 -3.30599 0.831684 0
M  V30 7415 H 727.225 -2.07982 2.16064 0
M  V30 7416 H 724.778 -1.05661 1.15176 0
M  V30 7417 H 725.513 -3.2402 -0.134694 0
M  V30 7418 H 725.298 -3.57629 1.60761 0
M  V30 7419 H 726.788 -4.10439 0.770026 0
M  V30 7420 N 727.225 -1.14528 -1.08264 0
M  V30 7421 C 728.135 -0.84728 -2.18765 0
M  V30 7422 C 729.151 0.172826 -1.7314 0
M  V30 7423 O 730.327 0.000985336 -2.014 0
M  V30 7424 C 727.392 -0.330633 -3.4512 0
M  V30 7425 C 726.453 -1.41348 -4.05363 0
M  V30 7426 C 725.686 -0.921387 -5.25686 0
M  V30 7427 O 725.909 0.236587 -5.69909 0
M  V30 7428 O 724.843 -1.70101 -5.77364 0
M  V30 7429 H 728.669 -1.7708 -2.46731 0
M  V30 7430 H 726.254 -0.923661 -1.17426 0
M  V30 7431 H 728.136 -0.0485053 -4.21372 0
M  V30 7432 H 726.811 0.565147 -3.18728 0
M  V30 7433 H 725.718 -1.74908 -3.30693 0
M  V30 7434 H 727.051 -2.28383 -4.36007 0
M  V30 7435 N 728.703 1.26451 -0.940633 0
M  V30 7436 C 729.633 2.28773 -0.467479 0
M  V30 7437 C 730.614 1.63218 0.478955 0
M  V30 7438 O 731.799 1.90427 0.380929 0
M  V30 7439 C 728.929 3.46259 0.268656 0
M  V30 7440 C 727.883 4.23898 -0.591171 0
M  V30 7441 C 727.209 5.33993 0.274891 0
M  V30 7442 C 728.509 4.87974 -1.86223 0
M  V30 7443 H 730.203 2.68601 -1.32265 0
M  V30 7444 H 727.749 1.29123 -0.637436 0
M  V30 7445 H 729.702 4.16951 0.610696 0
M  V30 7446 H 728.426 3.05383 1.15796 0
M  V30 7447 H 727.085 3.54969 -0.916098 0
M  V30 7448 H 726.733 4.89358 1.16353 0
M  V30 7449 H 726.433 5.86849 -0.297006 0
M  V30 7450 H 727.957 6.07523 0.612213 0
M  V30 7451 H 729.371 5.50883 -1.58747 0
M  V30 7452 H 727.768 5.50945 -2.37866 0
M  V30 7453 H 728.838 4.10945 -2.57394 0
M  V30 7454 N 730.181 0.707592 1.40822 0
M  V30 7455 C 731.597 0.38034 1.55002 0
M  V30 7456 C 731.797 -1.11163 1.68062 0
M  V30 7457 O 730.853 -1.89761 1.66574 0
M  V30 7458 C 732.166 1.1394 2.78277 0
M  V30 7459 C 733.714 1.12492 2.92087 0
M  V30 7460 C 734.189 1.86597 4.18265 0
M  V30 7461 N 735.68 1.83626 4.25248 0
M  V30 7462 C 736.415 2.37794 5.21768 0
M  V30 7463 N 735.911 3.00485 6.24244 0
M  V30 7464 N 737.704 2.27982 5.13791 0
M  V30 7465 H 729.855 1.67511 1.3059 0
M  V30 7466 H 732.118 0.707579 0.630901 0
M  V30 7467 H 731.824 2.19398 2.74877 0
M  V30 7468 H 731.698 0.725793 3.70151 0
M  V30 7469 H 734.085 0.0785564 2.94995 0
M  V30 7470 H 734.166 1.57768 2.01353 0
M  V30 7471 H 733.81 2.91219 4.16118 0
M  V30 7472 H 733.74 1.38746 5.07993 0
M  V30 7473 H 736.231 1.3793 3.51829 0
M  V30 7474 H 736.544 3.39355 6.94304 0
M  V30 7475 H 734.889 3.04567 6.24711 0
M  V30 7476 H 738.08 1.78669 4.3266 0
M  V30 7477 H 738.253 2.70499 5.88841 0
M  V30 7478 N 731.66 -1.50943 0.453197 0
M  V30 7479 C 732.908 -2.01813 -0.107709 0
M  V30 7480 C 733.229 -1.33841 -1.41816 0
M  V30 7481 O 732.499 -0.477973 -1.8998 0
M  V30 7482 H 731.079 -0.745773 -0.0427948 0
M  V30 7483 H 733.741 -1.8545 0.599531 0
M  V30 7484 H 732.837 -3.10911 -0.27218 0
M  V30 7485 N 733.138 -0.185124 -1.56509 0
M  V30 7486 C 734.068 0.735098 -2.21627 0
M  V30 7487 C 735.049 1.2288 -1.1762 0
M  V30 7488 O 736.234 1.27945 -1.46095 0
M  V30 7489 C 733.364 1.95889 -2.86783 0
M  V30 7490 C 732.318 1.6005 -3.96948 0
M  V30 7491 C 731.644 2.90009 -4.4922 0
M  V30 7492 C 732.944 0.818008 -5.15855 0
M  V30 7493 H 734.638 0.192274 -2.98782 0
M  V30 7494 H 732.184 0.0910393 -1.43712 0
M  V30 7495 H 734.137 2.60779 -3.31017 0
M  V30 7496 H 732.861 2.52608 -2.07018 0
M  V30 7497 H 731.52 0.975237 -3.5339 0
M  V30 7498 H 731.168 3.44797 -3.6623 0
M  V30 7499 H 730.868 2.66778 -5.23549 0
M  V30 7500 H 732.392 3.55904 -4.9615 0
M  V30 7501 H 733.806 1.36979 -5.56695 0
M  V30 7502 H 732.203 0.684207 -5.96187 0
M  V30 7503 H 733.273 -0.182939 -4.84555 0
M  V30 7504 N 734.616 1.57351 0.0885366 0
M  V30 7505 C 735.563 2.02523 1.10693 0
M  V30 7506 C 736.533 0.902736 1.39427 0
M  V30 7507 O 737.718 1.16921 1.50779 0
M  V30 7508 C 734.858 2.46013 2.42016 0
M  V30 7509 C 733.971 3.7181 2.19957 0
M  V30 7510 C 733.106 4.04152 3.44724 0
M  V30 7511 C 732.145 5.2304 3.17956 0
M  V30 7512 N 731.282 5.51102 4.35007 0
M  V30 7513 H 736.122 2.89302 0.714742 0
M  V30 7514 H 733.659 1.43084 0.341378 0
M  V30 7515 H 735.617 2.69274 3.18665 0
M  V30 7516 H 734.247 1.62235 2.79069 0
M  V30 7517 H 733.299 3.55987 1.34079 0
M  V30 7518 H 734.611 4.58604 1.96173 0
M  V30 7519 H 733.765 4.28225 4.29777 0
M  V30 7520 H 732.504 3.15893 3.71568 0
M  V30 7521 H 731.509 4.98781 2.31296 0
M  V30 7522 H 732.734 6.12902 2.92451 0
M  V30 7523 H 730.68 4.65802 4.61914 0
M  V30 7524 H 730.597 6.3228 4.14437 0
M  V30 7525 H 731.865 5.79714 5.21106 0
M  V30 7526 N 736.094 -0.359525 1.53444 0
M  V30 7527 C 737.51 -0.701599 1.43352 0
M  V30 7528 C 737.71 -1.93049 0.577439 0
M  V30 7529 O 736.766 -2.52423 0.0622224 0
M  V30 7530 C 738.079 -0.90915 2.86627 0
M  V30 7531 C 739.627 -1.00878 2.96298 0
M  V30 7532 C 740.102 -1.24876 4.40647 0
M  V30 7533 N 741.593 -1.31632 4.44103 0
M  V30 7534 C 742.328 -1.51922 5.52908 0
M  V30 7535 N 741.824 -1.69489 6.71748 0
M  V30 7536 N 743.617 -1.54341 5.40496 0
M  V30 7537 H 735.768 0.448685 2.07607 0
M  V30 7538 H 738.031 0.138713 0.937797 0
M  V30 7539 H 737.737 -0.0778997 3.51614 0
M  V30 7540 H 737.611 -1.81551 3.30634 0
M  V30 7541 H 739.998 -1.83057 2.31461 0
M  V30 7542 H 740.079 -0.0796721 2.55676 0
M  V30 7543 H 739.723 -0.431961 5.0606 0
M  V30 7544 H 739.653 -2.19118 4.78848 0
M  V30 7545 H 742.144 -1.19646 3.5846 0
M  V30 7546 H 742.457 -1.84561 7.50438 0
M  V30 7547 H 740.802 -1.66655 6.74723 0
M  V30 7548 H 743.993 -1.40188 4.46615 0
M  V30 7549 H 744.166 -1.69812 6.25354 0
M  V30 7550 N 737.572 -1.44907 -0.619662 0
M  V30 7551 C 738.82 -1.47999 -1.37625 0
M  V30 7552 C 739.141 -0.118295 -1.94641 0
M  V30 7553 O 738.411 0.85086 -1.76457 0
M  V30 7554 H 736.991 -0.544993 -0.510873 0
M  V30 7555 H 739.653 -1.80772 -0.728522 0
M  V30 7556 H 738.749 -2.21196 -2.20179 0
M  V30 7557 N 739.05 0.861098 -1.31996 0
M  V30 7558 C 740.013 1.95068 -1.20338 0
M  V30 7559 C 741.013 1.60289 -0.128114 0
M  V30 7560 O 742.203 1.70048 -0.378044 0
M  V30 7561 C 739.335 3.30153 -0.849205 0
M  V30 7562 H 740.528 2.06833 -2.17164 0
M  V30 7563 H 738.081 1.05049 -1.15734 0
M  V30 7564 H 738.816 3.24087 0.117508 0
M  V30 7565 H 738.601 3.56771 -1.62655 0
M  V30 7566 H 740.091 4.10025 -0.791782 0
M  V30 7567 N 740.528 1.15101 1.07655 0
M  V30 7568 C 741.753 0.948177 1.84457 0
M  V30 7569 C 742.178 -0.498432 1.81376 0
M  V30 7570 O 741.536 -1.35509 1.20445 0
M  V30 7571 C 741.584 1.46318 3.29581 0
M  V30 7572 O 740.688 0.660342 4.07079 0
M  V30 7573 H 740.029 0.338428 0.571281 0
M  V30 7574 H 742.559 1.5301 1.35828 0
M  V30 7575 H 742.569 1.47468 3.80417 0
M  V30 7576 H 741.244 2.51635 3.31138 0
M  V30 7577 H 739.821 0.718216 3.65918 0
M  V30 7578 N 742.006 -1.2595 0.947325 0
M  V30 7579 C 743.236 -1.97258 0.614235 0
M  V30 7580 C 743.644 -1.70682 -0.816355 0
M  V30 7581 O 742.987 -0.97527 -1.55673 0
M  V30 7582 C 743.049 -3.50845 0.784081 0
M  V30 7583 C 742.713 -4.01084 2.19045 0
M  V30 7584 C 743.71 -4.12347 3.16648 0
M  V30 7585 C 741.395 -4.34936 2.51268 0
M  V30 7586 C 743.389 -4.56766 4.44572 0
M  V30 7587 C 741.076 -4.79043 3.79422 0
M  V30 7588 C 742.074 -4.89919 4.75887 0
M  V30 7589 O 741.762 -5.3305 6.01758 0
M  V30 7590 H 741.494 -0.635738 0.22981 0
M  V30 7591 H 744.048 -1.61268 1.27207 0
M  V30 7592 H 742.278 -3.86638 0.069101 0
M  V30 7593 H 743.967 -4.03363 0.453135 0
M  V30 7594 H 744.733 -3.86432 2.93079 0
M  V30 7595 H 740.612 -4.25702 1.76916 0
M  V30 7596 H 744.156 -4.6517 5.19868 0
M  V30 7597 H 740.053 -5.04402 4.02802 0
M  V30 7598 H 740.821 -5.51255 6.05029 0
M  V30 7599 N 743.484 -0.715051 -1.40445 0
M  V30 7600 C 744.414 -0.0768699 -2.33373 0
M  V30 7601 C 745.395 0.746109 -1.52863 0
M  V30 7602 O 746.58 0.695142 -1.81332 0
M  V30 7603 C 743.71 0.846014 -3.36838 0
M  V30 7604 C 742.664 0.128694 -4.27806 0
M  V30 7605 C 741.99 1.16726 -5.21804 0
M  V30 7606 C 743.29 -1.01679 -5.12307 0
M  V30 7607 H 744.984 -0.853061 -2.8699 0
M  V30 7608 H 742.53 -0.41167 -1.3799 0
M  V30 7609 H 744.483 1.30185 -4.00786 0
M  V30 7610 H 743.207 1.6541 -2.81615 0
M  V30 7611 H 741.866 -0.307314 -3.6531 0
M  V30 7612 H 741.514 1.96838 -4.62887 0
M  V30 7613 H 741.214 0.692188 -5.83509 0
M  V30 7614 H 742.738 1.62321 -5.88629 0
M  V30 7615 H 744.152 -0.640337 -5.69713 0
M  V30 7616 H 742.549 -1.4202 -5.83053 0
M  V30 7617 H 743.619 -1.84769 -4.48317 0
M  V30 7618 N 744.962 1.50701 -0.461195 0
M  V30 7619 C 746.208 2.02566 0.0973411 0
M  V30 7620 C 746.541 1.3432 1.40257 0
M  V30 7621 O 745.816 0.465692 1.88843 0
M  V30 7622 C 746.099 3.58919 0.291423 0
M  V30 7623 C 745.952 4.37751 -1.03413 0
M  V30 7624 C 747.271 4.27379 1.05048 0
M  V30 7625 H 744.39 0.73622 0.0339026 0
M  V30 7626 H 747.032 1.80115 -0.604855 0
M  V30 7627 H 745.182 3.78179 0.889539 0
M  V30 7628 H 746.854 4.30085 -1.66806 0
M  V30 7629 H 745.097 4.01885 -1.63313 0
M  V30 7630 H 745.768 5.45384 -0.852085 0
M  V30 7631 H 748.244 4.12534 0.543603 0
M  V30 7632 H 747.12 5.36609 1.15506 0
M  V30 7633 H 747.381 3.89868 2.0846 0
M  V30 7634 N 746.441 0.193421 1.56409 0
M  V30 7635 C 747.373 -0.759944 2.16235 0
M  V30 7636 C 748.386 -1.17797 1.12373 0
M  V30 7637 O 749.575 -1.11399 1.39472 0
M  V30 7638 C 746.675 -2.03735 2.70823 0
M  V30 7639 C 745.848 -1.77939 3.9957 0
M  V30 7640 C 744.907 -2.90111 4.39001 0
M  V30 7641 O 743.933 -2.59791 5.06456 0
M  V30 7642 N 745.135 -4.18426 4.02368 0
M  V30 7643 H 747.9 -0.248348 2.98669 0
M  V30 7644 H 745.461 0.0113966 1.61896 0
M  V30 7645 H 747.453 -2.77914 2.94187 0
M  V30 7646 H 746.023 -2.46022 1.92852 0
M  V30 7647 H 745.243 -0.875491 3.84355 0
M  V30 7648 H 746.531 -1.58099 4.83614 0
M  V30 7649 H 745.929 -4.45913 3.48106 0
M  V30 7650 H 744.486 -4.89237 4.30686 0
M  V30 7651 N 747.919 -1.57396 -0.0801906 0
M  V30 7652 C 749.165 -1.87113 -0.782083 0
M  V30 7653 C 749.498 -0.78458 -1.77646 0
M  V30 7654 O 748.773 0.205993 -1.93406 0
M  V30 7655 C 749.056 -3.27483 -1.49756 0
M  V30 7656 C 748.909 -4.46782 -0.520171 0
M  V30 7657 C 750.228 -3.65965 -2.44454 0
M  V30 7658 H 747.347 -0.680559 -0.282858 0
M  V30 7659 H 749.989 -1.89946 -0.0454139 0
M  V30 7660 H 748.139 -3.25199 -2.12551 0
M  V30 7661 H 749.811 -4.61187 0.101919 0
M  V30 7662 H 748.054 -4.33485 0.165219 0
M  V30 7663 H 748.725 -5.41761 -1.05824 0
M  V30 7664 H 751.201 -3.69289 -1.91742 0
M  V30 7665 H 750.077 -4.65086 -2.91524 0
M  V30 7666 H 750.338 -2.95446 -3.28883 0
M  V30 7667 N 749.397 0.351382 -1.53633 0
M  V30 7668 C 750.813 0.693987 -1.43722 0
M  V30 7669 C 751.013 1.9274 -0.587669 0
M  V30 7670 O 750.069 2.52387 -0.0756082 0
M  V30 7671 C 751.382 0.893937 -2.87105 0
M  V30 7672 C 752.93 0.993051 -2.96829 0
M  V30 7673 C 753.405 1.22537 -4.41303 0
M  V30 7674 N 754.896 1.29275 -4.44795 0
M  V30 7675 C 755.631 1.48988 -5.53706 0
M  V30 7676 N 755.127 1.65924 -6.72637 0
M  V30 7677 N 756.92 1.51472 -5.41306 0
M  V30 7678 H 749.071 -0.459688 -2.07366 0
M  V30 7679 H 751.334 -0.143684 -0.937048 0
M  V30 7680 H 751.04 0.0592517 -3.5165 0
M  V30 7681 H 750.914 1.79795 -3.31592 0
M  V30 7682 H 753.301 1.81827 -2.32429 0
M  V30 7683 H 753.382 0.0661119 -2.55715 0
M  V30 7684 H 753.026 0.405117 -5.06282 0
M  V30 7685 H 752.956 2.16575 -4.80003 0
M  V30 7686 H 755.447 1.17743 -3.59089 0
M  V30 7687 H 755.76 1.80578 -7.51406 0
M  V30 7688 H 754.105 1.63075 -6.75597 0
M  V30 7689 H 757.296 1.37818 -4.47352 0
M  V30 7690 H 757.469 1.66493 -6.26246 0
M  V30 7691 N 750.875 1.45233 0.611969 0
M  V30 7692 C 751.838 1.53189 1.70487 0
M  V30 7693 C 752.838 0.411839 1.55437 0
M  V30 7694 O 754.028 0.675164 1.60584 0
M  V30 7695 C 751.16 1.42422 3.09723 0
M  V30 7696 H 752.353 2.5056 1.64802 0
M  V30 7697 H 749.906 1.32609 0.827318 0
M  V30 7698 H 750.641 0.462185 3.2099 0
M  V30 7699 H 750.426 2.23658 3.22055 0
M  V30 7700 H 751.916 1.51012 3.89339 0
M  V30 7701 N 752.353 -0.854086 1.3245 0
M  V30 7702 C 753.769 -1.14238 1.11453 0
M  V30 7703 C 753.969 -2.01228 -0.10461 0
M  V30 7704 O 753.025 -2.39845 -0.789339 0
M  V30 7705 C 754.338 -1.81916 2.39431 0
M  V30 7706 C 755.886 -1.94549 2.45193 0
M  V30 7707 C 756.361 -2.65642 3.73093 0
M  V30 7708 N 757.852 -2.73167 3.74078 0
M  V30 7709 C 758.587 -3.28828 4.69744 0
M  V30 7710 N 758.083 -3.85295 5.75778 0
M  V30 7711 N 759.876 -3.26936 4.57241 0
M  V30 7712 H 752.027 -0.274786 2.10615 0
M  V30 7713 H 754.29 -0.184375 0.929898 0
M  V30 7714 H 753.996 -1.25452 3.28565 0
M  V30 7715 H 753.87 -2.82068 2.50434 0
M  V30 7716 H 756.257 -2.50172 1.56518 0
M  V30 7717 H 756.338 -0.933914 2.38142 0
M  V30 7718 H 755.982 -2.10683 4.62142 0
M  V30 7719 H 755.912 -3.6724 3.77415 0
M  V30 7720 H 758.403 -2.33108 2.97438 0
M  V30 7721 H 758.716 -4.25925 6.44832 0
M  V30 7722 H 757.061 -3.83625 5.79531 0
M  V30 7723 H 760.252 -2.8207 3.7357 0
M  V30 7724 H 760.425 -3.70014 5.31971 0
M  V30 7725 N 753.831 -1.1567 -1.07043 0
M  V30 7726 C 755.056 -0.957946 -1.83952 0
M  V30 7727 C 755.481 0.488807 -1.81638 0
M  V30 7728 O 754.839 1.34869 -1.21162 0
M  V30 7729 C 754.887 -1.48064 -3.288 0
M  V30 7730 O 753.991 -0.681921 -4.06723 0
M  V30 7731 H 753.332 -0.341453 -0.569479 0
M  V30 7732 H 755.862 -1.53728 -1.35015 0
M  V30 7733 H 755.872 -1.49484 -3.7963 0
M  V30 7734 H 754.547 -2.53388 -3.29799 0
M  V30 7735 H 753.124 -0.737612 -3.65532 0
M  V30 7736 N 755.309 1.25446 -0.953992 0
M  V30 7737 C 756.219 2.29632 -0.480264 0
M  V30 7738 C 757.235 1.68025 0.452071 0
M  V30 7739 O 758.411 1.98703 0.328472 0
M  V30 7740 C 755.476 3.45903 0.234974 0
M  V30 7741 C 754.537 4.22953 -0.735495 0
M  V30 7742 C 753.77 5.33672 -0.0542957 0
M  V30 7743 O 753.993 5.58477 1.16018 0
M  V30 7744 O 752.927 5.9734 -0.739509 0
M  V30 7745 H 756.753 2.72242 -1.34602 0
M  V30 7746 H 754.338 1.30883 -0.720419 0
M  V30 7747 H 756.22 4.16552 0.637341 0
M  V30 7748 H 754.895 3.05296 1.07592 0
M  V30 7749 H 753.802 3.54734 -1.18806 0
M  V30 7750 H 755.135 4.67341 -1.54444 0
M  V30 7751 N 756.787 0.722489 1.40064 0
M  V30 7752 C 757.75 0.0830209 2.2905 0
M  V30 7753 C 758.75 -0.680208 1.45705 0
M  V30 7754 O 759.94 -0.511084 1.66534 0
M  V30 7755 C 757.072 -0.892092 3.29021 0
M  V30 7756 H 758.265 0.866848 2.87099 0
M  V30 7757 H 755.818 0.487556 1.48501 0
M  V30 7758 H 756.553 -1.70273 2.76003 0
M  V30 7759 H 756.338 -0.34761 3.90556 0
M  V30 7760 H 757.828 -1.33648 3.95636 0
M  V30 7761 N 758.265 -1.50454 0.469181 0
M  V30 7762 C 759.513 -2.01916 -0.0862982 0
M  V30 7763 C 759.834 -1.35337 -1.40388 0
M  V30 7764 O 759.104 -0.498096 -1.89462 0
M  V30 7765 H 757.684 -0.746185 -0.0348825 0
M  V30 7766 H 760.346 -1.84804 0.619167 0
M  V30 7767 H 759.442 -3.11182 -0.239189 0
M  V30 7768 N 759.743 -0.201713 -1.56304 0
M  V30 7769 C 760.973 0.440084 -2.01858 0
M  V30 7770 C 761.381 1.55279 -1.08098 0
M  V30 7771 O 760.724 1.83529 -0.0792216 0
M  V30 7772 C 760.786 1.05091 -3.43797 0
M  V30 7773 C 760.45 0.0761208 -4.56937 0
M  V30 7774 C 761.447 -0.716951 -5.14933 0
M  V30 7775 C 759.132 -0.0368815 -5.02286 0
M  V30 7776 C 761.126 -1.60993 -6.16733 0
M  V30 7777 C 758.813 -0.933409 -6.03929 0
M  V30 7778 C 759.811 -1.71849 -6.61027 0
M  V30 7779 O 759.499 -2.59998 -7.60695 0
M  V30 7780 H 759.231 0.114139 -0.666294 0
M  V30 7781 H 761.785 -0.309672 -2.03052 0
M  V30 7782 H 760.015 1.84938 -3.3961 0
M  V30 7783 H 761.704 1.59804 -3.73118 0
M  V30 7784 H 762.47 -0.63999 -4.80759 0
M  V30 7785 H 758.349 0.564034 -4.57537 0
M  V30 7786 H 761.893 -2.22315 -6.61227 0
M  V30 7787 H 757.79 -1.01146 -6.37526 0
M  V30 7788 H 758.558 -2.53851 -7.7814 0
M  V30 7789 N 761.222 1.57436 0.0718424 0
M  V30 7790 C 762.47 1.86878 0.769484 0
M  V30 7791 C 762.791 0.7937 1.78116 0
M  V30 7792 O 762.061 -0.177642 1.95093 0
M  V30 7793 H 760.641 0.689593 0.287177 0
M  V30 7794 H 763.303 1.94841 0.0479427 0
M  V30 7795 H 762.399 2.84387 1.28572 0
M  V30 7796 N 762.7 -0.34323 1.53817 0
M  V30 7797 C 764.111 -0.918823 1.62525 0
M  V30 7798 C 764.462 -1.89542 0.506765 0
M  V30 7799 O 763.587 -2.13326 -0.363441 0
M  V30 7800 C 764.182 -1.67326 2.94597 0
M  V30 7801 C 762.741 -2.19786 3.05567 0
M  V30 7802 C 761.888 -1.01708 2.57974 0
M  V30 7803 H 764.839 -0.121358 1.58235 0
M  V30 7804 H 764.86 -2.53615 2.83654 0
M  V30 7805 H 764.372 -0.962223 3.75983 0
M  V30 7806 H 762.473 -2.94065 2.28816 0
M  V30 7807 H 762.586 -2.46135 4.1104 0
M  V30 7808 H 760.95 -1.39058 2.13389 0
M  V30 7809 H 761.733 -0.320671 3.41799 0
M  V30 7810 N 764.178 -1.45556 -0.604258 0
M  V30 7811 C 765.425 -1.49746 -1.36317 0
M  V30 7812 C 765.753 -0.140516 -1.93992 0
M  V30 7813 O 765.008 0.861244 -1.7573 0
M  V30 7814 C 765.307 -2.52697 -2.52743 0
M  V30 7815 C 764.973 -3.97315 -2.13195 0
M  V30 7816 C 763.635 -4.36692 -2.02123 0
M  V30 7817 C 765.987 -4.88249 -1.8238 0
M  V30 7818 C 763.315 -5.64895 -1.58463 0
M  V30 7819 C 765.667 -6.16867 -1.40205 0
M  V30 7820 C 764.331 -6.55172 -1.27694 0
M  V30 7821 H 763.601 -0.54796 -0.49882 0
M  V30 7822 H 766.248 -1.7892 -0.682643 0
M  V30 7823 H 764.553 -2.17105 -3.26148 0
M  V30 7824 H 766.25 -2.53176 -3.10971 0
M  V30 7825 H 762.84 -3.66176 -2.22739 0
M  V30 7826 H 767.024 -4.58561 -1.89829 0
M  V30 7827 H 762.28 -5.93365 -1.47402 0
M  V30 7828 H 766.454 -6.86771 -1.15408 0
M  V30 7829 H 764.081 -7.54411 -0.936375 0
M  V30 7830 N 765.656 0.84705 -1.32902 0
M  V30 7831 C 766.904 1.5986 -1.2365 0
M  V30 7832 C 767.225 1.93974 0.199789 0
M  V30 7833 O 766.495 1.60273 1.12648 0
M  V30 7834 H 765.075 0.592696 -0.454665 0
M  V30 7835 H 767.737 1.01278 -1.66519 0
M  V30 7836 H 766.833 2.53218 -1.82448 0
M  V30 7837 N 767.134 1.16236 1.06428 0
M  V30 7838 C 768.066 0.825446 2.1382 0
M  V30 7839 C 769.079 -0.166707 1.61944 0
M  V30 7840 O 770.268 0.0578606 1.78406 0
M  V30 7841 C 767.368 0.208023 3.38261 0
M  V30 7842 C 766.541 1.23994 4.19457 0
M  V30 7843 C 765.6 0.642569 5.22262 0
M  V30 7844 O 764.626 1.31106 5.53895 0
M  V30 7845 N 765.828 -0.571327 5.77682 0
M  V30 7846 H 768.593 1.7497 2.43322 0
M  V30 7847 H 766.154 1.05951 1.22417 0
M  V30 7848 H 768.146 -0.204608 4.04182 0
M  V30 7849 H 766.716 -0.619752 3.06395 0
M  V30 7850 H 765.936 1.82879 3.49212 0
M  V30 7851 H 767.224 1.93638 4.70512 0
M  V30 7852 H 766.622 -1.13263 5.54245 0
M  V30 7853 H 765.179 -0.926187 6.45186 0
M  V30 7854 N 768.612 -1.24939 0.960631 0
M  V30 7855 C 769.522 -2.29374 0.492435 0
M  V30 7856 C 770.538 -1.68262 -0.443154 0
M  V30 7857 O 771.714 -1.98875 -0.31793 0
M  V30 7858 C 768.779 -3.46023 -0.216626 0
M  V30 7859 C 767.84 -4.22557 0.757915 0
M  V30 7860 C 767.073 -5.33636 0.0825969 0
M  V30 7861 O 767.296 -5.59084 -1.13054 0
M  V30 7862 O 766.23 -5.96939 0.771177 0
M  V30 7863 H 770.056 -2.71525 1.36044 0
M  V30 7864 H 767.641 -1.30499 0.72735 0
M  V30 7865 H 769.523 -4.16885 -0.615241 0
M  V30 7866 H 768.198 -3.05862 -1.05971 0
M  V30 7867 H 767.105 -3.54099 1.20685 0
M  V30 7868 H 768.438 -4.66516 1.5692 0
M  V30 7869 N 770.09 -0.729906 -1.39679 0
M  V30 7870 C 771.04 -0.0627678 -2.27914 0
M  V30 7871 C 772.024 0.717867 -1.43998 0
M  V30 7872 O 773.216 0.587713 -1.66958 0
M  V30 7873 C 770.345 0.847564 -3.32673 0
M  V30 7874 C 769.431 0.0613515 -4.24056 0
M  V30 7875 N 769.822 -0.962863 -4.96551 0
M  V30 7876 C 768.12 0.291773 -4.45045 0
M  V30 7877 C 768.821 -1.43652 -5.63683 0
M  V30 7878 N 767.797 -0.756044 -5.38317 0
M  V30 7879 H 771.599 -0.847545 -2.81414 0
M  V30 7880 H 769.113 -0.563776 -1.523 0
M  V30 7881 H 771.11 1.34094 -3.94746 0
M  V30 7882 H 769.77 1.63156 -2.80732 0
M  V30 7883 H 770.781 -1.34409 -5.00154 0
M  V30 7884 H 767.458 1.05097 -4.04056 0
M  V30 7885 H 768.848 -2.28835 -6.31731 0
M  V30 7886 N 771.568 1.50203 -0.477153 0
M  V30 7887 C 772.518 2.25561 0.332625 0
M  V30 7888 C 773.502 1.29401 0.956249 0
M  V30 7889 O 774.694 1.54267 0.867795 0
M  V30 7890 C 771.823 3.12984 1.41052 0
M  V30 7891 C 770.909 4.16595 0.79433 0
M  V30 7892 N 771.3 5.05722 -0.0889633 0
M  V30 7893 C 769.598 4.33279 1.0576 0
M  V30 7894 C 770.299 5.80039 -0.439286 0
M  V30 7895 N 769.275 5.43278 0.187018 0
M  V30 7896 H 773.077 2.91836 -0.347718 0
M  V30 7897 H 770.591 1.59759 -0.291686 0
M  V30 7898 H 772.588 3.65582 2.00388 0
M  V30 7899 H 771.248 2.48258 2.09279 0
M  V30 7900 H 772.259 5.15869 -0.458205 0
M  V30 7901 H 768.936 3.79769 1.7344 0
M  V30 7902 H 770.326 6.61802 -1.1605 0
M  V30 7903 N 773.046 0.209999 1.56195 0
M  V30 7904 C 774.271 -0.433064 2.02828 0
M  V30 7905 C 774.696 -1.5337 1.08901 0
M  V30 7906 O 774.054 -1.81144 0.0751132 0
M  V30 7907 C 774.102 -0.952635 3.47789 0
M  V30 7908 O 773.206 -2.0647 3.56993 0
M  V30 7909 H 772.547 -0.0994594 0.656509 0
M  V30 7910 H 775.077 0.32525 2.01998 0
M  V30 7911 H 775.087 -1.26542 3.8788 0
M  V30 7912 H 773.762 -0.147007 4.1564 0
M  V30 7913 H 772.339 -1.75942 3.28784 0
M  V30 7914 N 774.524 -1.57472 -0.0634922 0
M  V30 7915 C 775.456 -2.00999 -1.10145 0
M  V30 7916 C 776.469 -0.917219 -1.34503 0
M  V30 7917 O 777.658 -1.19501 -1.32596 0
M  V30 7918 C 774.758 -2.34089 -2.45063 0
M  V30 7919 C 773.931 -3.65317 -2.40546 0
M  V30 7920 C 772.99 -3.85982 -3.57637 0
M  V30 7921 O 772.016 -4.5747 -3.38689 0
M  V30 7922 N 773.218 -3.28971 -4.78287 0
M  V30 7923 H 775.983 -2.90656 -0.730714 0
M  V30 7924 H 773.544 -1.59926 -0.252017 0
M  V30 7925 H 775.536 -2.4508 -3.22053 0
M  V30 7926 H 774.106 -1.50279 -2.74107 0
M  V30 7927 H 773.326 -3.65003 -1.48885 0
M  V30 7928 H 774.614 -4.51468 -2.34636 0
M  V30 7929 H 774.012 -2.70962 -4.96584 0
M  V30 7930 H 772.569 -3.45398 -5.5276 0
M  V30 7931 N 776.003 0.335068 -1.53997 0
M  V30 7932 C 777.231 1.09418 -1.756 0
M  V30 7933 C 777.646 1.82083 -0.499138 0
M  V30 7934 O 777.003 1.74646 0.529631 0
M  V30 7935 C 777.054 2.10115 -2.94166 0
M  V30 7936 O 776.775 1.40404 -4.14992 0
M  V30 7937 C 778.276 2.98336 -3.27888 0
M  V30 7938 H 775.496 0.32595 -0.586513 0
M  V30 7939 H 778.04 0.384693 -2.00849 0
M  V30 7940 H 776.195 2.76616 -2.71224 0
M  V30 7941 H 776.609 2.07743 -4.81605 0
M  V30 7942 H 778.083 3.6491 -4.1418 0
M  V30 7943 H 778.56 3.64814 -2.44556 0
M  V30 7944 H 779.166 2.37412 -3.52868 0
M  V30 7945 N 777.481 1.45874 0.596531 0
M  V30 7946 C 778.413 1.51408 1.7207 0
M  V30 7947 C 779.426 0.403738 1.57714 0
M  V30 7948 O 780.615 0.671384 1.65393 0
M  V30 7949 C 777.715 1.3652 3.10186 0
M  V30 7950 C 776.888 2.61428 3.50677 0
M  V30 7951 C 775.947 2.40937 4.67799 0
M  V30 7952 O 774.973 3.14602 4.74357 0
M  V30 7953 N 776.175 1.4621 5.61785 0
M  V30 7954 H 778.94 2.48333 1.67782 0
M  V30 7955 H 776.501 1.41755 0.782129 0
M  V30 7956 H 778.493 1.20606 3.86311 0
M  V30 7957 H 777.063 0.478302 3.08919 0
M  V30 7958 H 776.283 2.92381 2.644 0
M  V30 7959 H 777.571 3.44432 3.74491 0
M  V30 7960 H 776.969 0.854382 5.59211 0
M  V30 7961 H 775.526 1.36264 6.37397 0
M  V30 7962 N 778.959 -0.83999 1.33349 0
M  V30 7963 C 779.889 -1.965 1.26135 0
M  V30 7964 C 780.87 -1.69505 0.142152 0
M  V30 7965 O 782.055 -1.91346 0.331743 0
M  V30 7966 C 779.185 -3.32632 0.99866 0
M  V30 7967 C 778.139 -3.74021 2.08068 0
M  V30 7968 C 777.465 -5.07947 1.67014 0
M  V30 7969 C 778.765 -3.87925 3.49731 0
M  V30 7970 H 780.459 -2.02793 2.20262 0
M  V30 7971 H 778.005 -0.974297 1.06035 0
M  V30 7972 H 779.958 -4.10903 0.934696 0
M  V30 7973 H 778.682 -3.26593 0.0217759 0
M  V30 7974 H 777.341 -2.98012 2.13505 0
M  V30 7975 H 776.989 -4.98378 0.680316 0
M  V30 7976 H 776.689 -5.36611 2.39422 0
M  V30 7977 H 778.213 -5.88695 1.62082 0
M  V30 7978 H 779.627 -4.5651 3.46802 0
M  V30 7979 H 778.024 -4.28023 4.20614 0
M  V30 7980 H 779.094 -2.90407 3.88319 0
M  V30 7981 N 780.437 -1.16799 -1.0581 0
M  V30 7982 C 781.714 -0.862616 -1.75551 0
M  V30 7983 C 782.094 0.6385 -2.01212 0
M  V30 7984 O 781.442 1.58784 -1.64317 0
M  V30 7985 C 781.652 -1.6907 -3.05314 0
M  V30 7986 C 783 -1.90675 -3.79379 0
M  V30 7987 O 784.024 -1.65976 -3.15167 0
M  V30 7988 O 782.883 -2.32145 -4.94743 0
M  V30 7989 H 779.977 -0.318789 -0.763088 0
M  V30 7990 H 782.523 -1.27461 -1.12034 0
M  V30 7991 H 781.295 -2.70912 -2.82352 0
M  V30 7992 H 780.918 -1.27606 -3.76567 0
M  V30 7993 N 781.915 1.24427 -0.967243 0
M  V30 7994 C 782.825 2.29109 -0.504592 0
M  V30 7995 C 783.841 1.68495 0.434224 0
M  V30 7996 O 785.017 1.99041 0.307379 0
M  V30 7997 C 782.082 3.46133 0.198273 0
M  V30 7998 C 781.143 4.22149 -0.780313 0
M  V30 7999 C 780.376 5.33585 -0.110896 0
M  V30 8000 O 780.599 5.59676 1.10088 0
M  V30 8001 O 779.533 5.96522 -0.802823 0
M  V30 8002 H 783.359 2.708 -1.37482 0
M  V30 8003 H 780.944 1.30111 -0.73426 0
M  V30 8004 H 782.826 4.17205 0.593124 0
M  V30 8005 H 781.501 3.0642 1.04347 0
M  V30 8006 H 780.408 3.53454 -1.22561 0
M  V30 8007 H 781.741 4.65677 -1.59392 0
M  V30 8008 N 783.393 0.737304 1.3929 0
M  V30 8009 C 784.618 0.295237 2.05288 0
M  V30 8010 C 785.043 -1.06235 1.55228 0
M  V30 8011 O 784.401 -1.67365 0.697043 0
M  V30 8012 C 784.449 0.309146 3.59272 0
M  V30 8013 O 783.553 -0.702437 4.06374 0
M  V30 8014 H 782.894 0.133762 0.650387 0
M  V30 8015 H 785.424 1.00387 1.78279 0
M  V30 8016 H 785.434 0.154336 4.07708 0
M  V30 8017 H 784.109 1.29974 3.95069 0
M  V30 8018 H 782.686 -0.513574 3.69346 0
M  V30 8019 N 784.871 -1.49948 0.485112 0
M  V30 8020 C 785.781 -2.32587 -0.306697 0
M  V30 8021 C 786.797 -1.43598 -0.982632 0
M  V30 8022 O 787.973 -1.76638 -0.967519 0
M  V30 8023 C 785.038 -3.18638 -1.3664 0
M  V30 8024 C 784.099 -4.23462 -0.705589 0
M  V30 8025 C 783.332 -5.05401 -1.7148 0
M  V30 8026 O 783.555 -4.88618 -2.94293 0
M  V30 8027 O 782.489 -5.88157 -1.27889 0
M  V30 8028 H 786.315 -3.01447 0.369272 0
M  V30 8029 H 783.9 -1.47349 0.246709 0
M  V30 8030 H 785.782 -3.71992 -1.9799 0
M  V30 8031 H 784.457 -2.52491 -2.02559 0
M  V30 8032 H 783.364 -3.74063 -0.0527733 0
M  V30 8033 H 784.697 -4.92119 -0.0891187 0
M  V30 8034 N 786.349 -0.21828 -1.56081 0
M  V30 8035 C 787.597 0.413488 -1.97825 0
M  V30 8036 C 787.918 1.60527 -1.10707 0
M  V30 8037 O 787.188 1.9504 -0.183378 0
M  V30 8038 H 785.768 0.155757 -0.730581 0
M  V30 8039 H 788.43 -0.310413 -1.92412 0
M  V30 8040 H 787.526 0.742024 -3.03151 0
M  V30 8041 N 787.827 1.57504 0.0551401 0
M  V30 8042 C 789.073 1.89191 0.74688 0
M  V30 8043 C 789.428 0.813936 1.74335 0
M  V30 8044 O 788.721 -0.180217 1.90751 0
M  V30 8045 C 788.915 3.25311 1.48013 0
M  V30 8046 C 788.744 4.46247 0.556176 0
M  V30 8047 C 787.514 5.04954 0.186891 0
M  V30 8048 C 789.712 5.14068 -0.154295 0
M  V30 8049 N 787.694 6.09411 -0.741041 0
M  V30 8050 C 789.065 6.12851 -0.938809 0
M  V30 8051 C 791.12 4.97396 -0.224007 0
M  V30 8052 C 789.823 6.96759 -1.78658 0
M  V30 8053 C 791.849 5.81845 -1.05881 0
M  V30 8054 C 791.211 6.80178 -1.83133 0
M  V30 8055 H 787.31 0.741562 0.248213 0
M  V30 8056 H 789.894 1.94698 0.00777734 0
M  V30 8057 H 788.065 3.20781 2.18985 0
M  V30 8058 H 789.797 3.44594 2.12219 0
M  V30 8059 H 786.552 4.70472 0.543415 0
M  V30 8060 H 786.976 6.66303 -1.19874 0
M  V30 8061 H 791.618 4.21274 0.358924 0
M  V30 8062 H 789.336 7.72245 -2.38042 0
M  V30 8063 H 792.922 5.70997 -1.11595 0
M  V30 8064 H 791.802 7.44389 -2.46687 0
M  V30 8065 N 789.305 -0.326896 1.54172 0
M  V30 8066 C 790.721 -0.671034 1.44808 0
M  V30 8067 C 790.921 -1.91781 0.618258 0
M  V30 8068 O 789.977 -2.52235 0.115751 0
M  V30 8069 C 791.29 -0.848147 2.88491 0
M  V30 8070 C 792.838 -0.945702 2.98371 0
M  V30 8071 C 793.313 -1.15501 4.43197 0
M  V30 8072 N 794.804 -1.22183 4.46795 0
M  V30 8073 C 795.539 -1.4016 5.56006 0
M  V30 8074 N 795.035 -1.55202 6.75192 0
M  V30 8075 N 796.828 -1.42841 5.43648 0
M  V30 8076 H 788.979 0.49262 2.06608 0
M  V30 8077 H 791.242 0.158574 0.934643 0
M  V30 8078 H 790.948 -0.00329969 3.517 0
M  V30 8079 H 790.822 -1.74497 3.34411 0
M  V30 8080 H 793.209 -1.78106 2.35292 0
M  V30 8081 H 793.29 -0.0254215 2.55787 0
M  V30 8082 H 792.934 -0.324521 5.06862 0
M  V30 8083 H 792.864 -2.08911 4.83388 0
M  V30 8084 H 795.355 -1.12016 3.60917 0
M  V30 8085 H 795.668 -1.68601 7.54184 0
M  V30 8086 H 794.013 -1.52306 6.78106 0
M  V30 8087 H 797.204 -1.30683 4.49488 0
M  V30 8088 H 797.377 -1.56509 6.28816 0
M  V30 8089 N 790.784 -1.46188 -0.588786 0
M  V30 8090 C 791.694 -1.58865 -1.72624 0
M  V30 8091 C 792.71 -0.472348 -1.67466 0
M  V30 8092 O 793.886 -0.735638 -1.87484 0
M  V30 8093 C 790.951 -1.56989 -3.0912 0
M  V30 8094 C 790.012 -2.79804 -3.25589 0
M  V30 8095 C 789.245 -2.78009 -4.55573 0
M  V30 8096 O 789.468 -1.86406 -5.39082 0
M  V30 8097 O 788.402 -3.6947 -4.75159 0
M  V30 8098 H 792.228 -2.55047 -1.64878 0
M  V30 8099 H 789.813 -1.28912 -0.755115 0
M  V30 8100 H 791.695 -1.58618 -3.90408 0
M  V30 8101 H 790.37 -0.639648 -3.17317 0
M  V30 8102 H 789.277 -2.83732 -2.43818 0
M  V30 8103 H 790.61 -3.72017 -3.22279 0
M  V30 8104 N 792.262 0.832906 -1.33792 0
M  V30 8105 C 793.194 1.95042 -1.2038 0
M  V30 8106 C 794.207 1.62253 -0.133299 0
M  V30 8107 O 795.396 1.74315 -0.384261 0
M  V30 8108 C 792.496 3.287 -0.825215 0
M  V30 8109 C 791.669 3.89581 -1.98861 0
M  V30 8110 C 790.728 5.01602 -1.59003 0
M  V30 8111 O 789.754 5.20431 -2.30522 0
M  V30 8112 N 790.956 5.78356 -0.498446 0
M  V30 8113 H 793.721 2.07083 -2.16649 0
M  V30 8114 H 791.282 1.00896 -1.26616 0
M  V30 8115 H 793.274 4.01074 -0.540559 0
M  V30 8116 H 791.844 3.12565 0.0469796 0
M  V30 8117 H 791.064 3.09723 -2.43856 0
M  V30 8118 H 792.352 4.26989 -2.76691 0
M  V30 8119 H 791.75 5.65618 0.0963297 0
M  V30 8120 H 790.307 6.51226 -0.273485 0
M  V30 8121 N 793.74 1.17359 1.05189 0
M  V30 8122 C 794.67 0.91365 2.14883 0
M  V30 8123 C 795.651 -0.144365 1.69486 0
M  V30 8124 O 796.836 0.00587861 1.94199 0
M  V30 8125 C 793.966 0.426196 3.44675 0
M  V30 8126 C 792.92 1.4234 4.03638 0
M  V30 8127 C 792.246 0.793902 5.28773 0
M  V30 8128 C 793.546 2.7966 4.41121 0
M  V30 8129 H 795.24 1.831 2.36885 0
M  V30 8130 H 792.786 0.881781 1.13845 0
M  V30 8131 H 794.739 0.231767 4.20762 0
M  V30 8132 H 793.463 -0.526693 3.22325 0
M  V30 8133 H 792.122 1.60457 3.2962 0
M  V30 8134 H 791.77 -0.165824 5.02727 0
M  V30 8135 H 791.47 1.45959 5.69183 0
M  V30 8136 H 792.994 0.609747 6.07548 0
M  V30 8137 H 794.408 2.6526 5.08242 0
M  V30 8138 H 792.805 3.42807 4.92548 0
M  V30 8139 H 793.875 3.34068 3.51464 0
M  V30 8140 N 795.218 -1.23913 0.973828 0
M  V30 8141 C 796.181 -2.23367 0.51378 0
M  V30 8142 C 797.181 -1.55923 -0.39302 0
M  V30 8143 O 798.371 -1.73187 -0.187626 0
M  V30 8144 C 795.503 -3.39944 -0.255152 0
M  V30 8145 H 796.696 -2.65581 1.39307 0
M  V30 8146 H 794.249 -1.36632 0.759039 0
M  V30 8147 H 794.984 -3.03177 -1.15127 0
M  V30 8148 H 794.769 -3.90098 0.395673 0
M  V30 8149 H 796.259 -4.13749 -0.565842 0
M  V30 8150 N 796.696 -0.74468 -1.38897 0
M  V30 8151 C 797.626 -0.126355 -2.33158 0
M  V30 8152 C 798.607 0.713517 -1.54412 0
M  V30 8153 O 799.792 0.656523 -1.82766 0
M  V30 8154 C 796.922 0.774375 -3.38557 0
M  V30 8155 C 795.876 0.0379214 -4.27983 0
M  V30 8156 C 795.202 1.05631 -5.24162 0
M  V30 8157 C 796.502 -1.12523 -5.10035 0
M  V30 8158 H 798.196 -0.913744 -2.85116 0
M  V30 8159 H 795.742 -0.440847 -1.37086 0
M  V30 8160 H 797.695 1.21655 -4.03458 0
M  V30 8161 H 796.419 1.59399 -2.85061 0
M  V30 8162 H 795.078 -0.384733 -3.64576 0
M  V30 8163 H 794.726 1.86975 -4.66958 0
M  V30 8164 H 794.426 0.568261 -5.84846 0
M  V30 8165 H 795.95 1.49799 -5.9194 0
M  V30 8166 H 797.364 -0.761037 -5.68226 0
M  V30 8167 H 795.761 -1.54355 -5.79909 0
M  V30 8168 H 796.831 -1.94237 -4.44297 0
M  V30 8169 N 798.174 1.49689 -0.493057 0
M  V30 8170 C 799.423 2.01622 0.0560733 0
M  V30 8171 C 799.736 1.37838 1.3878 0
M  V30 8172 O 800.942 1.81054 2.02316 0
M  V30 8173 C 799.398 3.59586 0.150409 0
M  V30 8174 C 799.006 4.32338 -1.1742 0
M  V30 8175 C 800.75 4.19489 0.650327 0
M  V30 8176 C 798.657 5.8214 -1.04246 0
M  V30 8177 H 797.587 0.753594 0.0247297 0
M  V30 8178 H 800.238 1.723 -0.631279 0
M  V30 8179 H 798.62 3.8559 0.902035 0
M  V30 8180 H 799.794 4.18042 -1.9385 0
M  V30 8181 H 798.109 3.84144 -1.60694 0
M  V30 8182 H 800.706 5.29181 0.766272 0
M  V30 8183 H 801.049 3.82326 1.6472 0
M  V30 8184 H 801.582 3.97775 -0.0445371 0
M  V30 8185 H 798.321 6.23814 -2.01336 0
M  V30 8186 H 797.841 5.98952 -0.31892 0
M  V30 8187 H 799.52 6.43004 -0.717957 0
M  V30 8188 N 799.652 0.226554 1.55963 0
M  V30 8189 C 800.615 -0.668015 2.19249 0
M  V30 8190 C 801.615 -1.11794 1.1558 0
M  V30 8191 O 802.805 -1.02593 1.40784 0
M  V30 8192 C 799.937 -1.91571 2.81981 0
M  V30 8193 H 801.13 -0.116175 2.99675 0
M  V30 8194 H 798.683 -0.0230497 1.56283 0
M  V30 8195 H 799.418 -2.50929 2.05439 0
M  V30 8196 H 799.203 -1.6015 3.57903 0
M  V30 8197 H 800.693 -2.55294 3.30477 0
M  V30 8198 N 801.13 -1.57531 -0.0467866 0
M  V30 8199 C 802.378 -1.88078 -0.739656 0
M  V30 8200 C 802.699 -0.821936 -1.76831 0
M  V30 8201 O 801.969 0.146582 -1.95351 0
M  V30 8202 H 800.549 -0.694075 -0.276169 0
M  V30 8203 H 803.211 -1.94893 -0.0169391 0
M  V30 8204 H 802.307 -2.86396 -1.24031 0
M  V30 8205 N 802.608 0.318715 -1.54344 0
M  V30 8206 C 803.836 1.0755 -1.7675 0
M  V30 8207 C 804.251 1.81543 -0.518422 0
M  V30 8208 O 803.608 1.75198 0.511078 0
M  V30 8209 C 803.659 2.06983 -2.96378 0
M  V30 8210 O 803.38 1.35995 -4.16458 0
M  V30 8211 C 804.881 2.94841 -3.31034 0
M  V30 8212 H 802.101 0.319711 -0.589937 0
M  V30 8213 H 804.645 0.363369 -2.01246 0
M  V30 8214 H 802.8 2.73724 -2.74142 0
M  V30 8215 H 803.214 2.02623 -4.83781 0
M  V30 8216 H 804.688 3.60496 -4.18027 0
M  V30 8217 H 805.165 3.62199 -2.48412 0
M  V30 8218 H 805.771 2.33656 -3.55366 0
M  V30 8219 N 804.086 1.46499 0.581025 0
M  V30 8220 C 805.049 1.5677 1.672 0
M  V30 8221 C 806.049 0.444716 1.54528 0
M  V30 8222 O 807.239 0.709074 1.59116 0
M  V30 8223 C 804.371 1.4896 3.06633 0
M  V30 8224 H 805.564 2.54 1.5945 0
M  V30 8225 H 803.117 1.34334 0.799003 0
M  V30 8226 H 803.852 0.530168 3.19937 0
M  V30 8227 H 803.637 2.30439 3.17239 0
M  V30 8228 H 805.127 1.59237 3.86048 0
M  V30 8229 N 805.565 -0.825799 1.34232 0
M  V30 8230 C 806.811 -1.58419 1.26614 0
M  V30 8231 C 807.144 -1.93503 -0.164341 0
M  V30 8232 O 806.419 -1.59785 -1.109 0
M  V30 8233 C 806.702 -2.8856 2.15418 0
M  V30 8234 C 806.555 -2.60075 3.66989 0
M  V30 8235 C 807.874 -3.90107 2.03726 0
M  V30 8236 H 804.993 -0.574794 0.461282 0
M  V30 8237 H 807.635 -0.951519 1.64457 0
M  V30 8238 H 805.785 -3.42553 1.83275 0
M  V30 8239 H 807.457 -2.12414 4.09485 0
M  V30 8240 H 805.7 -1.93565 3.88221 0
M  V30 8241 H 806.371 -3.52866 4.24488 0
M  V30 8242 H 808.847 -3.45459 2.31942 0
M  V30 8243 H 807.723 -4.78976 2.68092 0
M  V30 8244 H 807.984 -4.30329 1.01337 0
M  V30 8245 N 807.043 -1.17915 -1.04565 0
M  V30 8246 C 808.289 -0.972863 -1.77942 0
M  V30 8247 C 808.622 0.496753 -1.87739 0
M  V30 8248 O 807.897 1.3688 -1.38181 0
M  V30 8249 C 808.18 -1.62227 -3.21488 0
M  V30 8250 C 808.033 -3.16441 -3.19664 0
M  V30 8251 C 809.352 -1.33137 -4.19479 0
M  V30 8252 H 806.471 -0.354843 -0.645953 0
M  V30 8253 H 809.113 -1.45508 -1.22178 0
M  V30 8254 H 807.263 -1.21224 -3.69103 0
M  V30 8255 H 808.935 -3.66544 -2.80077 0
M  V30 8256 H 807.178 -3.48863 -2.57832 0
M  V30 8257 H 807.849 -3.57012 -4.21006 0
M  V30 8258 H 810.325 -1.68654 -3.80388 0
M  V30 8259 H 809.201 -1.81151 -5.18146 0
M  V30 8260 H 809.462 -0.253319 -4.41374 0
M  V30 8261 N 808.521 1.23394 -0.980386 0
M  V30 8262 C 809.769 1.91431 -0.647978 0
M  V30 8263 C 810.09 1.76871 0.821066 0
M  V30 8264 O 809.36 1.14808 1.58732 0
M  V30 8265 H 807.94 0.708516 -0.236673 0
M  V30 8266 H 810.602 1.50019 -1.2442 0
M  V30 8267 H 809.698 2.98854 -0.899592 0
M  V30 8268 N 809.999 0.752036 1.385 0
M  V30 8269 C 811.245 0.307958 2.00448 0
M  V30 8270 C 811.578 -1.10702 1.59558 0
M  V30 8271 O 810.853 -1.75788 0.832391 0
M  V30 8272 C 811.136 0.429092 3.57534 0
M  V30 8273 C 810.989 1.88507 4.08393 0
M  V30 8274 C 812.308 -0.178442 4.39738 0
M  V30 8275 H 809.427 0.113373 0.728228 0
M  V30 8276 H 812.069 0.951389 1.64465 0
M  V30 8277 H 810.219 -0.118695 3.88319 0
M  V30 8278 H 811.891 2.49104 3.88259 0
M  V30 8279 H 810.134 2.40066 3.61318 0
M  V30 8280 H 810.805 1.92099 5.17496 0
M  V30 8281 H 813.281 0.28872 4.15097 0
M  V30 8282 H 812.157 -0.0634349 5.48863 0
M  V30 8283 H 812.418 -1.26655 4.23569 0
M  V30 8284 N 811.477 -1.49425 0.500989 0
M  V30 8285 C 812.723 -2.02753 -0.0436 0
M  V30 8286 C 813.056 -1.37991 -1.36646 0
M  V30 8287 O 812.331 -0.515597 -1.87542 0
M  V30 8288 C 812.614 -3.59565 -0.19616 0
M  V30 8289 C 812.467 -4.34855 1.14982 0
M  V30 8290 C 813.786 -4.30014 -0.936795 0
M  V30 8291 H 810.905 -0.73686 -0.0143711 0
M  V30 8292 H 813.547 -1.78448 0.652397 0
M  V30 8293 H 811.697 -3.80405 -0.788959 0
M  V30 8294 H 813.369 -4.25512 1.7815 0
M  V30 8295 H 811.612 -3.97414 1.73911 0
M  V30 8296 H 812.283 -5.42933 0.996385 0
M  V30 8297 H 814.759 -4.1383 -0.434036 0
M  V30 8298 H 813.635 -5.39483 -1.01238 0
M  V30 8299 H 813.896 -3.95257 -1.9805 0
M  V30 8300 N 812.955 -0.234822 -1.55841 0
M  V30 8301 C 813.885 0.664217 -2.23854 0
M  V30 8302 C 814.866 1.19076 -1.2147 0
M  V30 8303 O 816.051 1.23232 -1.50091 0
M  V30 8304 C 813.181 1.86666 -2.9287 0
M  V30 8305 C 812.135 1.47341 -4.01839 0
M  V30 8306 C 811.461 2.75571 -4.58219 0
M  V30 8307 C 812.761 0.653479 -5.18196 0
M  V30 8308 H 814.455 0.0971213 -2.99242 0
M  V30 8309 H 812.001 0.0452724 -1.43929 0
M  V30 8310 H 813.954 2.50116 -3.39146 0
M  V30 8311 H 812.678 2.45894 -2.1495 0
M  V30 8312 H 811.337 0.862314 -3.56314 0
M  V30 8313 H 810.985 3.32971 -3.77014 0
M  V30 8314 H 810.685 2.49987 -5.31771 0
M  V30 8315 H 812.209 3.39939 -5.07221 0
M  V30 8316 H 813.623 1.19198 -5.60771 0
M  V30 8317 H 812.02 0.494188 -5.98062 0
M  V30 8318 H 813.09 -0.337004 -4.83728 0
M  V30 8319 N 814.433 1.57553 0.0384317 0
M  V30 8320 C 815.679 1.89121 0.732199 0
M  V30 8321 C 816.012 0.831404 1.75503 0
M  V30 8322 O 815.287 -0.154642 1.93884 0
M  V30 8323 C 815.57 3.31338 1.41021 0
M  V30 8324 C 815.423 4.48004 0.401532 0
M  V30 8325 C 816.742 3.72318 2.34665 0
M  V30 8326 H 813.861 0.687819 0.264715 0
M  V30 8327 H 816.503 1.89999 -0.00496279 0
M  V30 8328 H 814.653 3.3072 2.03854 0
M  V30 8329 H 816.325 4.60755 -0.224159 0
M  V30 8330 H 814.568 4.32895 -0.280092 0
M  V30 8331 H 815.239 5.44377 0.91423 0
M  V30 8332 H 817.715 3.74243 1.81883 0
M  V30 8333 H 816.591 4.72652 2.7909 0
M  V30 8334 H 816.852 3.04062 3.20934 0
M  V30 8335 N 815.911 -0.310526 1.54511 0
M  V30 8336 C 816.841 -1.38757 1.878 0
M  V30 8337 C 817.822 -1.53353 0.735991 0
M  V30 8338 O 819.007 -1.67018 0.990887 0
M  V30 8339 C 816.137 -2.75327 2.11689 0
M  V30 8340 C 815.091 -2.75506 3.27537 0
M  V30 8341 C 814.417 -4.15275 3.36824 0
M  V30 8342 C 815.717 -2.38093 4.64875 0
M  V30 8343 H 817.411 -1.11146 2.78005 0
M  V30 8344 H 814.957 -0.533232 1.33763 0
M  V30 8345 H 816.91 -3.50752 2.33562 0
M  V30 8346 H 815.634 -3.04443 1.18245 0
M  V30 8347 H 814.293 -2.02538 3.05572 0
M  V30 8348 H 813.941 -4.41553 2.40915 0
M  V30 8349 H 813.641 -4.16299 4.14692 0
M  V30 8350 H 815.165 -4.92493 3.60947 0
M  V30 8351 H 816.579 -3.03232 4.86542 0
M  V30 8352 H 814.976 -2.50345 5.45387 0
M  V30 8353 H 816.046 -1.33227 4.66239 0
M  V30 8354 N 817.389 -1.46805 -0.573248 0
M  V30 8355 C 818.635 -1.5283 -1.33307 0
M  V30 8356 C 818.968 -0.183287 -1.93333 0
M  V30 8357 O 818.243 0.806354 -1.76998 0
M  V30 8358 C 818.526 -2.63414 -2.45531 0
M  V30 8359 C 818.379 -4.07478 -1.90478 0
M  V30 8360 C 819.698 -2.70014 -3.47535 0
M  V30 8361 H 816.817 -0.556371 -0.483343 0
M  V30 8362 H 819.459 -1.78787 -0.643066 0
M  V30 8363 H 817.609 -2.41412 -3.04389 0
M  V30 8364 H 819.281 -4.40795 -1.36004 0
M  V30 8365 H 817.524 -4.16511 -1.21248 0
M  V30 8366 H 818.195 -4.80598 -2.71531 0
M  V30 8367 H 820.671 -2.89817 -2.98572 0
M  V30 8368 H 819.547 -3.49192 -4.23504 0
M  V30 8369 H 819.808 -1.76436 -4.05367 0
M  V30 8370 N 818.867 0.818669 -1.34668 0
M  V30 8371 C 820.113 1.57746 -1.27453 0
M  V30 8372 C 820.446 1.93588 0.154077 0
M  V30 8373 O 819.721 1.60371 1.10051 0
M  V30 8374 C 820.004 2.87414 -2.16945 0
M  V30 8375 C 819.857 2.58125 -3.68363 0
M  V30 8376 C 821.176 3.89021 -2.05792 0
M  V30 8377 H 818.295 0.572339 -0.464324 0
M  V30 8378 H 820.937 0.942784 -1.64959 0
M  V30 8379 H 819.087 3.41576 -1.85089 0
M  V30 8380 H 820.759 2.10239 -4.10606 0
M  V30 8381 H 819.002 1.91503 -3.89242 0
M  V30 8382 H 819.673 3.5061 -4.26353 0
M  V30 8383 H 822.149 3.44224 -2.33771 0
M  V30 8384 H 821.025 4.77548 -2.70628 0
M  V30 8385 H 821.286 4.29786 -1.03618 0
M  V30 8386 N 820.346 1.18468 1.03938 0
M  V30 8387 C 821.595 0.975193 1.76558 0
M  V30 8388 C 821.908 -0.495978 1.89207 0
M  V30 8389 O 823.114 -0.824009 2.58694 0
M  V30 8390 C 821.57 1.69579 3.17444 0
M  V30 8391 C 821.178 3.20636 3.12884 0
M  V30 8392 C 822.922 1.56917 3.94433 0
M  V30 8393 C 820.829 3.8533 4.48636 0
M  V30 8394 H 819.759 0.361244 0.66183 0
M  V30 8395 H 822.41 1.41854 1.16403 0
M  V30 8396 H 820.792 1.18022 3.78004 0
M  V30 8397 H 821.966 3.79228 2.61768 0
M  V30 8398 H 820.281 3.33454 2.49394 0
M  V30 8399 H 822.878 2.02611 4.94826 0
M  V30 8400 H 823.221 0.521638 4.13019 0
M  V30 8401 H 823.754 2.05762 3.40451 0
M  V30 8402 H 820.493 4.90136 4.35255 0
M  V30 8403 H 820.013 3.31526 4.99851 0
M  V30 8404 H 821.692 3.88269 5.17549 0
M  V30 8405 N 821.824 -1.22873 0.986916 0
M  V30 8406 C 823.07 -1.91746 0.660401 0
M  V30 8407 C 823.403 -1.76738 -0.804812 0
M  V30 8408 O 822.678 -1.13246 -1.58131 0
M  V30 8409 C 822.961 -3.44156 1.05966 0
M  V30 8410 C 822.814 -3.68242 2.58298 0
M  V30 8411 C 824.133 -4.35874 0.60842 0
M  V30 8412 H 821.252 -0.696347 0.241391 0
M  V30 8413 H 823.894 -1.44867 1.22937 0
M  V30 8414 H 822.044 -3.84213 0.575534 0
M  V30 8415 H 823.716 -3.37626 3.14335 0
M  V30 8416 H 821.959 -3.12728 3.00638 0
M  V30 8417 H 822.63 -4.74956 2.81285 0
M  V30 8418 H 825.106 -4.03299 1.02417 0
M  V30 8419 H 823.982 -5.41201 0.916142 0
M  V30 8420 H 824.243 -4.39364 -0.491086 0
M  V30 8421 N 823.302 -0.75937 -1.38099 0
M  V30 8422 C 824.548 -0.318584 -2.00282 0
M  V30 8423 C 824.881 1.09854 -1.60143 0
M  V30 8424 O 824.156 1.75344 -0.841702 0
M  V30 8425 C 824.439 -0.448047 -3.57302 0
M  V30 8426 C 824.292 -1.9067 -4.07388 0
M  V30 8427 C 825.611 0.155119 -4.39827 0
M  V30 8428 H 822.73 -0.117233 -0.727616 0
M  V30 8429 H 825.372 -0.960097 -1.63958 0
M  V30 8430 H 823.522 0.0981003 -3.88376 0
M  V30 8431 H 825.194 -2.5116 -3.86932 0
M  V30 8432 H 823.437 -2.41979 -3.6004 0
M  V30 8433 H 824.108 -1.94841 -5.1647 0
M  V30 8434 H 826.584 -0.31073 -4.14938 0
M  V30 8435 H 825.46 0.0343264 -5.48889 0
M  V30 8436 H 825.721 1.24407 -4.24235 0
M  V30 8437 N 824.78 1.49157 -0.508906 0
M  V30 8438 C 825.743 2.27784 0.25434 0
M  V30 8439 C 826.743 1.34132 0.88686 0
M  V30 8440 O 827.933 1.5722 0.750168 0
M  V30 8441 C 825.065 3.12347 1.36573 0
M  V30 8442 H 826.258 2.96718 -0.435714 0
M  V30 8443 H 823.811 1.54052 -0.264128 0
M  V30 8444 H 824.546 2.47997 2.08969 0
M  V30 8445 H 824.331 3.81213 0.917543 0
M  V30 8446 H 825.821 3.71712 1.90315 0
M  V30 8447 N 826.258 0.243083 1.55714 0
M  V30 8448 C 827.504 -0.383287 1.99145 0
M  V30 8449 C 827.837 -1.57868 1.13098 0
M  V30 8450 O 827.112 -1.93535 0.193509 0
M  V30 8451 C 827.395 -0.796879 3.51172 0
M  V30 8452 C 827.248 0.403642 4.47985 0
M  V30 8453 C 828.567 -1.64525 4.08191 0
M  V30 8454 H 825.686 -0.137843 0.723995 0
M  V30 8455 H 828.328 0.343631 1.86867 0
M  V30 8456 H 826.478 -1.41625 3.61766 0
M  V30 8457 H 828.15 1.04204 4.49376 0
M  V30 8458 H 826.393 1.04741 4.20965 0
M  V30 8459 H 827.064 0.0709794 5.51954 0
M  V30 8460 H 829.54 -1.12246 4.00674 0
M  V30 8461 H 828.416 -1.9035 5.14838 0
M  V30 8462 H 828.677 -2.61582 3.56409 0
M  V30 8463 N 827.736 -1.57571 -0.0300757 0
M  V30 8464 C 828.666 -2.0953 -1.03051 0
M  V30 8465 C 829.647 -0.99761 -1.37774 0
M  V30 8466 O 830.832 -1.27279 -1.46676 0
M  V30 8467 C 827.962 -2.57385 -2.33174 0
M  V30 8468 C 826.916 -3.71409 -2.12696 0
M  V30 8469 C 826.242 -4.05467 -3.4857 0
M  V30 8470 C 827.542 -4.99877 -1.51396 0
M  V30 8471 H 829.236 -2.93367 -0.597999 0
M  V30 8472 H 826.782 -1.41127 -0.286203 0
M  V30 8473 H 828.735 -2.92355 -3.03491 0
M  V30 8474 H 827.459 -1.70629 -2.78484 0
M  V30 8475 H 826.118 -3.36786 -1.44813 0
M  V30 8476 H 825.766 -3.15779 -3.91526 0
M  V30 8477 H 825.466 -4.82269 -3.35694 0
M  V30 8478 H 826.99 -4.4297 -4.2025 0
M  V30 8479 H 828.404 -5.3281 -2.11629 0
M  V30 8480 H 826.801 -5.81283 -1.49098 0
M  V30 8481 H 827.871 -4.82522 -0.479676 0
M  V30 8482 N 829.214 0.302327 -1.54673 0
M  V30 8483 C 830.454 1.04568 -1.75627 0
M  V30 8484 C 830.818 1.84535 -0.530175 0
M  V30 8485 O 832.019 2.61613 -0.61743 0
M  V30 8486 C 830.29 1.92873 -3.0089 0
M  V30 8487 S 831.849 2.73872 -3.4284 0
M  V30 8488 H 828.667 0.352682 -0.617362 0
M  V30 8489 H 831.269 0.319239 -1.92876 0
M  V30 8490 H 829.973 1.32998 -3.88252 0
M  V30 8491 H 829.504 2.69887 -2.86225 0
M  V30 8492 H 831.519 3.95386 -2.99807 0
M  V30 8493 N 830.692 1.47107 0.565454 0
M  V30 8494 C 831.622 1.61846 1.68309 0
M  V30 8495 C 832.603 0.468159 1.63531 0
M  V30 8496 O 833.788 0.696504 1.8128 0
M  V30 8497 C 830.918 1.62474 3.06952 0
M  V30 8498 C 829.872 2.76649 3.26572 0
M  V30 8499 C 829.198 2.62345 4.65917 0
M  V30 8500 C 830.498 4.18319 3.12741 0
M  V30 8501 H 832.192 2.55407 1.5623 0
M  V30 8502 H 829.738 1.22916 0.750179 0
M  V30 8503 H 831.691 1.71378 3.84977 0
M  V30 8504 H 830.415 0.654692 3.19971 0
M  V30 8505 H 829.074 2.67242 2.50952 0
M  V30 8506 H 828.722 1.63386 4.75725 0
M  V30 8507 H 828.422 3.38936 4.79996 0
M  V30 8508 H 829.946 2.73165 5.46089 0
M  V30 8509 H 831.36 4.28745 3.80593 0
M  V30 8510 H 829.757 4.95632 3.38333 0
M  V30 8511 H 830.827 4.37263 2.09592 0
M  V30 8512 N 832.17 -0.811516 1.35101 0
M  V30 8513 C 833.586 -1.10634 1.15031 0
M  V30 8514 C 833.786 -2.01459 -0.0405379 0
M  V30 8515 O 832.842 -2.42235 -0.712635 0
M  V30 8516 C 834.155 -1.74207 2.45097 0
M  V30 8517 C 835.703 -1.8665 2.51258 0
M  V30 8518 C 836.178 -2.53638 3.81355 0
M  V30 8519 N 837.669 -2.61128 3.82579 0
M  V30 8520 C 838.404 -3.13717 4.79968 0
M  V30 8521 N 837.9 -3.66782 5.87744 0
M  V30 8522 N 839.693 -3.12224 4.67411 0
M  V30 8523 H 831.844 -0.207641 2.11383 0
M  V30 8524 H 834.107 -0.154697 0.935293 0
M  V30 8525 H 833.813 -1.14936 3.32389 0
M  V30 8526 H 833.687 -2.73958 2.59281 0
M  V30 8527 H 836.074 -2.45066 1.64398 0
M  V30 8528 H 836.155 -0.857678 2.40993 0
M  V30 8529 H 835.799 -1.95873 4.68611 0
M  V30 8530 H 835.729 -3.55047 3.88907 0
M  V30 8531 H 838.22 -2.23527 3.04703 0
M  V30 8532 H 838.533 -4.05194 6.58056 0
M  V30 8533 H 836.878 -3.64994 5.91443 0
M  V30 8534 H 840.069 -2.70042 3.82354 0
M  V30 8535 H 840.242 -3.52903 5.43474 0
M  V30 8536 N 833.648 -1.19017 -1.03309 0
M  V30 8537 C 834.595 -0.924088 -2.11493 0
M  V30 8538 C 835.565 0.139464 -1.65513 0
M  V30 8539 O 836.75 -0.00178761 -1.908 0
M  V30 8540 C 833.89 -0.464255 -3.41963 0
M  V30 8541 C 833.003 -1.5941 -4.01513 0
M  V30 8542 C 832.138 -1.08622 -5.19976 0
M  V30 8543 C 831.177 -2.19024 -5.71572 0
M  V30 8544 N 830.314 -1.69575 -6.81314 0
M  V30 8545 H 835.154 -1.85039 -2.33591 0
M  V30 8546 H 832.691 -0.922593 -1.14572 0
M  V30 8547 H 834.649 -0.179078 -4.16815 0
M  V30 8548 H 833.279 0.425062 -3.19989 0
M  V30 8549 H 832.331 -1.99458 -3.23915 0
M  V30 8550 H 833.643 -2.42604 -4.35826 0
M  V30 8551 H 832.797 -0.756022 -6.01971 0
M  V30 8552 H 831.536 -0.223955 -4.87186 0
M  V30 8553 H 830.541 -2.5288 -4.88193 0
M  V30 8554 H 831.766 -3.05699 -6.06403 0
M  V30 8555 H 829.712 -0.856494 -6.50385 0
M  V30 8556 H 829.629 -2.46361 -7.14732 0
M  V30 8557 H 830.897 -1.39505 -7.66915 0
M  V30 8558 N 835.127 1.22348 -0.993418 0
M  V30 8559 C 836.059 2.23626 -0.502404 0
M  V30 8560 C 837.072 1.57739 0.402784 0
M  V30 8561 O 838.261 1.77321 0.204835 0
M  V30 8562 C 835.361 3.37647 0.291118 0
M  V30 8563 C 834.534 4.33121 -0.610332 0
M  V30 8564 C 833.593 5.26035 0.131572 0
M  V30 8565 O 832.619 5.67145 -0.483199 0
M  V30 8566 N 833.821 5.63023 1.41371 0
M  V30 8567 H 836.586 2.66385 -1.37329 0
M  V30 8568 H 834.147 1.36653 -0.868196 0
M  V30 8569 H 836.139 3.96792 0.796107 0
M  V30 8570 H 834.709 2.93967 1.0631 0
M  V30 8571 H 833.929 3.72287 -1.29598 0
M  V30 8572 H 835.217 4.93853 -1.22422 0
M  V30 8573 H 834.615 5.31596 1.93449 0
M  V30 8574 H 833.172 6.24582 1.86388 0
M  V30 8575 N 836.605 0.766683 1.37694 0
M  V30 8576 C 837.83 0.338715 2.04615 0
M  V30 8577 C 838.255 -1.02918 1.57447 0
M  V30 8578 O 837.613 -1.65849 0.732386 0
M  V30 8579 C 837.661 0.385284 3.58536 0
M  V30 8580 O 836.765 -0.616081 4.07772 0
M  V30 8581 H 836.106 0.147527 0.647404 0
M  V30 8582 H 838.636 1.04146 1.7611 0
M  V30 8583 H 838.646 0.240782 4.07289 0
M  V30 8584 H 837.321 1.38325 3.92223 0
M  V30 8585 H 835.898 -0.435115 3.70353 0
M  V30 8586 N 838.083 -1.48885 0.516809 0
M  V30 8587 C 839.031 -2.31066 -0.266656 0
M  V30 8588 C 840.025 -1.40393 -0.94795 0
M  V30 8589 O 841.231 -1.57366 -0.873836 0
M  V30 8590 H 837.606 -0.744654 -0.104858 0
M  V30 8591 H 839.577 -2.95045 0.446236 0
M  V30 8592 C 838.326 -3.22131 -1.3087 0
M  V30 8593 H 837.649 -3.91839 -0.793865 0
M  V30 8594 H 839.089 -3.82544 -1.82856 0
M  V30 8595 C 837.548 -2.42825 -2.33533 0
M  V30 8596 O 838.078 -2.14364 -3.39722 0
M  V30 8597 N 836.284 -2.04559 -2.06407 0
M  V30 8598 H 835.831 -2.27905 -1.20071 0
M  V30 8599 H 835.789 -1.51807 -2.75322 0
M  V30 8600 N 839.561 -0.251338 -1.55583 0
M  V30 8601 C 840.809 0.371434 -1.98657 0
M  V30 8602 C 841.13 1.58143 -1.14087 0
M  V30 8603 O 840.4 1.94607 -0.224708 0
M  V30 8604 H 838.98 0.140225 -0.733721 0
M  V30 8605 H 841.642 -0.351157 -1.9171 0
M  V30 8606 H 840.738 0.677554 -3.04657 0
M  V30 8607 N 841.039 1.57585 0.0217189 0
M  V30 8608 C 842.455 1.55072 0.377484 0
M  V30 8609 C 842.655 0.978423 1.76151 0
M  V30 8610 O 841.711 0.602688 2.45202 0
M  V30 8611 C 843.024 2.99462 0.272605 0
M  V30 8612 C 844.572 3.11047 0.349148 0
M  V30 8613 C 845.047 4.57182 0.273636 0
M  V30 8614 N 846.538 4.62007 0.332206 0
M  V30 8615 C 847.273 5.72631 0.296782 0
M  V30 8616 N 846.769 6.92472 0.21322 0
M  V30 8617 N 848.562 5.61028 0.347053 0
M  V30 8618 H 840.713 1.93133 -0.883925 0
M  V30 8619 H 842.976 0.886151 -0.33681 0
M  V30 8620 H 842.682 3.45088 -0.67878 0
M  V30 8621 H 842.556 3.61901 1.06335 0
M  V30 8622 H 844.943 2.65364 1.29097 0
M  V30 8623 H 845.024 2.51425 -0.471085 0
M  V30 8624 H 844.668 5.03534 -0.664548 0
M  V30 8625 H 844.598 5.14724 1.11207 0
M  V30 8626 H 847.089 3.75788 0.399003 0
M  V30 8627 H 847.402 7.72563 0.191492 0
M  V30 8628 H 845.747 6.94769 0.179161 0
M  V30 8629 H 848.938 4.66298 0.410378 0
M  V30 8630 H 849.111 6.47229 0.315979 0
M  V30 8631 N 842.517 -0.29412 1.54831 0
M  V30 8632 C 843.427 -1.3854 1.89325 0
M  V30 8633 C 844.443 -1.55127 0.788133 0
M  V30 8634 O 845.619 -1.6966 1.08524 0
M  V30 8635 C 842.684 -2.72809 2.13954 0
M  V30 8636 C 841.745 -2.65148 3.37631 0
M  V30 8637 C 840.978 -3.93014 3.61076 0
M  V30 8638 O 841.201 -4.927 2.87406 0
M  V30 8639 O 840.135 -3.94491 4.54599 0
M  V30 8640 H 843.961 -1.12289 2.82179 0
M  V30 8641 H 841.546 -0.490793 1.41108 0
M  V30 8642 H 843.428 -3.52238 2.31315 0
M  V30 8643 H 842.103 -2.9889 1.24285 0
M  V30 8644 H 841.01 -1.84168 3.25627 0
M  V30 8645 H 842.343 -2.4402 4.27452 0
M  V30 8646 N 843.995 -1.47404 -0.557645 0
M  V30 8647 C 844.958 -1.59411 -1.64684 0
M  V30 8648 C 845.958 -0.469244 -1.53801 0
M  V30 8649 O 847.148 -0.734298 -1.57967 0
M  V30 8650 C 844.28 -1.5382 -3.04224 0
M  V30 8651 H 845.473 -2.56504 -1.55389 0
M  V30 8652 H 843.026 -1.35588 -0.777531 0
M  V30 8653 H 843.761 -0.581 -3.19053 0
M  V30 8654 H 843.546 -2.35456 -3.13533 0
M  V30 8655 H 845.036 -1.65358 -3.83466 0
M  V30 8656 N 845.473 0.80434 -1.35529 0
M  V30 8657 C 846.383 1.94784 -1.30753 0
M  V30 8658 C 847.399 1.72703 -0.212071 0
M  V30 8659 O 848.575 1.96494 -0.441841 0
M  V30 8660 C 845.64 3.29406 -1.08133 0
M  V30 8661 C 844.701 3.64367 -2.27013 0
M  V30 8662 C 843.934 4.92566 -2.05463 0
M  V30 8663 O 844.157 5.61166 -1.02222 0
M  V30 8664 O 843.091 5.25838 -2.92879 0
M  V30 8665 H 846.917 2.01761 -2.26994 0
M  V30 8666 H 844.502 0.942448 -1.15924 0
M  V30 8667 H 846.384 4.09995 -0.973756 0
M  V30 8668 H 845.059 3.23355 -0.149444 0
M  V30 8669 H 843.966 2.84146 -2.43335 0
M  V30 8670 H 845.299 3.75125 -3.18656 0
M  V30 8671 N 846.951 1.19563 1.02676 0
M  V30 8672 C 848.181 1.0234 1.79472 0
M  V30 8673 C 848.589 -0.430891 1.84228 0
M  V30 8674 O 847.932 -1.31106 1.28674 0
M  V30 8675 C 847.994 1.51901 3.25832 0
M  V30 8676 C 847.658 3.00045 3.44706 0
M  V30 8677 C 848.655 3.9779 3.34752 0
M  V30 8678 C 846.34 3.38784 3.70851 0
M  V30 8679 C 848.334 5.32267 3.50672 0
M  V30 8680 C 846.021 4.73419 3.86416 0
M  V30 8681 C 847.019 5.69969 3.7633 0
M  V30 8682 O 846.707 7.02165 3.91432 0
M  V30 8683 H 846.439 0.360936 0.571578 0
M  V30 8684 H 848.993 1.58863 1.30198 0
M  V30 8685 H 847.223 0.897546 3.7614 0
M  V30 8686 H 848.912 1.30853 3.84229 0
M  V30 8687 H 849.678 3.69207 3.14502 0
M  V30 8688 H 845.557 2.64183 3.77794 0
M  V30 8689 H 849.101 6.07612 3.42715 0
M  V30 8690 H 844.998 5.01697 4.06165 0
M  V30 8691 H 845.766 7.09268 4.08511 0
M  V30 8692 N 848.429 -1.21819 0.999893 0
M  V30 8693 C 849.654 -1.95298 0.698094 0
M  V30 8694 C 850.079 -1.73273 -0.731982 0
M  V30 8695 O 849.437 -1.01634 -1.50134 0
M  V30 8696 C 849.485 -3.45922 1.01834 0
M  V30 8697 O 848.589 -4.12223 0.120801 0
M  V30 8698 H 847.93 -0.610729 0.260588 0
M  V30 8699 H 850.46 -1.5472 1.33876 0
M  V30 8700 H 850.47 -3.96471 0.963074 0
M  V30 8701 H 849.145 -3.61278 2.06037 0
M  V30 8702 H 847.722 -3.72177 0.232153 0
M  V30 8703 N 849.908 -0.773975 -1.37286 0
M  V30 8704 C 851.185 -0.263942 -1.93811 0
M  V30 8705 C 851.565 1.24138 -1.70743 0
M  V30 8706 O 850.913 2.02557 -1.05749 0
M  V30 8707 C 851.123 -0.639753 -3.43086 0
M  V30 8708 C 852.471 -0.610796 -4.20184 0
M  V30 8709 O 853.495 -0.579278 -3.51458 0
M  V30 8710 O 852.354 -0.639862 -5.42741 0
M  V30 8711 H 849.448 -0.0614331 -0.824715 0
M  V30 8712 H 851.994 -0.855477 -1.46559 0
M  V30 8713 H 850.766 -1.67856 -3.53469 0
M  V30 8714 H 850.389 -0.0212827 -3.97594 0
M  V30 8715 N 851.386 1.48609 -0.524698 0
M  V30 8716 C 852.333 2.29539 0.240956 0
M  V30 8717 C 853.303 1.37033 0.938681 0
M  V30 8718 O 854.488 1.65996 0.940737 0
M  V30 8719 C 851.628 3.20278 1.28514 0
M  V30 8720 C 850.741 4.27858 0.596798 0
M  V30 8721 C 849.876 5.05784 1.62346 0
M  V30 8722 C 848.915 6.05173 0.918287 0
M  V30 8723 N 848.052 6.76176 1.89025 0
M  V30 8724 H 852.892 2.945 -0.455368 0
M  V30 8725 H 850.429 1.45188 -0.236403 0
M  V30 8726 H 852.387 3.71281 1.90279 0
M  V30 8727 H 851.017 2.57251 1.94992 0
M  V30 8728 H 850.069 3.80162 -0.134668 0
M  V30 8729 H 851.381 4.98782 0.0428506 0
M  V30 8730 H 850.535 5.60775 2.31553 0
M  V30 8731 H 849.274 4.34687 2.2113 0
M  V30 8732 H 848.279 5.49391 0.21212 0
M  V30 8733 H 849.504 6.78265 0.336633 0
M  V30 8734 H 847.45 6.07834 2.46726 0
M  V30 8735 H 847.367 7.43157 1.3876 0
M  V30 8736 H 848.635 7.35759 2.57446 0
M  V30 8737 N 852.864 0.259585 1.55447 0
M  V30 8738 C 853.814 -0.648769 2.18575 0
M  V30 8739 C 854.798 -1.1299 1.14552 0
M  V30 8740 O 855.99 -1.07756 1.4042 0
M  V30 8741 C 853.119 -1.83963 2.89849 0
M  V30 8742 C 852.205 -1.37641 4.01143 0
M  V30 8743 N 852.596 -0.628269 5.01883 0
M  V30 8744 C 850.894 -1.66066 4.1393 0
M  V30 8745 C 851.595 -0.386746 5.80413 0
M  V30 8746 N 850.571 -0.954665 5.35151 0
M  V30 8747 H 854.373 -0.0691616 2.93819 0
M  V30 8748 H 851.887 0.0624525 1.6228 0
M  V30 8749 H 853.884 -2.50151 3.33512 0
M  V30 8750 H 852.544 -2.42334 2.16112 0
M  V30 8751 H 853.555 -0.277123 5.17158 0
M  V30 8752 H 850.232 -2.25484 3.51373 0
M  V30 8753 H 851.622 0.211382 6.71567 0
M  V30 8754 N 854.342 -1.57594 -0.0133615 0
M  V30 8755 C 855.59 -1.89605 -0.699596 0
M  V30 8756 C 855.911 -0.85926 -1.75048 0
M  V30 8757 O 855.181 0.105112 -1.95618 0
M  V30 8758 H 853.761 -0.699776 -0.261385 0
M  V30 8759 H 856.423 -1.94885 0.0244044 0
M  V30 8760 H 855.519 -2.88962 -1.17928 0
M  V30 8761 N 855.82 0.285905 -1.54985 0
M  V30 8762 C 856.752 1.37505 -1.83371 0
M  V30 8763 C 857.765 1.46138 -0.717454 0
M  V30 8764 O 858.954 1.48186 -0.995142 0
M  V30 8765 C 856.054 2.7575 -1.97016 0
M  V30 8766 C 855.227 2.89866 -3.27561 0
M  V30 8767 C 854.286 4.08704 -3.31433 0
M  V30 8768 O 853.312 4.00073 -4.04883 0
M  V30 8769 N 854.514 5.20062 -2.57907 0
M  V30 8770 H 857.279 1.13505 -2.77375 0
M  V30 8771 H 854.84 0.476006 -1.54744 0
M  V30 8772 H 856.832 3.5352 -1.96991 0
M  V30 8773 H 855.402 2.9263 -1.09938 0
M  V30 8774 H 854.622 1.99085 -3.40234 0
M  V30 8775 H 855.91 2.96219 -4.13681 0
M  V30 8776 H 855.308 5.29958 -1.97891 0
M  V30 8777 H 853.865 5.96111 -2.63619 0
M  V30 8778 N 857.298 1.47698 0.54982 0
M  V30 8779 C 858.528 1.58101 1.32995 0
M  V30 8780 C 858.936 0.232939 1.87761 0
M  V30 8781 O 858.279 -0.785058 1.6608 0
M  V30 8782 C 858.341 2.55228 2.53178 0
M  V30 8783 C 858.005 4.00756 2.19645 0
M  V30 8784 C 859.002 4.89025 1.76496 0
M  V30 8785 C 856.687 4.46147 2.30777 0
M  V30 8786 C 858.681 6.20707 1.44919 0
M  V30 8787 C 856.368 5.77856 1.98812 0
M  V30 8788 C 857.366 6.64957 1.55952 0
M  V30 8789 O 857.054 7.94217 1.24396 0
M  V30 8790 H 856.786 0.536362 0.411451 0
M  V30 8791 H 859.34 1.94092 0.67212 0
M  V30 8792 H 857.57 2.14319 3.21876 0
M  V30 8793 H 859.259 2.55678 3.15251 0
M  V30 8794 H 860.025 4.55201 1.67383 0
M  V30 8795 H 855.904 3.78552 2.63096 0
M  V30 8796 H 859.448 6.88649 1.11392 0
M  V30 8797 H 855.345 6.11219 2.0756 0
M  V30 8798 H 856.113 8.06789 1.37964 0
M  V30 8799 N 858.776 -0.797141 1.35954 0
M  V30 8800 C 859.706 -1.92387 1.32323 0
M  V30 8801 C 860.687 -1.68967 0.196007 0
M  V30 8802 O 861.872 -1.90193 0.39245 0
M  V30 8803 C 859.002 -3.29286 1.10398 0
M  V30 8804 C 857.956 -3.67212 2.19862 0
M  V30 8805 C 857.282 -5.02377 1.8309 0
M  V30 8806 C 858.582 -3.76602 3.61896 0
M  V30 8807 H 860.276 -1.95683 2.26602 0
M  V30 8808 H 857.822 -0.94007 1.09081 0
M  V30 8809 H 859.775 -4.07721 1.06495 0
M  V30 8810 H 858.499 -3.26358 0.125668 0
M  V30 8811 H 857.158 -2.91069 2.22878 0
M  V30 8812 H 856.806 -4.95961 0.838527 0
M  V30 8813 H 856.506 -5.28722 2.56372 0
M  V30 8814 H 858.03 -5.8324 1.80729 0
M  V30 8815 H 859.444 -4.45246 3.6115 0
M  V30 8816 H 857.841 -4.14425 4.34018 0
M  V30 8817 H 858.911 -2.77906 3.97361 0
M  V30 8818 N 860.254 -1.20106 -1.0204 0
M  V30 8819 C 861.503 -1.00316 -1.74985 0
M  V30 8820 C 861.816 0.465814 -1.89972 0
M  V30 8821 O 863.022 0.782749 -2.59972 0
M  V30 8822 C 861.478 -1.74608 -3.14706 0
M  V30 8823 C 861.086 -3.25573 -3.07744 0
M  V30 8824 C 862.83 -1.63172 -3.91887 0
M  V30 8825 C 860.737 -3.92419 -4.42449 0
M  V30 8826 H 859.667 -0.371728 -0.655999 0
M  V30 8827 H 862.318 -1.43688 -1.14131 0
M  V30 8828 H 860.7 -1.24021 -3.76078 0
M  V30 8829 H 861.874 -3.83345 -2.55702 0
M  V30 8830 H 860.189 -3.3738 -2.44057 0
M  V30 8831 H 862.786 -2.10457 -4.9154 0
M  V30 8832 H 863.129 -0.58728 -4.12137 0
M  V30 8833 H 863.662 -2.11152 -3.37135 0
M  V30 8834 H 860.401 -4.96998 -4.27403 0
M  V30 8835 H 859.921 -3.39436 -4.94513 0
M  V30 8836 H 861.6 -3.96453 -5.11306 0
M  V30 8837 N 861.732 1.21287 -1.00634 0
M  V30 8838 C 862.98 1.90013 -0.688438 0
M  V30 8839 C 863.301 1.78573 0.783365 0
M  V30 8840 O 862.571 1.1815 1.56261 0
M  V30 8841 H 861.151 0.703336 -0.251648 0
M  V30 8842 H 863.813 1.47346 -1.27574 0
M  V30 8843 H 862.909 2.96879 -0.962781 0
M  V30 8844 N 863.21 0.781244 1.36873 0
M  V30 8845 C 864.16 0.147313 2.27524 0
M  V30 8846 C 865.144 -0.663928 1.46563 0
M  V30 8847 O 866.336 -0.525343 1.69024 0
M  V30 8848 C 863.465 -0.723511 3.35589 0
M  V30 8849 C 862.551 0.0960763 4.23991 0
M  V30 8850 N 862.942 1.14649 4.92635 0
M  V30 8851 C 861.24 -0.126397 4.45821 0
M  V30 8852 C 861.941 1.64474 5.57964 0
M  V30 8853 N 860.917 0.955316 5.3514 0
M  V30 8854 H 864.719 0.951406 2.78075 0
M  V30 8855 H 862.233 0.619913 1.50103 0
M  V30 8856 H 864.23 -1.19351 3.99451 0
M  V30 8857 H 862.89 -1.52624 2.86594 0
M  V30 8858 H 863.901 1.5288 4.94821 0
M  V30 8859 H 860.578 -0.900284 4.07678 0
M  V30 8860 H 861.968 2.52124 6.22803 0
M  V30 8861 N 864.689 -1.48329 0.532571 0
M  V30 8862 C 865.937 -2.021 -0.000581206 0
M  V30 8863 C 866.258 -1.4117 -1.34522 0
M  V30 8864 O 865.528 -0.578005 -1.87179 0
M  V30 8865 H 864.108 -0.746993 -0.00320281 0
M  V30 8866 H 866.77 -1.82011 0.696991 0
M  V30 8867 H 865.866 -3.11917 -0.106991 0
M  V30 8868 N 866.167 -0.267825 -1.55308 0
M  V30 8869 C 867.395 0.354587 -2.03839 0
M  V30 8870 C 867.81 1.50007 -1.14644 0
M  V30 8871 O 867.167 1.81752 -0.165055 0
M  V30 8872 C 867.218 0.84254 -3.51544 0
M  V30 8873 O 866.939 -0.257318 -4.37344 0
M  V30 8874 C 868.44 1.53351 -4.15931 0
M  V30 8875 H 865.66 0.0818131 -0.665994 0
M  V30 8876 H 868.204 -0.397795 -2.00594 0
M  V30 8877 H 866.359 1.54503 -3.55257 0
M  V30 8878 H 866.773 0.116593 -5.2437 0
M  V30 8879 H 868.247 1.82643 -5.20908 0
M  V30 8880 H 868.724 2.4626 -3.63666 0
M  V30 8881 H 869.33 0.87506 -4.162 0
M  V30 8882 N 867.645 1.57599 0.00500368 0
M  V30 8883 C 868.592 2.08106 0.998025 0
M  V30 8884 C 869.562 0.975374 1.34446 0
M  V30 8885 O 870.747 1.24749 1.44369 0
M  V30 8886 C 867.887 2.58496 2.28635 0
M  V30 8887 C 867 3.82947 1.99939 0
M  V30 8888 C 866.135 4.21857 3.22816 0
M  V30 8889 C 865.174 5.39159 2.89783 0
M  V30 8890 N 864.311 5.73386 4.05183 0
M  V30 8891 H 869.151 2.92684 0.560385 0
M  V30 8892 H 866.688 1.44692 0.265053 0
M  V30 8893 H 868.646 2.85787 3.03943 0
M  V30 8894 H 867.276 1.768 2.70077 0
M  V30 8895 H 866.328 3.62594 1.1502 0
M  V30 8896 H 867.64 4.68358 1.71588 0
M  V30 8897 H 866.794 4.50404 4.06474 0
M  V30 8898 H 865.533 3.35145 3.54301 0
M  V30 8899 H 864.538 5.1034 2.04532 0
M  V30 8900 H 865.763 6.27543 2.59551 0
M  V30 8901 H 863.709 4.89632 4.36574 0
M  V30 8902 H 863.626 6.53359 3.80339 0
M  V30 8903 H 864.894 6.06522 4.89644 0
M  V30 8904 N 869.123 -0.277682 1.55134 0
M  V30 8905 C 870.369 -1.0114 1.7578 0
M  V30 8906 C 870.702 -1.86109 0.554719 0
M  V30 8907 O 869.977 -1.89275 -0.447813 0
M  V30 8908 C 870.26 -1.89789 3.06027 0
M  V30 8909 C 870.113 -1.07844 4.3668 0
M  V30 8910 C 871.432 -2.88577 3.32282 0
M  V30 8911 H 868.551 -0.366277 0.639539 0
M  V30 8912 H 871.193 -0.284155 1.87863 0
M  V30 8913 H 869.343 -2.51796 2.95856 0
M  V30 8914 H 871.015 -0.479432 4.58802 0
M  V30 8915 H 869.258 -0.381764 4.32117 0
M  V30 8916 H 869.929 -1.73179 5.24131 0
M  V30 8917 H 872.405 -2.36702 3.42215 0
M  V30 8918 H 871.281 -3.47749 4.2469 0
M  V30 8919 H 871.542 -3.63458 2.51696 0
M  V30 8920 N 870.601 -1.47988 -0.541979 0
M  V30 8921 C 871.831 -1.58804 -1.32155 0
M  V30 8922 C 872.239 -0.242893 -1.87634 0
M  V30 8923 O 871.582 0.776239 -1.66494 0
M  V30 8924 C 871.644 -2.56567 -2.51821 0
M  V30 8925 C 871.308 -4.01915 -2.17517 0
M  V30 8926 C 872.305 -4.89954 -1.73901 0
M  V30 8927 C 869.99 -4.47365 -2.28408 0
M  V30 8928 C 871.984 -6.21467 -1.41625 0
M  V30 8929 C 869.671 -5.78902 -1.95745 0
M  V30 8930 C 870.669 -6.65775 -1.52423 0
M  V30 8931 O 870.357 -7.94866 -1.20183 0
M  V30 8932 H 870.089 -0.538536 -0.408601 0
M  V30 8933 H 872.643 -1.94446 -0.661818 0
M  V30 8934 H 870.873 -2.16023 -3.20735 0
M  V30 8935 H 872.562 -2.57347 -3.13891 0
M  V30 8936 H 873.328 -4.56082 -1.64966 0
M  V30 8937 H 869.207 -3.79942 -2.61084 0
M  V30 8938 H 872.751 -6.8923 -1.07738 0
M  V30 8939 H 868.648 -6.12311 -2.04316 0
M  V30 8940 H 869.416 -8.07509 -1.33683 0
M  V30 8941 N 872.079 0.78992 -1.36375 0
M  V30 8942 C 873.328 1.54296 -1.29906 0
M  V30 8943 C 873.641 1.95234 0.119651 0
M  V30 8944 O 874.847 2.69762 0.306708 0
M  V30 8945 C 873.303 2.78533 -2.27919 0
M  V30 8946 C 872.911 2.44767 -3.75224 0
M  V30 8947 C 874.655 3.56516 -2.30427 0
M  V30 8948 C 872.562 3.65397 -4.65015 0
M  V30 8949 H 871.492 0.579214 -0.482729 0
M  V30 8950 H 874.143 0.866845 -1.61735 0
M  V30 8951 H 872.525 3.47941 -1.89084 0
M  V30 8952 H 873.699 1.83259 -4.22792 0
M  V30 8953 H 872.014 1.79996 -3.75487 0
M  V30 8954 H 874.611 4.46143 -2.94722 0
M  V30 8955 H 874.954 3.95063 -1.31266 0
M  V30 8956 H 875.487 2.94087 -2.67876 0
M  V30 8957 H 872.226 3.31946 -5.65236 0
M  V30 8958 H 871.746 4.26072 -4.22164 0
M  V30 8959 H 873.425 4.32431 -4.81261 0
M  V30 8960 N 873.557 1.20646 1.01402 0
M  V30 8961 C 874.834 0.927176 1.72229 0
M  V30 8962 C 875.214 -0.563382 2.03443 0
M  V30 8963 O 874.562 -1.52576 1.70096 0
M  V30 8964 C 874.772 1.80285 2.98828 0
M  V30 8965 C 876.12 2.04624 3.72041 0
M  V30 8966 O 877.144 1.77559 3.0879 0
M  V30 8967 O 876.003 2.50347 4.85787 0
M  V30 8968 H 873.097 0.346891 0.75073 0
M  V30 8969 H 875.643 1.31532 1.07227 0
M  V30 8970 H 874.415 2.81204 2.72102 0
M  V30 8971 H 874.038 1.41495 3.71571 0
M  V30 8972 N 875.035 -1.20752 1.01276 0
M  V30 8973 C 876.446 -1.7175 0.732033 0
M  V30 8974 C 876.797 -1.8131 -0.749733 0
M  V30 8975 O 875.922 -1.47301 -1.58529 0
M  V30 8976 C 876.517 -3.11936 1.32217 0
M  V30 8977 C 875.076 -3.6026 1.09039 0
M  V30 8978 C 874.223 -2.37571 1.43022 0
M  V30 8979 H 877.174 -1.0582 1.1827 0
M  V30 8980 H 877.195 -3.73802 0.710771 0
M  V30 8981 H 876.707 -3.04946 2.40061 0
M  V30 8982 H 874.808 -3.72588 0.0294464 0
M  V30 8983 H 874.921 -4.45295 1.76775 0
M  V30 8984 H 873.285 -2.40128 0.849159 0
M  V30 8985 H 874.068 -2.33225 2.51915 0
M  V30 8986 N 876.513 -0.788492 -1.36457 0
M  V30 8987 C 877.76 -0.360461 -1.99266 0
M  V30 8988 C 878.088 1.0676 -1.62581 0
M  V30 8989 O 877.343 1.75205 -0.871884 0
M  V30 8990 C 877.642 -0.470255 -3.54293 0
M  V30 8991 C 877.308 -1.85899 -4.10795 0
M  V30 8992 C 875.97 -2.23896 -4.25939 0
M  V30 8993 C 878.322 -2.76836 -4.41601 0
M  V30 8994 C 875.65 -3.52235 -4.69199 0
M  V30 8995 C 878.002 -4.04602 -4.86292 0
M  V30 8996 C 876.666 -4.42623 -4.99641 0
M  V30 8997 H 875.936 -0.131902 -0.729166 0
M  V30 8998 H 878.583 -1.00577 -1.62962 0
M  V30 8999 H 876.888 0.258559 -3.90946 0
M  V30 9000 H 878.585 -0.120119 -4.0082 0
M  V30 9001 H 875.175 -1.55372 -3.99447 0
M  V30 9002 H 879.359 -2.48735 -4.2947 0
M  V30 9003 H 874.615 -3.81565 -4.77722 0
M  V30 9004 H 878.789 -4.75182 -5.09092 0
M  V30 9005 H 876.416 -5.42125 -5.32921 0
M  V30 9006 N 877.991 1.48044 -0.54043 0
M  V30 9007 C 879.219 2.06895 -0.0145153 0
M  V30 9008 C 879.634 1.39552 1.27164 0
M  V30 9009 O 878.991 0.486454 1.75897 0
M  V30 9010 C 879.042 3.60934 0.202278 0
M  V30 9011 O 878.763 4.25749 -1.03293 0
M  V30 9012 C 880.264 4.36607 0.767387 0
M  V30 9013 H 877.484 0.66991 -0.0382368 0
M  V30 9014 H 880.028 1.90288 -0.749057 0
M  V30 9015 H 878.183 3.77111 0.886897 0
M  V30 9016 H 878.597 5.18048 -0.820167 0
M  V30 9017 H 880.071 5.45126 0.86845 0
M  V30 9018 H 880.548 4.01745 1.77477 0
M  V30 9019 H 881.154 4.25133 0.119002 0
M  V30 9020 N 879.47 0.276058 1.55163 0
M  V30 9021 C 880.7 -0.343274 2.03728 0
M  V30 9022 C 881.108 -1.49945 1.15383 0
M  V30 9023 O 880.451 -1.82942 0.166696 0
M  V30 9024 C 880.513 -0.885683 3.48419 0
M  V30 9025 C 880.177 0.141976 4.56779 0
M  V30 9026 C 881.174 0.961816 5.10926 0
M  V30 9027 C 878.859 0.276487 5.01538 0
M  V30 9028 C 880.853 1.90234 6.0835 0
M  V30 9029 C 878.54 1.22049 5.98788 0
M  V30 9030 C 879.538 2.03192 6.52075 0
M  V30 9031 O 879.226 2.95996 7.47423 0
M  V30 9032 H 878.958 -0.0822192 0.670981 0
M  V30 9033 H 881.512 0.406199 2.01343 0
M  V30 9034 H 879.742 -1.68524 3.48047 0
M  V30 9035 H 881.431 -1.4182 3.80318 0
M  V30 9036 H 882.197 0.868637 4.77158 0
M  V30 9037 H 878.076 -0.345095 4.59707 0
M  V30 9038 H 881.62 2.5361 6.49867 0
M  V30 9039 H 877.517 1.31448 6.31974 0
M  V30 9040 H 878.285 2.90688 7.65142 0
M  V30 9041 N 880.948 -1.576 0.00335426 0
M  V30 9042 C 881.858 -2.12067 -1.00322 0
M  V30 9043 C 882.874 -1.06672 -1.37467 0
M  V30 9044 O 884.05 -1.38592 -1.46131 0
M  V30 9045 C 881.115 -2.61593 -2.27531 0
M  V30 9046 C 880.176 -3.81602 -1.96668 0
M  V30 9047 C 879.409 -4.28756 -3.17811 0
M  V30 9048 O 879.632 -3.75222 -4.2961 0
M  V30 9049 O 878.566 -5.20877 -3.01613 0
M  V30 9050 H 882.392 -2.98299 -0.570199 0
M  V30 9051 H 879.977 -1.47835 -0.215682 0
M  V30 9052 H 881.859 -2.93631 -3.02256 0
M  V30 9053 H 880.534 -1.78457 -2.70065 0
M  V30 9054 H 879.441 -3.54531 -1.19408 0
M  V30 9055 H 880.774 -4.65822 -1.58968 0
M  V30 9056 N 882.426 0.269451 -1.5528 0
M  V30 9057 C 883.703 1.02207 -1.66773 0
M  V30 9058 C 884.083 2.04168 -0.536536 0
M  V30 9059 O 883.431 2.23761 0.462956 0
M  V30 9060 C 883.641 1.67569 -3.0614 0
M  V30 9061 C 884.989 2.18599 -3.64005 0
M  V30 9062 O 886.013 1.7755 -3.08795 0
M  V30 9063 O 884.872 2.93903 -4.60742 0
M  V30 9064 H 881.966 0.474314 -0.677462 0
M  V30 9065 H 884.512 0.265026 -1.67618 0
M  V30 9066 H 883.284 0.937029 -3.79915 0
M  V30 9067 H 882.907 2.49951 -3.09209 0
M  V30 9068 N 883.904 1.48273 0.534124 0
M  V30 9069 C 885.315 1.49667 1.1161 0
M  V30 9070 C 885.666 0.264139 1.94414 0
M  V30 9071 O 884.791 -0.629084 2.07054 0
M  V30 9072 C 885.386 2.71191 2.03079 0
M  V30 9073 C 883.945 2.7547 2.56502 0
M  V30 9074 C 883.092 2.43119 1.33373 0
M  V30 9075 H 886.043 1.55449 0.319578 0
M  V30 9076 H 886.064 2.49473 2.87304 0
M  V30 9077 H 885.576 3.60879 1.42785 0
M  V30 9078 H 883.677 1.89979 3.20529 0
M  V30 9079 H 883.79 3.76787 2.95919 0
M  V30 9080 H 882.154 1.94187 1.64813 0
M  V30 9081 H 882.937 3.35044 0.748375 0
M  V30 9082 N 885.382 -0.782676 1.36792 0
M  V30 9083 C 886.33 -1.91698 1.31737 0
M  V30 9084 C 887.324 -1.68118 0.207994 0
M  V30 9085 O 888.53 -1.76042 0.375393 0
M  V30 9086 H 884.905 -0.630215 0.410284 0
M  V30 9087 H 886.876 -1.93078 2.27516 0
M  V30 9088 C 885.625 -3.28816 1.13029 0
M  V30 9089 H 884.948 -3.4753 1.97643 0
M  V30 9090 H 886.388 -4.08515 1.13541 0
M  V30 9091 C 884.847 -3.36497 -0.1647 0
M  V30 9092 O 885.377 -3.84822 -1.15216 0
M  V30 9093 N 883.583 -2.89828 -0.211678 0
M  V30 9094 H 883.13 -2.50693 0.59252 0
M  V30 9095 H 883.088 -2.95349 -1.07779 0
M  V30 9096 N 886.86 -1.21182 -1.00761 0
M  V30 9097 C 887.77 -0.984691 -2.12934 0
M  V30 9098 C 888.786 0.0623657 -1.73888 0
M  V30 9099 O 889.962 -0.1271 -2.00999 0
M  V30 9100 C 887.027 -0.549447 -3.42319 0
M  V30 9101 C 886.088 -1.66841 -3.95553 0
M  V30 9102 C 885.321 -1.25384 -5.18763 0
M  V30 9103 O 885.544 -0.126333 -5.7026 0
M  V30 9104 O 884.478 -2.06475 -5.65377 0
M  V30 9105 H 888.304 -1.92413 -2.3497 0
M  V30 9106 H 885.889 -0.99647 -1.11314 0
M  V30 9107 H 887.771 -0.316384 -4.20211 0
M  V30 9108 H 886.446 0.361304 -3.21677 0
M  V30 9109 H 885.353 -1.95585 -3.189 0
M  V30 9110 H 886.686 -2.55649 -4.206 0
M  V30 9111 N 888.338 1.20213 -1.01915 0
M  V30 9112 C 889.301 2.21307 -0.596327 0
M  V30 9113 C 890.301 1.57274 0.334879 0
M  V30 9114 O 891.491 1.73764 0.12322 0
M  V30 9115 C 888.623 3.40657 0.128808 0
M  V30 9116 H 889.816 2.60228 -1.49068 0
M  V30 9117 H 887.369 1.33721 -0.809226 0
M  V30 9118 H 888.104 3.07241 1.03796 0
M  V30 9119 H 887.889 3.88361 -0.540183 0
M  V30 9120 H 889.379 4.15564 0.411892 0
M  V30 9121 N 889.816 0.795718 1.36037 0
M  V30 9122 C 891.062 0.371574 1.99367 0
M  V30 9123 C 891.395 -1.0557 1.62999 0
M  V30 9124 O 890.67 -1.73051 0.887895 0
M  V30 9125 C 890.953 0.542622 3.55988 0
M  V30 9126 C 890.806 2.01404 4.0219 0
M  V30 9127 C 892.125 -0.0384527 4.40083 0
M  V30 9128 H 889.244 0.136483 0.724252 0
M  V30 9129 H 891.886 1.00323 1.61355 0
M  V30 9130 H 890.036 0.0049053 3.885 0
M  V30 9131 H 891.708 2.6133 3.80137 0
M  V30 9132 H 889.951 2.51439 3.53498 0
M  V30 9133 H 890.622 2.08466 5.11122 0
M  V30 9134 H 893.098 0.420634 4.13968 0
M  V30 9135 H 891.974 0.111214 5.48787 0
M  V30 9136 H 892.235 -1.13116 4.27384 0
M  V30 9137 N 891.294 -1.47756 0.548274 0
M  V30 9138 C 892.71 -1.58247 0.207401 0
M  V30 9139 C 892.91 -1.54804 -1.28988 0
M  V30 9140 O 891.966 -1.44673 -2.06944 0
M  V30 9141 C 893.279 -2.89129 0.826142 0
M  V30 9142 C 894.827 -3.02695 0.79655 0
M  V30 9143 C 895.302 -4.36264 1.3942 0
M  V30 9144 N 896.793 -4.42877 1.35698 0
M  V30 9145 C 897.528 -5.44773 1.78913 0
M  V30 9146 N 897.024 -6.53528 2.29942 0
M  V30 9147 N 898.817 -5.35765 1.70038 0
M  V30 9148 H 890.968 -1.48236 1.52117 0
M  V30 9149 H 893.231 -0.704957 0.633829 0
M  V30 9150 H 892.937 -2.97358 1.87806 0
M  V30 9151 H 892.811 -3.75891 0.313916 0
M  V30 9152 H 895.198 -2.94067 -0.246655 0
M  V30 9153 H 895.279 -2.17496 1.34644 0
M  V30 9154 H 894.923 -4.45646 2.43642 0
M  V30 9155 H 894.853 -5.20179 0.819827 0
M  V30 9156 H 897.344 -3.64874 0.983623 0
M  V30 9157 H 897.657 -7.27441 2.60863 0
M  V30 9158 H 896.002 -6.54442 2.33947 0
M  V30 9159 H 899.193 -4.49699 1.29955 0
M  V30 9160 H 899.366 -6.1504 2.04035 0
M  V30 9161 N 892.772 -0.284283 -1.55015 0
M  V30 9162 C 893.682 0.60906 -2.26556 0
M  V30 9163 C 894.698 1.16246 -1.29472 0
M  V30 9164 O 895.874 1.1908 -1.62425 0
M  V30 9165 C 892.939 1.77246 -2.97968 0
M  V30 9166 C 892 1.25482 -4.10552 0
M  V30 9167 C 891.233 2.36277 -4.78549 0
M  V30 9168 O 891.456 3.55829 -4.45805 0
M  V30 9169 O 890.39 2.03914 -5.66306 0
M  V30 9170 H 894.216 0.0292298 -3.03686 0
M  V30 9171 H 891.801 -0.0513466 -1.49312 0
M  V30 9172 H 893.683 2.45062 -3.42815 0
M  V30 9173 H 892.358 2.33921 -2.23747 0
M  V30 9174 H 891.265 0.542859 -3.7014 0
M  V30 9175 H 892.598 0.733708 -4.86701 0
M  V30 9176 N 894.251 1.57596 -0.0117121 0
M  V30 9177 C 895.498 1.91071 0.670667 0
M  V30 9178 C 895.826 0.886457 1.73125 0
M  V30 9179 O 895.081 -0.107135 1.95407 0
M  V30 9180 C 895.38 3.31296 1.34082 0
M  V30 9181 C 895.046 4.49011 0.412305 0
M  V30 9182 C 893.708 4.80945 0.156691 0
M  V30 9183 C 896.06 5.20709 -0.226294 0
M  V30 9184 C 893.388 5.81943 -0.745619 0
M  V30 9185 C 895.74 6.22668 -1.11655 0
M  V30 9186 C 894.404 6.53053 -1.38123 0
M  V30 9187 H 893.674 0.69918 0.245415 0
M  V30 9188 H 896.321 1.91373 -0.0697511 0
M  V30 9189 H 894.626 3.27174 2.15557 0
M  V30 9190 H 896.323 3.54461 1.87506 0
M  V30 9191 H 892.913 4.24067 0.621705 0
M  V30 9192 H 897.097 4.96282 -0.0418456 0
M  V30 9193 H 892.353 6.03839 -0.958566 0
M  V30 9194 H 896.527 6.77351 -1.61767 0
M  V30 9195 H 894.154 7.31132 -2.08208 0
M  V30 9196 N 895.729 -0.261212 1.5542 0
M  V30 9197 C 896.692 -1.30645 1.8832 0
M  V30 9198 C 897.692 -1.41782 0.758588 0
M  V30 9199 O 898.882 -1.40729 1.02669 0
M  V30 9200 C 896.014 -2.6862 2.09895 0
M  V30 9201 H 897.207 -1.02698 2.81768 0
M  V30 9202 H 894.76 -0.499838 1.48092 0
M  V30 9203 H 895.495 -3.0173 1.18868 0
M  V30 9204 H 895.28 -2.61921 2.91787 0
M  V30 9205 H 896.77 -3.44121 2.36581 0
M  V30 9206 N 897.207 -1.48554 -0.526253 0
M  V30 9207 C 898.154 -1.63354 -1.63046 0
M  V30 9208 C 899.124 -0.475509 -1.59148 0
M  V30 9209 O 900.309 -0.699453 -1.77517 0
M  V30 9210 C 897.449 -1.68271 -3.01295 0
M  V30 9211 C 896.562 -2.95207 -3.15399 0
M  V30 9212 C 895.697 -2.91262 -4.4423 0
M  V30 9213 C 894.736 -4.12886 -4.51876 0
M  V30 9214 N 893.873 -4.06996 -5.721 0
M  V30 9215 H 898.713 -2.57649 -1.49737 0
M  V30 9216 H 896.25 -1.27769 -0.728938 0
M  V30 9217 H 898.208 -1.69104 -3.81392 0
M  V30 9218 H 896.838 -0.774641 -3.13367 0
M  V30 9219 H 895.89 -3.04102 -2.2853 0
M  V30 9220 H 897.202 -3.85187 -3.1691 0
M  V30 9221 H 896.356 -2.90516 -5.32621 0
M  V30 9222 H 895.095 -1.99016 -4.45246 0
M  V30 9223 H 894.1 -4.13902 -3.61891 0
M  V30 9224 H 895.325 -5.06294 -4.52596 0
M  V30 9225 H 893.271 -3.17573 -5.74006 0
M  V30 9226 H 893.188 -4.90685 -5.75121 0
M  V30 9227 H 894.456 -4.10315 -6.62768 0
M  V30 9228 N 898.685 0.775411 -1.37205 0
M  V30 9229 C 899.595 1.91967 -1.34855 0
M  V30 9230 C 900.611 1.72214 -0.248656 0
M  V30 9231 O 901.787 1.95512 -0.483421 0
M  V30 9232 C 898.852 3.27038 -1.15096 0
M  V30 9233 C 897.913 3.5947 -2.34691 0
M  V30 9234 C 897.146 4.88097 -2.15865 0
M  V30 9235 O 897.369 5.58871 -1.14102 0
M  V30 9236 O 896.303 5.19507 -3.03967 0
M  V30 9237 H 900.129 1.969 -2.31223 0
M  V30 9238 H 897.714 0.917647 -1.17897 0
M  V30 9239 H 899.596 4.07837 -1.0605 0
M  V30 9240 H 898.271 3.22965 -0.217999 0
M  V30 9241 H 897.178 2.7892 -2.49308 0
M  V30 9242 H 898.511 3.68282 -3.26541 0
M  V30 9243 N 900.163 1.21714 1.00117 0
M  V30 9244 C 901.412 1.03087 1.73367 0
M  V30 9245 C 901.725 -0.435532 1.90689 0
M  V30 9246 O 902.931 -0.741291 2.61184 0
M  V30 9247 C 901.387 1.79593 3.11888 0
M  V30 9248 C 900.995 3.30428 3.02525 0
M  V30 9249 C 902.739 1.69386 3.89241 0
M  V30 9250 C 900.646 3.99408 4.3615 0
M  V30 9251 H 899.576 0.382117 0.650002 0
M  V30 9252 H 902.227 1.45486 1.11831 0
M  V30 9253 H 900.609 1.29988 3.74058 0
M  V30 9254 H 901.783 3.87364 2.49571 0
M  V30 9255 H 900.098 3.4122 2.38659 0
M  V30 9256 H 902.695 2.18251 4.8813 0
M  V30 9257 H 903.038 0.652773 4.1115 0
M  V30 9258 H 903.571 2.16489 3.33733 0
M  V30 9259 H 900.31 5.03735 4.19442 0
M  V30 9260 H 899.83 3.47261 4.8905 0
M  V30 9261 H 901.509 4.04537 5.04934 0
M  V30 9262 N 901.641 -1.19671 1.02551 0
M  V30 9263 C 902.918 -1.85014 0.634771 0
M  V30 9264 C 903.298 -1.91574 -0.886706 0
M  V30 9265 O 902.646 -1.43022 -1.78205 0
M  V30 9266 C 902.856 -3.24167 1.29292 0
M  V30 9267 C 904.204 -4.00363 1.41402 0
M  V30 9268 O 905.228 -3.33553 1.24983 0
M  V30 9269 O 904.087 -5.2003 1.6802 0
M  V30 9270 H 901.181 -0.797147 0.220196 0
M  V30 9271 H 903.727 -1.27188 1.12345 0
M  V30 9272 H 902.499 -3.14208 2.33215 0
M  V30 9273 H 902.122 -3.89634 0.791895 0
M  V30 9274 N 903.119 -0.802921 -1.35613 0
M  V30 9275 C 904.365 -0.382141 -1.99167 0
M  V30 9276 C 904.698 1.04704 -1.63556 0
M  V30 9277 O 903.973 1.72578 -0.89706 0
M  V30 9278 C 904.256 -0.561493 -3.55695 0
M  V30 9279 C 904.109 -2.03534 -4.01116 0
M  V30 9280 C 905.428 0.0151135 -4.40097 0
M  V30 9281 H 902.547 -0.140322 -0.723518 0
M  V30 9282 H 905.189 -1.01177 -1.6082 0
M  V30 9283 H 903.339 -0.0255083 -3.88492 0
M  V30 9284 H 905.011 -2.63343 -3.78746 0
M  V30 9285 H 903.254 -2.5331 -3.52159 0
M  V30 9286 H 903.925 -2.11173 -5.1001 0
M  V30 9287 H 906.401 -0.442582 -4.1374 0
M  V30 9288 H 905.277 -0.140316 -5.48721 0
M  V30 9289 H 905.538 1.10848 -4.27978 0
M  V30 9290 N 904.597 1.47463 -0.556102 0
M  V30 9291 C 905.822 2.07371 -0.0344729 0
M  V30 9292 C 906.247 1.40621 1.2493 0
M  V30 9293 O 905.605 0.48082 1.74808 0
M  V30 9294 C 905.653 3.60306 0.145563 0
M  V30 9295 O 904.757 3.94299 1.20839 0
M  V30 9296 H 904.098 0.662052 -0.0508274 0
M  V30 9297 H 906.628 1.89498 -0.771469 0
M  V30 9298 H 906.638 4.06408 0.360112 0
M  V30 9299 H 905.313 4.08288 -0.792089 0
M  V30 9300 H 903.89 3.59944 0.97442 0
M  V30 9301 N 906.075 0.2925 1.54862 0
M  V30 9302 C 907.305 -0.321646 2.04081 0
M  V30 9303 C 907.713 -1.48712 1.16967 0
M  V30 9304 O 907.056 -1.82755 0.18609 0
M  V30 9305 C 907.118 -0.848678 3.49339 0
M  V30 9306 C 906.782 0.190416 4.56603 0
M  V30 9307 C 907.779 1.01595 5.09877 0
M  V30 9308 C 905.464 0.329666 5.01217 0
M  V30 9309 C 907.458 1.96676 6.06298 0
M  V30 9310 C 905.145 1.28393 5.9746 0
M  V30 9311 C 906.143 2.10097 6.49883 0
M  V30 9312 O 905.831 3.03907 7.44242 0
M  V30 9313 H 905.563 -0.075098 0.671816 0
M  V30 9314 H 908.117 0.427531 2.00901 0
M  V30 9315 H 906.347 -1.64823 3.49815 0
M  V30 9316 H 908.036 -1.37779 3.81801 0
M  V30 9317 H 908.802 0.919197 4.7621 0
M  V30 9318 H 904.681 -0.296317 4.60047 0
M  V30 9319 H 908.225 2.60488 6.47141 0
M  V30 9320 H 904.122 1.38144 6.30545 0
M  V30 9321 H 904.89 2.98787 7.62016 0
M  V30 9322 N 907.553 -1.57587 0.0200696 0
M  V30 9323 C 908.799 -1.91708 -0.661503 0
M  V30 9324 C 909.132 -0.895968 -1.72296 0
M  V30 9325 O 908.407 0.082577 -1.94325 0
M  V30 9326 C 908.69 -3.36344 -1.28627 0
M  V30 9327 C 908.543 -4.49186 -0.234982 0
M  V30 9328 C 909.862 -3.80771 -2.20685 0
M  V30 9329 H 906.981 -0.69717 -0.239005 0
M  V30 9330 H 909.623 -1.8985 0.0754764 0
M  V30 9331 H 907.773 -3.38058 -1.91439 0
M  V30 9332 H 909.445 -4.59606 0.395011 0
M  V30 9333 H 907.688 -4.31557 0.440565 0
M  V30 9334 H 908.359 -5.47395 -0.711558 0
M  V30 9335 H 910.835 -3.80735 -1.67868 0
M  V30 9336 H 909.711 -4.82685 -2.61356 0
M  V30 9337 H 909.972 -3.15764 -3.09428 0
M  V30 9338 N 909.032 0.252966 -1.55557 0
M  V30 9339 C 909.979 1.3131 -1.89806 0
M  V30 9340 C 910.949 1.48121 -0.751633 0
M  V30 9341 O 912.134 1.62202 -1.00474 0
M  V30 9342 C 909.274 2.66467 -2.19293 0
M  V30 9343 C 908.387 2.57714 -3.46709 0
M  V30 9344 C 907.522 3.85184 -3.65796 0
M  V30 9345 C 906.561 3.71023 -4.86835 0
M  V30 9346 N 905.698 4.90371 -5.02474 0
M  V30 9347 H 910.538 1.01402 -2.80217 0
M  V30 9348 H 908.075 0.489462 -1.38718 0
M  V30 9349 H 910.033 3.45132 -2.34392 0
M  V30 9350 H 908.663 2.94536 -1.32093 0
M  V30 9351 H 907.715 1.70651 -3.39974 0
M  V30 9352 H 909.027 2.43158 -4.35517 0
M  V30 9353 H 908.181 4.72292 -3.80822 0
M  V30 9354 H 906.92 4.0263 -2.7521 0
M  V30 9355 H 905.925 2.82299 -4.71792 0
M  V30 9356 H 907.15 3.55078 -5.78875 0
M  V30 9357 H 905.096 5.0819 -4.14824 0
M  V30 9358 H 905.013 4.78423 -5.85361 0
M  V30 9359 H 906.281 5.78995 -5.21905 0
M  V30 9360 N 910.51 1.48831 0.518367 0
M  V30 9361 C 911.759 1.5669 1.27008 0
M  V30 9362 C 912.072 0.250934 1.93984 0
M  V30 9363 O 913.278 0.207884 2.70703 0
M  V30 9364 C 911.734 2.76387 2.30517 0
M  V30 9365 C 911.342 4.14673 1.69559 0
M  V30 9366 C 913.086 2.93566 3.06625 0
M  V30 9367 C 910.993 5.25616 2.71076 0
M  V30 9368 H 909.923 0.583362 0.477708 0
M  V30 9369 H 912.574 1.75187 0.546052 0
M  V30 9370 H 910.956 2.51348 3.06006 0
M  V30 9371 H 912.13 4.49779 1.00179 0
M  V30 9372 H 910.445 4.02708 1.05902 0
M  V30 9373 H 913.042 3.7362 3.82508 0
M  V30 9374 H 913.385 2.03462 3.63193 0
M  V30 9375 H 913.918 3.18562 2.38251 0
M  V30 9376 H 910.657 6.17723 2.19313 0
M  V30 9377 H 910.177 4.94985 3.38748 0
M  V30 9378 H 911.856 5.5422 3.3384 0
M  V30 9379 N 911.988 -0.768124 1.37614 0
M  V30 9380 C 912.898 -1.91249 1.35871 0
M  V30 9381 C 913.914 -1.7208 0.257786 0
M  V30 9382 O 915.09 -1.95253 0.493782 0
M  V30 9383 C 912.155 -3.26423 1.16829 0
M  V30 9384 C 911.216 -3.5822 2.36594 0
M  V30 9385 C 910.449 -4.86945 2.1845 0
M  V30 9386 O 910.672 -5.58258 1.17064 0
M  V30 9387 O 909.606 -5.17888 3.06718 0
M  V30 9388 H 913.432 -1.95671 2.32264 0
M  V30 9389 H 911.017 -0.911382 1.18382 0
M  V30 9390 H 912.899 -4.07269 1.08212 0
M  V30 9391 H 911.574 -3.22845 0.235123 0
M  V30 9392 H 910.481 -2.77594 2.50783 0
M  V30 9393 H 911.814 -3.66545 3.2849 0
M  V30 9394 N 913.466 -1.22244 -0.994698 0
M  V30 9395 C 914.376 -1.00722 -2.11878 0
M  V30 9396 C 915.392 0.043919 -1.73945 0
M  V30 9397 O 916.568 -0.148411 -2.00852 0
M  V30 9398 C 913.633 -0.585723 -3.41717 0
M  V30 9399 C 912.694 -1.71027 -3.93762 0
M  V30 9400 C 911.927 -1.30879 -5.17403 0
M  V30 9401 O 912.15 -0.18681 -5.70094 0
M  V30 9402 O 911.084 -2.1246 -5.63156 0
M  V30 9403 H 914.91 -1.94894 -2.32916 0
M  V30 9404 H 912.495 -1.00822 -1.10251 0
M  V30 9405 H 914.377 -0.360935 -4.19851 0
M  V30 9406 H 913.052 0.327166 -3.22042 0
M  V30 9407 H 911.959 -1.98956 -3.16808 0
M  V30 9408 H 913.292 -2.60096 -4.17865 0
M  V30 9409 N 914.944 1.19125 -1.03184 0
M  V30 9410 C 916.19 1.89163 -0.731111 0
M  V30 9411 C 916.523 1.79604 0.738662 0
M  V30 9412 O 915.798 1.19037 1.53819 0
M  V30 9413 C 916.081 3.39986 -1.18666 0
M  V30 9414 C 915.934 3.58401 -2.71788 0
M  V30 9415 C 917.253 4.33316 -0.769772 0
M  V30 9416 H 914.372 0.686908 -0.267069 0
M  V30 9417 H 917.014 1.40205 -1.28229 0
M  V30 9418 H 915.164 3.81813 -0.717736 0
M  V30 9419 H 916.836 3.25727 -3.26649 0
M  V30 9420 H 915.079 3.01355 -3.12038 0
M  V30 9421 H 915.75 4.64189 -2.98719 0
M  V30 9422 H 918.226 3.9922 -1.17314 0
M  V30 9423 H 917.102 5.37427 -1.11637 0
M  V30 9424 H 917.363 4.40884 0.327681 0
M  V30 9425 N 916.422 0.810101 1.35185 0
M  V30 9426 C 917.671 0.388589 1.97921 0
M  V30 9427 C 917.984 -1.05079 1.64978 0
M  V30 9428 O 919.19 -1.57559 2.21105 0
M  V30 9429 C 917.646 0.643864 3.54094 0
M  V30 9430 C 917.254 2.09602 3.95943 0
M  V30 9431 C 918.998 0.287883 4.23523 0
M  V30 9432 C 916.905 2.29686 5.44976 0
M  V30 9433 H 915.835 0.141562 0.740592 0
M  V30 9434 H 918.486 0.994653 1.54204 0
M  V30 9435 H 916.868 -0.0321978 3.95987 0
M  V30 9436 H 918.042 2.81018 3.65192 0
M  V30 9437 H 916.357 2.4122 3.39414 0
M  V30 9438 H 918.954 0.415946 5.3308 0
M  V30 9439 H 919.297 -0.766305 4.09186 0
M  V30 9440 H 919.83 0.918004 3.87063 0
M  V30 9441 H 916.569 3.33563 5.64284 0
M  V30 9442 H 916.089 1.62798 5.77284 0
M  V30 9443 H 917.768 2.11411 6.11485 0
M  V30 9444 N 917.9 -1.47166 0.563914 0
M  V30 9445 C 919.148 -2.02056 0.0422873 0
M  V30 9446 C 919.469 -1.43992 -1.31497 0
M  V30 9447 O 918.739 -0.617578 -1.85911 0
M  V30 9448 H 917.319 -0.746893 0.0126427 0
M  V30 9449 H 919.981 -1.80492 0.735441 0
M  V30 9450 H 919.077 -3.12073 -0.0408044 0
M  V30 9451 N 919.378 -0.300708 -1.54705 0
M  V30 9452 C 920.341 0.562648 -2.22187 0
M  V30 9453 C 921.341 1.06152 -1.20782 0
M  V30 9454 O 922.531 0.957596 -1.45519 0
M  V30 9455 C 919.663 1.77899 -2.908 0
M  V30 9456 H 920.856 -0.0269361 -2.99888 0
M  V30 9457 H 918.409 -0.0515412 -1.56215 0
M  V30 9458 H 919.144 2.40841 -2.17177 0
M  V30 9459 H 918.929 1.42892 -3.65136 0
M  V30 9460 H 920.419 2.39236 -3.42281 0
M  V30 9461 N 920.856 1.57574 -0.0284266 0
M  V30 9462 C 922.104 1.91393 0.649079 0
M  V30 9463 C 922.425 0.905368 1.72708 0
M  V30 9464 O 921.695 -0.0532107 1.95828 0
M  V30 9465 H 920.275 0.70646 0.24274 0
M  V30 9466 H 922.937 1.94752 -0.076066 0
M  V30 9467 H 922.033 2.91988 1.10226 0
M  V30 9468 N 922.334 -0.244713 1.55689 0
M  V30 9469 C 923.244 -1.32447 1.93636 0
M  V30 9470 C 924.26 -1.52541 0.837086 0
M  V30 9471 O 925.436 -1.66121 1.13867 0
M  V30 9472 C 922.501 -2.65864 2.22525 0
M  V30 9473 C 921.562 -2.54273 3.45896 0
M  V30 9474 C 920.795 -3.81327 3.73397 0
M  V30 9475 O 921.018 -4.83307 3.02936 0
M  V30 9476 O 919.952 -3.79829 4.66919 0
M  V30 9477 H 923.778 -1.03255 2.85608 0
M  V30 9478 H 921.363 -0.445652 1.42598 0
M  V30 9479 H 923.245 -3.447 2.42404 0
M  V30 9480 H 921.92 -2.94784 1.33731 0
M  V30 9481 H 920.827 -1.73715 3.31321 0
M  V30 9482 H 922.16 -2.30297 4.34999 0
M  V30 9483 N 923.813 -1.49104 -0.510467 0
M  V30 9484 C 925.06 -1.58112 -1.26518 0
M  V30 9485 C 925.388 -0.263603 -1.92705 0
M  V30 9486 O 924.643 0.747743 -1.80852 0
M  V30 9487 C 924.942 -2.68259 -2.36161 0
M  V30 9488 C 924.608 -4.10069 -1.87495 0
M  V30 9489 C 923.27 -4.48662 -1.73942 0
M  V30 9490 C 925.622 -4.98859 -1.5096 0
M  V30 9491 C 922.95 -5.73829 -1.22217 0
M  V30 9492 C 925.302 -6.24535 -1.00691 0
M  V30 9493 C 923.966 -6.61967 -0.857691 0
M  V30 9494 H 923.236 -0.578574 -0.462962 0
M  V30 9495 H 925.883 -1.82899 -0.567475 0
M  V30 9496 H 924.188 -2.37407 -3.11681 0
M  V30 9497 H 925.885 -2.7244 -2.9424 0
M  V30 9498 H 922.475 -3.79601 -1.99001 0
M  V30 9499 H 926.659 -4.69706 -1.60282 0
M  V30 9500 H 921.915 -6.01539 -1.09368 0
M  V30 9501 H 926.089 -6.9272 -0.71498 0
M  V30 9502 H 923.716 -7.58839 -0.454702 0
M  V30 9503 N 925.291 0.760815 -1.38019 0
M  V30 9504 C 926.539 1.51673 -1.33566 0
M  V30 9505 C 926.86 1.94852 0.076024 0
M  V30 9506 O 926.13 1.67112 1.02227 0
M  V30 9507 H 924.71 0.562581 -0.491438 0
M  V30 9508 H 927.372 0.904832 -1.72623 0
M  V30 9509 H 926.468 2.41102 -1.98182 0
M  V30 9510 N 926.769 1.22769 0.988202 0
M  V30 9511 C 927.679 1.01844 2.11341 0
M  V30 9512 C 928.695 -0.0346937 1.73965 0
M  V30 9513 O 929.871 0.159061 2.00771 0
M  V30 9514 C 926.936 0.603837 3.41401 0
M  V30 9515 C 925.997 1.73113 3.92849 0
M  V30 9516 C 925.23 1.33621 5.16702 0
M  V30 9517 O 925.453 0.217041 5.69987 0
M  V30 9518 O 924.387 2.15444 5.62021 0
M  V30 9519 H 928.213 1.96127 2.31879 0
M  V30 9520 H 925.798 1.01405 1.09715 0
M  V30 9521 H 927.68 0.383196 4.19654 0
M  V30 9522 H 926.355 -0.310082 3.22211 0
M  V30 9523 H 925.262 2.00634 3.15748 0
M  V30 9524 H 926.595 2.62308 4.1648 0
M  V30 9525 N 928.247 -1.18576 1.03814 0
M  V30 9526 C 929.493 -1.88773 0.741132 0
M  V30 9527 C 929.826 -1.79993 -0.729127 0
M  V30 9528 O 929.101 -1.19851 -1.53186 0
M  V30 9529 C 929.384 -3.39352 1.20468 0
M  V30 9530 C 929.237 -3.56955 2.73684 0
M  V30 9531 C 930.556 -4.32901 0.792741 0
M  V30 9532 H 927.675 -0.685482 0.270708 0
M  V30 9533 H 930.317 -1.39523 1.2897 0
M  V30 9534 H 928.467 -3.81427 0.737974 0
M  V30 9535 H 930.139 -3.2399 3.28372 0
M  V30 9536 H 928.382 -2.99696 3.13632 0
M  V30 9537 H 929.053 -4.62598 3.01176 0
M  V30 9538 H 931.529 -3.98592 1.1943 0
M  V30 9539 H 930.405 -5.36828 1.14486 0
M  V30 9540 H 930.666 -4.41052 -0.304295 0
M  V30 9541 N 929.725 -0.817259 -1.34754 0
M  V30 9542 C 930.965 -0.408429 -2.00278 0
M  V30 9543 C 931.329 1.00818 -1.634 0
M  V30 9544 O 932.53 1.51959 -2.21725 0
M  V30 9545 C 930.801 -0.598219 -3.52358 0
M  V30 9546 S 932.36 -0.281395 -4.37897 0
M  V30 9547 H 929.178 -0.154587 -0.693991 0
M  V30 9548 H 931.78 -1.06184 -1.6415 0
M  V30 9549 H 930.484 -1.62901 -3.76685 0
M  V30 9550 H 930.015 0.0701299 -3.93337 0
M  V30 9551 H 932.03 0.907024 -4.8784 0
M  V30 9552 N 931.203 1.46865 -0.571711 0
M  V30 9553 C 932.619 1.57897 -0.23255 0
M  V30 9554 C 932.819 1.56836 1.26509 0
M  V30 9555 O 931.875 1.47947 2.04617 0
M  V30 9556 C 933.188 2.87778 -0.872036 0
M  V30 9557 C 934.736 3.01389 -0.844605 0
M  V30 9558 C 935.211 4.33991 -1.46343 0
M  V30 9559 N 936.702 4.40662 -1.42727 0
M  V30 9560 C 937.437 5.41858 -1.87557 0
M  V30 9561 N 936.933 6.49787 -2.4031 0
M  V30 9562 N 938.726 5.32992 -1.7854 0
M  V30 9563 H 930.877 1.45798 -1.54457 0
M  V30 9564 H 933.14 0.694785 -0.644964 0
M  V30 9565 H 932.846 2.94332 -1.92513 0
M  V30 9566 H 932.72 3.75345 -0.373677 0
M  V30 9567 H 935.107 2.94423 0.19984 0
M  V30 9568 H 935.188 2.15327 -1.38087 0
M  V30 9569 H 934.832 4.41714 -2.50701 0
M  V30 9570 H 934.762 5.18809 -0.902479 0
M  V30 9571 H 937.253 3.63263 -1.04155 0
M  V30 9572 H 937.566 7.23199 -2.72403 0
M  V30 9573 H 935.911 6.50637 -2.44329 0
M  V30 9574 H 939.102 4.47575 -1.37093 0
M  V30 9575 H 939.275 6.11716 -2.13794 0
M  V30 9576 N 932.681 0.308908 1.54543 0
M  V30 9577 C 933.929 -0.297447 1.99899 0
M  V30 9578 C 934.25 -1.53799 1.19878 0
M  V30 9579 O 933.52 -1.93639 0.29678 0
M  V30 9580 H 932.1 -0.112897 0.738419 0
M  V30 9581 H 934.762 0.422067 1.90275 0
M  V30 9582 H 933.858 -0.564016 3.06961 0
M  V30 9583 N 934.159 -1.57557 0.0367827 0
M  V30 9584 C 935.575 -1.56366 -0.31967 0
M  V30 9585 C 935.775 -1.04313 -1.72398 0
M  V30 9586 O 934.831 -0.693278 -2.42796 0
M  V30 9587 C 936.144 -3.00267 -0.161274 0
M  V30 9588 C 937.692 -3.12128 -0.233464 0
M  V30 9589 C 938.167 -4.57882 -0.103767 0
M  V30 9590 N 939.658 -4.62922 -0.160506 0
M  V30 9591 C 940.393 -5.73338 -0.0840493 0
M  V30 9592 N 939.889 -6.92786 0.043933 0
M  V30 9593 N 941.682 -5.61929 -0.138592 0
M  V30 9594 H 933.833 -1.8972 0.954996 0
M  V30 9595 H 936.096 -0.87304 0.369467 0
M  V30 9596 H 935.802 -3.42331 0.80639 0
M  V30 9597 H 935.676 -3.65599 -0.928304 0
M  V30 9598 H 938.063 -2.69972 -1.19159 0
M  V30 9599 H 938.144 -2.49503 0.564075 0
M  V30 9600 H 937.788 -5.0072 0.850973 0
M  V30 9601 H 937.718 -5.18496 -0.920268 0
M  V30 9602 H 940.209 -3.7701 -0.259257 0
M  V30 9603 H 940.522 -7.72741 0.095372 0
M  V30 9604 H 938.867 -6.94955 0.0788211 0
M  V30 9605 H 942.058 -4.67499 -0.237031 0
M  V30 9606 H 942.231 -6.47956 -0.075546 0
M  V30 9607 N 935.637 0.236453 -1.55816 0
M  V30 9608 C 936.567 1.29639 -1.94206 0
M  V30 9609 C 937.548 1.49667 -0.808319 0
M  V30 9610 O 938.733 1.621 -1.06945 0
M  V30 9611 C 935.863 2.64914 -2.24584 0
M  V30 9612 C 934.817 2.59565 -3.40308 0
M  V30 9613 C 934.143 3.98732 -3.56254 0
M  V30 9614 C 935.443 2.15642 -4.75706 0
M  V30 9615 H 937.137 0.977552 -2.82992 0
M  V30 9616 H 934.683 0.468804 -1.36155 0
M  V30 9617 H 936.636 3.39209 -2.50031 0
M  V30 9618 H 935.36 2.98455 -1.32636 0
M  V30 9619 H 934.019 1.87728 -3.14887 0
M  V30 9620 H 933.667 4.29556 -2.61707 0
M  V30 9621 H 933.367 3.96039 -4.34082 0
M  V30 9622 H 934.891 4.74711 -3.84033 0
M  V30 9623 H 936.305 2.79673 -5.00456 0
M  V30 9624 H 934.702 2.24039 -5.56711 0
M  V30 9625 H 935.772 1.10831 -4.72064 0
M  V30 9626 N 937.115 1.49373 0.502552 0
M  V30 9627 C 938.062 1.65927 1.60427 0
M  V30 9628 C 939.032 0.500768 1.58371 0
M  V30 9629 O 940.217 0.727606 1.76382 0
M  V30 9630 C 937.357 1.73043 2.9858 0
M  V30 9631 C 936.47 3.00187 3.10663 0
M  V30 9632 C 935.605 2.98292 4.3954 0
M  V30 9633 C 934.644 4.20022 4.4525 0
M  V30 9634 N 933.781 4.16046 5.65553 0
M  V30 9635 H 938.621 2.59998 1.45619 0
M  V30 9636 H 936.158 1.28912 0.708519 0
M  V30 9637 H 938.116 1.7515 3.78653 0
M  V30 9638 H 936.746 0.824397 3.12095 0
M  V30 9639 H 935.798 3.07699 2.23663 0
M  V30 9640 H 937.11 3.9018 3.10742 0
M  V30 9641 H 936.264 2.98953 5.27932 0
M  V30 9642 H 935.003 2.06075 4.42023 0
M  V30 9643 H 934.008 4.19607 3.5526 0
M  V30 9644 H 935.233 5.13431 4.44484 0
M  V30 9645 H 933.179 3.26665 5.68881 0
M  V30 9646 H 933.096 4.99773 5.67242 0
M  V30 9647 H 934.364 4.20807 6.56156 0
M  V30 9648 N 938.594 -0.753485 1.38421 0
M  V30 9649 C 939.557 -1.84888 1.35459 0
M  V30 9650 C 940.557 -1.58764 0.255083 0
M  V30 9651 O 941.747 -1.66507 0.511978 0
M  V30 9652 C 938.879 -3.22361 1.10888 0
M  V30 9653 H 940.072 -1.88922 2.32913 0
M  V30 9654 H 937.625 -0.955199 1.23716 0
M  V30 9655 H 938.36 -3.23996 0.1404 0
M  V30 9656 H 938.145 -3.42717 1.90492 0
M  V30 9657 H 939.635 -4.02437 1.1151 0
M  V30 9658 N 940.072 -1.23292 -0.981677 0
M  V30 9659 C 941.483 -1.05936 -1.53735 0
M  V30 9660 C 941.834 0.373695 -1.92608 0
M  V30 9661 O 940.959 1.26024 -1.75917 0
M  V30 9662 C 941.554 -1.91682 -2.79363 0
M  V30 9663 C 940.113 -1.78591 -3.31334 0
M  V30 9664 C 939.26 -1.87463 -2.04335 0
M  V30 9665 H 942.211 -1.36973 -0.801505 0
M  V30 9666 H 942.232 -1.44085 -3.52164 0
M  V30 9667 H 941.744 -2.95975 -2.51039 0
M  V30 9668 H 939.845 -0.770755 -3.64541 0
M  V30 9669 H 939.958 -2.61902 -4.01179 0
M  V30 9670 H 938.322 -1.3103 -2.18411 0
M  V30 9671 H 939.105 -2.9331 -1.78394 0
M  V30 9672 N 941.55 1.18024 -1.04442 0
M  V30 9673 C 942.798 1.87727 -0.74854 0
M  V30 9674 C 943.119 1.80975 0.726156 0
M  V30 9675 O 942.389 1.23061 1.52423 0
M  V30 9676 H 940.969 0.694974 -0.273897 0
M  V30 9677 H 943.631 1.43213 -1.32197 0
M  V30 9678 H 942.727 2.93665 -1.05674 0
M  V30 9679 N 943.028 0.824394 1.34319 0
M  V30 9680 C 943.975 0.245282 2.29493 0
M  V30 9681 C 944.945 -0.630762 1.53657 0
M  V30 9682 O 946.13 -0.572094 1.82021 0
M  V30 9683 C 943.27 -0.585631 3.40095 0
M  V30 9684 C 942.383 0.312821 4.30866 0
M  V30 9685 C 941.518 -0.527801 5.28571 0
M  V30 9686 C 940.557 0.369946 6.10981 0
M  V30 9687 N 939.694 -0.43169 7.00772 0
M  V30 9688 H 944.534 1.06225 2.78425 0
M  V30 9689 H 942.071 0.53533 1.37013 0
M  V30 9690 H 944.029 -1.08271 4.02906 0
M  V30 9691 H 942.659 -1.3677 2.92393 0
M  V30 9692 H 941.711 0.928129 3.68904 0
M  V30 9693 H 943.023 1.00306 4.8861 0
M  V30 9694 H 942.177 -1.0893 5.96841 0
M  V30 9695 H 940.916 -1.25154 4.71368 0
M  V30 9696 H 939.921 0.943577 5.41643 0
M  V30 9697 H 941.146 1.09182 6.70266 0
M  V30 9698 H 939.092 -1.13908 6.46035 0
M  V30 9699 H 939.009 0.200133 7.55735 0
M  V30 9700 H 940.277 -0.975894 7.73367 0
M  V30 9701 N 944.506 -1.46559 0.579492 0
M  V30 9702 C 945.453 -2.30275 -0.155598 0
M  V30 9703 C 946.423 -1.40422 -0.887175 0
M  V30 9704 O 947.608 -1.69373 -0.878481 0
M  V30 9705 C 944.748 -3.24827 -1.16539 0
M  V30 9706 C 943.861 -4.29778 -0.43759 0
M  V30 9707 C 942.996 -5.11461 -1.43462 0
M  V30 9708 C 942.035 -6.08164 -0.693048 0
M  V30 9709 N 941.172 -6.82726 -1.63799 0
M  V30 9710 H 946.012 -2.92607 0.564356 0
M  V30 9711 H 943.549 -1.44211 0.290126 0
M  V30 9712 H 945.507 -3.78088 -1.76368 0
M  V30 9713 H 944.137 -2.64311 -1.8531 0
M  V30 9714 H 943.189 -3.794 0.27567 0
M  V30 9715 H 944.501 -4.98597 0.142298 0
M  V30 9716 H 943.655 -5.68982 -2.1058 0
M  V30 9717 H 942.394 -4.42595 -2.04844 0
M  V30 9718 H 941.399 -5.49799 -0.00807093 0
M  V30 9719 H 942.624 -6.79047 -0.0846678 0
M  V30 9720 H 940.57 -6.16572 -2.23997 0
M  V30 9721 H 940.487 -7.47795 -1.11082 0
M  V30 9722 H 941.755 -7.44807 -2.29962 0
M  V30 9723 N 945.984 -0.3171 -1.54377 0
M  V30 9724 C 946.894 0.560867 -2.27797 0
M  V30 9725 C 947.91 1.13473 -1.31908 0
M  V30 9726 O 949.086 1.15608 -1.64914 0
M  V30 9727 C 946.151 1.70886 -3.0166 0
M  V30 9728 C 945.212 1.16745 -4.13121 0
M  V30 9729 C 944.445 2.26073 -4.83453 0
M  V30 9730 O 944.668 3.46292 -4.53252 0
M  V30 9731 O 943.602 1.91856 -5.70504 0
M  V30 9732 H 947.428 -0.035193 -3.0368 0
M  V30 9733 H 945.013 -0.0830062 -1.49169 0
M  V30 9734 H 946.895 2.37736 -3.47936 0
M  V30 9735 H 945.57 2.29122 -2.28658 0
M  V30 9736 H 944.477 0.464224 -3.71209 0
M  V30 9737 H 945.81 0.630307 -4.88147 0
M  V30 9738 N 947.462 1.57535 -0.0451378 0
M  V30 9739 C 948.687 1.97172 0.64326 0
M  V30 9740 C 949.112 0.922266 1.63939 0
M  V30 9741 O 948.47 -0.115155 1.80934 0
M  V30 9742 C 948.518 3.35889 1.3119 0
M  V30 9743 O 947.622 3.33387 2.42748 0
M  V30 9744 H 946.963 0.642469 0.167719 0
M  V30 9745 H 949.493 2.04295 -0.111747 0
M  V30 9746 H 949.503 3.72481 1.66499 0
M  V30 9747 H 948.178 4.1181 0.581823 0
M  V30 9748 H 946.755 3.08533 2.09432 0
M  V30 9749 N 948.94 -0.228186 1.55939 0
M  V30 9750 C 950.18 -0.960695 1.80416 0
M  V30 9751 C 950.544 -1.81795 0.617615 0
M  V30 9752 O 951.745 -2.58369 0.741545 0
M  V30 9753 C 950.016 -1.78298 3.09749 0
M  V30 9754 S 951.575 -2.57203 3.55517 0
M  V30 9755 H 948.393 -0.322825 0.633486 0
M  V30 9756 H 950.995 -0.226852 1.94179 0
M  V30 9757 H 949.699 -1.14323 3.94155 0
M  V30 9758 H 949.23 -2.55924 2.98775 0
M  V30 9759 H 951.245 -3.80632 3.1833 0
M  V30 9760 N 950.418 -1.49637 -0.494624 0
M  V30 9761 C 951.664 -1.59681 -1.25019 0
M  V30 9762 C 951.997 -0.285511 -1.9209 0
M  V30 9763 O 951.272 0.711398 -1.81023 0
M  V30 9764 C 951.555 -2.76058 -2.31222 0
M  V30 9765 C 951.408 -4.17002 -1.68611 0
M  V30 9766 C 952.727 -2.88056 -3.32734 0
M  V30 9767 H 949.846 -0.581209 -0.453172 0
M  V30 9768 H 952.488 -1.81944 -0.547391 0
M  V30 9769 H 950.638 -2.57207 -2.91164 0
M  V30 9770 H 952.31 -4.47385 -1.12447 0
M  V30 9771 H 950.553 -4.22352 -0.989991 0
M  V30 9772 H 951.224 -4.94316 -2.45674 0
M  V30 9773 H 953.7 -3.05237 -2.82789 0
M  V30 9774 H 952.576 -3.71151 -4.04399 0
M  V30 9775 H 952.837 -1.97676 -3.95445 0
M  V30 9776 N 951.896 0.746133 -1.38819 0
M  V30 9777 C 952.859 1.84167 -1.36437 0
M  V30 9778 C 953.859 1.58626 -0.263499 0
M  V30 9779 O 955.049 1.66233 -0.520801 0
M  V30 9780 C 952.181 3.21769 -1.12596 0
M  V30 9781 H 953.374 1.87684 -2.33912 0
M  V30 9782 H 950.927 0.948625 -1.24221 0
M  V30 9783 H 951.662 3.23917 -0.15758 0
M  V30 9784 H 951.447 3.41702 -1.92307 0
M  V30 9785 H 952.937 4.0184 -1.13643 0
M  V30 9786 N 953.375 1.23811 0.975125 0
M  V30 9787 C 954.624 1.06741 1.71141 0
M  V30 9788 C 954.937 -0.394986 1.9157 0
M  V30 9789 O 956.143 -0.685723 2.62698 0
M  V30 9790 C 954.599 1.86168 3.08009 0
M  V30 9791 C 954.207 3.36771 2.95448 0
M  V30 9792 C 955.951 1.77604 3.85561 0
M  V30 9793 C 953.858 4.0857 4.2758 0
M  V30 9794 H 952.788 0.395819 0.64175 0
M  V30 9795 H 955.439 1.47825 1.0872 0
M  V30 9796 H 953.821 1.37893 3.71216 0
M  V30 9797 H 954.995 3.92571 2.41298 0
M  V30 9798 H 953.31 3.46205 2.31368 0
M  V30 9799 H 955.907 2.28556 4.83391 0
M  V30 9800 H 956.25 0.739837 4.09673 0
M  V30 9801 H 956.783 2.23519 3.29065 0
M  V30 9802 H 953.522 5.12518 4.08663 0
M  V30 9803 H 953.042 3.57556 4.81574 0
M  V30 9804 H 954.721 4.15157 4.9624 0
M  V30 9805 N 954.853 -1.17469 1.05066 0
M  V30 9806 C 955.8 -2.21443 0.650512 0
M  V30 9807 C 956.77 -1.62441 -0.346702 0
M  V30 9808 O 957.955 -1.89305 -0.238404 0
M  V30 9809 C 955.095 -3.45087 0.0301014 0
M  V30 9810 C 954.208 -4.18385 1.07599 0
M  V30 9811 C 953.343 -5.29513 0.423038 0
M  V30 9812 C 952.382 -5.94596 1.45333 0
M  V30 9813 N 951.519 -6.97241 0.824623 0
M  V30 9814 H 956.359 -2.55025 1.54163 0
M  V30 9815 H 953.896 -1.25274 0.771032 0
M  V30 9816 H 955.854 -4.15754 -0.347032 0
M  V30 9817 H 954.484 -3.12093 -0.824481 0
M  V30 9818 H 953.536 -3.46446 1.57097 0
M  V30 9819 H 954.848 -4.62899 1.85813 0
M  V30 9820 H 954.002 -6.067 -0.00774975 0
M  V30 9821 H 952.741 -4.86129 -0.391092 0
M  V30 9822 H 951.746 -5.16142 1.89415 0
M  V30 9823 H 952.971 -6.40061 2.26934 0
M  V30 9824 H 950.917 -6.55993 0.0309804 0
M  V30 9825 H 950.834 -7.40059 1.54432 0
M  V30 9826 H 952.102 -7.78375 0.418567 0
M  V30 9827 N 956.331 -0.831506 -1.3388 0
M  V30 9828 C 957.559 -0.436925 -2.02234 0
M  V30 9829 C 957.974 0.959689 -1.6259 0
M  V30 9830 O 957.331 1.62248 -0.835576 0
M  V30 9831 C 957.382 -0.539429 -3.57453 0
M  V30 9832 O 957.103 -1.88101 -3.95664 0
M  V30 9833 C 958.604 -0.140852 -4.43076 0
M  V30 9834 H 955.824 -0.174302 -0.647966 0
M  V30 9835 H 958.368 -1.12204 -1.70969 0
M  V30 9836 H 956.523 0.0976959 -3.87277 0
M  V30 9837 H 956.937 -1.86131 -4.90363 0
M  V30 9838 H 958.411 -0.26364 -5.5137 0
M  V30 9839 H 958.888 0.916505 -4.29531 0
M  V30 9840 H 959.494 -0.752117 -4.18597 0
M  V30 9841 N 957.809 1.4625 -0.587256 0
M  V30 9842 C 958.739 2.33132 0.131076 0
M  V30 9843 C 959.72 1.45619 0.879158 0
M  V30 9844 O 960.905 1.74428 0.853723 0
M  V30 9845 C 958.035 3.27975 1.14236 0
M  V30 9846 C 956.989 4.24965 0.508819 0
M  V30 9847 C 956.315 5.09349 1.62689 0
M  V30 9848 C 957.615 5.19322 -0.55694 0
M  V30 9849 H 959.309 2.93442 -0.594333 0
M  V30 9850 H 956.855 1.41106 -0.287263 0
M  V30 9851 H 958.808 3.87614 1.65328 0
M  V30 9852 H 957.532 2.65781 1.8981 0
M  V30 9853 H 956.191 3.66595 0.0189337 0
M  V30 9854 H 955.839 4.43537 2.37242 0
M  V30 9855 H 955.539 5.75036 1.20861 0
M  V30 9856 H 957.063 5.71852 2.14049 0
M  V30 9857 H 958.477 5.73151 -0.130903 0
M  V30 9858 H 956.874 5.93376 -0.895801 0
M  V30 9859 H 957.944 4.62979 -1.44148 0
M  V30 9860 N 959.287 0.325282 1.54207 0
M  V30 9861 C 960.234 -0.539889 2.24397 0
M  V30 9862 C 961.204 -1.11028 1.2354 0
M  V30 9863 O 962.389 -1.1503 1.52226 0
M  V30 9864 C 959.529 -1.69405 3.00659 0
M  V30 9865 C 958.642 -1.15273 4.16337 0
M  V30 9866 C 957.777 -2.27272 4.80126 0
M  V30 9867 C 956.816 -1.70397 5.87904 0
M  V30 9868 N 955.953 -2.76065 6.45548 0
M  V30 9869 H 960.793 0.0652318 2.97929 0
M  V30 9870 H 958.33 0.043964 1.47034 0
M  V30 9871 H 960.288 -2.37325 3.43122 0
M  V30 9872 H 958.918 -2.27043 2.29458 0
M  V30 9873 H 957.97 -0.365034 3.78645 0
M  V30 9874 H 959.282 -0.696576 4.93912 0
M  V30 9875 H 958.436 -3.03092 5.25566 0
M  V30 9876 H 957.175 -2.76224 4.01935 0
M  V30 9877 H 956.18 -0.930752 5.41864 0
M  V30 9878 H 957.405 -1.22319 6.67993 0
M  V30 9879 H 955.351 -3.24306 5.7023 0
M  V30 9880 H 955.268 -2.35018 7.18542 0
M  V30 9881 H 956.536 -3.5171 6.95644 0
M  V30 9882 N 960.765 -1.57509 0.0534917 0
M  V30 9883 C 962.013 -1.92402 -0.618548 0
M  V30 9884 C 962.334 -0.93273 -1.71246 0
M  V30 9885 O 961.604 0.0220495 -1.95888 0
M  V30 9886 H 960.184 -0.710233 -0.23147 0
M  V30 9887 H 962.846 -1.94606 0.10704 0
M  V30 9888 H 961.942 -2.93704 -1.05566 0
M  V30 9889 N 962.243 0.219913 -1.56058 0
M  V30 9890 C 963.491 0.942199 -1.78793 0
M  V30 9891 C 963.812 1.84804 -0.622284 0
M  V30 9892 O 963.082 1.9255 0.360735 0
M  V30 9893 H 961.662 0.350895 -0.659455 0
M  V30 9894 H 964.324 0.231376 -1.93522 0
M  V30 9895 H 963.42 1.54804 -2.71002 0
M  V30 9896 N 963.721 1.49897 0.486681 0
M  V30 9897 C 964.951 1.63599 1.2617 0
M  V30 9898 C 965.359 0.312365 1.86604 0
M  V30 9899 O 964.702 -0.713911 1.6926 0
M  V30 9900 C 964.764 2.65736 2.42125 0
M  V30 9901 C 964.428 4.09711 2.0245 0
M  V30 9902 C 965.425 4.9607 1.55596 0
M  V30 9903 C 963.11 4.55534 2.11647 0
M  V30 9904 C 965.104 6.26295 1.18462 0
M  V30 9905 C 962.791 5.85768 1.74124 0
M  V30 9906 C 963.789 6.70973 1.27608 0
M  V30 9907 O 963.477 7.98778 0.905991 0
M  V30 9908 H 963.209 0.55333 0.388332 0
M  V30 9909 H 965.763 1.96768 0.589195 0
M  V30 9910 H 963.993 2.27778 3.12497 0
M  V30 9911 H 965.682 2.68819 3.04123 0
M  V30 9912 H 966.448 4.61891 1.47925 0
M  V30 9913 H 962.327 3.8937 2.46803 0
M  V30 9914 H 965.871 6.92754 0.820839 0
M  V30 9915 H 961.768 6.19473 1.8145 0
M  V30 9916 H 962.536 8.11914 1.03621 0
M  V30 9917 N 965.199 -0.738761 1.39212 0
M  V30 9918 C 966.427 -1.52801 1.39497 0
M  V30 9919 C 966.842 -1.88797 -0.0114917 0
M  V30 9920 O 966.199 -1.53835 -0.981887 0
M  V30 9921 C 966.25 -2.81793 2.2644 0
M  V30 9922 O 965.971 -2.47328 3.61608 0
M  V30 9923 C 967.472 -3.75844 2.35067 0
M  V30 9924 H 964.692 -0.472322 0.476606 0
M  V30 9925 H 967.236 -0.913153 1.8298 0
M  V30 9926 H 965.391 -3.3962 1.8638 0
M  V30 9927 H 965.805 -3.30162 4.07545 0
M  V30 9928 H 967.279 -4.6326 3.00157 0
M  V30 9929 H 967.756 -4.17329 1.3687 0
M  V30 9930 H 968.362 -3.23937 2.75581 0
M  V30 9931 N 966.677 -1.24326 -0.968545 0
M  V30 9932 C 967.587 -1.05194 -2.09694 0
M  V30 9933 C 968.603 0.00701291 -1.73999 0
M  V30 9934 O 969.779 -0.190981 -2.00492 0
M  V30 9935 C 966.844 -0.658075 -3.40397 0
M  V30 9936 C 965.905 -1.79341 -3.90045 0
M  V30 9937 C 965.138 -1.41824 -5.14511 0
M  V30 9938 O 965.361 -0.307693 -5.69569 0
M  V30 9939 O 964.295 -2.24358 -5.58522 0
M  V30 9940 H 968.121 -1.99791 -2.2873 0
M  V30 9941 H 965.706 -1.03138 -1.08088 0
M  V30 9942 H 967.588 -0.449911 -4.18991 0
M  V30 9943 H 966.263 0.258782 -3.22664 0
M  V30 9944 H 965.17 -2.05632 -3.12516 0
M  V30 9945 H 966.503 -2.68901 -4.12254 0
M  V30 9946 N 968.156 1.1691 -1.05688 0
M  V30 9947 C 969.572 1.39288 -0.779167 0
M  V30 9948 C 969.772 1.91587 0.624231 0
M  V30 9949 O 968.828 2.11072 1.38582 0
M  V30 9950 C 970.141 2.37914 -1.83895 0
M  V30 9951 C 971.689 2.51611 -1.86175 0
M  V30 9952 C 972.164 3.53514 -2.9119 0
M  V30 9953 N 973.655 3.61036 -2.90184 0
M  V30 9954 C 974.39 4.39657 -3.68088 0
M  V30 9955 N 973.886 5.21752 -4.55793 0
M  V30 9956 N 975.679 4.3458 -3.56507 0
M  V30 9957 H 967.83 0.81296 -1.96226 0
M  V30 9958 H 970.093 0.419818 -0.849975 0
M  V30 9959 H 969.799 2.06568 -2.84645 0
M  V30 9960 H 969.673 3.37483 -1.68479 0
M  V30 9961 H 972.06 2.82264 -0.86087 0
M  V30 9962 H 972.141 1.52099 -2.05668 0
M  V30 9963 H 971.785 3.23599 -3.91467 0
M  V30 9964 H 971.715 4.52742 -2.68947 0
M  V30 9965 H 974.206 3.02428 -2.26596 0
M  V30 9966 H 974.519 5.78939 -5.11907 0
M  V30 9967 H 972.864 5.21116 -4.59851 0
M  V30 9968 H 976.055 3.69501 -2.87379 0
M  V30 9969 H 976.228 4.95607 -4.17466 0
M  V30 9970 N 969.634 0.838594 1.33437 0
M  V30 9971 C 970.566 0.229006 2.28053 0
M  V30 9972 C 971.579 -0.590103 1.51729 0
M  V30 9973 O 972.768 -0.417218 1.73556 0
M  V30 9974 C 969.868 -0.696251 3.31671 0
M  V30 9975 C 969.041 0.0834606 4.3732 0
M  V30 9976 C 968.1 -0.765097 5.20608 0
M  V30 9977 O 967.126 -0.2044 5.68833 0
M  V30 9978 N 968.328 -2.08249 5.4186 0
M  V30 9979 H 971.093 1.04196 2.81004 0
M  V30 9980 H 968.654 0.697031 1.46127 0
M  V30 9981 H 970.646 -1.26889 3.84293 0
M  V30 9982 H 969.216 -1.40992 2.78998 0
M  V30 9983 H 968.436 0.837481 3.85201 0
M  V30 9984 H 969.724 0.619613 5.05013 0
M  V30 9985 H 969.122 -2.56156 5.04381 0
M  V30 9986 H 967.679 -2.60362 5.97541 0
M  V30 9987 N 971.112 -1.45937 0.595003 0
M  V30 9988 C 972.528 -1.57507 0.257641 0
M  V30 9989 C 972.728 -1.58829 -1.23998 0
M  V30 9990 O 971.784 -1.51183 -2.02237 0
M  V30 9991 C 973.097 -2.86354 0.917708 0
M  V30 9992 C 974.645 -3.00007 0.892446 0
M  V30 9993 C 975.12 -4.31607 1.53229 0
M  V30 9994 N 976.611 -4.38336 1.49719 0
M  V30 9995 C 977.346 -5.38805 1.96154 0
M  V30 9996 N 976.842 -6.45882 2.50617 0
M  V30 9997 N 978.635 -5.30084 1.86997 0
M  V30 9998 H 970.786 -1.43322 1.56756 0
M  V30 9999 H 973.049 -0.684436 0.655936 0
M  V30 10000 H 972.755 -2.91233 1.97171 0
M  V30 10001 H 972.629 -3.74703 0.433344 0
M  V30 10002 H 975.016 -2.94703 -0.152975 0
M  V30 10003 H 975.097 -2.13103 1.41495 0
M  V30 10004 H 974.741 -4.3767 2.57697 0
M  V30 10005 H 974.671 -5.17308 0.984903 0
M  V30 10006 H 977.162 -3.6156 1.09921 0
M  V30 10007 H 977.475 -7.18774 2.83874 0
M  V30 10008 H 975.82 -6.46668 2.54649 0
M  V30 10009 H 979.011 -4.45337 1.44196 0
M  V30 10010 H 979.184 -6.08237 2.23499 0
M  V30 10011 N 972.59 -0.333456 -1.54032 0
M  V30 10012 C 974.006 0.0188405 -1.59589 0
M  V30 10013 C 974.206 1.49615 -1.34972 0
M  V30 10014 O 973.262 2.2535 -1.13901 0
M  V30 10015 C 974.575 -0.408273 -2.97915 0
M  V30 10016 C 976.123 -0.359763 -3.10926 0
M  V30 10017 C 976.598 -0.76219 -4.51613 0
M  V30 10018 N 978.089 -0.715981 -4.57633 0
M  V30 10019 C 978.824 -0.999436 -5.64623 0
M  V30 10020 N 978.32 -1.35053 -6.79509 0
M  V30 10021 N 980.113 -0.924343 -5.54448 0
M  V30 10022 H 972.264 -1.29587 -1.68289 0
M  V30 10023 H 974.527 -0.527584 -0.787629 0
M  V30 10024 H 974.233 -1.43793 -3.20962 0
M  V30 10025 H 974.107 0.221685 -3.76548 0
M  V30 10026 H 976.494 0.660703 -2.87609 0
M  V30 10027 H 976.575 -1.02479 -2.34375 0
M  V30 10028 H 976.219 -1.78062 -4.75664 0
M  V30 10029 H 976.149 -0.0747478 -5.26547 0
M  V30 10030 H 978.64 -0.456875 -3.75128 0
M  V30 10031 H 978.953 -1.55194 -7.57057 0
M  V30 10032 H 977.298 -1.38889 -6.80981 0
M  V30 10033 H 980.489 -0.649469 -4.63573 0
M  V30 10034 H 980.662 -1.1486 -6.37739 0
M  V30 10035 N 974.068 1.57479 -0.061844 0
M  V30 10036 C 974.978 2.15645 0.923826 0
M  V30 10037 C 975.994 1.117 1.33413 0
M  V30 10038 O 977.17 1.4392 1.40887 0
M  V30 10039 C 974.235 2.69857 2.17665 0
M  V30 10040 C 973.296 3.88638 1.8237 0
M  V30 10041 C 972.529 4.40256 3.01679 0
M  V30 10042 O 972.752 3.90908 4.15388 0
M  V30 10043 O 971.686 5.31713 2.82073 0
M  V30 10044 H 975.512 3.0021 0.459094 0
M  V30 10045 H 973.097 1.48534 0.160665 0
M  V30 10046 H 974.979 3.04647 2.9115 0
M  V30 10047 H 973.654 1.88357 2.63255 0
M  V30 10048 H 972.561 3.58719 1.06167 0
M  V30 10049 H 973.894 4.71401 1.4157 0
M  V30 10050 N 975.546 -0.211634 1.56173 0
M  V30 10051 C 976.793 -0.93455 1.79645 0
M  V30 10052 C 977.121 -1.83936 0.632294 0
M  V30 10053 O 976.376 -1.91919 -0.382841 0
M  V30 10054 C 976.675 -1.79657 3.08963 0
M  V30 10055 C 976.341 -1.04415 4.38644 0
M  V30 10056 C 975.003 -0.836351 4.73876 0
M  V30 10057 C 977.355 -0.51355 5.18664 0
M  V30 10058 C 974.683 -0.0861976 5.86637 0
M  V30 10059 C 977.035 0.223309 6.32206 0
M  V30 10060 C 975.699 0.442279 6.66033 0
M  V30 10061 H 974.969 -0.341976 0.657368 0
M  V30 10062 H 977.616 -0.202024 1.90431 0
M  V30 10063 H 975.921 -2.59726 2.93342 0
M  V30 10064 H 977.618 -2.35823 3.24328 0
M  V30 10065 H 974.208 -1.21611 4.10985 0
M  V30 10066 H 978.392 -0.661541 4.91871 0
M  V30 10067 H 973.648 0.0935866 6.11328 0
M  V30 10068 H 977.822 0.641917 6.93435 0
M  V30 10069 H 975.449 1.02547 7.53252 0
M  V30 10070 N 977.024 -1.50153 -0.478725 0
M  V30 10071 C 977.954 -1.71384 -1.58587 0
M  V30 10072 C 978.935 -0.562705 -1.60523 0
M  V30 10073 O 980.12 -0.80101 -1.76911 0
M  V30 10074 C 977.25 -1.80094 -2.96957 0
M  V30 10075 C 976.204 -2.95218 -3.09888 0
M  V30 10076 C 975.53 -2.89063 -4.49829 0
M  V30 10077 C 976.83 -4.35841 -2.8782 0
M  V30 10078 H 978.524 -2.64081 -1.41073 0
M  V30 10079 H 976.07 -1.27081 -0.677239 0
M  V30 10080 H 978.023 -1.93531 -3.74331 0
M  V30 10081 H 976.747 -0.840131 -3.1561 0
M  V30 10082 H 975.406 -2.81419 -2.34944 0
M  V30 10083 H 975.054 -1.90844 -4.6539 0
M  V30 10084 H 974.754 -3.66345 -4.59418 0
M  V30 10085 H 976.278 -3.04539 -5.29234 0
M  V30 10086 H 977.692 -4.50205 -3.54948 0
M  V30 10087 H 976.089 -5.14515 -3.0886 0
M  V30 10088 H 977.159 -4.48739 -1.83742 0
M  V30 10089 N 978.502 0.731368 -1.39602 0
M  V30 10090 C 979.727 1.52567 -1.40492 0
M  V30 10091 C 980.152 1.881 -0.00228828 0
M  V30 10092 O 979.51 1.52167 0.985643 0
M  V30 10093 C 979.558 2.78749 -2.2876 0
M  V30 10094 O 978.662 3.7482 -1.71999 0
M  V30 10095 H 978.003 0.460601 -0.478271 0
M  V30 10096 H 980.533 0.902042 -1.83642 0
M  V30 10097 H 980.543 3.27446 -2.43399 0
M  V30 10098 H 979.218 2.5222 -3.30693 0
M  V30 10099 H 977.795 3.33604 -1.66622 0
M  V30 10100 N 979.98 1.24838 0.961938 0
M  V30 10101 C 980.89 1.06304 2.09133 0
M  V30 10102 C 981.906 0.00221475 1.74 0
M  V30 10103 O 983.082 0.201611 2.00388 0
M  V30 10104 C 980.147 0.676117 3.40043 0
M  V30 10105 C 979.208 1.81407 3.89089 0
M  V30 10106 C 978.441 1.44551 5.13752 0
M  V30 10107 O 978.664 0.337894 5.69398 0
M  V30 10108 O 977.598 2.27316 5.57325 0
M  V30 10109 H 981.424 2.01001 2.27667 0
M  V30 10110 H 979.009 1.0371 1.07539 0
M  V30 10111 H 980.891 0.472124 4.18747 0
M  V30 10112 H 979.566 -0.241667 3.22797 0
M  V30 10113 H 978.473 2.07286 3.11421 0
M  V30 10114 H 979.806 2.71083 4.10822 0
M  V30 10115 N 981.458 -1.16348 1.06306 0
M  V30 10116 C 982.421 -2.18941 0.678053 0
M  V30 10117 C 983.421 -1.58409 -0.276277 0
M  V30 10118 O 984.611 -1.74101 -0.0586435 0
M  V30 10119 C 981.743 -3.409 -0.00228684 0
M  V30 10120 H 982.936 -2.54516 1.58624 0
M  V30 10121 H 980.489 -1.30625 0.858298 0
M  V30 10122 H 981.224 -3.10881 -0.923212 0
M  V30 10123 H 981.009 -3.86089 0.683949 0
M  V30 10124 H 982.499 -4.16806 -0.257374 0
M  V30 10125 N 982.937 -0.845659 -1.3299 0
M  V30 10126 C 984.162 -0.457435 -2.02293 0
M  V30 10127 C 984.587 0.935634 -1.63179 0
M  V30 10128 O 983.945 1.61297 -0.827835 0
M  V30 10129 C 983.993 -0.593665 -3.5568 0
M  V30 10130 O 983.097 0.37729 -4.10671 0
M  V30 10131 H 982.438 -0.185022 -0.637701 0
M  V30 10132 H 984.968 -1.14237 -1.69738 0
M  V30 10133 H 984.978 -0.477834 -4.05192 0
M  V30 10134 H 983.653 -1.60957 -3.83491 0
M  V30 10135 H 982.23 0.218448 -3.7226 0
M  V30 10136 N 984.415 1.45619 -0.602734 0
M  V30 10137 C 985.664 2.01483 -0.0936395 0
M  V30 10138 C 985.977 1.47753 1.28173 0
M  V30 10139 O 987.183 1.95562 1.88329 0
M  V30 10140 C 985.639 3.59711 -0.116738 0
M  V30 10141 C 985.247 4.22437 -1.49166 0
M  V30 10142 C 986.991 4.23157 0.337368 0
M  V30 10143 C 984.898 5.72803 -1.47141 0
M  V30 10144 H 983.828 0.753353 -0.0312382 0
M  V30 10145 H 986.479 1.67142 -0.757347 0
M  V30 10146 H 984.861 3.91218 0.613529 0
M  V30 10147 H 986.035 4.02511 -2.24325 0
M  V30 10148 H 984.35 3.71166 -1.88746 0
M  V30 10149 H 986.947 5.33407 0.371628 0
M  V30 10150 H 987.29 3.93491 1.35906 0
M  V30 10151 H 987.823 3.96349 -0.339474 0
M  V30 10152 H 984.562 6.07161 -2.47055 0
M  V30 10153 H 984.082 5.94936 -0.762329 0
M  V30 10154 H 985.761 6.35907 -1.19294 0
M  V30 10155 N 985.893 0.34162 1.53853 0
M  V30 10156 C 986.826 -0.559051 2.21246 0
M  V30 10157 C 987.804 -1.10179 1.1958 0
M  V30 10158 O 988.988 -1.16242 1.48392 0
M  V30 10159 C 986.115 -1.7689 2.88838 0
M  V30 10160 C 985.161 -1.3558 4.04377 0
M  V30 10161 S 985.994 -0.377225 5.3417 0
M  V30 10162 C 987.15 -1.59395 6.05264 0
M  V30 10163 H 987.383 0.013373 2.97297 0
M  V30 10164 H 984.916 0.125694 1.53888 0
M  V30 10165 H 986.874 -2.463 3.284 0
M  V30 10166 H 985.535 -2.31254 2.12557 0
M  V30 10167 H 984.728 -2.25781 4.50599 0
M  V30 10168 H 984.33 -0.741197 3.66582 0
M  V30 10169 H 986.622 -2.52872 6.2854 0
M  V30 10170 H 987.565 -1.17356 6.98307 0
M  V30 10171 H 987.973 -1.78913 5.35397 0
M  V30 10172 N 987.371 -1.57444 0.0701946 0
M  V30 10173 C 988.619 -1.93047 -0.598106 0
M  V30 10174 C 988.94 -0.950841 -1.70247 0
M  V30 10175 O 988.21 0.00127177 -1.959 0
M  V30 10176 H 986.79 -0.712648 -0.223924 0
M  V30 10177 H 989.452 -1.94481 0.127674 0
M  V30 10178 H 988.548 -2.94807 -1.02445 0
M  V30 10179 N 988.849 0.203349 -1.56283 0
M  V30 10180 C 989.781 1.27592 -1.90402 0
M  V30 10181 C 990.794 1.4213 -0.79391 0
M  V30 10182 O 991.983 1.42703 -1.07229 0
M  V30 10183 C 989.083 2.64919 -2.11356 0
M  V30 10184 C 988.256 2.72095 -3.42466 0
M  V30 10185 C 987.315 3.9056 -3.52631 0
M  V30 10186 O 986.341 3.78048 -4.25521 0
M  V30 10187 N 987.543 5.0566 -2.85111 0
M  V30 10188 H 990.308 0.986423 -2.83001 0
M  V30 10189 H 987.869 0.39331 -1.5705 0
M  V30 10190 H 989.861 3.42581 -2.15453 0
M  V30 10191 H 988.431 2.86391 -1.25295 0
M  V30 10192 H 987.651 1.8077 -3.50308 0
M  V30 10193 H 988.939 2.73874 -4.28801 0
M  V30 10194 H 988.337 5.18723 -2.25705 0
M  V30 10195 H 986.894 5.81299 -2.94847 0
M  V30 10196 N 990.327 1.50405 0.470755 0
M  V30 10197 C 991.574 1.61411 1.22281 0
M  V30 10198 C 991.902 0.314603 1.91939 0
M  V30 10199 O 991.157 -0.699531 1.82771 0
M  V30 10200 C 991.456 2.74426 2.28965 0
M  V30 10201 C 991.122 4.14896 1.76557 0
M  V30 10202 C 989.784 4.53116 1.61985 0
M  V30 10203 C 992.136 5.02686 1.3768 0
M  V30 10204 C 989.464 5.76868 1.0696 0
M  V30 10205 C 991.816 6.26985 0.840967 0
M  V30 10206 C 990.48 6.64008 0.68188 0
M  V30 10207 H 989.75 0.590645 0.447459 0
M  V30 10208 H 992.397 1.84339 0.518783 0
M  V30 10209 H 990.702 2.45588 3.05277 0
M  V30 10210 H 992.399 2.80146 2.86914 0
M  V30 10211 H 988.989 3.84743 1.88867 0
M  V30 10212 H 993.173 4.7379 1.47772 0
M  V30 10213 H 988.429 6.04227 0.933808 0
M  V30 10214 H 992.603 6.94372 0.531066 0
M  V30 10215 H 990.23 7.59778 0.25335 0
M  V30 10216 N 991.805 -0.723954 1.39988 0
M  V30 10217 C 992.715 -1.86829 1.41887 0
M  V30 10218 C 993.731 -1.71173 0.312401 0
M  V30 10219 O 994.907 -1.93583 0.555651 0
M  V30 10220 C 991.972 -3.22541 1.27154 0
M  V30 10221 C 991.033 -3.50512 2.47871 0
M  V30 10222 C 990.266 -4.79749 2.33831 0
M  V30 10223 O 990.489 -5.54251 1.34765 0
M  V30 10224 O 989.423 -5.07868 3.23039 0
M  V30 10225 H 993.249 -1.88183 2.38371 0
M  V30 10226 H 990.834 -0.873259 1.21221 0
M  V30 10227 H 992.716 -4.0362 1.21114 0
M  V30 10228 H 991.391 -3.21933 0.337715 0
M  V30 10229 H 990.298 -2.69475 2.59488 0
M  V30 10230 H 991.631 -3.55909 3.39985 0
M  V30 10231 N 993.283 -1.25346 -0.955304 0
M  V30 10232 C 994.233 -1.02358 -2.03732 0
M  V30 10233 C 995.217 0.0392941 -1.60852 0
M  V30 10234 O 996.409 -0.175959 -1.76123 0
M  V30 10235 C 993.538 -0.643552 -3.37214 0
M  V30 10236 C 992.624 -1.74315 -3.8662 0
M  V30 10237 N 993.015 -2.97816 -4.08827 0
M  V30 10238 C 991.313 -1.62351 -4.15401 0
M  V30 10239 C 992.014 -3.69185 -4.4953 0
M  V30 10240 N 990.99 -2.96803 -4.55422 0
M  V30 10241 H 994.792 -1.96119 -2.18894 0
M  V30 10242 H 992.306 -1.15655 -1.14007 0
M  V30 10243 H 994.303 -0.460053 -4.14354 0
M  V30 10244 H 992.963 0.286738 -3.23431 0
M  V30 10245 H 993.974 -3.33868 -3.95919 0
M  V30 10246 H 990.651 -0.762133 -4.10485 0
M  V30 10247 H 992.041 -4.7519 -4.7502 0
M  V30 10248 N 994.761 1.15782 -1.06922 0
M  V30 10249 C 996.172 1.68062 -0.813144 0
M  V30 10250 C 996.523 1.84681 0.662374 0
M  V30 10251 O 995.648 1.54696 1.51321 0
M  V30 10252 C 996.243 3.05273 -1.46949 0
M  V30 10253 C 994.802 3.54647 -1.26104 0
M  V30 10254 C 993.949 2.30477 -1.54194 0
M  V30 10255 H 996.9 1.00056 -1.23185 0
M  V30 10256 H 996.921 3.69986 -0.888308 0
M  V30 10257 H 996.433 2.93145 -2.54337 0
M  V30 10258 H 994.534 3.72024 -0.20718 0
M  V30 10259 H 994.647 4.36354 -1.97819 0
M  V30 10260 H 993.011 2.35803 -0.96276 0
M  V30 10261 H 993.794 2.2094 -2.62755 0
M  V30 10262 N 996.239 0.8527 1.3254 0
M  V30 10263 C 997.187 0.284659 2.30852 0
M  V30 10264 C 998.181 -0.5909 1.5876 0
M  V30 10265 O 999.387 -0.478922 1.73512 0
M  V30 10266 H 995.762 0.0733452 0.748415 0
M  V30 10267 H 997.733 1.1281 2.76254 0
M  V30 10268 C 996.482 -0.51379 3.43883 0
M  V30 10269 H 995.805 0.150644 3.99516 0
M  V30 10270 H 997.245 -0.876866 4.14834 0
M  V30 10271 C 995.704 -1.69823 2.90967 0
M  V30 10272 O 996.234 -2.79727 2.88298 0
M  V30 10273 N 994.44 -1.52465 2.47392 0
M  V30 10274 H 993.987 -0.630599 2.49762 0
M  V30 10275 H 993.945 -2.31859 2.12341 0
M  V30 10276 N 997.718 -1.45297 0.610449 0
M  V30 10277 C 998.967 -2.0143 0.104323 0
M  V30 10278 C 999.28 -1.48431 -1.27388 0
M  V30 10279 O 1000.49 -1.96558 -1.87289 0
M  V30 10280 C 998.942 -3.59644 0.135812 0
M  V30 10281 C 998.55 -4.2164 1.51405 0
M  V30 10282 C 1000.29 -4.2333 -0.314922 0
M  V30 10283 C 998.201 -5.72015 1.50176 0
M  V30 10284 H 997.131 -0.753176 0.035233 0
M  V30 10285 H 999.782 -1.66738 0.7662 0
M  V30 10286 H 998.164 -3.91538 -0.592773 0
M  V30 10287 H 999.338 -4.01315 2.26457 0
M  V30 10288 H 997.653 -3.70159 1.90712 0
M  V30 10289 H 1000.25 -5.33597 -0.343335 0
M  V30 10290 H 1000.59 -3.94206 -1.33817 0
M  V30 10291 H 1001.13 -3.96163 0.360489 0
M  V30 10292 H 997.865 -6.05842 2.50271 0
M  V30 10293 H 997.385 -5.94523 0.793869 0
M  V30 10294 H 999.064 -6.35266 1.22665 0
M  V30 10295 N 999.196 -0.349774 -1.5367 0
M  V30 10296 C 1000.44 0.245862 -2.00196 0
M  V30 10297 C 1000.76 1.51154 -1.24144 0
M  V30 10298 O 1001.96 2.18481 -1.61178 0
M  V30 10299 C 1000.42 0.488665 -3.56567 0
M  V30 10300 C 1000.03 -0.761475 -4.41481 0
M  V30 10301 C 1001.77 1.04282 -4.11492 0
M  V30 10302 C 999.679 -0.489128 -5.89374 0
M  V30 10303 H 998.609 0.0956493 -0.747909 0
M  V30 10304 H 1001.26 -0.466068 -1.77483 0
M  V30 10305 H 999.642 1.26145 -3.75371 0
M  V30 10306 H 1000.82 -1.53585 -4.34452 0
M  V30 10307 H 999.131 -1.23771 -3.9758 0
M  V30 10308 H 1001.73 1.26164 -5.19603 0
M  V30 10309 H 1002.07 2.00023 -3.65098 0
M  V30 10310 H 1002.6 0.330582 -3.96424 0
M  V30 10311 H 999.343 -1.41643 -6.40014 0
M  V30 10312 H 998.863 0.247039 -5.99291 0
M  V30 10313 H 1000.54 -0.1087 -6.46909 0
M  V30 10314 N 1000.67 1.57404 -0.0785433 0
M  V30 10315 C 1002.09 1.57158 0.2781 0
M  V30 10316 C 1002.29 1.08847 1.69572 0
M  V30 10317 O 1001.35 0.757407 2.40873 0
M  V30 10318 C 1002.66 3.00589 0.0816067 0
M  V30 10319 C 1004.21 3.12637 0.150627 0
M  V30 10320 C 1004.68 4.57997 -0.0176685 0
M  V30 10321 N 1006.17 4.63185 0.0377145 0
M  V30 10322 C 1006.91 5.7336 -0.0679907 0
M  V30 10323 N 1006.4 6.92426 -0.227598 0
M  V30 10324 N 1008.2 5.62099 -0.0104424 0
M  V30 10325 H 1000.35 1.87121 -1.00496 0
M  V30 10326 H 1002.61 0.862937 -0.392484 0
M  V30 10327 H 1002.32 3.40072 -0.896869 0
M  V30 10328 H 1002.19 3.67931 0.831046 0
M  V30 10329 H 1004.58 2.73037 1.11959 0
M  V30 10330 H 1004.66 2.4792 -0.630028 0
M  V30 10331 H 1004.3 4.98288 -0.983431 0
M  V30 10332 H 1004.23 5.20754 0.782475 0
M  V30 10333 H 1006.72 3.77564 0.159208 0
M  V30 10334 H 1007.04 7.72217 -0.300217 0
M  V30 10335 H 1005.38 6.94502 -0.263049 0
M  V30 10336 H 1008.57 4.67964 0.112999 0
M  V30 10337 H 1008.75 6.47928 -0.0962747 0
M  V30 10338 N 1002.15 -0.195058 1.56388 0
M  V30 10339 C 1003.08 -1.24444 1.97575 0
M  V30 10340 C 1004.06 -1.47471 0.847717 0
M  V30 10341 O 1005.25 -1.59208 1.11205 0
M  V30 10342 C 1002.38 -2.58866 2.31529 0
M  V30 10343 C 1001.33 -2.50451 3.47071 0
M  V30 10344 C 1000.66 -3.89146 3.667 0
M  V30 10345 C 1001.96 -2.02953 4.81256 0
M  V30 10346 H 1003.65 -0.902178 2.85484 0
M  V30 10347 H 1001.2 -0.43254 1.3735 0
M  V30 10348 H 1003.15 -3.3246 2.58936 0
M  V30 10349 H 1001.87 -2.94833 1.40502 0
M  V30 10350 H 1000.53 -1.79313 3.19754 0
M  V30 10351 H 1000.18 -4.22466 2.73004 0
M  V30 10352 H 999.882 -3.84391 4.44429 0
M  V30 10353 H 1001.41 -4.64363 3.96484 0
M  V30 10354 H 1002.82 -2.66306 5.07695 0
M  V30 10355 H 1001.22 -2.092 5.62455 0
M  V30 10356 H 1002.29 -0.982757 4.74837 0
M  V30 10357 N 1003.63 -1.50653 -0.462772 0
M  V30 10358 C 1004.54 -1.72923 -1.58539 0
M  V30 10359 C 1005.56 -0.612577 -1.6286 0
M  V30 10360 O 1006.73 -0.891885 -1.80575 0
M  V30 10361 C 1003.8 -1.82623 -2.94703 0
M  V30 10362 C 1002.86 -3.06392 -3.00704 0
M  V30 10363 C 1002.09 -3.15618 -4.30373 0
M  V30 10364 O 1002.31 -2.31423 -5.21344 0
M  V30 10365 O 1001.25 -4.0841 -4.42136 0
M  V30 10366 H 1005.07 -2.68103 -1.42669 0
M  V30 10367 H 1002.66 -1.34848 -0.643144 0
M  V30 10368 H 1004.54 -1.91134 -3.7556 0
M  V30 10369 H 1003.22 -0.906275 -3.10754 0
M  V30 10370 H 1002.12 -3.03375 -2.18894 0
M  V30 10371 H 1003.46 -3.97992 -2.89591 0
M  V30 10372 N 1005.11 0.71652 -1.4037 0
M  V30 10373 C 1006.36 1.47347 -1.38324 0
M  V30 10374 C 1006.68 1.94995 0.0139949 0
M  V30 10375 O 1005.95 1.7028 0.968585 0
M  V30 10376 H 1004.53 0.546662 -0.509087 0
M  V30 10377 H 1007.19 0.849455 -1.75415 0
M  V30 10378 H 1006.29 2.34675 -2.05752 0
M  V30 10379 N 1006.59 1.25851 0.948643 0
M  V30 10380 C 1007.83 1.11119 1.69648 0
M  V30 10381 C 1008.17 -0.345995 1.91093 0
M  V30 10382 O 1007.44 -1.25467 1.48621 0
M  V30 10383 C 1007.72 1.87261 3.0758 0
M  V30 10384 C 1007.58 3.40842 2.93507 0
M  V30 10385 C 1008.9 1.6605 4.07573 0
M  V30 10386 H 1006.01 0.405052 0.615713 0
M  V30 10387 H 1008.66 1.54756 1.10229 0
M  V30 10388 H 1006.81 1.50172 3.58303 0
M  V30 10389 H 1008.48 3.87641 2.50064 0
M  V30 10390 H 1006.72 3.68248 2.29294 0
M  V30 10391 H 1007.39 3.89339 3.91305 0
M  V30 10392 H 1009.87 1.98348 3.65783 0
M  V30 10393 H 1008.74 2.21753 5.02113 0
M  V30 10394 H 1009.01 0.603256 4.37965 0
M  V30 10395 N 1008.06 -1.15214 1.07534 0
M  V30 10396 C 1009.31 -1.86319 0.800814 0
M  V30 10397 C 1009.64 -1.82221 -0.671494 0
M  V30 10398 O 1008.92 -1.24664 -1.49295 0
M  V30 10399 C 1009.2 -3.35347 1.31203 0
M  V30 10400 C 1009.05 -3.48067 2.84902 0
M  V30 10401 C 1010.37 -4.3016 0.930064 0
M  V30 10402 H 1007.49 -0.676523 0.292379 0
M  V30 10403 H 1010.13 -1.35349 1.33344 0
M  V30 10404 H 1008.28 -3.78886 0.858949 0
M  V30 10405 H 1009.96 -3.13379 3.38514 0
M  V30 10406 H 1008.2 -2.89566 3.23008 0
M  V30 10407 H 1008.87 -4.52782 3.15741 0
M  V30 10408 H 1011.35 -3.94591 1.3205 0
M  V30 10409 H 1010.22 -5.32914 1.31507 0
M  V30 10410 H 1010.48 -4.41796 -0.163824 0
M  V30 10411 N 1009.54 -0.859717 -1.32086 0
M  V30 10412 C 1010.77 -0.479724 -2.01262 0
M  V30 10413 C 1011.19 0.924985 -1.64589 0
M  V30 10414 O 1010.54 1.60439 -0.869803 0
M  V30 10415 C 1010.59 -0.615128 -3.56228 0
M  V30 10416 O 1010.31 -1.96451 -3.91585 0
M  V30 10417 C 1011.82 -0.234804 -4.42678 0
M  V30 10418 H 1009.04 -0.188007 -0.644123 0
M  V30 10419 H 1011.58 -1.15805 -1.68551 0
M  V30 10420 H 1009.73 0.0155268 -3.87397 0
M  V30 10421 H 1010.15 -1.96491 -4.86304 0
M  V30 10422 H 1011.62 -0.380534 -5.50687 0
M  V30 10423 H 1012.1 0.825189 -4.31378 0
M  V30 10424 H 1012.71 -0.840739 -4.16907 0
M  V30 10425 N 1011.02 1.44971 -0.618145 0
M  V30 10426 C 1011.97 2.32354 0.106846 0
M  V30 10427 C 1012.96 1.4659 0.848984 0
M  V30 10428 O 1014.17 1.63012 0.763354 0
M  V30 10429 H 1010.54 0.750108 0.0533109 0
M  V30 10430 H 1012.51 2.9127 -0.648426 0
M  V30 10431 C 1011.26 3.30381 1.08368 0
M  V30 10432 H 1010.59 3.96377 0.52205 0
M  V30 10433 H 1012.03 3.94231 1.56069 0
M  V30 10434 C 1010.49 2.58336 2.1625 0
M  V30 10435 O 1011.02 2.37258 3.24148 0
M  V30 10436 N 1009.22 2.18292 1.91825 0
M  V30 10437 H 1008.77 2.35635 1.04086 0
M  V30 10438 H 1008.73 1.70413 2.6421 0
M  V30 10439 N 1012.5 0.357919 1.53482 0
M  V30 10440 C 1013.72 -0.237769 2.06033 0
M  V30 10441 C 1014.15 -1.42292 1.23023 0
M  V30 10442 O 1013.51 -1.79604 0.247427 0
M  V30 10443 C 1013.55 -0.616806 3.55286 0
M  V30 10444 O 1012.66 -1.71503 3.75047 0
M  V30 10445 H 1012 -0.0364322 0.663 0
M  V30 10446 H 1014.53 0.516301 1.97979 0
M  V30 10447 H 1014.54 -0.88996 3.98175 0
M  V30 10448 H 1013.21 0.249825 4.15149 0
M  V30 10449 H 1011.79 -1.43803 3.44057 0
M  V30 10450 N 1013.98 -1.5736 0.0868897 0
M  V30 10451 C 1014.91 -2.09211 -0.911382 0
M  V30 10452 C 1015.89 -1.00072 -1.28157 0
M  V30 10453 O 1017.07 -1.27514 -1.38825 0
M  V30 10454 C 1014.2 -2.56229 -2.21504 0
M  V30 10455 C 1013.24 -3.76948 -1.99531 0
M  V30 10456 S 1014.08 -5.20926 -1.24083 0
M  V30 10457 C 1015.23 -5.71288 -2.55697 0
M  V30 10458 H 1015.47 -2.93557 -0.470245 0
M  V30 10459 H 1013 -1.53883 -0.126218 0
M  V30 10460 H 1014.96 -2.83978 -2.96424 0
M  V30 10461 H 1013.62 -1.72123 -2.6274 0
M  V30 10462 H 1012.81 -4.07887 -2.96048 0
M  V30 10463 H 1012.41 -3.4965 -1.32744 0
M  V30 10464 H 1014.71 -5.79054 -3.51714 0
M  V30 10465 H 1015.65 -6.6993 -2.29347 0
M  V30 10466 H 1016.06 -4.99178 -2.63594 0
M  V30 10467 N 1015.45 0.186762 -1.56489 0
M  V30 10468 C 1016.87 0.750675 -1.70944 0
M  V30 10469 C 1017.22 1.83483 -0.694858 0
M  V30 10470 O 1016.34 2.159 0.147009 0
M  V30 10471 C 1016.94 1.36843 -3.09934 0
M  V30 10472 C 1015.5 1.87934 -3.26125 0
M  V30 10473 C 1014.64 0.75242 -2.66897 0
M  V30 10474 H 1017.59 -0.0384292 -1.58653 0
M  V30 10475 H 1017.61 2.23795 -3.07727 0
M  V30 10476 H 1017.13 0.579135 -3.83755 0
M  V30 10477 H 1015.23 2.69556 -2.57235 0
M  V30 10478 H 1015.34 2.0354 -4.33715 0
M  V30 10479 H 1013.7 1.16888 -2.26295 0
M  V30 10480 H 1014.49 -0.0247769 -3.43291 0
M  V30 10481 N 1016.93 1.50896 0.454776 0
M  V30 10482 C 1018.18 1.6294 1.20741 0
M  V30 10483 C 1018.51 0.336339 1.91265 0
M  V30 10484 O 1017.79 -0.663153 1.82846 0
M  V30 10485 C 1018.07 2.82092 2.23822 0
M  V30 10486 C 1017.92 4.21326 1.57495 0
M  V30 10487 C 1019.24 2.96777 3.24979 0
M  V30 10488 H 1016.36 0.59302 0.437603 0
M  V30 10489 H 1019 1.83331 0.498959 0
M  V30 10490 H 1017.15 2.64837 2.84243 0
M  V30 10491 H 1018.82 4.50209 1.00546 0
M  V30 10492 H 1017.07 4.24829 0.877664 0
M  V30 10493 H 1017.74 5.00656 2.32482 0
M  V30 10494 H 1020.21 3.12627 2.74597 0
M  V30 10495 H 1019.09 3.81742 3.94416 0
M  V30 10496 H 1019.35 2.08091 3.90065 0
M  V30 10497 N 1018.41 -0.709066 1.40748 0
M  V30 10498 C 1019.34 -1.83293 1.35937 0
M  V30 10499 C 1020.32 -1.60983 0.22871 0
M  V30 10500 O 1021.51 -1.8391 0.413435 0
M  V30 10501 C 1018.63 -3.19746 1.11714 0
M  V30 10502 C 1017.68 -3.60872 2.27319 0
M  V30 10503 S 1018.51 -3.67233 3.89743 0
M  V30 10504 C 1019.67 -5.06434 3.67797 0
M  V30 10505 H 1019.9 -1.87095 2.31047 0
M  V30 10506 H 1017.43 -0.876479 1.27111 0
M  V30 10507 H 1019.39 -3.98526 0.984245 0
M  V30 10508 H 1018.05 -3.1357 0.182472 0
M  V30 10509 H 1017.25 -4.59965 2.06029 0
M  V30 10510 H 1016.85 -2.89366 2.36946 0
M  V30 10511 H 1019.14 -5.93544 3.26668 0
M  V30 10512 H 1020.08 -5.32761 4.66445 0
M  V30 10513 H 1020.49 -4.77336 3.01348 0
M  V30 10514 N 1019.89 -1.26353 -0.941956 0
M  V30 10515 C 1021.14 -1.11241 -1.68251 0
M  V30 10516 C 1021.45 0.344055 -1.9255 0
M  V30 10517 O 1022.66 0.615832 -2.64423 0
M  V30 10518 C 1021.11 -1.94269 -3.02965 0
M  V30 10519 C 1020.72 -3.44485 -2.86415 0
M  V30 10520 C 1022.47 -1.87764 -3.80716 0
M  V30 10521 C 1020.37 -4.19763 -4.16597 0
M  V30 10522 H 1019.3 -0.412694 -0.63103 0
M  V30 10523 H 1021.95 -1.50656 -1.04762 0
M  V30 10524 H 1020.34 -1.47687 -3.6743 0
M  V30 10525 H 1021.51 -3.9883 -2.30805 0
M  V30 10526 H 1019.82 -3.52218 -2.22107 0
M  V30 10527 H 1022.42 -2.41292 -4.77161 0
M  V30 10528 H 1022.76 -0.848195 -4.07568 0
M  V30 10529 H 1023.3 -2.32165 -3.23024 0
M  V30 10530 H 1020.04 -5.23173 -3.9493 0
M  V30 10531 H 1019.56 -3.70198 -4.71925 0
M  V30 10532 H 1021.24 -4.28168 -4.85058 0
M  V30 10533 N 1021.37 1.14642 -1.08144 0
M  V30 10534 C 1022.3 2.21775 -0.730609 0
M  V30 10535 C 1023.28 1.67683 0.285702 0
M  V30 10536 O 1024.46 1.93567 0.156667 0
M  V30 10537 C 1021.59 3.47033 -0.136242 0
M  V30 10538 C 1020.55 4.14134 -1.0806 0
M  V30 10539 C 1019.87 5.33563 -0.348585 0
M  V30 10540 C 1021.17 4.62978 -2.41761 0
M  V30 10541 H 1022.87 2.51378 -1.62633 0
M  V30 10542 H 1020.41 1.20825 -0.783411 0
M  V30 10543 H 1022.37 4.21226 0.121182 0
M  V30 10544 H 1021.09 3.16786 0.7946 0
M  V30 10545 H 1019.75 3.41892 -1.32308 0
M  V30 10546 H 1019.4 4.99575 0.585974 0
M  V30 10547 H 1019.1 5.79402 -0.978122 0
M  V30 10548 H 1020.62 6.10519 -0.0991508 0
M  V30 10549 H 1022.04 5.28659 -2.21795 0
M  V30 10550 H 1020.43 5.1951 -3.00383 0
M  V30 10551 H 1021.5 3.78189 -3.03482 0
M  V30 10552 N 1022.85 0.866709 1.31628 0
M  V30 10553 C 1024.07 0.49039 2.01004 0
M  V30 10554 C 1024.49 -0.916244 1.65077 0
M  V30 10555 O 1023.85 -1.59975 0.8783 0
M  V30 10556 C 1023.9 0.634011 3.55897 0
M  V30 10557 O 1023.62 1.98525 3.90537 0
M  V30 10558 C 1025.12 0.258277 4.42547 0
M  V30 10559 H 1022.34 0.191421 0.643117 0
M  V30 10560 H 1024.88 1.16698 1.67934 0
M  V30 10561 H 1023.04 0.00501801 3.874 0
M  V30 10562 H 1023.45 1.99067 4.85255 0
M  V30 10563 H 1024.93 0.409733 5.50477 0
M  V30 10564 H 1025.4 -0.802301 4.3181 0
M  V30 10565 H 1026.01 0.862837 4.16456 0
M  V30 10566 N 1024.32 -1.44642 0.625825 0
M  V30 10567 C 1025.23 -2.34451 -0.0836134 0
M  V30 10568 C 1026.25 -1.5231 -0.841289 0
M  V30 10569 O 1027.43 -1.85056 -0.794754 0
M  V30 10570 C 1024.49 -3.30211 -1.05648 0
M  V30 10571 C 1023.55 -4.28259 -0.298759 0
M  V30 10572 C 1022.78 -5.19444 -1.22528 0
M  V30 10573 O 1023.01 -5.14444 -2.46382 0
M  V30 10574 O 1021.94 -5.97668 -0.71247 0
M  V30 10575 H 1025.77 -2.96555 0.654912 0
M  V30 10576 H 1023.35 -1.44327 0.386029 0
M  V30 10577 H 1025.23 -3.8917 -1.61632 0
M  V30 10578 H 1023.91 -2.70648 -1.77571 0
M  V30 10579 H 1022.82 -3.72863 0.304001 0
M  V30 10580 H 1024.15 -4.90728 0.380345 0
M  V30 10581 N 1025.8 -0.366053 -1.5329 0
M  V30 10582 C 1027.05 0.223493 -2.01263 0
M  V30 10583 C 1027.38 1.48736 -1.25331 0
M  V30 10584 O 1026.63 1.92805 -0.335341 0
M  V30 10585 C 1026.93 0.560906 -3.52971 0
M  V30 10586 C 1026.6 -0.60869 -4.46773 0
M  V30 10587 C 1025.26 -0.929609 -4.72135 0
M  V30 10588 C 1027.61 -1.39225 -5.02261 0
M  V30 10589 C 1024.94 -2.03606 -5.50238 0
M  V30 10590 C 1027.29 -2.48912 -5.81572 0
M  V30 10591 C 1025.95 -2.81538 -6.05221 0
M  V30 10592 H 1025.22 0.0817818 -0.736473 0
M  V30 10593 H 1027.87 -0.498613 -1.84895 0
M  V30 10594 H 1026.18 1.36403 -3.67289 0
M  V30 10595 H 1027.87 1.02931 -3.87564 0
M  V30 10596 H 1024.46 -0.348529 -4.27181 0
M  V30 10597 H 1028.65 -1.15757 -4.82612 0
M  V30 10598 H 1023.9 -2.29281 -5.6678 0
M  V30 10599 H 1028.08 -3.10044 -6.23575 0
M  V30 10600 H 1025.7 -3.67396 -6.65525 0
M  V30 10601 N 1027.28 1.57312 -0.0952337 0
M  V30 10602 C 1028.21 2.09691 0.900274 0
M  V30 10603 C 1029.19 1.0075 1.27625 0
M  V30 10604 O 1030.37 1.28249 1.38147 0
M  V30 10605 C 1027.5 2.574 2.20142 0
M  V30 10606 C 1026.55 3.78 1.9753 0
M  V30 10607 S 1027.38 5.21577 1.21318 0
M  V30 10608 C 1028.54 5.72636 2.52663 0
M  V30 10609 H 1028.77 2.93803 0.45467 0
M  V30 10610 H 1026.3 1.53948 0.118056 0
M  V30 10611 H 1028.26 2.85546 2.94914 0
M  V30 10612 H 1026.92 1.73514 2.61824 0
M  V30 10613 H 1026.11 4.09451 2.93881 0
M  V30 10614 H 1025.72 3.50349 1.30888 0
M  V30 10615 H 1028.01 5.80911 3.48638 0
M  V30 10616 H 1028.95 6.71136 2.25791 0
M  V30 10617 H 1029.36 5.00569 2.60943 0
M  V30 10618 N 1028.76 -0.17846 1.56586 0
M  V30 10619 C 1029.67 -1.24115 1.9908 0
M  V30 10620 C 1030.68 -1.48854 0.901031 0
M  V30 10621 O 1031.86 -1.61142 1.2081 0
M  V30 10622 C 1028.92 -2.56187 2.33601 0
M  V30 10623 C 1027.99 -2.39373 3.56369 0
M  V30 10624 C 1027.22 -3.65147 3.89234 0
M  V30 10625 O 1027.44 -4.70024 3.23162 0
M  V30 10626 O 1026.38 -3.59683 4.82609 0
M  V30 10627 H 1030.2 -0.910482 2.89731 0
M  V30 10628 H 1027.79 -0.38477 1.4436 0
M  V30 10629 H 1029.67 -3.34109 2.56806 0
M  V30 10630 H 1028.34 -2.88847 1.46113 0
M  V30 10631 H 1027.25 -1.59506 3.38391 0
M  V30 10632 H 1028.58 -2.1164 4.44375 0
M  V30 10633 N 1030.24 -1.51135 -0.446768 0
M  V30 10634 C 1031.18 -1.72328 -1.56224 0
M  V30 10635 C 1032.18 -0.589411 -1.58815 0
M  V30 10636 O 1033.38 -0.770554 -1.62673 0
M  V30 10637 H 1029.76 -0.544339 -0.518844 0
M  V30 10638 H 1031.73 -2.65851 -1.3552 0
M  V30 10639 C 1030.48 -1.85686 -2.93966 0
M  V30 10640 H 1029.8 -2.72336 -2.927 0
M  V30 10641 H 1031.24 -2.0453 -3.71407 0
M  V30 10642 C 1029.7 -0.614328 -3.31252 0
M  V30 10643 O 1030.23 0.235369 -4.0101 0
M  V30 10644 N 1028.44 -0.461181 -2.86917 0
M  V30 10645 H 1027.98 -1.15369 -2.30321 0
M  V30 10646 H 1027.94 0.368966 -3.12227 0
M  V30 10647 N 1031.71 0.701592 -1.41122 0
M  V30 10648 C 1032.96 1.45871 -1.39879 0
M  V30 10649 C 1033.28 1.94999 -0.00668769 0
M  V30 10650 O 1032.55 1.71298 0.95047 0
M  V30 10651 H 1031.13 0.541231 -0.514857 0
M  V30 10652 H 1033.79 0.830803 -1.76306 0
M  V30 10653 H 1032.89 2.32479 -2.0823 0
M  V30 10654 N 1033.19 1.2685 0.935242 0
M  V30 10655 C 1034.15 1.08975 2.01636 0
M  V30 10656 C 1035.15 0.0361543 1.60759 0
M  V30 10657 O 1036.34 0.280087 1.71934 0
M  V30 10658 C 1033.48 0.658831 3.34473 0
M  V30 10659 H 1034.67 2.04968 2.18925 0
M  V30 10660 H 1032.22 1.09531 1.11501 0
M  V30 10661 H 1032.96 -0.302824 3.22883 0
M  V30 10662 H 1032.74 1.41967 3.65497 0
M  V30 10663 H 1034.23 0.555783 4.13885 0
M  V30 10664 N 1034.67 -1.14067 1.0875 0
M  V30 10665 C 1035.6 -2.21385 0.74236 0
M  V30 10666 C 1036.58 -1.67833 -0.276805 0
M  V30 10667 O 1037.77 -1.93647 -0.1464 0
M  V30 10668 C 1034.9 -3.46956 0.154644 0
M  V30 10669 C 1033.85 -4.13555 1.10255 0
M  V30 10670 C 1033.18 -5.3337 0.376877 0
M  V30 10671 C 1034.48 -4.6169 2.44213 0
M  V30 10672 H 1036.17 -2.50512 1.63964 0
M  V30 10673 H 1033.72 -1.20408 0.789807 0
M  V30 10674 H 1035.67 -4.21284 -0.0988419 0
M  V30 10675 H 1034.39 -3.17203 -0.777789 0
M  V30 10676 H 1033.05 -3.41186 1.34119 0
M  V30 10677 H 1032.7 -4.99879 -0.559472 0
M  V30 10678 H 1032.4 -5.78875 1.00884 0
M  V30 10679 H 1033.92 -6.10458 0.131527 0
M  V30 10680 H 1035.34 -5.27475 2.24595 0
M  V30 10681 H 1033.74 -5.17909 3.03134 0
M  V30 10682 H 1034.81 -3.76574 3.05483 0
M  V30 10683 N 1036.15 -0.873678 -1.31166 0
M  V30 10684 C 1037.43 -0.40698 -1.91319 0
M  V30 10685 C 1037.81 1.1113 -1.79481 0
M  V30 10686 O 1037.15 1.94155 -1.20483 0
M  V30 10687 C 1037.36 -0.892484 -3.37396 0
M  V30 10688 C 1038.71 -0.920795 -4.14496 0
M  V30 10689 O 1039.74 -0.838386 -3.46193 0
M  V30 10690 O 1038.59 -1.04069 -5.365 0
M  V30 10691 H 1035.69 -0.122439 -0.817886 0
M  V30 10692 H 1038.23 -0.961835 -1.3981 0
M  V30 10693 H 1037.01 -1.93613 -3.40044 0
M  V30 10694 H 1036.63 -0.31615 -3.96341 0
M  V30 10695 N 1037.63 1.44308 -0.633487 0
M  V30 10696 C 1038.85 2.06897 -0.144347 0
M  V30 10697 C 1039.28 1.47045 1.173 0
M  V30 10698 O 1038.63 0.572806 1.72013 0
M  V30 10699 C 1038.68 3.60571 -0.0456324 0
M  V30 10700 O 1037.79 4.0015 0.997682 0
M  V30 10701 H 1037.13 0.658427 -0.0858499 0
M  V30 10702 H 1039.66 1.85142 -0.870833 0
M  V30 10703 H 1039.67 4.07745 0.144178 0
M  V30 10704 H 1038.34 4.03515 -1.0074 0
M  V30 10705 H 1036.92 3.64603 0.782252 0
M  V30 10706 N 1039.1 0.374177 1.53094 0
M  V30 10707 C 1040.35 -0.212816 2.01379 0
M  V30 10708 C 1040.68 -1.48069 1.26118 0
M  V30 10709 O 1039.93 -1.92625 0.345561 0
M  V30 10710 C 1040.23 -0.542179 3.53264 0
M  V30 10711 C 1039.9 0.632375 4.46444 0
M  V30 10712 C 1038.56 0.954635 4.71636 0
M  V30 10713 C 1040.91 1.41887 5.01515 0
M  V30 10714 C 1038.24 2.06521 5.4915 0
M  V30 10715 C 1040.59 2.51993 5.80243 0
M  V30 10716 C 1039.26 2.84744 6.03719 0
M  V30 10717 H 1038.53 -0.0778749 0.736897 0
M  V30 10718 H 1041.17 0.508412 1.84628 0
M  V30 10719 H 1039.48 -1.34454 3.68007 0
M  V30 10720 H 1041.18 -1.00874 3.88105 0
M  V30 10721 H 1037.77 0.371179 4.2699 0
M  V30 10722 H 1041.95 1.18315 4.81991 0
M  V30 10723 H 1037.21 2.32284 5.65557 0
M  V30 10724 H 1041.38 3.13346 6.21922 0
M  V30 10725 H 1039.01 3.70921 6.63568 0
M  V30 10726 N 1040.58 -1.57259 0.103575 0
M  V30 10727 C 1041.51 -2.17509 -0.84923 0
M  V30 10728 C 1042.49 -1.11079 -1.28824 0
M  V30 10729 O 1043.68 -1.39252 -1.35361 0
M  V30 10730 C 1040.81 -2.76221 -2.10522 0
M  V30 10731 C 1039.76 -3.88098 -1.80454 0
M  V30 10732 C 1039.09 -4.33549 -3.12952 0
M  V30 10733 C 1040.39 -5.10909 -1.08486 0
M  V30 10734 H 1042.08 -2.9738 -0.347217 0
M  V30 10735 H 1039.63 -1.43045 -0.165568 0
M  V30 10736 H 1041.58 -3.17024 -2.77621 0
M  V30 10737 H 1040.31 -1.93617 -2.63021 0
M  V30 10738 H 1038.96 -3.47847 -1.15749 0
M  V30 10739 H 1038.61 -3.47825 -3.63355 0
M  V30 10740 H 1038.31 -5.08984 -2.93614 0
M  V30 10741 H 1039.84 -4.76992 -3.81196 0
M  V30 10742 H 1041.25 -5.48828 -1.65711 0
M  V30 10743 H 1039.65 -5.91828 -0.992973 0
M  V30 10744 H 1040.72 -4.84851 -0.0690108 0
M  V30 10745 N 1042.06 0.170153 -1.56679 0
M  V30 10746 C 1043.48 0.521966 -1.50823 0
M  V30 10747 C 1043.68 1.84589 -0.808037 0
M  V30 10748 O 1042.73 2.49791 -0.368891 0
M  V30 10749 C 1044.05 0.553648 -2.95559 0
M  V30 10750 C 1045.59 0.640769 -3.06371 0
M  V30 10751 C 1046.07 0.703332 -4.52567 0
M  V30 10752 N 1047.56 0.76619 -4.56819 0
M  V30 10753 C 1048.29 0.835192 -5.67285 0
M  V30 10754 N 1047.79 0.864957 -6.87379 0
M  V30 10755 N 1049.58 0.874302 -5.55259 0
M  V30 10756 H 1041.73 -0.697952 -2.00605 0
M  V30 10757 H 1044 -0.251787 -0.913952 0
M  V30 10758 H 1043.7 -0.350498 -3.49949 0
M  V30 10759 H 1043.58 1.39973 -3.50268 0
M  V30 10760 H 1045.96 1.53534 -2.52015 0
M  V30 10761 H 1046.05 -0.232008 -2.54746 0
M  V30 10762 H 1045.69 -0.186986 -5.07556 0
M  V30 10763 H 1045.62 1.59227 -5.0195 0
M  V30 10764 H 1048.11 0.751424 -3.70354 0
M  V30 10765 H 1048.42 0.918814 -7.67318 0
M  V30 10766 H 1046.77 0.833215 -6.89987 0
M  V30 10767 H 1049.96 0.848057 -4.60354 0
M  V30 10768 H 1050.13 0.924615 -6.4137 0
M  V30 10769 N 1043.54 1.5137 0.438746 0
M  V30 10770 C 1044.47 1.75528 1.53987 0
M  V30 10771 C 1045.45 0.605067 1.58975 0
M  V30 10772 O 1046.63 0.847634 1.74725 0
M  V30 10773 C 1043.76 1.87904 2.92078 0
M  V30 10774 C 1042.72 3.0333 3.01951 0
M  V30 10775 C 1042.04 3.00888 4.42007 0
M  V30 10776 C 1043.34 4.43319 2.76163 0
M  V30 10777 H 1045.04 2.67728 1.34022 0
M  V30 10778 H 1042.58 1.28831 0.643308 0
M  V30 10779 H 1044.54 2.03388 3.69068 0
M  V30 10780 H 1043.26 0.923514 3.13271 0
M  V30 10781 H 1041.92 2.87549 2.274 0
M  V30 10782 H 1041.57 2.03116 4.60166 0
M  V30 10783 H 1041.27 3.78397 4.49544 0
M  V30 10784 H 1042.79 3.18464 5.20973 0
M  V30 10785 H 1044.21 4.59458 3.42887 0
M  V30 10786 H 1042.6 5.22523 2.9511 0
M  V30 10787 H 1043.67 4.53453 1.71779 0
M  V30 10788 N 1045.02 -0.694098 1.41492 0
M  V30 10789 C 1045.96 -1.82932 1.43662 0
M  V30 10790 C 1046.96 -1.66455 0.31449 0
M  V30 10791 O 1048.16 -1.73298 0.486589 0
M  V30 10792 H 1044.54 -0.602847 0.449533 0
M  V30 10793 H 1046.51 -1.78218 2.39334 0
M  V30 10794 C 1045.26 -3.20962 1.33712 0
M  V30 10795 H 1044.58 -3.34257 2.19345 0
M  V30 10796 H 1046.02 -4.00467 1.39291 0
M  V30 10797 C 1044.48 -3.36863 0.0496332 0
M  V30 10798 O 1045.01 -3.91371 -0.905093 0
M  V30 10799 N 1043.22 -2.90588 -0.0269299 0
M  V30 10800 H 1042.76 -2.46417 0.750752 0
M  V30 10801 H 1042.72 -3.01605 -0.887781 0
M  V30 10802 N 1046.49 -1.27344 -0.928501 0
M  V30 10803 C 1047.77 -1.04362 -1.65433 0
M  V30 10804 C 1048.15 0.421896 -2.06841 0
M  V30 10805 O 1047.5 1.40496 -1.80203 0
M  V30 10806 C 1047.71 -2.00442 -2.85699 0
M  V30 10807 C 1049.06 -2.29767 -3.57061 0
M  V30 10808 O 1050.08 -1.98409 -2.95825 0
M  V30 10809 O 1048.94 -2.83217 -4.67387 0
M  V30 10810 H 1046.03 -0.397783 -0.72505 0
M  V30 10811 H 1048.58 -1.38606 -0.979109 0
M  V30 10812 H 1047.35 -2.99281 -2.52085 0
M  V30 10813 H 1046.98 -1.66755 -3.60941 0
M  V30 10814 N 1047.97 1.13488 -1.09353 0
M  V30 10815 C 1049.22 1.84383 -0.827488 0
M  V30 10816 C 1049.54 1.83892 0.648745 0
M  V30 10817 O 1048.81 1.29415 1.47066 0
M  V30 10818 H 1047.39 0.682732 -0.303127 0
M  V30 10819 H 1050.05 1.37477 -1.38152 0
M  V30 10820 H 1049.15 2.88919 -1.18035 0
M  V30 10821 N 1049.45 0.880621 1.30701 0
M  V30 10822 C 1050.38 0.301443 2.27209 0
M  V30 10823 C 1051.4 -0.541533 1.53529 0
M  V30 10824 O 1052.59 -0.361791 1.74795 0
M  V30 10825 C 1049.69 -0.59038 3.33718 0
M  V30 10826 C 1048.86 0.222549 4.36833 0
M  V30 10827 C 1047.92 -0.599083 5.22779 0
M  V30 10828 O 1046.94 -0.0233267 5.69195 0
M  V30 10829 N 1048.15 -1.90904 5.48211 0
M  V30 10830 H 1050.91 1.13083 2.77547 0
M  V30 10831 H 1048.47 0.743168 1.43835 0
M  V30 10832 H 1050.46 -1.14599 3.88135 0
M  V30 10833 H 1049.03 -1.32044 2.83343 0
M  V30 10834 H 1048.25 0.959606 3.82342 0
M  V30 10835 H 1049.54 0.779965 5.02786 0
M  V30 10836 H 1048.94 -2.3998 5.12275 0
M  V30 10837 H 1047.5 -2.4122 6.05521 0
M  V30 10838 N 1050.93 -1.4397 0.641131 0
M  V30 10839 C 1052.18 -2.01946 0.149629 0
M  V30 10840 C 1052.5 -1.50496 -1.23212 0
M  V30 10841 O 1051.76 -0.683453 -1.83378 0
M  V30 10842 C 1052.06 -3.5727 0.0963368 0
M  V30 10843 C 1051.72 -4.28016 1.4182 0
M  V30 10844 C 1050.39 -4.47059 1.78021 0
M  V30 10845 C 1052.74 -4.68183 2.29028 0
M  V30 10846 C 1050.07 -5.03532 3.01119 0
M  V30 10847 C 1052.42 -5.26019 3.51406 0
M  V30 10848 C 1051.08 -5.4328 3.87818 0
M  V30 10849 H 1050.35 -0.738974 0.0547531 0
M  V30 10850 H 1053 -1.72605 0.829436 0
M  V30 10851 H 1051.3 -3.86083 -0.666879 0
M  V30 10852 H 1053 -3.99871 -0.300635 0
M  V30 10853 H 1049.59 -4.13531 1.12651 0
M  V30 10854 H 1053.78 -4.53175 2.02353 0
M  V30 10855 H 1049.03 -5.15082 3.29395 0
M  V30 10856 H 1053.21 -5.56092 4.19208 0
M  V30 10857 H 1050.83 -5.86805 4.83284 0
M  V30 10858 N 1052.41 -0.382291 -1.52893 0
M  V30 10859 C 1053.64 0.202408 -2.05908 0
M  V30 10860 C 1054.05 1.4109 -1.25456 0
M  V30 10861 O 1053.41 1.80027 -0.29942 0
M  V30 10862 C 1053.46 0.579452 -3.56826 0
M  V30 10863 O 1053.18 -0.58102 -4.3423 0
M  V30 10864 C 1054.68 1.22076 -4.2616 0
M  V30 10865 H 1051.9 0.0321859 -0.670228 0
M  V30 10866 H 1054.44 -0.545494 -1.9709 0
M  V30 10867 H 1052.6 1.27726 -3.65739 0
M  V30 10868 H 1053.01 -0.272693 -5.23791 0
M  V30 10869 H 1054.49 1.435 -5.33021 0
M  V30 10870 H 1054.96 2.18605 -3.80931 0
M  V30 10871 H 1055.57 0.563922 -4.21545 0
M  V30 10872 N 1053.89 1.57202 -0.111913 0
M  V30 10873 C 1055.13 1.95239 0.548607 0
M  V30 10874 C 1055.46 0.994897 1.6678 0
M  V30 10875 O 1054.74 0.0308603 1.94476 0
M  V30 10876 C 1055.02 3.43271 1.08798 0
M  V30 10877 C 1054.88 4.49792 -0.0273064 0
M  V30 10878 C 1056.19 3.92989 1.98109 0
M  V30 10879 H 1053.31 0.709919 0.197951 0
M  V30 10880 H 1055.96 1.89087 -0.186036 0
M  V30 10881 H 1054.11 3.48644 1.71404 0
M  V30 10882 H 1055.78 4.56521 -0.662302 0
M  V30 10883 H 1054.02 4.28254 -0.691426 0
M  V30 10884 H 1054.69 5.50612 0.391201 0
M  V30 10885 H 1057.17 3.89875 1.45385 0
M  V30 10886 H 1056.04 4.97101 2.32769 0
M  V30 10887 H 1056.3 3.33267 2.90492 0
M  V30 10888 N 1055.36 -0.161842 1.56767 0
M  V30 10889 C 1056.61 -0.875278 1.81719 0
M  V30 10890 C 1056.93 -1.82998 0.690739 0
M  V30 10891 O 1058.13 -2.58648 0.82545 0
M  V30 10892 C 1056.59 -1.60703 3.22029 0
M  V30 10893 C 1056.2 -0.695486 4.42569 0
M  V30 10894 C 1057.94 -2.30813 3.56266 0
M  V30 10895 C 1055.85 -1.42801 5.73901 0
M  V30 10896 H 1054.78 -0.330591 0.677662 0
M  V30 10897 H 1057.43 -0.128112 1.83052 0
M  V30 10898 H 1055.81 -2.39929 3.1504 0
M  V30 10899 H 1056.98 0.0604882 4.6076 0
M  V30 10900 H 1055.3 -0.10356 4.16271 0
M  V30 10901 H 1057.9 -2.86229 4.51638 0
M  V30 10902 H 1058.24 -3.06603 2.81604 0
M  V30 10903 H 1058.77 -1.5852 3.64851 0
M  V30 10904 H 1055.51 -0.712253 6.51619 0
M  V30 10905 H 1055.03 -2.15707 5.5967 0
M  V30 10906 H 1056.71 -1.97295 6.16185 0
M  V30 10907 N 1056.84 -1.516 -0.430713 0
M  V30 10908 C 1057.77 -1.69594 -1.54177 0
M  V30 10909 C 1058.79 -0.576518 -1.5225 0
M  V30 10910 O 1059.98 -0.85104 -1.56906 0
M  V30 10911 C 1057.08 -1.70148 -2.93092 0
M  V30 10912 C 1056.25 -2.98782 -3.1945 0
M  V30 10913 C 1055.31 -2.91435 -4.38123 0
M  V30 10914 O 1054.33 -3.65372 -4.36454 0
M  V30 10915 N 1055.54 -2.0774 -5.42056 0
M  V30 10916 H 1058.3 -2.65442 -1.39143 0
M  V30 10917 H 1055.86 -1.49569 -0.61974 0
M  V30 10918 H 1057.85 -1.62793 -3.70514 0
M  V30 10919 H 1056.42 -0.818667 -3.0169 0
M  V30 10920 H 1055.64 -3.19954 -2.30267 0
M  V30 10921 H 1056.93 -3.83919 -3.33892 0
M  V30 10922 H 1056.33 -1.47059 -5.46251 0
M  V30 10923 H 1054.89 -2.06259 -6.18305 0
M  V30 10924 N 1058.32 0.686584 -1.41858 0
M  V30 10925 C 1059.25 1.81264 -1.47193 0
M  V30 10926 C 1060.23 1.66875 -0.329657 0
M  V30 10927 O 1061.42 1.86473 -0.542347 0
M  V30 10928 C 1058.55 3.19472 -1.36216 0
M  V30 10929 C 1057.5 3.4858 -2.48347 0
M  V30 10930 C 1056.83 4.86239 -2.22432 0
M  V30 10931 C 1058.13 3.46653 -3.90678 0
M  V30 10932 H 1059.82 1.77057 -2.41436 0
M  V30 10933 H 1057.37 0.850415 -1.16206 0
M  V30 10934 H 1059.32 3.97969 -1.38558 0
M  V30 10935 H 1058.04 3.24327 -0.384611 0
M  V30 10936 H 1056.7 2.72437 -2.45303 0
M  V30 10937 H 1056.35 4.8773 -1.22999 0
M  V30 10938 H 1056.05 5.06677 -2.97577 0
M  V30 10939 H 1057.57 5.67034 -2.26505 0
M  V30 10940 H 1058.99 4.15139 -3.95389 0
M  V30 10941 H 1057.38 3.78625 -4.65578 0
M  V30 10942 H 1058.45 2.45451 -4.18189 0
M  V30 10943 N 1059.8 1.27835 0.921735 0
M  V30 10944 C 1061.04 1.14692 1.67253 0
M  V30 10945 C 1061.38 -0.305384 1.91784 0
M  V30 10946 O 1060.65 -1.22286 1.51249 0
M  V30 10947 C 1060.93 1.93743 3.03539 0
M  V30 10948 C 1060.79 3.46991 2.86212 0
M  V30 10949 C 1062.11 1.74658 4.03959 0
M  V30 10950 H 1059.23 0.418021 0.606983 0
M  V30 10951 H 1061.87 1.5706 1.06922 0
M  V30 10952 H 1060.02 1.57738 3.55037 0
M  V30 10953 H 1061.69 3.92858 2.41785 0
M  V30 10954 H 1059.93 3.73029 2.21432 0
M  V30 10955 H 1060.6 3.97551 3.82958 0
M  V30 10956 H 1063.08 2.06063 3.61493 0
M  V30 10957 H 1061.96 2.32353 4.97296 0
M  V30 10958 H 1062.22 0.696019 4.36587 0
M  V30 10959 N 1061.28 -1.12907 1.09954 0
M  V30 10960 C 1062.52 -1.83941 0.837255 0
M  V30 10961 C 1062.84 -1.84234 -0.638984 0
M  V30 10962 O 1062.11 -1.30193 -1.46378 0
M  V30 10963 H 1060.69 -0.681115 0.306743 0
M  V30 10964 H 1063.36 -1.36743 1.38879 0
M  V30 10965 H 1062.45 -2.88289 1.19565 0
M  V30 10966 N 1062.75 -0.88754 -1.30232 0
M  V30 10967 C 1063.69 -0.300814 -2.26209 0
M  V30 10968 C 1064.66 0.580088 -1.519 0
M  V30 10969 O 1065.85 0.529611 -1.80907 0
M  V30 10970 C 1062.98 0.572336 -3.33829 0
M  V30 10971 C 1062.02 -0.239589 -4.25827 0
M  V30 10972 S 1062.85 -1.62953 -5.10104 0
M  V30 10973 C 1064.01 -0.762979 -6.21232 0
M  V30 10974 H 1064.24 -1.11435 -2.75626 0
M  V30 10975 H 1061.78 -0.687123 -1.38268 0
M  V30 10976 H 1063.73 1.07036 -3.963 0
M  V30 10977 H 1062.4 1.35999 -2.83131 0
M  V30 10978 H 1061.59 0.426854 -5.02189 0
M  V30 10979 H 1061.19 -0.670325 -3.67944 0
M  V30 10980 H 1063.48 0.0189354 -6.77497 0
M  V30 10981 H 1064.43 -1.49829 -6.92067 0
M  V30 10982 H 1064.83 -0.322747 -5.63577 0
M  V30 10983 N 1064.23 1.43628 -0.648757 0
M  V30 10984 C 1065.16 2.33478 0.0320785 0
M  V30 10985 C 1066.14 1.49217 0.816605 0
M  V30 10986 O 1067.33 1.77892 0.778974 0
M  V30 10987 C 1064.46 3.32525 1.00222 0
M  V30 10988 C 1063.41 4.2674 0.328119 0
M  V30 10989 C 1062.74 5.15791 1.4094 0
M  V30 10990 C 1064.04 5.16493 -0.776701 0
M  V30 10991 H 1065.73 2.90657 -0.718257 0
M  V30 10992 H 1063.28 1.3976 -0.346852 0
M  V30 10993 H 1065.23 3.94277 1.4874 0
M  V30 10994 H 1063.96 2.73593 1.78366 0
M  V30 10995 H 1062.61 3.66346 -0.136569 0
M  V30 10996 H 1062.26 4.53201 2.18216 0
M  V30 10997 H 1061.96 5.79645 0.963631 0
M  V30 10998 H 1063.49 5.80416 1.89603 0
M  V30 10999 H 1064.9 5.7208 -0.373878 0
M  V30 11000 H 1063.3 5.89043 -1.14667 0
M  V30 11001 H 1064.37 4.56448 -1.63654 0
M  V30 11002 N 1065.71 0.390394 1.52688 0
M  V30 11003 C 1067.13 0.0404028 1.59549 0
M  V30 11004 C 1067.33 -1.44503 1.40432 0
M  V30 11005 O 1066.38 -2.20968 1.22187 0
M  V30 11006 C 1067.7 0.518561 2.96195 0
M  V30 11007 C 1069.24 0.474913 3.09376 0
M  V30 11008 C 1069.72 0.929278 4.48473 0
M  V30 11009 N 1071.21 0.885335 4.5466 0
M  V30 11010 C 1071.94 1.2083 5.60524 0
M  V30 11011 N 1071.44 1.6018 6.74028 0
M  V30 11012 N 1073.23 1.12949 5.50635 0
M  V30 11013 H 1065.38 1.35743 1.63363 0
M  V30 11014 H 1067.65 0.556453 0.767505 0
M  V30 11015 H 1067.35 1.55606 3.15404 0
M  V30 11016 H 1067.23 -0.081779 3.77111 0
M  V30 11017 H 1069.61 -0.553503 2.89863 0
M  V30 11018 H 1069.7 1.11107 2.3041 0
M  V30 11019 H 1069.34 1.95593 4.68728 0
M  V30 11020 H 1069.27 0.270121 5.25907 0
M  V30 11021 H 1071.76 0.595787 3.73174 0
M  V30 11022 H 1072.07 1.83184 7.50775 0
M  V30 11023 H 1070.42 1.64067 6.75357 0
M  V30 11024 H 1073.61 0.821074 4.60843 0
M  V30 11025 H 1073.78 1.3845 6.33037 0
M  V30 11026 N 1067.19 -1.57141 0.120249 0
M  V30 11027 C 1068.44 -1.94852 -0.536387 0
M  V30 11028 C 1068.76 -1.00452 -1.67136 0
M  V30 11029 O 1068.03 -0.061053 -1.95805 0
M  V30 11030 H 1066.61 -0.719411 -0.201138 0
M  V30 11031 H 1069.27 -1.93977 0.189482 0
M  V30 11032 H 1068.37 -2.97917 -0.930145 0
M  V30 11033 N 1068.67 0.153526 -1.5685 0
M  V30 11034 C 1069.92 0.865628 -1.82181 0
M  V30 11035 C 1070.23 1.82629 -0.700434 0
M  V30 11036 O 1071.43 2.58206 -0.839155 0
M  V30 11037 C 1069.89 1.58993 -3.22877 0
M  V30 11038 C 1069.5 0.672006 -4.42931 0
M  V30 11039 C 1071.24 2.2892 -3.57486 0
M  V30 11040 C 1069.15 1.39755 -5.7465 0
M  V30 11041 H 1068.08 0.326993 -0.679406 0
M  V30 11042 H 1070.73 0.118403 -1.83118 0
M  V30 11043 H 1069.11 2.38255 -3.16308 0
M  V30 11044 H 1070.29 -0.0849226 -4.60722 0
M  V30 11045 H 1068.6 0.0814825 -4.1632 0
M  V30 11046 H 1071.2 2.8383 -4.5315 0
M  V30 11047 H 1071.54 3.05105 -2.83226 0
M  V30 11048 H 1072.07 1.56583 -3.65686 0
M  V30 11049 H 1068.81 0.677686 -6.51987 0
M  V30 11050 H 1068.33 2.12736 -5.60806 0
M  V30 11051 H 1070.01 1.94024 -6.17223 0
M  V30 11052 N 1070.14 1.51827 0.422667 0
M  V30 11053 C 1071.11 1.7359 1.49663 0
M  V30 11054 C 1072.11 0.605811 1.48952 0
M  V30 11055 O 1073.3 0.87354 1.50715 0
M  V30 11056 C 1070.43 1.80585 2.8914 0
M  V30 11057 H 1071.62 2.69453 1.31664 0
M  V30 11058 H 1069.18 1.42038 0.652298 0
M  V30 11059 H 1069.91 0.865895 3.12526 0
M  V30 11060 H 1069.7 2.62729 2.9106 0
M  V30 11061 H 1071.19 1.99212 3.67021 0
M  V30 11062 N 1071.62 -0.679052 1.4222 0
M  V30 11063 C 1072.85 -1.47248 1.46058 0
M  V30 11064 C 1073.27 -1.87962 0.0720987 0
M  V30 11065 O 1072.63 -1.5572 -0.928488 0
M  V30 11066 C 1072.68 -2.70067 2.38948 0
M  V30 11067 O 1071.78 -3.68178 1.85791 0
M  V30 11068 H 1071.12 -0.442533 0.495036 0
M  V30 11069 H 1073.65 -0.833263 1.86863 0
M  V30 11070 H 1073.66 -3.18187 2.55385 0
M  V30 11071 H 1072.34 -2.39773 3.39826 0
M  V30 11072 H 1070.92 -3.2719 1.78889 0
M  V30 11073 N 1073.1 -1.28322 -0.914942 0
M  V30 11074 C 1074.35 -1.15179 -1.66067 0
M  V30 11075 C 1074.67 0.300279 -1.92674 0
M  V30 11076 O 1073.94 1.20821 -1.54205 0
M  V30 11077 H 1072.52 -0.423264 -0.615513 0
M  V30 11078 H 1075.18 -1.61034 -1.09791 0
M  V30 11079 H 1074.28 -1.69048 -2.62353 0
M  V30 11080 N 1074.58 1.12322 -1.10551 0
M  V30 11081 C 1075.51 2.17221 -0.699299 0
M  V30 11082 C 1076.49 1.59809 0.299973 0
M  V30 11083 O 1077.67 1.87451 0.198589 0
M  V30 11084 C 1074.8 3.38685 -0.0320136 0
M  V30 11085 C 1073.85 4.14732 -0.99495 0
M  V30 11086 S 1074.68 4.72879 -2.51288 0
M  V30 11087 C 1075.84 5.97676 -1.85834 0
M  V30 11088 H 1076.07 2.51342 -1.5879 0
M  V30 11089 H 1073.6 1.23802 -0.92263 0
M  V30 11090 H 1075.56 4.09034 0.346656 0
M  V30 11091 H 1074.22 3.02842 0.833407 0
M  V30 11092 H 1073.41 5.01754 -0.475331 0
M  V30 11093 H 1073.02 3.50098 -1.31559 0
M  V30 11094 H 1075.31 6.6698 -1.18927 0
M  V30 11095 H 1076.25 6.54266 -2.70817 0
M  V30 11096 H 1076.66 5.48793 -1.32237 0
M  V30 11097 N 1076.06 0.894434 1.2976 0
M  V30 11098 C 1077.47 0.589778 1.48303 0
M  V30 11099 C 1077.67 -0.870085 1.81746 0
M  V30 11100 O 1076.73 -1.65065 1.91076 0
M  V30 11101 C 1078.04 1.51107 2.59975 0
M  V30 11102 C 1079.59 1.51571 2.73853 0
M  V30 11103 C 1080.06 2.42316 3.88648 0
M  V30 11104 N 1081.56 2.40333 3.95973 0
M  V30 11105 C 1082.29 3.07254 4.84131 0
M  V30 11106 N 1081.79 3.83435 5.77018 0
M  V30 11107 N 1083.58 2.96438 4.77578 0
M  V30 11108 H 1075.73 1.83871 1.06327 0
M  V30 11109 H 1077.99 0.78758 0.527657 0
M  V30 11110 H 1077.7 2.55097 2.42112 0
M  V30 11111 H 1077.57 1.22767 3.56662 0
M  V30 11112 H 1079.96 0.483277 2.91116 0
M  V30 11113 H 1080.04 1.83946 1.77757 0
M  V30 11114 H 1079.69 3.4565 3.72141 0
M  V30 11115 H 1079.62 2.07252 4.84101 0
M  V30 11116 H 1082.11 1.84979 3.29532 0
M  V30 11117 H 1082.42 4.31565 6.4107 0
M  V30 11118 H 1080.76 3.87542 5.7692 0
M  V30 11119 H 1083.96 2.36442 4.03996 0
M  V30 11120 H 1084.13 3.48867 5.46073 0
M  V30 11121 N 1077.53 -1.43282 0.656365 0
M  V30 11122 C 1078.76 -2.05826 0.178619 0
M  V30 11123 C 1079.17 -1.493 -1.16216 0
M  V30 11124 O 1078.52 -0.620163 -1.72915 0
M  V30 11125 C 1078.58 -3.59496 0.0164101 0
M  V30 11126 C 1078.24 -4.38621 1.28298 0
M  V30 11127 C 1079.24 -4.70477 2.21241 0
M  V30 11128 C 1076.92 -4.78577 1.52544 0
M  V30 11129 C 1078.92 -5.412 3.36721 0
M  V30 11130 C 1076.6 -5.49044 2.68316 0
M  V30 11131 C 1077.6 -5.80279 3.6023 0
M  V30 11132 O 1077.29 -6.49306 4.7398 0
M  V30 11133 H 1077.02 -0.670158 0.0886814 0
M  V30 11134 H 1079.58 -1.84722 0.89816 0
M  V30 11135 H 1077.81 -3.79188 -0.758532 0
M  V30 11136 H 1079.5 -4.03731 -0.419096 0
M  V30 11137 H 1080.26 -4.40125 2.03753 0
M  V30 11138 H 1076.14 -4.5367 0.818816 0
M  V30 11139 H 1079.68 -5.65497 4.08483 0
M  V30 11140 H 1075.58 -5.78813 2.85738 0
M  V30 11141 H 1076.35 -6.67789 4.73286 0
M  V30 11142 N 1079.01 -0.398486 -1.52479 0
M  V30 11143 C 1079.94 0.423498 -2.29627 0
M  V30 11144 C 1080.92 1.05547 -1.33394 0
M  V30 11145 O 1082.11 1.0665 -1.62294 0
M  V30 11146 C 1079.24 1.54612 -3.10986 0
M  V30 11147 C 1078.19 1.03971 -4.15179 0
M  V30 11148 C 1077.52 2.25512 -4.84818 0
M  V30 11149 C 1078.82 0.10121 -5.22202 0
M  V30 11150 H 1080.51 -0.220222 -2.98589 0
M  V30 11151 H 1078.06 -0.107355 -1.43599 0
M  V30 11152 H 1080.01 2.12806 -3.63719 0
M  V30 11153 H 1078.74 2.21756 -2.39774 0
M  V30 11154 H 1077.4 0.480251 -3.63441 0
M  V30 11155 H 1077.04 2.91187 -4.10145 0
M  V30 11156 H 1076.74 1.92285 -5.55248 0
M  V30 11157 H 1078.27 2.84331 -5.40359 0
M  V30 11158 H 1079.68 0.591617 -5.70239 0
M  V30 11159 H 1078.08 -0.141737 -5.99933 0
M  V30 11160 H 1079.15 -0.847216 -4.77441 0
M  V30 11161 N 1080.49 1.57075 -0.12858 0
M  V30 11162 C 1081.45 2.14643 0.803813 0
M  V30 11163 C 1082.45 1.08363 1.18803 0
M  V30 11164 O 1083.64 1.34093 1.11197 0
M  V30 11165 C 1080.78 2.6945 2.08829 0
M  V30 11166 H 1081.97 2.98362 0.303347 0
M  V30 11167 H 1079.52 1.55833 0.120735 0
M  V30 11168 H 1080.26 1.89345 2.63285 0
M  V30 11169 H 1080.04 3.47187 1.82218 0
M  V30 11170 H 1081.53 3.13865 2.7546 0
M  V30 11171 N 1081.97 -0.145205 1.5693 0
M  V30 11172 C 1082.88 -1.19864 2.01667 0
M  V30 11173 C 1083.9 -1.46909 0.932402 0
M  V30 11174 O 1085.07 -1.58543 1.24201 0
M  V30 11175 C 1082.14 -2.51174 2.38982 0
M  V30 11176 C 1081.2 -2.3176 3.61366 0
M  V30 11177 C 1080.43 -3.56809 3.96892 0
M  V30 11178 O 1080.65 -4.63063 3.33059 0
M  V30 11179 O 1079.59 -3.49366 4.9013 0
M  V30 11180 H 1083.41 -0.848821 2.91597 0
M  V30 11181 H 1081 -0.354063 1.45144 0
M  V30 11182 H 1082.88 -3.28587 2.63835 0
M  V30 11183 H 1081.56 -2.85683 1.52207 0
M  V30 11184 H 1080.46 -1.52293 3.41698 0
M  V30 11185 H 1081.8 -2.02167 4.48764 0
M  V30 11186 N 1083.45 -1.52049 -0.414609 0
M  V30 11187 C 1084.38 -1.69712 -1.52555 0
M  V30 11188 C 1085.36 -0.544681 -1.53206 0
M  V30 11189 O 1086.54 -0.771358 -1.71995 0
M  V30 11190 C 1083.67 -1.73145 -2.91099 0
M  V30 11191 C 1082.72 -2.94624 -3.08382 0
M  V30 11192 S 1083.55 -4.55062 -2.82274 0
M  V30 11193 C 1084.7 -4.61274 -4.23057 0
M  V30 11194 H 1084.94 -2.63675 -1.37342 0
M  V30 11195 H 1082.47 -1.42018 -0.605824 0
M  V30 11196 H 1084.43 -1.75808 -3.70947 0
M  V30 11197 H 1083.09 -0.803198 -3.03657 0
M  V30 11198 H 1082.28 -2.93492 -4.0973 0
M  V30 11199 H 1081.88 -2.8982 -2.36391 0
M  V30 11200 H 1084.18 -4.38313 -5.16612 0
M  V30 11201 H 1085.12 -5.63188 -4.29214 0
M  V30 11202 H 1085.53 -3.90361 -4.07773 0
M  V30 11203 N 1084.93 0.6715 -1.42579 0
M  V30 11204 C 1086.15 1.46471 -1.46836 0
M  V30 11205 C 1086.58 1.87921 -0.0820658 0
M  V30 11206 O 1085.93 1.5621 0.920217 0
M  V30 11207 C 1085.98 2.68796 -2.40377 0
M  V30 11208 O 1085.09 3.67188 -1.87741 0
M  V30 11209 H 1084.43 0.439901 -0.497376 0
M  V30 11210 H 1086.96 0.823342 -1.87303 0
M  V30 11211 H 1086.97 3.16828 -2.57068 0
M  V30 11212 H 1085.64 2.37967 -3.41093 0
M  V30 11213 H 1084.22 3.26237 -1.80621 0
M  V30 11214 N 1086.4 1.28806 0.908124 0
M  V30 11215 C 1087.63 1.1898 1.689 0
M  V30 11216 C 1088.04 -0.253334 1.87496 0
M  V30 11217 O 1087.38 -1.18245 1.40584 0
M  V30 11218 C 1087.45 1.82266 3.0987 0
M  V30 11219 C 1087.11 3.31534 3.14538 0
M  V30 11220 C 1088.11 4.27886 2.95313 0
M  V30 11221 C 1085.79 3.72589 3.36872 0
M  V30 11222 C 1087.79 5.63267 2.98343 0
M  V30 11223 C 1085.47 5.08095 3.39534 0
M  V30 11224 C 1086.47 6.03244 3.2029 0
M  V30 11225 O 1086.16 7.36277 3.22724 0
M  V30 11226 H 1085.89 0.413772 0.534574 0
M  V30 11227 H 1088.45 1.7055 1.14464 0
M  V30 11228 H 1086.68 1.25197 3.65872 0
M  V30 11229 H 1088.36 1.6688 3.70008 0
M  V30 11230 H 1089.13 3.97502 2.77879 0
M  V30 11231 H 1085.01 2.98989 3.50894 0
M  V30 11232 H 1088.55 6.37511 2.83241 0
M  V30 11233 H 1084.45 5.38126 3.56497 0
M  V30 11234 H 1085.22 7.44976 3.39048 0
M  V30 11235 N 1087.88 -1.11734 1.11145 0
M  V30 11236 C 1089.13 -1.83677 0.859684 0
M  V30 11237 C 1089.46 -1.84265 -0.613182 0
M  V30 11238 O 1088.74 -1.29351 -1.45254 0
M  V30 11239 C 1089.02 -3.31003 1.41805 0
M  V30 11240 C 1088.87 -3.38827 2.95831 0
M  V30 11241 C 1090.19 -4.26984 1.06645 0
M  V30 11242 H 1087.31 -0.666879 0.313754 0
M  V30 11243 H 1089.95 -1.31038 1.37583 0
M  V30 11244 H 1088.1 -3.75961 0.979054 0
M  V30 11245 H 1089.77 -3.02451 3.48312 0
M  V30 11246 H 1088.02 -2.79143 3.32056 0
M  V30 11247 H 1088.69 -4.42508 3.29986 0
M  V30 11248 H 1091.16 -3.9019 1.44537 0
M  V30 11249 H 1090.04 -5.2846 1.48394 0
M  V30 11250 H 1090.3 -4.42094 -0.0231866 0
M  V30 11251 N 1089.36 -0.901303 -1.29284 0
M  V30 11252 C 1090.31 -0.351562 -2.25273 0
M  V30 11253 C 1091.29 0.529276 -1.51946 0
M  V30 11254 O 1092.49 0.371031 -1.73068 0
M  V30 11255 C 1089.61 0.41843 -3.4074 0
M  V30 11256 C 1088.7 -0.47742 -4.21404 0
M  V30 11257 N 1089.09 -1.58537 -4.80312 0
M  V30 11258 C 1087.39 -0.275504 -4.45148 0
M  V30 11259 C 1088.09 -2.14041 -5.40889 0
M  V30 11260 N 1087.07 -1.43324 -5.24365 0
M  V30 11261 H 1090.87 -1.1979 -2.68379 0
M  V30 11262 H 1088.38 -0.752538 -1.43912 0
M  V30 11263 H 1090.38 0.829022 -4.08574 0
M  V30 11264 H 1089.04 1.26201 -2.99171 0
M  V30 11265 H 1090.05 -1.96809 -4.79047 0
M  V30 11266 H 1086.73 0.529581 -4.14128 0
M  V30 11267 H 1088.12 -3.07173 -5.97574 0
M  V30 11268 N 1090.84 1.42931 -0.663954 0
M  V30 11269 C 1092.25 1.56098 -0.332496 0
M  V30 11270 C 1092.45 1.64564 1.16279 0
M  V30 11271 O 1091.51 1.6066 1.94794 0
M  V30 11272 C 1092.82 2.81649 -1.05329 0
M  V30 11273 C 1094.37 2.95408 -1.03457 0
M  V30 11274 C 1094.85 4.23805 -1.73647 0
M  V30 11275 N 1096.34 4.30693 -1.70462 0
M  V30 11276 C 1097.07 5.28833 -2.21637 0
M  V30 11277 N 1096.57 6.33189 -2.81147 0
M  V30 11278 N 1098.36 5.20558 -2.12075 0
M  V30 11279 H 1090.51 1.3568 -1.63416 0
M  V30 11280 H 1092.77 0.652361 -0.687844 0
M  V30 11281 H 1092.48 2.81494 -2.10842 0
M  V30 11282 H 1092.35 3.72208 -0.611626 0
M  V30 11283 H 1094.74 2.95097 0.0121936 0
M  V30 11284 H 1094.82 2.06109 -1.51502 0
M  V30 11285 H 1094.47 4.24876 -2.78285 0
M  V30 11286 H 1094.4 5.12019 -1.2306 0
M  V30 11287 H 1096.89 3.55904 -1.27046 0
M  V30 11288 H 1097.2 7.04411 -3.17844 0
M  V30 11289 H 1095.55 6.33781 -2.85212 0
M  V30 11290 H 1098.74 4.3795 -1.6528 0
M  V30 11291 H 1098.91 5.96881 -2.52264 0
M  V30 11292 N 1092.32 0.406567 1.52266 0
M  V30 11293 C 1093.59 -0.228477 1.94261 0
M  V30 11294 C 1093.97 -1.62848 1.34328 0
M  V30 11295 O 1093.32 -2.22549 0.518082 0
M  V30 11296 C 1093.53 -0.237401 3.48192 0
M  V30 11297 C 1094.88 -0.457997 4.22123 0
M  V30 11298 O 1095.9 -0.316868 3.54788 0
M  V30 11299 O 1094.76 -0.735946 5.41522 0
M  V30 11300 H 1091.86 -0.146492 0.813922 0
M  V30 11301 H 1094.4 0.462325 1.63281 0
M  V30 11302 H 1093.17 0.742556 3.8419 0
M  V30 11303 H 1092.8 -0.972408 3.85526 0
M  V30 11304 N 1093.79 -1.57004 0.136909 0
M  V30 11305 C 1094.72 -2.19262 -0.802902 0
M  V30 11306 C 1095.71 -1.13786 -1.26439 0
M  V30 11307 O 1096.89 -1.42091 -1.32377 0
M  V30 11308 C 1094.02 -2.80624 -2.04615 0
M  V30 11309 C 1092.97 -3.91839 -1.72181 0
M  V30 11310 C 1092.3 -4.4009 -3.03686 0
M  V30 11311 C 1093.6 -5.13095 -0.976249 0
M  V30 11312 H 1095.29 -2.98049 -0.28406 0
M  V30 11313 H 1092.84 -1.43364 -0.135189 0
M  V30 11314 H 1094.79 -3.22842 -2.70834 0
M  V30 11315 H 1093.52 -1.99153 -2.58855 0
M  V30 11316 H 1092.18 -3.50224 -1.08344 0
M  V30 11317 H 1091.82 -3.55454 -3.55896 0
M  V30 11318 H 1091.52 -5.15098 -2.82751 0
M  V30 11319 H 1093.05 -4.84971 -3.70993 0
M  V30 11320 H 1094.46 -5.5222 -1.54033 0
M  V30 11321 H 1092.86 -5.93801 -0.867214 0
M  V30 11322 H 1093.93 -4.84888 0.0338488 0
M  V30 11323 N 1095.27 0.136881 -1.57004 0
M  V30 11324 C 1096.24 1.15267 -1.98106 0
M  V30 11325 C 1097.24 1.35305 -0.868856 0
M  V30 11326 O 1098.43 1.32126 -1.13527 0
M  V30 11327 C 1095.56 2.51092 -2.30577 0
M  V30 11328 H 1096.75 0.799821 -2.89038 0
M  V30 11329 H 1094.3 0.380576 -1.51596 0
M  V30 11330 H 1095.04 2.9133 -1.42469 0
M  V30 11331 H 1094.82 2.37906 -3.11678 0
M  V30 11332 H 1096.31 3.24232 -2.63179 0
M  V30 11333 N 1096.75 1.52266 0.40654 0
M  V30 11334 C 1097.71 1.75168 1.47814 0
M  V30 11335 C 1098.71 0.621575 1.48301 0
M  V30 11336 O 1099.9 0.889476 1.4978 0
M  V30 11337 C 1097.04 1.83642 2.87208 0
M  V30 11338 H 1098.23 2.70834 1.28798 0
M  V30 11339 H 1095.78 1.42722 0.637196 0
M  V30 11340 H 1096.52 0.898994 3.1159 0
M  V30 11341 H 1096.3 2.65801 2.88257 0
M  V30 11342 H 1097.79 2.03093 3.64888 0
M  V30 11343 N 1098.23 -0.663929 1.42933 0
M  V30 11344 C 1099.64 -0.978346 1.26097 0
M  V30 11345 C 1099.84 -2.00756 0.172968 0
M  V30 11346 O 1098.9 -2.48418 -0.452184 0
M  V30 11347 C 1100.21 -1.4728 2.62162 0
M  V30 11348 C 1101.76 -1.59001 2.69606 0
M  V30 11349 C 1102.24 -2.1184 4.06064 0
M  V30 11350 N 1103.73 -2.19158 4.08074 0
M  V30 11351 C 1104.46 -2.61141 5.10483 0
M  V30 11352 N 1103.96 -3.02498 6.23271 0
M  V30 11353 N 1105.75 -2.60986 4.97838 0
M  V30 11354 H 1097.9 0.0173096 2.12393 0
M  V30 11355 H 1100.17 -0.0548116 0.946414 0
M  V30 11356 H 1099.87 -0.791008 3.42689 0
M  V30 11357 H 1099.75 -2.4497 2.86827 0
M  V30 11358 H 1102.13 -2.26284 1.89418 0
M  V30 11359 H 1102.21 -0.597728 2.48718 0
M  V30 11360 H 1101.86 -1.45162 4.86714 0
M  V30 11361 H 1101.79 -3.1188 4.2431 0
M  V30 11362 H 1104.28 -1.90013 3.26655 0
M  V30 11363 H 1104.59 -3.33251 6.97254 0
M  V30 11364 H 1102.94 -3.00328 6.2676 0
M  V30 11365 H 1106.13 -2.28046 4.08794 0
M  V30 11366 H 1106.3 -2.93384 5.7778 0
M  V30 11367 N 1099.71 -1.29285 -0.901281 0
M  V30 11368 C 1100.65 -1.14159 -2.02659 0
M  V30 11369 C 1101.65 -0.0575887 -1.69302 0
M  V30 11370 O 1102.85 -0.217273 -1.78684 0
M  V30 11371 H 1099.23 -0.352584 -0.66422 0
M  V30 11372 H 1101.2 -2.09434 -2.12555 0
M  V30 11373 C 1099.95 -0.833253 -3.37568 0
M  V30 11374 H 1099.27 -1.65939 -3.63737 0
M  V30 11375 H 1100.71 -0.767436 -4.16997 0
M  V30 11376 C 1099.17 0.46344 -3.33697 0
M  V30 11377 O 1099.7 1.48998 -3.73045 0
M  V30 11378 N 1097.91 0.468709 -2.86795 0
M  V30 11379 H 1097.45 -0.36712 -2.54971 0
M  V30 11380 H 1097.41 1.3363 -2.84588 0
M  V30 11381 N 1101.18 1.11143 -1.11736 0
M  V30 11382 C 1102.43 1.82311 -0.862875 0
M  V30 11383 C 1102.75 1.85735 0.613326 0
M  V30 11384 O 1103.95 2.53034 0.984168 0
M  V30 11385 C 1102.41 3.27427 -1.49396 0
M  V30 11386 C 1102.02 3.32323 -3.00443 0
M  V30 11387 C 1103.76 4.03474 -1.31944 0
M  V30 11388 C 1101.67 4.71855 -3.56521 0
M  V30 11389 H 1100.6 0.683124 -0.31915 0
M  V30 11390 H 1103.25 1.25045 -1.34298 0
M  V30 11391 H 1101.63 3.84644 -0.941528 0
M  V30 11392 H 1102.8 2.84971 -3.62117 0
M  V30 11393 H 1101.12 2.69758 -3.17206 0
M  V30 11394 H 1103.72 5.06528 -1.71271 0
M  V30 11395 H 1104.06 4.15473 -0.262339 0
M  V30 11396 H 1104.59 3.52652 -1.84069 0
M  V30 11397 H 1101.33 4.65054 -4.61958 0
M  V30 11398 H 1100.85 5.19604 -2.99619 0
M  V30 11399 H 1102.53 5.40816 -3.55144 0
M  V30 11400 N 1102.66 0.908147 1.28804 0
M  V30 11401 C 1103.59 0.409106 2.29888 0
M  V30 11402 C 1104.57 -0.520338 1.61946 0
M  V30 11403 O 1105.76 -0.429268 1.89396 0
M  V30 11404 C 1102.89 -0.35669 3.45463 0
M  V30 11405 C 1101.84 0.4831 4.25265 0
M  V30 11406 C 1101.17 -0.4107 5.3312 0
M  V30 11407 C 1102.47 1.73744 4.92555 0
M  V30 11408 H 1104.16 1.25386 2.7188 0
M  V30 11409 H 1101.71 0.604368 1.30703 0
M  V30 11410 H 1103.66 -0.71661 4.15262 0
M  V30 11411 H 1102.39 -1.2353 3.02337 0
M  V30 11412 H 1101.04 0.825464 3.57186 0
M  V30 11413 H 1100.69 -1.28769 4.86238 0
M  V30 11414 H 1100.39 0.14756 5.87415 0
M  V30 11415 H 1101.92 -0.766626 6.05768 0
M  V30 11416 H 1103.33 1.44676 5.54745 0
M  V30 11417 H 1101.73 2.23767 5.5682 0
M  V30 11418 H 1102.8 2.46853 4.17363 0
M  V30 11419 N 1104.14 -1.42577 0.671525 0
M  V30 11420 C 1105.39 -2.01882 0.192716 0
M  V30 11421 C 1105.72 -1.52959 -1.19654 0
M  V30 11422 O 1104.99 -0.730404 -1.80265 0
M  V30 11423 C 1105.28 -3.59404 0.223734 0
M  V30 11424 C 1105.13 -4.18514 1.64821 0
M  V30 11425 C 1106.45 -4.37996 -0.429858 0
M  V30 11426 H 1103.57 -0.733523 0.0715026 0
M  V30 11427 H 1106.21 -1.69641 0.855689 0
M  V30 11428 H 1104.36 -3.87003 -0.340776 0
M  V30 11429 H 1106.03 -4.01881 2.26472 0
M  V30 11430 H 1104.28 -3.74467 2.1899 0
M  V30 11431 H 1104.95 -5.27643 1.62162 0
M  V30 11432 H 1107.42 -4.16069 0.0506433 0
M  V30 11433 H 1106.3 -5.476 -0.377503 0
M  V30 11434 H 1106.56 -4.15625 -1.50693 0
M  V30 11435 N 1105.62 -0.414636 -1.52048 0
M  V30 11436 C 1106.57 0.422766 -2.28726 0
M  V30 11437 C 1107.56 1.04099 -1.3364 0
M  V30 11438 O 1108.77 0.978559 -1.51077 0
M  V30 11439 H 1105.14 0.155123 -0.735827 0
M  V30 11440 H 1107.11 -0.245091 -2.97392 0
M  V30 11441 C 1105.86 1.52418 -3.12513 0
M  V30 11442 H 1105.18 1.05781 -3.85552 0
M  V30 11443 H 1106.62 2.08382 -3.6926 0
M  V30 11444 C 1105.08 2.49465 -2.26426 0
M  V30 11445 O 1105.61 3.53479 -1.90829 0
M  V30 11446 N 1103.82 2.19806 -1.90088 0
M  V30 11447 H 1103.37 1.35253 -2.19236 0
M  V30 11448 H 1103.32 2.84984 -1.32783 0
M  V30 11449 N 1107.1 1.56929 -0.145233 0
M  V30 11450 C 1108.32 2.00864 0.516564 0
M  V30 11451 C 1108.75 1.02466 1.57741 0
M  V30 11452 O 1108.1 0.000145439 1.813 0
M  V30 11453 C 1108.15 3.43552 1.09563 0
M  V30 11454 O 1107.26 3.4815 2.21055 0
M  V30 11455 H 1106.6 0.651835 0.126521 0
M  V30 11456 H 1109.13 2.0317 -0.241445 0
M  V30 11457 H 1109.14 3.82316 1.42473 0
M  V30 11458 H 1107.81 4.14677 0.318749 0
M  V30 11459 H 1106.39 3.21228 1.89387 0
M  V30 11460 N 1108.58 -0.128553 1.57075 0
M  V30 11461 C 1109.52 -1.17719 2.00611 0
M  V30 11462 C 1110.52 -1.43423 0.90146 0
M  V30 11463 O 1111.72 -1.43498 1.08666 0
M  V30 11464 H 1108.1 -0.396683 0.638864 0
M  V30 11465 H 1110.07 -0.783437 2.87932 0
M  V30 11466 C 1108.82 -2.49826 2.41831 0
M  V30 11467 H 1108.14 -2.30883 3.26394 0
M  V30 11468 H 1109.58 -3.21784 2.761 0
M  V30 11469 C 1108.04 -3.11712 1.27816 0
M  V30 11470 O 1108.57 -3.9736 0.588917 0
M  V30 11471 N 1106.78 -2.71442 1.03767 0
M  V30 11472 H 1106.32 -2.01891 1.59994 0
M  V30 11473 H 1106.28 -3.1318 0.276743 0
M  V30 11474 N 1110.05 -1.5248 -0.398459 0
M  V30 11475 C 1110.98 -1.79549 -1.49279 0
M  V30 11476 C 1111.96 -0.647004 -1.57315 0
M  V30 11477 O 1113.15 -0.893661 -1.72416 0
M  V30 11478 C 1110.28 -1.95582 -2.86993 0
M  V30 11479 C 1109.23 -3.1123 -2.93803 0
M  V30 11480 C 1108.56 -3.12501 -4.33874 0
M  V30 11481 C 1109.86 -4.50485 -2.64312 0
M  V30 11482 H 1111.55 -2.71187 -1.26877 0
M  V30 11483 H 1109.1 -1.30492 -0.608924 0
M  V30 11484 H 1111.05 -2.13102 -3.63546 0
M  V30 11485 H 1109.78 -1.00625 -3.10712 0
M  V30 11486 H 1108.44 -2.93477 -2.19697 0
M  V30 11487 H 1108.08 -2.15245 -4.54619 0
M  V30 11488 H 1107.78 -3.90183 -4.39353 0
M  V30 11489 H 1109.31 -3.32164 -5.12347 0
M  V30 11490 H 1110.72 -4.68387 -3.30585 0
M  V30 11491 H 1109.12 -5.30163 -2.81153 0
M  V30 11492 H 1110.19 -4.57848 -1.59696 0
M  V30 11493 N 1111.53 0.65634 -1.43283 0
M  V30 11494 C 1112.78 1.41837 -1.44949 0
M  V30 11495 C 1113.11 1.94065 -0.0723212 0
M  V30 11496 O 1112.39 1.72092 0.906346 0
M  V30 11497 C 1112.67 2.60206 -2.48927 0
M  V30 11498 C 1112.52 2.1349 -3.95907 0
M  V30 11499 C 1113.84 3.62421 -2.49678 0
M  V30 11500 H 1110.96 0.514398 -0.527792 0
M  V30 11501 H 1113.6 0.74435 -1.74813 0
M  V30 11502 H 1111.75 3.17708 -2.23592 0
M  V30 11503 H 1113.42 1.61012 -4.32288 0
M  V30 11504 H 1111.67 1.4489 -4.08888 0
M  V30 11505 H 1112.34 2.98596 -4.64268 0
M  V30 11506 H 1114.81 3.14671 -2.72252 0
M  V30 11507 H 1113.69 4.42798 -3.24378 0
M  V30 11508 H 1113.95 4.14802 -1.52944 0
M  V30 11509 N 1113.01 1.29761 0.894412 0
M  V30 11510 C 1114.25 1.19313 1.65963 0
M  V30 11511 C 1114.61 -0.25022 1.90363 0
M  V30 11512 O 1115.81 -0.477779 2.6452 0
M  V30 11513 C 1114.09 1.98934 2.96917 0
M  V30 11514 S 1115.64 2.05079 3.87928 0
M  V30 11515 H 1112.46 0.42535 0.569735 0
M  V30 11516 H 1115.06 1.64116 1.06236 0
M  V30 11517 H 1113.77 3.02932 2.76876 0
M  V30 11518 H 1113.3 1.54756 3.61682 0
M  V30 11519 H 1115.31 1.17131 4.82177 0
M  V30 11520 N 1114.49 -1.10549 1.12324 0
M  V30 11521 C 1115.43 -2.16858 0.790024 0
M  V30 11522 C 1116.4 -1.64317 -0.242694 0
M  V30 11523 O 1117.59 -1.90438 -0.117531 0
M  V30 11524 C 1114.73 -3.44197 0.249503 0
M  V30 11525 C 1113.84 -4.10696 1.33989 0
M  V30 11526 C 1112.98 -5.25751 0.758932 0
M  V30 11527 C 1112.02 -5.8415 1.82853 0
M  V30 11528 N 1111.15 -6.90585 1.26637 0
M  V30 11529 H 1115.99 -2.44705 1.7007 0
M  V30 11530 H 1113.53 -1.20117 0.849141 0
M  V30 11531 H 1115.49 -4.1712 -0.0819251 0
M  V30 11532 H 1114.12 -3.16705 -0.624332 0
M  V30 11533 H 1113.17 -3.35754 1.78812 0
M  V30 11534 H 1114.48 -4.50144 2.14875 0
M  V30 11535 H 1113.64 -6.05521 0.378104 0
M  V30 11536 H 1112.38 -4.87632 -0.0811405 0
M  V30 11537 H 1111.38 -5.03051 2.21856 0
M  V30 11538 H 1112.61 -6.24333 2.6718 0
M  V30 11539 H 1110.55 -6.54468 0.448105 0
M  V30 11540 H 1110.47 -7.28739 2.01184 0
M  V30 11541 H 1111.74 -7.74138 0.912737 0
M  V30 11542 N 1115.97 -0.914965 -1.28321 0
M  V30 11543 C 1117.21 -0.549562 -1.95212 0
M  V30 11544 C 1117.54 0.904658 -1.71842 0
M  V30 11545 O 1116.82 1.64354 -1.04009 0
M  V30 11546 C 1117.1 -0.860927 -3.49657 0
M  V30 11547 C 1116.96 -2.36797 -3.82423 0
M  V30 11548 C 1118.27 -0.357926 -4.38642 0
M  V30 11549 H 1115.39 -0.201136 -0.709023 0
M  V30 11550 H 1118.04 -1.14443 -1.51667 0
M  V30 11551 H 1116.19 -0.354665 -3.86878 0
M  V30 11552 H 1117.86 -2.94494 -3.55065 0
M  V30 11553 H 1116.1 -2.82245 -3.29424 0
M  V30 11554 H 1116.77 -2.53637 -4.90278 0
M  V30 11555 H 1119.25 -0.791636 -4.085 0
M  V30 11556 H 1118.12 -0.604855 -5.45557 0
M  V30 11557 H 1118.38 0.741775 -4.35833 0
M  V30 11558 N 1117.44 1.42219 -0.679077 0
M  V30 11559 C 1118.67 2.06333 -0.210097 0
M  V30 11560 C 1119.09 1.50703 1.12562 0
M  V30 11561 O 1118.45 0.627241 1.70104 0
M  V30 11562 C 1118.5 3.60243 -0.160322 0
M  V30 11563 O 1117.6 4.03122 0.869872 0
M  V30 11564 H 1116.94 0.655362 -0.106754 0
M  V30 11565 H 1119.47 1.82278 -0.929294 0
M  V30 11566 H 1119.48 4.07997 0.014384 0
M  V30 11567 H 1118.16 4.00106 -1.13526 0
M  V30 11568 H 1116.74 3.66907 0.66586 0
M  V30 11569 N 1118.92 0.422693 1.51826 0
M  V30 11570 C 1120.2 -0.20786 1.94492 0
M  V30 11571 C 1120.58 -1.61414 1.36047 0
M  V30 11572 O 1119.93 -2.21987 0.541657 0
M  V30 11573 C 1120.14 -0.200457 3.48424 0
M  V30 11574 C 1121.48 -0.413199 4.22585 0
M  V30 11575 O 1122.51 -0.27922 3.55104 0
M  V30 11576 O 1121.37 -0.678469 5.42272 0
M  V30 11577 H 1118.46 -0.137851 0.81543 0
M  V30 11578 H 1121.01 0.479617 1.62781 0
M  V30 11579 H 1119.78 0.783263 3.83381 0
M  V30 11580 H 1119.4 -0.931464 3.86535 0
M  V30 11581 N 1120.4 -1.5685 0.153553 0
M  V30 11582 C 1121.65 -1.96334 -0.495915 0
M  V30 11583 C 1121.97 -1.03873 -1.64441 0
M  V30 11584 O 1121.23 -0.069231 -1.95578 0
M  V30 11585 C 1121.53 -3.42022 -1.0371 0
M  V30 11586 C 1121.19 -4.509 -0.00637049 0
M  V30 11587 C 1119.86 -4.80402 0.276956 0
M  V30 11588 C 1122.21 -5.16556 0.694187 0
M  V30 11589 C 1119.54 -5.72866 1.26653 0
M  V30 11590 C 1121.89 -6.10087 1.67263 0
M  V30 11591 C 1120.55 -6.37965 1.96359 0
M  V30 11592 H 1119.82 -0.718436 -0.181468 0
M  V30 11593 H 1122.47 -1.89968 0.241768 0
M  V30 11594 H 1120.77 -3.45252 -1.85225 0
M  V30 11595 H 1122.47 -3.69903 -1.54831 0
M  V30 11596 H 1119.06 -4.27942 -0.237378 0
M  V30 11597 H 1123.25 -4.9389 0.488496 0
M  V30 11598 H 1118.5 -5.92756 1.49833 0
M  V30 11599 H 1122.68 -6.60036 2.22094 0
M  V30 11600 H 1120.3 -7.09416 2.73189 0
M  V30 11601 N 1121.88 0.120221 -1.57141 0
M  V30 11602 C 1123.13 0.826586 -1.84423 0
M  V30 11603 C 1123.45 1.80473 -0.738553 0
M  V30 11604 O 1122.72 1.94454 0.23755 0
M  V30 11605 H 1121.3 0.308246 -0.680436 0
M  V30 11606 H 1123.96 0.107835 -1.94601 0
M  V30 11607 H 1123.05 1.37256 -2.80298 0
M  V30 11608 N 1123.36 1.52689 0.390367 0
M  V30 11609 C 1124.29 1.80338 1.48325 0
M  V30 11610 C 1125.27 0.655338 1.56969 0
M  V30 11611 O 1126.45 0.902792 1.7194 0
M  V30 11612 C 1123.58 1.97101 2.85952 0
M  V30 11613 C 1122.54 3.12783 2.92148 0
M  V30 11614 C 1121.86 3.14798 4.32211 0
M  V30 11615 C 1123.16 4.5188 2.61919 0
M  V30 11616 H 1124.86 2.71857 1.25437 0
M  V30 11617 H 1122.4 1.30813 0.601995 0
M  V30 11618 H 1124.36 2.15027 3.62411 0
M  V30 11619 H 1123.08 1.02271 3.10174 0
M  V30 11620 H 1121.74 2.94638 2.18137 0
M  V30 11621 H 1121.39 2.17653 4.53471 0
M  V30 11622 H 1121.09 3.92507 4.37278 0
M  V30 11623 H 1122.61 3.34877 5.10578 0
M  V30 11624 H 1124.02 4.70134 3.28096 0
M  V30 11625 H 1122.42 5.31647 2.78337 0
M  V30 11626 H 1123.49 4.58689 1.57266 0
M  V30 11627 N 1124.83 -0.648732 1.43629 0
M  V30 11628 C 1126.06 -1.44117 1.49148 0
M  V30 11629 C 1126.48 -1.87767 0.111952 0
M  V30 11630 O 1125.84 -1.57655 -0.895249 0
M  V30 11631 C 1125.89 -2.64938 2.44623 0
M  V30 11632 O 1124.99 -3.64155 1.93559 0
M  V30 11633 H 1124.34 -0.431933 0.504312 0
M  V30 11634 H 1126.87 -0.793439 1.88589 0
M  V30 11635 H 1126.88 -3.12698 2.62076 0
M  V30 11636 H 1125.55 -2.3251 3.44836 0
M  V30 11637 H 1124.13 -3.23322 1.85789 0
M  V30 11638 N 1126.31 -1.30234 -0.887518 0
M  V30 11639 C 1127.73 -1.0851 -1.17037 0
M  V30 11640 C 1127.93 0.155788 -2.00897 0
M  V30 11641 O 1126.98 0.850123 -2.37759 0
M  V30 11642 C 1128.3 -2.34723 -1.87951 0
M  V30 11643 C 1129.85 -2.40163 -2.00726 0
M  V30 11644 C 1130.32 -3.66211 -2.75051 0
M  V30 11645 N 1131.81 -3.67004 -2.82599 0
M  V30 11646 C 1132.55 -4.61224 -3.40676 0
M  V30 11647 N 1132.04 -5.65786 -3.99823 0
M  V30 11648 N 1133.84 -4.48772 -3.38467 0
M  V30 11649 H 1125.99 -2.09847 -0.328297 0
M  V30 11650 H 1128.25 -0.924904 -0.20798 0
M  V30 11651 H 1127.96 -3.25265 -1.33773 0
M  V30 11652 H 1127.83 -2.43175 -2.8835 0
M  V30 11653 H 1130.22 -1.50101 -2.54074 0
M  V30 11654 H 1130.3 -2.35688 -0.994218 0
M  V30 11655 H 1129.94 -4.56631 -2.22376 0
M  V30 11656 H 1129.87 -3.67947 -3.76726 0
M  V30 11657 H 1132.36 -2.91409 -2.40602 0
M  V30 11658 H 1132.68 -6.33783 -4.42197 0
M  V30 11659 H 1131.02 -5.69581 -3.9825 0
M  V30 11660 H 1134.21 -3.6627 -2.91485 0
M  V30 11661 H 1134.38 -5.22382 -3.83433 0
M  V30 11662 N 1127.79 1.09952 -1.12909 0
M  V30 11663 C 1129.04 1.82016 -0.887482 0
M  V30 11664 C 1129.37 1.85445 0.586546 0
M  V30 11665 O 1128.62 1.31446 1.44984 0
M  V30 11666 C 1128.92 3.28252 -1.41369 0
M  V30 11667 C 1128.59 3.44965 -2.90362 0
M  V30 11668 C 1127.25 3.49233 -3.31043 0
M  V30 11669 C 1129.6 3.49947 -3.86247 0
M  V30 11670 C 1126.93 3.56057 -4.66305 0
M  V30 11671 C 1129.28 3.58305 -5.21345 0
M  V30 11672 C 1127.94 3.6084 -5.61561 0
M  V30 11673 H 1127.21 0.666046 -0.324753 0
M  V30 11674 H 1129.86 1.29568 -1.41012 0
M  V30 11675 H 1128.17 3.83301 -0.81163 0
M  V30 11676 H 1129.86 3.82533 -1.20289 0
M  V30 11677 H 1126.45 3.42323 -2.57901 0
M  V30 11678 H 1130.64 3.45895 -3.55908 0
M  V30 11679 H 1125.89 3.56305 -4.96847 0
M  V30 11680 H 1130.07 3.61104 -5.95463 0
M  V30 11681 H 1127.69 3.6588 -6.6636 0
M  V30 11682 N 1129.27 0.921757 1.27833 0
M  V30 11683 C 1130.2 0.433466 2.29441 0
M  V30 11684 C 1131.18 -0.503133 1.62489 0
M  V30 11685 O 1132.36 -0.409156 1.89841 0
M  V30 11686 C 1129.49 -0.320029 3.45822 0
M  V30 11687 C 1128.45 0.528178 4.24728 0
M  V30 11688 C 1127.77 -0.354132 5.33526 0
M  V30 11689 C 1129.07 1.78959 4.90684 0
M  V30 11690 H 1130.77 1.28263 2.70535 0
M  V30 11691 H 1128.31 0.618197 1.30055 0
M  V30 11692 H 1130.27 -0.672526 4.15999 0
M  V30 11693 H 1128.99 -1.20317 3.0363 0
M  V30 11694 H 1127.65 0.863302 3.5629 0
M  V30 11695 H 1127.3 -1.23605 4.87576 0
M  V30 11696 H 1127 0.209855 5.87225 0
M  V30 11697 H 1128.52 -0.702333 6.06547 0
M  V30 11698 H 1129.94 1.50552 5.53179 0
M  V30 11699 H 1128.33 2.29661 5.54415 0
M  V30 11700 H 1129.4 2.51265 4.14721 0
M  V30 11701 N 1130.75 -1.41857 0.686609 0
M  V30 11702 C 1131.66 -2.34595 0.0159005 0
M  V30 11703 C 1132.67 -1.55741 -0.775933 0
M  V30 11704 O 1133.85 -1.8826 -0.71555 0
M  V30 11705 C 1130.91 -3.34395 -0.915473 0
M  V30 11706 C 1129.97 -4.29141 -0.116851 0
M  V30 11707 C 1129.21 -5.24174 -1.00386 0
M  V30 11708 O 1129.43 -5.24431 -2.2434 0
M  V30 11709 O 1128.36 -6.00152 -0.458337 0
M  V30 11710 H 1132.19 -2.9351 0.780101 0
M  V30 11711 H 1129.78 -1.42559 0.446896 0
M  V30 11712 H 1131.66 -3.95675 -1.44981 0
M  V30 11713 H 1130.33 -2.77936 -1.65932 0
M  V30 11714 H 1129.24 -3.71238 0.461871 0
M  V30 11715 H 1130.57 -4.88673 0.588138 0
M  V30 11716 N 1132.22 -0.430739 -1.51599 0
M  V30 11717 C 1133.13 0.390347 -2.3133 0
M  V30 11718 C 1134.15 1.03376 -1.39962 0
M  V30 11719 O 1135.33 1.03057 -1.73035 0
M  V30 11720 C 1132.39 1.48039 -3.13505 0
M  V30 11721 C 1131.45 0.857792 -4.20643 0
M  V30 11722 C 1130.69 1.89589 -4.9889 0
M  V30 11723 O 1130.91 3.11717 -4.77691 0
M  V30 11724 O 1129.84 1.49009 -5.83164 0
M  V30 11725 H 1133.67 -0.260358 -3.02582 0
M  V30 11726 H 1131.25 -0.193428 -1.48143 0
M  V30 11727 H 1133.14 2.11272 -3.64612 0
M  V30 11728 H 1131.81 2.1153 -2.45024 0
M  V30 11729 H 1130.72 0.187592 -3.73629 0
M  V30 11730 H 1132.05 0.266474 -4.91478 0
M  V30 11731 N 1133.7 1.56767 -0.161869 0
M  V30 11732 C 1134.65 2.18807 0.789074 0
M  V30 11733 C 1135.64 1.14934 1.24445 0
M  V30 11734 O 1136.85 1.33154 1.2112 0
M  V30 11735 H 1133.23 0.700808 0.272713 0
M  V30 11736 H 1135.2 2.97419 0.241766 0
M  V30 11737 C 1133.95 2.83568 2.01207 0
M  V30 11738 H 1133.27 3.63219 1.67068 0
M  V30 11739 H 1134.71 3.3046 2.65654 0
M  V30 11740 C 1133.17 1.82846 2.82964 0
M  V30 11741 O 1133.7 1.30809 3.79805 0
M  V30 11742 N 1131.9 1.51815 2.47791 0
M  V30 11743 H 1131.45 1.94325 1.69103 0
M  V30 11744 H 1131.41 0.846742 3.02783 0
M  V30 11745 N 1135.18 -0.111886 1.57202 0
M  V30 11746 C 1136.41 -0.836317 1.89791 0
M  V30 11747 C 1136.83 -1.72304 0.754513 0
M  V30 11748 O 1136.19 -1.78889 -0.294672 0
M  V30 11749 C 1136.24 -1.63971 3.21164 0
M  V30 11750 O 1135.34 -2.74726 3.0757 0
M  V30 11751 H 1134.68 -0.230833 0.622585 0
M  V30 11752 H 1137.21 -0.0921478 2.04392 0
M  V30 11753 H 1137.22 -2.02746 3.54059 0
M  V30 11754 H 1135.9 -0.98882 4.03974 0
M  V30 11755 H 1134.47 -2.39101 2.86156 0
M  V30 11756 N 1136.66 -1.52894 -0.382264 0
M  V30 11757 C 1137.88 -1.72453 -1.15216 0
M  V30 11758 C 1138.31 -0.444925 -1.82762 0
M  V30 11759 O 1137.67 0.599825 -1.7109 0
M  V30 11760 C 1137.71 -2.87939 -2.17079 0
M  V30 11761 O 1136.82 -2.55383 -3.23811 0
M  V30 11762 H 1136.16 -0.57324 -0.335099 0
M  V30 11763 H 1138.69 -1.99713 -0.444495 0
M  V30 11764 H 1138.7 -3.13628 -2.60963 0
M  V30 11765 H 1137.37 -3.80765 -1.67305 0
M  V30 11766 H 1135.95 -2.40457 -2.85018 0
M  V30 11767 N 1138.14 0.641106 -1.43971 0
M  V30 11768 C 1139.41 1.39897 -1.36704 0
M  V30 11769 C 1139.79 2.1109 -0.0208051 0
M  V30 11770 O 1139.14 2.05638 0.99625 0
M  V30 11771 C 1139.35 2.37366 -2.55849 0
M  V30 11772 C 1140.7 3.01 -2.99473 0
M  V30 11773 O 1141.72 2.47692 -2.55982 0
M  V30 11774 O 1140.58 3.9768 -3.74851 0
M  V30 11775 H 1137.68 0.625623 -0.540855 0
M  V30 11776 H 1140.22 0.666997 -1.56042 0
M  V30 11777 H 1139 1.8379 -3.45452 0
M  V30 11778 H 1138.62 3.17995 -2.38673 0
M  V30 11779 N 1139.62 1.30703 0.880598 0
M  V30 11780 C 1141.03 1.17818 1.4483 0
M  V30 11781 C 1141.38 -0.219456 1.94969 0
M  V30 11782 O 1140.5 -1.11646 1.85375 0
M  V30 11783 C 1141.1 2.13275 2.63247 0
M  V30 11784 C 1139.66 2.04356 3.16094 0
M  V30 11785 C 1138.8 2.03108 1.88792 0
M  V30 11786 H 1141.75 1.42909 0.690125 0
M  V30 11787 H 1141.78 1.71615 3.39601 0
M  V30 11788 H 1141.29 3.14988 2.26725 0
M  V30 11789 H 1139.39 1.058 3.57263 0
M  V30 11790 H 1139.5 2.92953 3.79098 0
M  V30 11791 H 1137.87 1.47971 2.07308 0
M  V30 11792 H 1138.65 3.06558 1.54521 0
M  V30 11793 N 1141.09 -1.09351 1.1349 0
M  V30 11794 C 1142.32 -1.85304 0.920324 0
M  V30 11795 C 1142.74 -1.81182 -0.530883 0
M  V30 11796 O 1142.09 -1.20853 -1.36751 0
M  V30 11797 C 1142.14 -3.33249 1.40098 0
M  V30 11798 O 1141.87 -3.37333 2.79531 0
M  V30 11799 C 1143.37 -4.2604 1.22495 0
M  V30 11800 H 1140.59 -0.585294 0.328134 0
M  V30 11801 H 1143.13 -1.38168 1.50765 0
M  V30 11802 H 1141.29 -3.7781 0.85664 0
M  V30 11803 H 1141.7 -4.29614 3.00885 0
M  V30 11804 H 1143.17 -5.27999 1.61 0
M  V30 11805 H 1143.65 -4.38883 0.166717 0
M  V30 11806 H 1144.26 -3.87295 1.75735 0
M  V30 11807 N 1142.57 -0.928524 -1.27343 0
M  V30 11808 C 1143.8 -0.584884 -1.98148 0
M  V30 11809 C 1144.21 0.841603 -1.69451 0
M  V30 11810 O 1143.55 1.57104 -0.952053 0
M  V30 11811 C 1143.61 -0.731911 -3.51971 0
M  V30 11812 C 1143.28 -2.13067 -4.04291 0
M  V30 11813 C 1144.28 -3.10492 -4.17002 0
M  V30 11814 C 1141.96 -2.44784 -4.38619 0
M  V30 11815 C 1143.95 -4.37742 -4.63315 0
M  V30 11816 C 1141.64 -3.72269 -4.84622 0
M  V30 11817 C 1142.64 -4.68562 -4.9693 0
M  V30 11818 O 1142.33 -5.93779 -5.41924 0
M  V30 11819 H 1142.06 -0.220347 -0.63908 0
M  V30 11820 H 1144.61 -1.24799 -1.63139 0
M  V30 11821 H 1142.84 -0.0116966 -3.86698 0
M  V30 11822 H 1144.53 -0.393206 -4.03991 0
M  V30 11823 H 1145.3 -2.8731 -3.9074 0
M  V30 11824 H 1141.18 -1.70577 -4.28281 0
M  V30 11825 H 1144.72 -5.12905 -4.72836 0
M  V30 11826 H 1140.62 -3.95269 -5.10326 0
M  V30 11827 H 1141.39 -5.96779 -5.60176 0
M  V30 11828 N 1144.05 1.41491 -0.694123 0
M  V30 11829 C 1145.28 2.05579 -0.233466 0
M  V30 11830 C 1145.69 1.5223 1.11675 0
M  V30 11831 O 1145.05 0.669937 1.69759 0
M  V30 11832 C 1145.1 3.61047 -0.180967 0
M  V30 11833 O 1144.82 4.12421 -1.47785 0
M  V30 11834 C 1146.32 4.42278 0.300853 0
M  V30 11835 H 1143.54 0.662097 -0.108943 0
M  V30 11836 H 1146.09 1.81288 -0.946299 0
M  V30 11837 H 1144.24 3.84381 0.482678 0
M  V30 11838 H 1144.66 5.06454 -1.364 0
M  V30 11839 H 1146.13 5.51256 0.286464 0
M  V30 11840 H 1146.61 4.18276 1.33948 0
M  V30 11841 H 1147.21 4.24004 -0.331741 0
M  V30 11842 N 1145.53 0.438773 1.51369 0
M  V30 11843 C 1146.75 -0.128221 2.07003 0
M  V30 11844 C 1147.18 -1.3557 1.30393 0
M  V30 11845 O 1146.54 -1.7804 0.342283 0
M  V30 11846 C 1146.58 -0.42761 3.58056 0
M  V30 11847 O 1145.69 -1.51382 3.83611 0
M  V30 11848 H 1145.03 -0.00123679 0.663999 0
M  V30 11849 H 1147.56 0.62052 1.94963 0
M  V30 11850 H 1147.57 -0.677645 4.02333 0
M  V30 11851 H 1146.24 0.469535 4.13241 0
M  V30 11852 H 1144.82 -1.25363 3.51196 0
M  V30 11853 N 1147.01 -1.56678 0.170181 0
M  V30 11854 C 1148.23 -2.0166 -0.484543 0
M  V30 11855 C 1148.66 -1.04962 -1.56091 0
M  V30 11856 O 1148.01 -0.0289887 -1.81277 0
M  V30 11857 C 1148.06 -3.45252 -1.04084 0
M  V30 11858 O 1147.17 -3.51623 -2.15488 0
M  V30 11859 H 1146.51 -0.653765 -0.116135 0
M  V30 11860 H 1149.04 -2.02761 0.273737 0
M  V30 11861 H 1149.05 -3.84534 -1.36373 0
M  V30 11862 H 1147.72 -4.15131 -0.252738 0
M  V30 11863 H 1146.3 -3.242 -1.84252 0
M  V30 11864 N 1148.48 0.103547 -1.57259 0
M  V30 11865 C 1149.41 1.12714 -2.04494 0
M  V30 11866 C 1150.39 1.42278 -0.932255 0
M  V30 11867 O 1151.58 1.52453 -1.20298 0
M  V30 11868 C 1148.71 2.44927 -2.46228 0
M  V30 11869 C 1147.66 2.2979 -3.61082 0
M  V30 11870 C 1146.99 3.67105 -3.88765 0
M  V30 11871 C 1148.29 1.7455 -4.9227 0
M  V30 11872 H 1149.98 0.734198 -2.90258 0
M  V30 11873 H 1147.53 0.351725 -1.39638 0
M  V30 11874 H 1149.48 3.16798 -2.77879 0
M  V30 11875 H 1148.21 2.8614 -1.57453 0
M  V30 11876 H 1146.87 1.60366 -3.29664 0
M  V30 11877 H 1146.51 4.05831 -2.97171 0
M  V30 11878 H 1146.21 3.57825 -4.66084 0
M  V30 11879 H 1147.74 4.40456 -4.22884 0
M  V30 11880 H 1149.15 2.36253 -5.22358 0
M  V30 11881 H 1147.55 1.76051 -5.73695 0
M  V30 11882 H 1148.62 0.704242 -4.79759 0
M  V30 11883 N 1149.96 1.53094 0.37415 0
M  V30 11884 C 1151.21 1.68527 1.11548 0
M  V30 11885 C 1151.53 0.435253 1.9008 0
M  V30 11886 O 1150.8 -0.550594 1.88003 0
M  V30 11887 H 1149.38 0.621255 0.41479 0
M  V30 11888 H 1152.04 1.90258 0.422844 0
M  V30 11889 H 1151.14 2.54248 1.81009 0
M  V30 11890 N 1151.44 -0.633461 1.44309 0
M  V30 11891 C 1152.69 -1.39031 1.46679 0
M  V30 11892 C 1153.01 -1.94745 0.0997165 0
M  V30 11893 O 1152.28 -1.75637 -0.867659 0
M  V30 11894 H 1150.86 -0.516051 0.540093 0
M  V30 11895 H 1153.52 -0.745739 1.80069 0
M  V30 11896 H 1152.62 -2.2228 2.19085 0
M  V30 11897 N 1152.92 -1.31168 -0.873655 0
M  V30 11898 C 1153.87 -1.18507 -1.98052 0
M  V30 11899 C 1154.84 -0.0717583 -1.65945 0
M  V30 11900 O 1156.02 -0.243965 -1.89234 0
M  V30 11901 C 1153.16 -0.894571 -3.33304 0
M  V30 11902 C 1152.27 -2.09086 -3.7803 0
M  V30 11903 C 1151.41 -1.73747 -5.01982 0
M  V30 11904 C 1150.45 -2.89805 -5.39147 0
M  V30 11905 N 1149.58 -2.54686 -6.54278 0
M  V30 11906 H 1154.42 -2.13193 -2.08213 0
M  V30 11907 H 1151.96 -1.06056 -1.01934 0
M  V30 11908 H 1153.92 -0.706714 -4.11171 0
M  V30 11909 H 1152.55 0.0154449 -3.22796 0
M  V30 11910 H 1151.6 -2.38961 -2.95976 0
M  V30 11911 H 1152.91 -2.95963 -4.01506 0
M  V30 11912 H 1152.07 -1.51402 -5.87505 0
M  V30 11913 H 1150.81 -0.840553 -4.80402 0
M  V30 11914 H 1149.81 -3.12803 -4.52144 0
M  V30 11915 H 1151.04 -3.802 -5.62694 0
M  V30 11916 H 1148.98 -1.67513 -6.34252 0
M  V30 11917 H 1148.9 -3.35093 -6.77679 0
M  V30 11918 H 1150.17 -2.35725 -7.43003 0
M  V30 11919 N 1154.4 1.08748 -1.14068 0
M  V30 11920 C 1155.65 1.8044 -0.901352 0
M  V30 11921 C 1155.96 1.86995 0.573791 0
M  V30 11922 O 1157.16 2.55065 0.930275 0
M  V30 11923 C 1155.62 3.24185 -1.56308 0
M  V30 11924 C 1155.23 3.25875 -3.07424 0
M  V30 11925 C 1156.97 4.00584 -1.40473 0
M  V30 11926 C 1154.88 4.64186 -3.66449 0
M  V30 11927 H 1153.81 0.676201 -0.333569 0
M  V30 11928 H 1156.46 1.22169 -1.3692 0
M  V30 11929 H 1154.84 3.82561 -1.0229 0
M  V30 11930 H 1156.02 2.77225 -3.6808 0
M  V30 11931 H 1154.33 2.62969 -3.22856 0
M  V30 11932 H 1156.93 5.02781 -1.81976 0
M  V30 11933 H 1157.27 4.14823 -0.350408 0
M  V30 11934 H 1157.8 3.48668 -1.91508 0
M  V30 11935 H 1154.54 4.5515 -4.71719 0
M  V30 11936 H 1154.06 5.13132 -3.10574 0
M  V30 11937 H 1155.74 5.33161 -3.66536 0
M  V30 11938 N 1155.87 0.935264 1.26849 0
M  V30 11939 C 1157.29 0.623198 1.75992 0
M  V30 11940 C 1157.64 -0.861647 1.76267 0
M  V30 11941 O 1156.76 -1.6743 1.37099 0
M  V30 11942 C 1157.36 1.12451 3.19594 0
M  V30 11943 C 1155.92 0.862974 3.66374 0
M  V30 11944 C 1155.06 1.27886 2.4605 0
M  V30 11945 H 1158.01 1.11422 1.13008 0
M  V30 11946 H 1158.03 0.475626 3.77516 0
M  V30 11947 H 1157.55 2.20522 3.19361 0
M  V30 11948 H 1155.65 -0.203606 3.72043 0
M  V30 11949 H 1155.76 1.48582 4.55478 0
M  V30 11950 H 1154.12 0.697335 2.44968 0
M  V30 11951 H 1154.91 2.36837 2.48522 0
M  V30 11952 N 1157.35 -1.41121 0.701616 0
M  V30 11953 C 1158.6 -2.00359 0.232214 0
M  V30 11954 C 1158.91 -1.56231 -1.17691 0
M  V30 11955 O 1160.12 -2.08071 -1.74409 0
M  V30 11956 C 1158.58 -3.58052 0.364257 0
M  V30 11957 C 1158.18 -4.11158 1.77913 0
M  V30 11958 C 1159.93 -4.24476 -0.0450628 0
M  V30 11959 C 1157.84 -5.61306 1.8625 0
M  V30 11960 H 1156.77 -0.749411 0.0830609 0
M  V30 11961 H 1159.42 -1.61528 0.870689 0
M  V30 11962 H 1157.8 -3.94515 -0.342569 0
M  V30 11963 H 1158.97 -3.86101 2.5152 0
M  V30 11964 H 1157.29 -3.57282 2.13866 0
M  V30 11965 H 1159.88 -5.347 -0.00329209 0
M  V30 11966 H 1160.23 -4.01919 -1.08477 0
M  V30 11967 H 1160.76 -3.93069 0.611704 0
M  V30 11968 H 1157.5 -5.88699 2.88294 0
M  V30 11969 H 1157.02 -5.88271 1.17036 0
M  V30 11970 H 1158.7 -6.26179 1.62817 0
M  V30 11971 N 1158.83 -0.446794 -1.51134 0
M  V30 11972 C 1160.25 -0.0995905 -1.59289 0
M  V30 11973 C 1160.45 1.39191 -1.45699 0
M  V30 11974 O 1159.5 2.1628 -1.30303 0
M  V30 11975 C 1160.82 -0.628135 -2.94066 0
M  V30 11976 C 1162.36 -0.589409 -3.074 0
M  V30 11977 C 1162.84 -1.09509 -4.44715 0
M  V30 11978 N 1164.33 -1.05347 -4.51061 0
M  V30 11979 C 1165.06 -1.41551 -5.55654 0
M  V30 11980 N 1164.56 -1.85086 -6.67619 0
M  V30 11981 N 1166.35 -1.33307 -5.46064 0
M  V30 11982 H 1158.5 -1.41713 -1.58213 0
M  V30 11983 H 1160.77 -0.584555 -0.746324 0
M  V30 11984 H 1160.47 -1.67205 -3.09411 0
M  V30 11985 H 1160.35 -0.0582398 -3.77155 0
M  V30 11986 H 1162.73 0.445541 -2.91717 0
M  V30 11987 H 1162.82 -1.19582 -2.26128 0
M  V30 11988 H 1162.46 -2.12855 -4.61146 0
M  V30 11989 H 1162.39 -0.465122 -5.24542 0
M  V30 11990 H 1164.88 -0.733877 -3.70706 0
M  V30 11991 H 1165.19 -2.10923 -7.43459 0
M  V30 11992 H 1163.54 -1.8902 -6.68802 0
M  V30 11993 H 1166.73 -0.991547 -4.57478 0
M  V30 11994 H 1166.9 -1.6185 -6.27462 0
M  V30 11995 N 1160.31 1.56586 -0.178487 0
M  V30 11996 C 1161.55 1.98159 0.45876 0
M  V30 11997 C 1161.91 1.0629 1.60375 0
M  V30 11998 O 1161.2 0.103975 1.91318 0
M  V30 11999 C 1161.4 3.43629 0.982552 0
M  V30 12000 C 1161.23 4.49565 -0.110152 0
M  V30 12001 C 1160 5.02162 -0.562228 0
M  V30 12002 C 1162.19 5.06129 -0.913143 0
M  V30 12003 N 1160.18 5.91741 -1.63449 0
M  V30 12004 C 1161.55 5.92217 -1.83517 0
M  V30 12005 C 1163.6 4.88608 -0.957421 0
M  V30 12006 C 1162.3 6.6266 -2.79775 0
M  V30 12007 C 1164.33 5.59777 -1.90798 0
M  V30 12008 C 1163.69 6.45599 -2.81747 0
M  V30 12009 H 1159.79 0.770124 0.13577 0
M  V30 12010 H 1162.38 1.92671 -0.280358 0
M  V30 12011 H 1160.55 3.49649 1.69117 0
M  V30 12012 H 1162.28 3.72199 1.58902 0
M  V30 12013 H 1159.03 4.73334 -0.158612 0
M  V30 12014 H 1159.46 6.41235 -2.17132 0
M  V30 12015 H 1164.1 4.21948 -0.268285 0
M  V30 12016 H 1161.82 7.28529 -3.49673 0
M  V30 12017 H 1165.4 5.48204 -1.94844 0
M  V30 12018 H 1164.28 6.99701 -3.54102 0
M  V30 12019 N 1161.79 -0.095206 1.57312 0
M  V30 12020 C 1163.01 -0.81227 1.90289 0
M  V30 12021 C 1163.43 -1.72287 0.772178 0
M  V30 12022 O 1162.79 -1.80698 -0.255841 0
M  V30 12023 C 1162.84 -1.62572 3.22882 0
M  V30 12024 O 1162.56 -0.75175 4.31602 0
M  V30 12025 C 1164.06 -2.44585 3.6972 0
M  V30 12026 H 1161.28 -0.232256 0.629522 0
M  V30 12027 H 1163.82 -0.0724733 2.04372 0
M  V30 12028 H 1161.98 -2.31803 3.10397 0
M  V30 12029 H 1162.39 -1.31514 5.07744 0
M  V30 12030 H 1163.87 -2.97155 4.65191 0
M  V30 12031 H 1164.34 -3.23044 2.97555 0
M  V30 12032 H 1164.95 -1.80554 3.85072 0
M  V30 12033 N 1163.26 -1.53291 -0.366026 0
M  V30 12034 C 1164.23 -1.79025 -1.43117 0
M  V30 12035 C 1165.23 -0.660676 -1.46601 0
M  V30 12036 O 1166.42 -0.928875 -1.47369 0
M  V30 12037 C 1163.55 -1.91192 -2.82238 0
M  V30 12038 H 1164.74 -2.74154 -1.21572 0
M  V30 12039 H 1162.3 -1.44361 -0.599132 0
M  V30 12040 H 1163.03 -0.98129 -3.09097 0
M  V30 12041 H 1162.82 -2.7335 -2.81109 0
M  V30 12042 H 1164.31 -2.12696 -3.59375 0
M  V30 12043 N 1164.74 0.6258 -1.44643 0
M  V30 12044 C 1166.15 1.20751 -1.42394 0
M  V30 12045 C 1166.5 1.95685 -0.142047 0
M  V30 12046 O 1165.63 2.02715 0.757332 0
M  V30 12047 C 1166.22 2.1964 -2.57961 0
M  V30 12048 C 1164.78 2.73227 -2.5889 0
M  V30 12049 C 1163.93 1.48315 -2.34303 0
M  V30 12050 H 1166.88 0.416162 -1.53146 0
M  V30 12051 H 1166.9 3.02342 -2.31019 0
M  V30 12052 H 1166.41 1.65073 -3.51244 0
M  V30 12053 H 1164.52 3.31782 -1.69563 0
M  V30 12054 H 1164.63 3.18902 -3.57545 0
M  V30 12055 H 1162.99 1.76634 -1.83501 0
M  V30 12056 H 1163.78 0.956427 -3.29708 0
M  V30 12057 N 1166.22 1.31629 0.866686 0
M  V30 12058 C 1167.13 1.21524 2.00671 0
M  V30 12059 C 1168.15 0.131277 1.73504 0
M  V30 12060 O 1169.32 0.349699 1.98341 0
M  V30 12061 C 1166.39 0.926491 3.34091 0
M  V30 12062 C 1165.45 2.09769 3.7456 0
M  V30 12063 C 1164.68 1.82262 5.01614 0
M  V30 12064 O 1164.9 0.759329 5.65323 0
M  V30 12065 O 1163.84 2.68031 5.38928 0
M  V30 12066 H 1167.66 2.17335 2.1213 0
M  V30 12067 H 1165.25 1.11401 0.995499 0
M  V30 12068 H 1167.13 0.78144 4.14091 0
M  V30 12069 H 1165.81 -0.00155829 3.237 0
M  V30 12070 H 1164.71 2.29816 2.95187 0
M  V30 12071 H 1166.05 3.0081 3.89582 0
M  V30 12072 N 1167.7 -1.08142 1.14644 0
M  V30 12073 C 1168.66 -2.13308 0.83859 0
M  V30 12074 C 1169.66 -1.60022 -0.158012 0
M  V30 12075 O 1170.85 -1.74057 0.0706621 0
M  V30 12076 C 1167.98 -3.39978 0.250591 0
M  V30 12077 H 1169.18 -2.42049 1.77066 0
M  V30 12078 H 1166.73 -1.23899 0.952828 0
M  V30 12079 H 1167.47 -3.16873 -0.690064 0
M  V30 12080 H 1167.25 -3.79952 0.968456 0
M  V30 12081 H 1168.74 -4.17567 0.0525115 0
M  V30 12082 N 1169.18 -0.941978 -1.26351 0
M  V30 12083 C 1170.43 -0.585711 -1.93009 0
M  V30 12084 C 1170.74 0.879507 -1.74711 0
M  V30 12085 O 1171.95 1.34518 -2.35833 0
M  V30 12086 C 1170.4 -0.996787 -3.45821 0
M  V30 12087 C 1170.01 -2.48367 -3.72851 0
M  V30 12088 C 1171.75 -0.712452 -4.18479 0
M  V30 12089 C 1169.66 -2.83341 -5.19107 0
M  V30 12090 H 1168.59 -0.215342 -0.722595 0
M  V30 12091 H 1171.24 -1.14472 -1.43417 0
M  V30 12092 H 1169.62 -0.366295 -3.94302 0
M  V30 12093 H 1170.8 -3.16328 -3.35072 0
M  V30 12094 H 1169.11 -2.74139 -3.13427 0
M  V30 12095 H 1171.71 -0.95007 -5.26192 0
M  V30 12096 H 1172.05 0.350811 -4.14819 0
M  V30 12097 H 1172.59 -1.3027 -3.75865 0
M  V30 12098 H 1169.32 -3.88633 -5.27868 0
M  V30 12099 H 1168.84 -2.20043 -5.5798 0
M  V30 12100 H 1170.52 -2.71849 -5.87118 0
M  V30 12101 N 1170.66 1.40747 -0.709091 0
M  V30 12102 C 1171.62 2.29118 -0.0611607 0
M  V30 12103 C 1172.62 1.45049 0.694081 0
M  V30 12104 O 1173.81 1.66039 0.526952 0
M  V30 12105 C 1170.94 3.28154 0.923447 0
M  V30 12106 H 1172.13 2.87913 -0.839413 0
M  V30 12107 H 1169.69 1.4896 -0.473363 0
M  V30 12108 H 1170.42 2.74366 1.72899 0
M  V30 12109 H 1170.21 3.90207 0.384862 0
M  V30 12110 H 1171.7 3.94343 1.37417 0
M  V30 12111 N 1172.13 0.454803 1.50895 0
M  V30 12112 C 1173.38 -0.10577 2.02224 0
M  V30 12113 C 1173.71 -1.41176 1.33789 0
M  V30 12114 O 1172.96 -1.90522 0.447181 0
M  V30 12115 C 1173.26 -0.354159 3.55641 0
M  V30 12116 C 1172.93 0.868136 4.42464 0
M  V30 12117 C 1171.59 1.2033 4.65912 0
M  V30 12118 C 1173.94 1.68272 4.93289 0
M  V30 12119 C 1171.27 2.3534 5.37431 0
M  V30 12120 C 1173.62 2.82396 5.6607 0
M  V30 12121 C 1172.29 3.16346 5.87777 0
M  V30 12122 H 1171.56 -0.0387041 0.739989 0
M  V30 12123 H 1174.2 0.605564 1.81673 0
M  V30 12124 H 1172.51 -1.14757 3.74617 0
M  V30 12125 H 1174.21 -0.8016 3.92906 0
M  V30 12126 H 1170.8 0.596995 4.24422 0
M  V30 12127 H 1174.98 1.43698 4.75042 0
M  V30 12128 H 1170.24 2.61936 5.52449 0
M  V30 12129 H 1174.41 3.45873 6.04438 0
M  V30 12130 H 1172.04 4.05574 6.42973 0
M  V30 12131 N 1173.61 -1.56489 0.186789 0
M  V30 12132 C 1175.03 -1.58701 -0.169176 0
M  V30 12133 C 1175.23 -1.2027 -1.61671 0
M  V30 12134 O 1174.28 -0.92154 -2.35083 0
M  V30 12135 C 1175.6 -3.00437 0.125657 0
M  V30 12136 C 1177.14 -3.12932 0.0651 0
M  V30 12137 C 1177.62 -4.56787 0.333131 0
M  V30 12138 N 1179.11 -4.62344 0.281453 0
M  V30 12139 C 1179.85 -5.71529 0.462805 0
M  V30 12140 N 1179.34 -6.89213 0.704054 0
M  V30 12141 N 1181.13 -5.60692 0.397636 0
M  V30 12142 H 1173.29 -1.79754 1.13148 0
M  V30 12143 H 1175.55 -0.83385 0.450997 0
M  V30 12144 H 1175.25 -3.33086 1.12901 0
M  V30 12145 H 1175.13 -3.72782 -0.575612 0
M  V30 12146 H 1177.52 -2.80101 -0.928845 0
M  V30 12147 H 1177.6 -2.42991 0.799318 0
M  V30 12148 H 1177.24 -4.9033 1.32436 0
M  V30 12149 H 1177.17 -5.24907 -0.421879 0
M  V30 12150 H 1179.66 -3.77764 0.101266 0
M  V30 12151 H 1179.97 -7.68314 0.831468 0
M  V30 12152 H 1178.32 -6.9104 0.740851 0
M  V30 12153 H 1181.51 -4.6763 0.20964 0
M  V30 12154 H 1181.68 -6.45726 0.54239 0
M  V30 12155 N 1175.09 0.086862 -1.5736 0
M  V30 12156 C 1176.04 1.10478 -2.02641 0
M  V30 12157 C 1177.01 1.39331 -0.904219 0
M  V30 12158 O 1178.19 1.50654 -1.17081 0
M  V30 12159 C 1175.33 2.41754 -2.4627 0
M  V30 12160 C 1174.44 2.19561 -3.72044 0
M  V30 12161 C 1173.58 3.44294 -4.04519 0
M  V30 12162 C 1172.62 3.17399 -5.23378 0
M  V30 12163 N 1171.76 4.3442 -5.51564 0
M  V30 12164 H 1176.6 0.711663 -2.89378 0
M  V30 12165 H 1174.13 0.339856 -1.4312 0
M  V30 12166 H 1176.09 3.18378 -2.69613 0
M  V30 12167 H 1174.72 2.78896 -1.62532 0
M  V30 12168 H 1173.77 1.337 -3.5613 0
M  V30 12169 H 1175.08 1.95685 -4.58812 0
M  V30 12170 H 1174.24 4.29321 -4.28682 0
M  V30 12171 H 1172.98 3.71232 -3.16289 0
M  V30 12172 H 1171.98 2.30765 -4.99026 0
M  V30 12173 H 1173.21 2.91799 -6.13213 0
M  V30 12174 H 1171.15 4.61418 -4.66293 0
M  V30 12175 H 1171.07 4.13764 -6.3272 0
M  V30 12176 H 1172.34 5.20489 -5.80269 0
M  V30 12177 N 1176.57 1.53483 0.357892 0
M  V30 12178 C 1177.81 1.70037 1.09971 0
M  V30 12179 C 1178.14 0.456112 1.89076 0
M  V30 12180 O 1177.4 -0.562029 1.87456 0
M  V30 12181 C 1177.7 2.90654 2.07978 0
M  V30 12182 C 1177.36 4.26849 1.45295 0
M  V30 12183 C 1176.02 4.63884 1.27928 0
M  V30 12184 C 1178.38 5.11514 1.00013 0
M  V30 12185 C 1175.7 5.83213 0.638745 0
M  V30 12186 C 1178.06 6.31496 0.373568 0
M  V30 12187 C 1176.72 6.67237 0.187457 0
M  V30 12188 H 1175.99 0.622209 0.402414 0
M  V30 12189 H 1178.64 1.87679 0.380615 0
M  V30 12190 H 1176.94 2.67556 2.86219 0
M  V30 12191 H 1178.64 3.00656 2.65343 0
M  V30 12192 H 1175.23 3.97693 1.59807 0
M  V30 12193 H 1179.41 4.83446 1.12221 0
M  V30 12194 H 1174.67 6.09489 0.483035 0
M  V30 12195 H 1178.84 6.96398 0.0145346 0
M  V30 12196 H 1176.47 7.59564 -0.310933 0
M  V30 12197 N 1178.05 -0.61812 1.44973 0
M  V30 12198 C 1179.27 -1.40429 1.51945 0
M  V30 12199 C 1179.69 -1.88215 0.148556 0
M  V30 12200 O 1179.05 -1.61603 -0.847978 0
M  V30 12201 C 1179.1 -2.61588 2.49507 0
M  V30 12202 O 1178.82 -2.15791 3.81269 0
M  V30 12203 C 1180.32 -3.5457 2.66074 0
M  V30 12204 H 1177.54 -0.43023 0.514921 0
M  V30 12205 H 1180.08 -0.754791 1.90061 0
M  V30 12206 H 1178.24 -3.22602 2.14492 0
M  V30 12207 H 1178.65 -2.94434 4.34061 0
M  V30 12208 H 1180.13 -4.36155 3.38338 0
M  V30 12209 H 1180.6 -4.04227 1.71746 0
M  V30 12210 H 1181.21 -2.99416 3.02043 0
M  V30 12211 N 1179.52 -1.32087 -0.859693 0
M  V30 12212 C 1180.75 -1.25486 -1.6513 0
M  V30 12213 C 1181.17 0.175015 -1.87284 0
M  V30 12214 O 1180.53 1.12468 -1.42199 0
M  V30 12215 C 1180.58 -2.01469 -2.9907 0
M  V30 12216 O 1179.68 -1.35904 -3.89363 0
M  V30 12217 H 1179.02 -0.432728 -0.503629 0
M  V30 12218 H 1181.55 -1.74322 -1.07112 0
M  V30 12219 H 1181.56 -2.11452 -3.4893 0
M  V30 12220 H 1180.24 -3.05448 -2.82266 0
M  V30 12221 H 1178.82 -1.34437 -3.47823 0
M  V30 12222 N 1181 1.07532 -1.15215 0
M  V30 12223 C 1181.96 2.1286 -0.84989 0
M  V30 12224 C 1182.96 1.60103 0.149524 0
M  V30 12225 O 1184.15 1.74017 -0.0798918 0
M  V30 12226 C 1181.29 3.3984 -0.268617 0
M  V30 12227 H 1182.48 2.41106 -1.78347 0
M  V30 12228 H 1180.03 1.23392 -0.959386 0
M  V30 12229 H 1180.77 3.17235 0.67325 0
M  V30 12230 H 1180.55 3.79433 -0.988592 0
M  V30 12231 H 1182.04 4.17533 -0.0746554 0
M  V30 12232 N 1182.48 0.948665 1.2585 0
M  V30 12233 C 1183.71 0.616741 1.98018 0
M  V30 12234 C 1184.13 -0.803005 1.70098 0
M  V30 12235 O 1183.49 -1.54208 0.953392 0
M  V30 12236 C 1183.54 0.874429 3.49837 0
M  V30 12237 O 1182.64 -0.0497568 4.1237 0
M  V30 12238 H 1181.98 0.235112 0.620982 0
M  V30 12239 H 1184.51 1.27364 1.60124 0
M  V30 12240 H 1184.52 0.798309 4.00114 0
M  V30 12241 H 1183.2 1.90922 3.69488 0
M  V30 12242 H 1181.77 0.0780591 3.72818 0
M  V30 12243 N 1183.96 -1.40369 0.716545 0
M  V30 12244 C 1185.24 -1.94737 0.183576 0
M  V30 12245 C 1185.62 -1.65464 -1.31092 0
M  V30 12246 O 1184.96 -0.972832 -2.06756 0
M  V30 12247 C 1185.17 -3.45438 0.497339 0
M  V30 12248 C 1186.52 -4.2235 0.436526 0
M  V30 12249 O 1187.55 -3.53553 0.433454 0
M  V30 12250 O 1186.4 -5.44923 0.41489 0
M  V30 12251 H 1183.5 -0.82655 0.0272785 0
M  V30 12252 H 1186.04 -1.49972 0.794143 0
M  V30 12253 H 1184.82 -3.60107 1.53097 0
M  V30 12254 H 1184.44 -3.97342 -0.143141 0
M  V30 12255 N 1185.44 -0.462799 -1.50652 0
M  V30 12256 C 1186.4 0.324264 -2.26895 0
M  V30 12257 C 1187.4 0.927687 -1.31342 0
M  V30 12258 O 1188.59 0.798159 -1.54839 0
M  V30 12259 C 1185.72 1.46113 -3.08 0
M  V30 12260 H 1186.91 -0.344266 -2.97917 0
M  V30 12261 H 1184.47 -0.216631 -1.54791 0
M  V30 12262 H 1185.2 2.16496 -2.41454 0
M  V30 12263 H 1184.99 1.03433 -3.78212 0
M  V30 12264 H 1186.48 2.01655 -3.65684 0
M  V30 12265 N 1186.91 1.56388 -0.195085 0
M  V30 12266 C 1188.16 1.98634 0.437717 0
M  V30 12267 C 1188.52 1.07985 1.59239 0
M  V30 12268 O 1187.81 0.124261 1.91197 0
M  V30 12269 C 1188 3.44651 0.946051 0
M  V30 12270 C 1187.83 4.49423 -0.157828 0
M  V30 12271 C 1186.6 5.01538 -0.615457 0
M  V30 12272 C 1188.8 5.05132 -0.966773 0
M  V30 12273 N 1186.78 5.89974 -1.69716 0
M  V30 12274 C 1188.15 5.90238 -1.89788 0
M  V30 12275 C 1190.21 4.87565 -1.00919 0
M  V30 12276 C 1188.91 6.59655 -2.86788 0
M  V30 12277 C 1190.94 5.57722 -1.96724 0
M  V30 12278 C 1190.3 6.42574 -2.88579 0
M  V30 12279 H 1186.4 0.77152 0.127594 0
M  V30 12280 H 1188.98 1.92363 -0.300777 0
M  V30 12281 H 1187.15 3.51423 1.65399 0
M  V30 12282 H 1188.88 3.73863 1.54946 0
M  V30 12283 H 1185.64 4.73139 -0.208806 0
M  V30 12284 H 1186.06 6.38896 -2.23921 0
M  V30 12285 H 1190.71 4.2164 -0.313023 0
M  V30 12286 H 1188.42 7.24779 -3.57381 0
M  V30 12287 H 1192.01 5.46106 -2.00647 0
M  V30 12288 H 1190.89 6.95906 -3.61503 0
M  V30 12289 N 1188.39 -0.0785156 1.57404 0
M  V30 12290 C 1189.62 -0.795871 1.91522 0
M  V30 12291 C 1190.04 -1.70665 0.790892 0
M  V30 12292 O 1189.4 -1.79474 -0.25666 0
M  V30 12293 C 1189.45 -1.57121 3.24569 0
M  V30 12294 O 1188.55 -2.6814 3.13328 0
M  V30 12295 H 1187.89 -0.217575 0.627341 0
M  V30 12296 H 1190.42 -0.0487724 2.04542 0
M  V30 12297 H 1190.43 -1.9519 3.5828 0
M  V30 12298 H 1189.11 -0.902909 4.05981 0
M  V30 12299 H 1187.69 -2.32978 2.91163 0
M  V30 12300 N 1189.87 -1.5367 -0.349747 0
M  V30 12301 C 1191.1 -1.74294 -1.10928 0
M  V30 12302 C 1191.51 -0.479102 -1.83033 0
M  V30 12303 O 1190.85 0.558621 -1.75 0
M  V30 12304 C 1190.91 -2.86457 -2.17216 0
M  V30 12305 C 1190.58 -4.26274 -1.6474 0
M  V30 12306 C 1191.57 -5.08065 -1.10302 0
M  V30 12307 C 1189.26 -4.72739 -1.69774 0
M  V30 12308 C 1191.25 -6.34417 -0.615938 0
M  V30 12309 C 1188.94 -5.99066 -1.20678 0
M  V30 12310 C 1189.94 -6.79737 -0.6668 0
M  V30 12311 O 1189.63 -8.03691 -0.183143 0
M  V30 12312 H 1189.36 -0.586046 -0.336937 0
M  V30 12313 H 1191.91 -2.01274 -0.409645 0
M  V30 12314 H 1190.14 -2.54988 -2.9072 0
M  V30 12315 H 1191.83 -2.95109 -2.78686 0
M  V30 12316 H 1192.6 -4.73333 -1.05739 0
M  V30 12317 H 1188.48 -4.1001 -2.10744 0
M  V30 12318 H 1192.02 -6.97331 -0.193795 0
M  V30 12319 H 1187.92 -6.33293 -1.24939 0
M  V30 12320 H 1188.69 -8.17946 -0.301008 0
M  V30 12321 N 1191.35 0.610423 -1.45298 0
M  V30 12322 C 1192.6 1.3668 -1.48872 0
M  V30 12323 C 1192.92 1.94562 -0.130686 0
M  V30 12324 O 1192.19 1.76996 0.839607 0
M  V30 12325 H 1190.77 0.507393 -0.548235 0
M  V30 12326 H 1193.43 0.716997 -1.81232 0
M  V30 12327 H 1192.53 2.18766 -2.22593 0
M  V30 12328 N 1192.83 1.32541 0.852676 0
M  V30 12329 C 1194.08 1.22567 1.60188 0
M  V30 12330 C 1194.39 -0.210594 1.94463 0
M  V30 12331 O 1195.59 -0.432214 2.68038 0
M  V30 12332 C 1194.05 2.14678 2.88862 0
M  V30 12333 C 1193.66 3.63398 2.62004 0
M  V30 12334 C 1195.4 2.13545 3.66877 0
M  V30 12335 C 1193.31 4.47464 3.86691 0
M  V30 12336 H 1192.24 0.455184 0.601102 0
M  V30 12337 H 1194.89 1.57515 0.941347 0
M  V30 12338 H 1193.27 1.72647 3.56383 0
M  V30 12339 H 1194.45 4.13783 2.02782 0
M  V30 12340 H 1192.76 3.66681 1.97316 0
M  V30 12341 H 1195.36 2.73589 4.59405 0
M  V30 12342 H 1195.7 1.12694 4.00756 0
M  V30 12343 H 1196.23 2.53866 3.06263 0
M  V30 12344 H 1192.97 5.49136 3.57952 0
M  V30 12345 H 1192.49 4.01829 4.45302 0
M  V30 12346 H 1194.17 4.60565 4.5441 0
M  V30 12347 N 1194.3 -1.0692 1.15784 0
M  V30 12348 C 1195.55 -1.79866 0.936815 0
M  V30 12349 C 1195.88 -1.867 -0.534477 0
M  V30 12350 O 1195.16 -1.35395 -1.39637 0
M  V30 12351 C 1195.44 -3.24691 1.55717 0
M  V30 12352 C 1195.29 -3.25975 3.09936 0
M  V30 12353 C 1196.61 -4.22076 1.24658 0
M  V30 12354 H 1193.73 -0.652971 0.341756 0
M  V30 12355 H 1196.37 -1.25085 1.43016 0
M  V30 12356 H 1194.52 -3.7147 1.13763 0
M  V30 12357 H 1196.2 -2.87405 3.60827 0
M  V30 12358 H 1194.44 -2.64808 3.43597 0
M  V30 12359 H 1195.11 -4.28114 3.48458 0
M  V30 12360 H 1197.59 -3.83709 1.60956 0
M  V30 12361 H 1196.46 -5.21691 1.70675 0
M  V30 12362 H 1196.72 -4.41794 0.164341 0
M  V30 12363 N 1195.78 -0.955326 -1.25345 0
M  V30 12364 C 1196.72 -0.420299 -2.24296 0
M  V30 12365 C 1197.69 0.498753 -1.54762 0
M  V30 12366 O 1198.88 0.432971 -1.8346 0
M  V30 12367 C 1196 0.394576 -3.36394 0
M  V30 12368 C 1195.05 -0.464973 -4.23958 0
M  V30 12369 S 1195.88 -1.89764 -5.00749 0
M  V30 12370 C 1197.04 -1.09121 -6.16314 0
M  V30 12371 H 1197.27 -1.25888 -2.69331 0
M  V30 12372 H 1194.81 -0.759449 -1.34431 0
M  V30 12373 H 1196.76 0.858788 -4.01416 0
M  V30 12374 H 1195.42 1.20799 -2.89942 0
M  V30 12375 H 1194.62 0.160055 -5.03746 0
M  V30 12376 H 1194.22 -0.864422 -3.63873 0
M  V30 12377 H 1196.51 -0.340218 -6.76645 0
M  V30 12378 H 1197.45 -1.86304 -6.83152 0
M  V30 12379 H 1197.86 -0.621033 -5.61073 0
M  V30 12380 N 1197.26 1.39987 -0.723979 0
M  V30 12381 C 1198.51 2.01514 -0.276365 0
M  V30 12382 C 1198.86 1.56399 1.12058 0
M  V30 12383 O 1198.16 0.777927 1.75097 0
M  V30 12384 C 1198.35 3.56101 -0.304472 0
M  V30 12385 C 1198.18 4.16223 -1.70261 0
M  V30 12386 C 1196.95 4.49292 -2.31225 0
M  V30 12387 C 1199.15 4.40512 -2.65431 0
M  V30 12388 N 1197.13 4.94854 -3.63308 0
M  V30 12389 C 1198.5 4.88158 -3.82232 0
M  V30 12390 C 1200.55 4.22562 -2.63335 0
M  V30 12391 C 1199.26 5.19739 -4.97256 0
M  V30 12392 C 1201.28 4.5525 -3.77493 0
M  V30 12393 C 1200.65 5.03093 -4.93028 0
M  V30 12394 H 1196.74 0.768031 -0.147146 0
M  V30 12395 H 1199.33 1.70085 -0.947581 0
M  V30 12396 H 1197.5 3.86941 0.336344 0
M  V30 12397 H 1199.23 4.04381 0.160647 0
M  V30 12398 H 1195.99 4.36712 -1.83248 0
M  V30 12399 H 1196.41 5.22007 -4.31089 0
M  V30 12400 H 1201.05 3.84786 -1.75212 0
M  V30 12401 H 1198.77 5.56426 -5.86017 0
M  V30 12402 H 1202.36 4.42995 -3.77156 0
M  V30 12403 H 1201.24 5.27909 -5.79898 0
M  V30 12404 N 1198.74 0.470782 1.50404 0
M  V30 12405 C 1199.65 -0.328877 2.32283 0
M  V30 12406 C 1200.67 -0.99629 1.42654 0
M  V30 12407 O 1201.84 -0.984331 1.75707 0
M  V30 12408 C 1198.91 -1.39675 3.1732 0
M  V30 12409 C 1197.97 -0.745965 4.22769 0
M  V30 12410 C 1197.2 -1.76295 5.03742 0
M  V30 12411 O 1197.42 -2.98943 4.85788 0
M  V30 12412 O 1196.36 -1.33495 5.86909 0
M  V30 12413 H 1200.18 0.340491 3.01785 0
M  V30 12414 H 1197.77 0.232637 1.47578 0
M  V30 12415 H 1199.65 -2.0153 3.70086 0
M  V30 12416 H 1198.33 -2.04959 2.50546 0
M  V30 12417 H 1197.23 -0.0884647 3.73995 0
M  V30 12418 H 1198.57 -0.136074 4.92012 0
M  V30 12419 N 1200.22 -1.56282 0.203376 0
M  V30 12420 C 1201.46 -1.98105 -0.433844 0
M  V30 12421 C 1201.8 -1.09044 -1.60695 0
M  V30 12422 O 1201.07 -0.144193 -1.93965 0
M  V30 12423 C 1201.35 -3.4903 -0.885992 0
M  V30 12424 C 1201.21 -4.48867 0.289501 0
M  V30 12425 C 1202.53 -4.03871 -1.7486 0
M  V30 12426 H 1199.65 -0.720252 -0.156224 0
M  V30 12427 H 1202.29 -1.87681 0.295963 0
M  V30 12428 H 1200.44 -3.58045 -1.50785 0
M  V30 12429 H 1202.11 -4.51883 0.92734 0
M  V30 12430 H 1200.35 -4.23495 0.939934 0
M  V30 12431 H 1201.02 -5.51956 -0.0695128 0
M  V30 12432 H 1203.5 -3.97688 -1.22407 0
M  V30 12433 H 1202.38 -5.09827 -2.03391 0
M  V30 12434 H 1202.64 -3.49637 -2.70567 0
M  V30 12435 N 1201.7 0.070167 -1.57444 0
M  V30 12436 C 1202.63 1.11509 -1.991 0
M  V30 12437 C 1203.61 1.37481 -0.868194 0
M  V30 12438 O 1204.79 1.50827 -1.13064 0
M  V30 12439 C 1201.92 2.45908 -2.3291 0
M  V30 12440 C 1200.96 2.36059 -3.55216 0
M  V30 12441 S 1201.8 1.75316 -5.05989 0
M  V30 12442 C 1202.95 3.11289 -5.43001 0
M  V30 12443 H 1203.19 0.760096 -2.87419 0
M  V30 12444 H 1200.72 0.278756 -1.51863 0
M  V30 12445 H 1202.68 3.23217 -2.53063 0
M  V30 12446 H 1201.34 2.78567 -1.45117 0
M  V30 12447 H 1200.53 3.35176 -3.76395 0
M  V30 12448 H 1200.13 1.66886 -3.34701 0
M  V30 12449 H 1202.42 4.07603 -5.41171 0
M  V30 12450 H 1203.37 2.94888 -6.43775 0
M  V30 12451 H 1203.78 3.11969 -4.70463 0
M  V30 12452 N 1203.17 1.53854 0.341593 0
M  V30 12453 C 1204.4 1.75447 1.10604 0
M  V30 12454 C 1204.82 0.493225 1.81518 0
M  V30 12455 O 1204.18 -0.554253 1.7262 0
M  V30 12456 C 1204.23 2.93593 2.09369 0
M  V30 12457 O 1203.33 2.63878 3.16926 0
M  V30 12458 H 1202.67 0.581923 0.319783 0
M  V30 12459 H 1205.2 2.00822 0.391388 0
M  V30 12460 H 1205.21 3.20437 2.52556 0
M  V30 12461 H 1203.89 3.85067 1.57151 0
M  V30 12462 H 1202.47 2.47929 2.78542 0
M  V30 12463 N 1204.65 -0.602709 1.4562 0
M  V30 12464 C 1205.9 -1.36158 1.49891 0
M  V30 12465 C 1206.23 -1.93977 0.142581 0
M  V30 12466 O 1205.48 -1.75822 -0.859374 0
M  V30 12467 C 1205.78 -2.52474 2.52966 0
M  V30 12468 C 1205.45 -2.12772 3.97541 0
M  V30 12469 C 1204.11 -2.01658 4.36907 0
M  V30 12470 C 1206.46 -1.8186 4.88443 0
M  V30 12471 C 1203.79 -1.57862 5.65063 0
M  V30 12472 C 1206.14 -1.39548 6.17016 0
M  V30 12473 C 1204.8 -1.26997 6.55308 0
M  V30 12474 H 1204.07 -0.498236 0.54849 0
M  V30 12475 H 1206.72 -0.680738 1.78992 0
M  V30 12476 H 1205.03 -3.25917 2.17452 0
M  V30 12477 H 1206.72 -3.10701 2.53507 0
M  V30 12478 H 1203.31 -2.22349 3.66413 0
M  V30 12479 H 1207.5 -1.89341 4.58763 0
M  V30 12480 H 1202.75 -1.46771 5.93522 0
M  V30 12481 H 1206.93 -1.14677 6.86893 0
M  V30 12482 H 1204.55 -0.928346 7.5451 0
M  V30 12483 N 1206.13 -1.32992 -0.845635 0
M  V30 12484 C 1207.38 -1.2382 -1.59728 0
M  V30 12485 C 1207.7 0.197724 -1.93995 0
M  V30 12486 O 1206.97 1.12477 -1.60392 0
M  V30 12487 H 1205.55 -0.455296 -0.592212 0
M  V30 12488 H 1208.21 -1.66627 -1.01101 0
M  V30 12489 H 1207.31 -1.82717 -2.53023 0
M  V30 12490 N 1207.61 1.06304 -1.1635 0
M  V30 12491 C 1208.52 2.17296 -0.884289 0
M  V30 12492 C 1209.53 1.73408 0.143414 0
M  V30 12493 O 1210.71 2.01373 -0.0331987 0
M  V30 12494 C 1207.77 3.44509 -0.389163 0
M  V30 12495 C 1206.84 4.02906 -1.48208 0
M  V30 12496 C 1206.07 5.24047 -1.01048 0
M  V30 12497 O 1206.29 5.70229 0.139821 0
M  V30 12498 O 1205.23 5.74394 -1.79876 0
M  V30 12499 H 1209.05 2.4369 -1.81243 0
M  V30 12500 H 1206.64 1.15841 -0.943459 0
M  V30 12501 H 1208.52 4.21229 -0.120018 0
M  V30 12502 H 1207.19 3.19642 0.510968 0
M  V30 12503 H 1206.1 3.27677 -1.80496 0
M  V30 12504 H 1207.43 4.32068 -2.35751 0
M  V30 12505 N 1209.09 0.96196 1.24836 0
M  V30 12506 C 1210.5 0.667561 1.44968 0
M  V30 12507 C 1210.7 -0.772521 1.86103 0
M  V30 12508 O 1209.76 -1.54704 1.99557 0
M  V30 12509 C 1211.07 1.64675 2.516 0
M  V30 12510 C 1212.62 1.65874 2.65433 0
M  V30 12511 C 1213.09 2.62576 3.75257 0
M  V30 12512 N 1214.58 2.60984 3.82677 0
M  V30 12513 C 1215.32 3.32484 4.67163 0
M  V30 12514 N 1214.82 4.13482 5.55882 0
M  V30 12515 N 1216.61 3.21336 4.61193 0
M  V30 12516 H 1208.76 1.89248 0.964307 0
M  V30 12517 H 1211.02 0.814443 0.485167 0
M  V30 12518 H 1210.73 2.67572 2.2825 0
M  V30 12519 H 1210.6 1.415 3.49653 0
M  V30 12520 H 1212.99 0.636912 2.88145 0
M  V30 12521 H 1213.07 1.9311 1.67756 0
M  V30 12522 H 1212.71 3.6489 3.53295 0
M  V30 12523 H 1212.64 2.32622 4.72435 0
M  V30 12524 H 1215.14 2.02187 3.19263 0
M  V30 12525 H 1215.45 4.6494 6.17293 0
M  V30 12526 H 1213.79 4.17578 5.55566 0
M  V30 12527 H 1216.98 2.57524 3.90895 0
M  V30 12528 H 1217.16 3.77323 5.26812 0
M  V30 12529 N 1210.56 -1.39601 0.731392 0
M  V30 12530 C 1211.97 -1.83424 0.348194 0
M  V30 12531 C 1212.33 -1.61106 -1.11979 0
M  V30 12532 O 1211.45 -1.1003 -1.86339 0
M  V30 12533 C 1212.05 -3.32982 0.6252 0
M  V30 12534 C 1210.6 -3.75238 0.295536 0
M  V30 12535 C 1209.75 -2.62642 0.88964 0
M  V30 12536 H 1212.7 -1.28644 0.929318 0
M  V30 12537 H 1212.72 -3.80357 -0.104254 0
M  V30 12538 H 1212.24 -3.49193 1.69368 0
M  V30 12539 H 1210.34 -3.64615 -0.767254 0
M  V30 12540 H 1210.45 -4.72781 0.775576 0
M  V30 12541 H 1208.81 -2.52726 0.316529 0
M  V30 12542 H 1209.6 -2.81661 1.96271 0
M  V30 12543 N 1212.04 -0.478751 -1.50152 0
M  V30 12544 C 1213.27 0.0709455 -2.06478 0
M  V30 12545 C 1213.68 1.33376 -1.34192 0
M  V30 12546 O 1213.02 1.79133 -0.40707 0
M  V30 12547 C 1213.09 0.417322 -3.5707 0
M  V30 12548 C 1212.75 -0.744563 -4.50894 0
M  V30 12549 C 1213.75 -1.62879 -4.93727 0
M  V30 12550 C 1211.43 -0.937062 -4.93482 0
M  V30 12551 C 1213.43 -2.68985 -5.77863 0
M  V30 12552 C 1211.11 -2.00134 -5.77399 0
M  V30 12553 C 1212.11 -2.87609 -6.19492 0
M  V30 12554 O 1211.8 -3.92203 -7.01735 0
M  V30 12555 H 1211.53 -0.00720177 -0.675962 0
M  V30 12556 H 1214.08 -0.668797 -1.94207 0
M  V30 12557 H 1212.31 1.21036 -3.6727 0
M  V30 12558 H 1214 0.903002 -3.95728 0
M  V30 12559 H 1214.77 -1.49179 -4.61488 0
M  V30 12560 H 1210.65 -0.265636 -4.60234 0
M  V30 12561 H 1214.19 -3.37293 -6.10639 0
M  V30 12562 H 1210.09 -2.13837 -6.09052 0
M  V30 12563 H 1210.86 -3.89284 -7.2 0
M  V30 12564 N 1213.52 1.56172 -0.211661 0
M  V30 12565 C 1214.77 1.99087 0.416624 0
M  V30 12566 C 1215.12 1.09668 1.58084 0
M  V30 12567 O 1214.41 0.144533 1.91054 0
M  V30 12568 C 1214.61 3.45636 0.909442 0
M  V30 12569 C 1214.44 4.4923 -0.205486 0
M  V30 12570 C 1213.21 5.00857 -0.668617 0
M  V30 12571 C 1215.41 5.04078 -1.02029 0
M  V30 12572 N 1213.39 5.88141 -1.75964 0
M  V30 12573 C 1214.76 5.88192 -1.96037 0
M  V30 12574 C 1216.81 4.86467 -1.06085 0
M  V30 12575 C 1215.52 6.56576 -2.93768 0
M  V30 12576 C 1217.54 5.55604 -2.02629 0
M  V30 12577 C 1216.9 6.39477 -2.95378 0
M  V30 12578 H 1213 0.77283 0.119404 0
M  V30 12579 H 1215.59 1.92033 -0.321163 0
M  V30 12580 H 1213.76 3.53157 1.61662 0
M  V30 12581 H 1215.49 3.75486 1.50972 0
M  V30 12582 H 1212.25 4.72891 -0.258977 0
M  V30 12583 H 1212.67 6.36485 -2.30685 0
M  V30 12584 H 1217.31 4.21284 -0.357726 0
M  V30 12585 H 1215.03 7.20948 -3.65048 0
M  V30 12586 H 1218.62 5.43947 -2.06428 0
M  V30 12587 H 1217.5 6.92032 -3.68864 0
M  V30 12588 N 1215 -0.0618163 1.57479 0
M  V30 12589 C 1216.28 -0.792636 1.7882 0
M  V30 12590 C 1216.66 -1.95283 0.801724 0
M  V30 12591 O 1216 -2.27917 -0.163095 0
M  V30 12592 C 1216.21 -1.25629 3.25605 0
M  V30 12593 C 1217.56 -1.68561 3.89708 0
M  V30 12594 O 1218.59 -1.35171 3.29556 0
M  V30 12595 O 1217.44 -2.30417 4.95551 0
M  V30 12596 H 1214.54 -0.380595 0.734218 0
M  V30 12597 H 1217.08 -0.0411205 1.6965 0
M  V30 12598 H 1215.86 -0.426582 3.88968 0
M  V30 12599 H 1215.48 -2.06882 3.39537 0
M  V30 12600 N 1216.48 -1.54033 -0.333429 0
M  V30 12601 C 1217.41 -1.7756 -1.43345 0
M  V30 12602 C 1218.39 -0.625126 -1.50103 0
M  V30 12603 O 1219.57 -0.861444 -1.67665 0
M  V30 12604 C 1216.7 -1.88332 -2.81511 0
M  V30 12605 C 1215.74 -3.10556 -2.92331 0
M  V30 12606 S 1216.58 -4.69385 -2.57755 0
M  V30 12607 C 1217.73 -4.8305 -3.98011 0
M  V30 12608 H 1217.97 -2.70584 -1.23172 0
M  V30 12609 H 1215.5 -1.4503 -0.529691 0
M  V30 12610 H 1217.46 -1.95224 -3.61106 0
M  V30 12611 H 1216.12 -0.963031 -2.98972 0
M  V30 12612 H 1215.31 -3.14798 -3.93596 0
M  V30 12613 H 1214.91 -3.01943 -2.20696 0
M  V30 12614 H 1217.21 -4.65081 -4.92652 0
M  V30 12615 H 1218.15 -5.85148 -3.98757 0
M  V30 12616 H 1218.56 -4.11427 -3.86507 0
M  V30 12617 N 1217.95 0.594978 -1.45938 0
M  V30 12618 C 1219.18 1.38482 -1.54394 0
M  V30 12619 C 1219.6 1.87222 -0.181563 0
M  V30 12620 O 1218.96 1.60869 0.836119 0
M  V30 12621 C 1219.01 2.55676 -2.54287 0
M  V30 12622 O 1218.11 3.5672 -2.06941 0
M  V30 12623 H 1217.46 0.412918 -0.519995 0
M  V30 12624 H 1219.99 0.722899 -1.91404 0
M  V30 12625 H 1220 3.02756 -2.73501 0
M  V30 12626 H 1218.67 2.19552 -3.53228 0
M  V30 12627 H 1217.25 3.16204 -1.97661 0
M  V30 12628 N 1219.43 1.33438 0.838571 0
M  V30 12629 C 1220.38 1.23698 1.96981 0
M  V30 12630 C 1221.37 0.138299 1.68835 0
M  V30 12631 O 1222.58 0.302278 1.77444 0
M  V30 12632 H 1218.96 0.383874 0.646641 0
M  V30 12633 H 1220.93 2.19337 2.02321 0
M  V30 12634 C 1219.68 0.993362 3.33208 0
M  V30 12635 H 1219 1.83104 3.55405 0
M  V30 12636 H 1220.44 0.965517 4.1286 0
M  V30 12637 C 1218.9 -0.303701 3.35528 0
M  V30 12638 O 1219.43 -1.3103 3.79729 0
M  V30 12639 N 1217.63 -0.331342 2.88705 0
M  V30 12640 H 1217.18 0.488351 2.52929 0
M  V30 12641 H 1217.14 -1.199 2.9064 0
M  V30 12642 N 1220.91 -1.05686 1.16912 0
M  V30 12643 C 1221.84 -2.1329 0.839044 0
M  V30 12644 C 1222.86 -1.62047 -0.156392 0
M  V30 12645 O 1224.04 -1.78366 0.0692192 0
M  V30 12646 C 1221.14 -3.38122 0.229558 0
M  V30 12647 C 1220.32 -4.18659 1.26662 0
M  V30 12648 C 1219.38 -5.21842 0.675811 0
M  V30 12649 O 1218.4 -5.53049 1.3463 0
M  V30 12650 N 1219.6 -5.78034 -0.534532 0
M  V30 12651 H 1222.37 -2.42203 1.76515 0
M  V30 12652 H 1219.93 -1.2174 1.06729 0
M  V30 12653 H 1221.92 -4.04305 -0.178868 0
M  V30 12654 H 1220.49 -3.06783 -0.60023 0
M  V30 12655 H 1219.71 -3.4804 1.85099 0
M  V30 12656 H 1221 -4.6927 1.9663 0
M  V30 12657 H 1220.4 -5.54955 -1.09731 0
M  V30 12658 H 1218.96 -6.45763 -0.885087 0
M  V30 12659 N 1222.39 -0.968567 -1.24324 0
M  V30 12660 C 1223.67 -0.547774 -1.87773 0
M  V30 12661 C 1224.05 0.975107 -1.87229 0
M  V30 12662 O 1223.39 1.84683 -1.34553 0
M  V30 12663 C 1223.6 -1.1403 -3.29846 0
M  V30 12664 C 1224.95 -1.22572 -4.06523 0
M  V30 12665 O 1225.98 -1.09287 -3.3902 0
M  V30 12666 O 1224.83 -1.43579 -5.27302 0
M  V30 12667 H 1221.93 -0.182771 -0.806551 0
M  V30 12668 H 1224.47 -1.06289 -1.3229 0
M  V30 12669 H 1223.25 -2.18303 -3.24745 0
M  V30 12670 H 1222.87 -0.609275 -3.92904 0
M  V30 12671 N 1223.87 1.39211 -0.738786 0
M  V30 12672 C 1225.11 2.00733 -0.288817 0
M  V30 12673 C 1225.45 1.58494 1.1222 0
M  V30 12674 O 1224.72 0.815579 1.76575 0
M  V30 12675 C 1225 3.57928 -0.394956 0
M  V30 12676 C 1224.86 4.10174 -1.84601 0
M  V30 12677 C 1226.18 4.39548 0.220395 0
M  V30 12678 H 1223.29 0.729276 -0.106418 0
M  V30 12679 H 1225.94 1.65365 -0.935652 0
M  V30 12680 H 1224.09 3.88188 0.155744 0
M  V30 12681 H 1225.76 3.90618 -2.45388 0
M  V30 12682 H 1224 3.63593 -2.36607 0
M  V30 12683 H 1224.67 5.19305 -1.87152 0
M  V30 12684 H 1227.15 4.15354 -0.249098 0
M  V30 12685 H 1226.02 5.48778 0.115806 0
M  V30 12686 H 1226.29 4.22341 1.30691 0
M  V30 12687 N 1225.34 0.486708 1.49896 0
M  V30 12688 C 1226.59 -0.0646197 2.01596 0
M  V30 12689 C 1226.91 -1.39363 1.37249 0
M  V30 12690 O 1228.11 -2.03082 1.80194 0
M  V30 12691 C 1226.57 -0.16565 3.59519 0
M  V30 12692 C 1226.18 1.15586 4.32832 0
M  V30 12693 C 1227.92 -0.668103 4.1921 0
M  V30 12694 C 1225.83 1.01778 5.82576 0
M  V30 12695 H 1224.76 -0.0279241 0.753483 0
M  V30 12696 H 1227.41 0.623969 1.72566 0
M  V30 12697 H 1225.79 -0.918372 3.85204 0
M  V30 12698 H 1226.96 1.92076 4.1886 0
M  V30 12699 H 1225.28 1.59064 3.84822 0
M  V30 12700 H 1227.88 -0.788698 5.28851 0
M  V30 12701 H 1228.22 -1.66339 3.81624 0
M  V30 12702 H 1228.75 0.0276746 3.9779 0
M  V30 12703 H 1225.49 1.9869 6.24662 0
M  V30 12704 H 1225.01 0.293527 5.99081 0
M  V30 12705 H 1226.69 0.690693 6.43303 0
M  V30 12706 N 1226.82 -1.56058 0.219941 0
M  V30 12707 C 1227.77 -2.21585 -0.707321 0
M  V30 12708 C 1228.77 -1.19473 -1.20094 0
M  V30 12709 O 1229.97 -1.37557 -1.16095 0
M  V30 12710 H 1226.35 -0.710447 -0.246515 0
M  V30 12711 H 1228.32 -2.98111 -0.131214 0
M  V30 12712 C 1227.07 -2.90841 -1.90544 0
M  V30 12713 H 1226.39 -3.6917 -1.53472 0
M  V30 12714 H 1227.83 -3.40092 -2.53206 0
M  V30 12715 C 1226.29 -1.93223 -2.75983 0
M  V30 12716 O 1226.82 -1.44815 -3.74689 0
M  V30 12717 N 1225.02 -1.60907 -2.41986 0
M  V30 12718 H 1224.57 -2.00467 -1.61774 0
M  V30 12719 H 1224.53 -0.958534 -2.99432 0
M  V30 12720 N 1228.3 0.053464 -1.57509 0
M  V30 12721 C 1229.26 1.04604 -2.03938 0
M  V30 12722 C 1230.26 1.30509 -0.939357 0
M  V30 12723 O 1231.45 1.25922 -1.20371 0
M  V30 12724 C 1228.59 2.38516 -2.43563 0
M  V30 12725 H 1229.78 0.645484 -2.92871 0
M  V30 12726 H 1227.33 0.299683 -1.534 0
M  V30 12727 H 1228.07 2.83368 -1.57712 0
M  V30 12728 H 1227.85 2.2105 -3.23851 0
M  V30 12729 H 1229.34 3.09826 -2.79996 0
M  V30 12730 N 1229.78 1.54207 0.325255 0
M  V30 12731 C 1231.03 1.71544 1.06091 0
M  V30 12732 C 1231.34 0.495137 1.89229 0
M  V30 12733 O 1232.55 0.54982 2.65874 0
M  V30 12734 C 1231 3.03412 1.93569 0
M  V30 12735 C 1230.61 4.32842 1.1555 0
M  V30 12736 C 1232.36 3.30113 2.66881 0
M  V30 12737 C 1230.26 5.55773 2.02164 0
M  V30 12738 H 1229.19 0.639281 0.399795 0
M  V30 12739 H 1231.84 1.80701 0.319261 0
M  V30 12740 H 1230.23 2.88158 2.71626 0
M  V30 12741 H 1231.4 4.58857 0.42276 0
M  V30 12742 H 1229.71 4.12893 0.539277 0
M  V30 12743 H 1232.31 4.19151 3.31988 0
M  V30 12744 H 1232.65 2.47918 3.34428 0
M  V30 12745 H 1233.19 3.46227 1.95887 0
M  V30 12746 H 1229.93 6.40565 1.39128 0
M  V30 12747 H 1229.45 5.3398 2.73177 0
M  V30 12748 H 1231.13 5.92113 2.60789 0
M  V30 12749 N 1231.26 -0.58723 1.46251 0
M  V30 12750 C 1232.17 -1.72455 1.59048 0
M  V30 12751 C 1233.18 -1.67416 0.47413 0
M  V30 12752 O 1234.36 -1.87406 0.737633 0
M  V30 12753 C 1231.42 -3.08953 1.57318 0
M  V30 12754 C 1230.49 -3.25291 2.80151 0
M  V30 12755 C 1229.72 -4.55277 2.78493 0
M  V30 12756 O 1229.94 -5.38883 1.8698 0
M  V30 12757 O 1228.88 -4.74765 3.69975 0
M  V30 12758 H 1232.7 -1.64606 2.55223 0
M  V30 12759 H 1230.29 -0.753742 1.28993 0
M  V30 12760 H 1232.17 -3.90239 1.59033 0
M  V30 12761 H 1230.84 -3.17249 0.643025 0
M  V30 12762 H 1229.75 -2.43515 2.83991 0
M  V30 12763 H 1231.08 -3.21883 3.7236 0
M  V30 12764 N 1232.74 -1.33881 -0.831482 0
M  V30 12765 C 1233.67 -1.20587 -1.94914 0
M  V30 12766 C 1234.68 -0.135026 -1.62239 0
M  V30 12767 O 1235.87 -0.386116 -1.74274 0
M  V30 12768 C 1232.97 -0.828712 -3.28612 0
M  V30 12769 C 1232.14 -1.99275 -3.89369 0
M  V30 12770 C 1231.2 -1.59537 -5.01432 0
M  V30 12771 O 1230.23 -2.31076 -5.20185 0
M  V30 12772 N 1231.43 -0.5046 -5.78303 0
M  V30 12773 H 1234.19 -2.16869 -2.06852 0
M  V30 12774 H 1231.76 -1.26723 -1.00761 0
M  V30 12775 H 1233.75 -0.544827 -4.01016 0
M  V30 12776 H 1232.32 0.0436534 -3.1257 0
M  V30 12777 H 1231.54 -2.44185 -3.09463 0
M  V30 12778 H 1232.83 -2.77145 -4.26694 0
M  V30 12779 H 1232.22 0.0903105 -5.65628 0
M  V30 12780 H 1230.78 -0.280415 -6.51197 0
M  V30 12781 N 1234.21 1.05064 -1.1747 0
M  V30 12782 C 1235.49 1.74999 -0.873776 0
M  V30 12783 C 1235.87 2.01615 0.625676 0
M  V30 12784 O 1235.22 1.65324 1.57734 0
M  V30 12785 C 1235.43 3.04231 -1.7101 0
M  V30 12786 C 1236.78 3.78157 -1.93087 0
M  V30 12787 O 1237.8 3.14104 -1.6798 0
M  V30 12788 O 1236.66 4.93255 -2.3529 0
M  V30 12789 H 1233.75 0.761042 -0.323641 0
M  V30 12790 H 1236.3 1.1122 -1.28172 0
M  V30 12791 H 1235.07 2.80621 -2.72704 0
M  V30 12792 H 1234.69 3.75746 -1.30002 0
M  V30 12793 N 1235.69 0.975146 1.23809 0
M  V30 12794 C 1236.92 0.658023 1.95841 0
M  V30 12795 C 1237.33 -0.778132 1.72458 0
M  V30 12796 O 1236.67 -1.53462 1.00971 0
M  V30 12797 C 1236.73 0.862038 3.49012 0
M  V30 12798 C 1236.4 2.27925 3.96105 0
M  V30 12799 C 1237.4 3.25755 4.05191 0
M  V30 12800 C 1235.08 2.60894 4.29231 0
M  V30 12801 C 1237.07 4.54636 4.46749 0
M  V30 12802 C 1234.76 3.89999 4.70472 0
M  V30 12803 C 1235.76 4.86682 4.79197 0
M  V30 12804 O 1235.45 6.13483 5.19513 0
M  V30 12805 H 1235.18 0.243915 0.630461 0
M  V30 12806 H 1237.73 1.30768 1.58395 0
M  V30 12807 H 1235.96 0.155209 3.86388 0
M  V30 12808 H 1237.65 0.542873 4.02253 0
M  V30 12809 H 1238.42 3.01614 3.79808 0
M  V30 12810 H 1234.3 1.86355 4.21655 0
M  V30 12811 H 1237.84 5.30101 4.53474 0
M  V30 12812 H 1233.74 4.13937 4.95304 0
M  V30 12813 H 1234.51 6.17158 5.37641 0
M  V30 12814 N 1237.17 -1.38817 0.746158 0
M  V30 12815 C 1238.59 -1.53894 0.42294 0
M  V30 12816 C 1238.79 -1.71064 -1.06486 0
M  V30 12817 O 1237.84 -1.71744 -1.85095 0
M  V30 12818 C 1239.15 -2.75029 1.2157 0
M  V30 12819 C 1240.7 -2.88873 1.20504 0
M  V30 12820 C 1241.18 -4.1296 1.9806 0
M  V30 12821 N 1242.67 -4.20022 1.95283 0
M  V30 12822 C 1243.4 -5.15011 2.52093 0
M  V30 12823 N 1242.9 -6.1572 3.17586 0
M  V30 12824 N 1244.69 -5.07308 2.42064 0
M  V30 12825 H 1236.84 -1.25921 1.71049 0
M  V30 12826 H 1239.11 -0.611148 0.724708 0
M  V30 12827 H 1238.81 -2.68722 2.26895 0
M  V30 12828 H 1238.69 -3.68009 0.827593 0
M  V30 12829 H 1241.07 -2.94667 0.159877 0
M  V30 12830 H 1241.15 -1.96925 1.63261 0
M  V30 12831 H 1240.8 -4.07929 3.02583 0
M  V30 12832 H 1240.73 -5.03974 1.52702 0
M  V30 12833 H 1243.22 -3.47892 1.4758 0
M  V30 12834 H 1243.53 -6.84682 3.58373 0
M  V30 12835 H 1241.88 -6.16075 3.21678 0
M  V30 12836 H 1245.07 -4.27569 1.90532 0
M  V30 12837 H 1245.24 -5.81158 2.86635 0
M  V30 12838 N 1238.65 -0.49465 -1.49636 0
M  V30 12839 C 1239.58 0.276606 -2.31856 0
M  V30 12840 C 1240.56 0.968499 -1.39836 0
M  V30 12841 O 1241.74 0.96113 -1.68748 0
M  V30 12842 C 1238.87 1.34522 -3.20189 0
M  V30 12843 C 1237.83 0.773571 -4.20951 0
M  V30 12844 C 1237.15 1.94223 -4.98178 0
M  V30 12845 C 1238.45 -0.231096 -5.21788 0
M  V30 12846 H 1240.15 -0.409668 -2.96584 0
M  V30 12847 H 1237.69 -0.198461 -1.42626 0
M  V30 12848 H 1239.65 1.89244 -3.76517 0
M  V30 12849 H 1238.37 2.06059 -2.53392 0
M  V30 12850 H 1237.03 0.248144 -3.65759 0
M  V30 12851 H 1236.68 2.64514 -4.27834 0
M  V30 12852 H 1236.38 1.56584 -5.66353 0
M  V30 12853 H 1237.9 2.49391 -5.57348 0
M  V30 12854 H 1239.32 0.227768 -5.72847 0
M  V30 12855 H 1237.71 -0.522984 -5.97817 0
M  V30 12856 H 1238.78 -1.14914 -4.71087 0
M  V30 12857 N 1240.13 1.55939 -0.228214 0
M  V30 12858 C 1241.54 1.84612 0.278417 0
M  V30 12859 C 1241.89 1.14973 1.58983 0
M  V30 12860 O 1241.01 0.421673 2.12252 0
M  V30 12861 C 1241.61 3.3491 0.511935 0
M  V30 12862 C 1240.17 3.63876 0.962861 0
M  V30 12863 C 1239.31 2.77284 0.0296246 0
M  V30 12864 H 1242.26 1.52149 -0.451245 0
M  V30 12865 H 1242.29 3.55477 1.35707 0
M  V30 12866 H 1241.8 3.85567 -0.442697 0
M  V30 12867 H 1239.9 3.18682 1.93062 0
M  V30 12868 H 1240.01 4.71809 0.832659 0
M  V30 12869 H 1238.38 2.48961 0.53763 0
M  V30 12870 H 1239.16 3.30742 -0.920044 0
M  V30 12871 N 1241.6 -0.0451101 1.57535 0
M  V30 12872 C 1243.02 -0.59372 1.77008 0
M  V30 12873 C 1243.37 -1.76482 0.857233 0
M  V30 12874 O 1242.49 -2.16347 0.0479703 0
M  V30 12875 C 1243.09 -1.08383 3.20996 0
M  V30 12876 C 1241.65 -1.57808 3.41721 0
M  V30 12877 C 1240.79 -0.509067 2.72587 0
M  V30 12878 H 1243.74 0.181114 1.57663 0
M  V30 12879 H 1243.76 -1.95181 3.26626 0
M  V30 12880 H 1243.28 -0.231276 3.8741 0
M  V30 12881 H 1241.38 -2.45302 2.8046 0
M  V30 12882 H 1241.49 -1.63664 4.50279 0
M  V30 12883 H 1239.85 -0.960389 2.359 0
M  V30 12884 H 1240.64 0.333753 3.41674 0
M  V30 12885 N 1243.08 -1.54377 -0.317073 0
M  V30 12886 C 1244.49 -1.64062 -0.891105 0
M  V30 12887 C 1244.84 -0.538863 -1.88655 0
M  V30 12888 O 1243.97 0.32718 -2.13912 0
M  V30 12889 C 1244.56 -2.97395 -1.62302 0
M  V30 12890 C 1243.12 -3.09253 -2.14568 0
M  V30 12891 C 1242.27 -2.59664 -0.973146 0
M  V30 12892 H 1245.22 -1.58418 -0.0944829 0
M  V30 12893 H 1245.24 -2.87918 -2.48764 0
M  V30 12894 H 1244.75 -3.77562 -0.898268 0
M  V30 12895 H 1242.86 -2.33774 -2.90139 0
M  V30 12896 H 1242.97 -4.15159 -2.39123 0
M  V30 12897 H 1241.33 -2.15719 -1.35416 0
M  V30 12898 H 1242.12 -3.42294 -0.262611 0
M  V30 12899 N 1244.56 0.579466 -1.4656 0
M  V30 12900 C 1245.97 1.1616 -1.46164 0
M  V30 12901 C 1246.32 1.95134 -0.20423 0
M  V30 12902 O 1245.45 2.05022 0.692457 0
M  V30 12903 C 1246.04 2.11322 -2.64818 0
M  V30 12904 C 1244.6 2.64852 -2.67452 0
M  V30 12905 C 1243.75 1.40786 -2.38903 0
M  V30 12906 H 1246.7 0.367229 -1.54393 0
M  V30 12907 H 1246.72 2.94839 -2.4052 0
M  V30 12908 H 1246.23 1.53815 -3.56318 0
M  V30 12909 H 1244.33 3.26219 -1.80032 0
M  V30 12910 H 1244.45 3.07366 -3.67509 0
M  V30 12911 H 1242.81 1.70707 -1.89027 0
M  V30 12912 H 1243.59 0.851049 -3.32584 0
M  V30 12913 N 1246.04 1.3432 0.824371 0
M  V30 12914 C 1247.32 1.17178 1.56616 0
M  V30 12915 C 1247.7 -0.256195 2.0954 0
M  V30 12916 O 1247.04 -1.25732 1.90798 0
M  V30 12917 C 1247.25 2.22511 2.68867 0
M  V30 12918 C 1248.6 2.57414 3.37673 0
M  V30 12919 O 1249.63 2.2129 2.79122 0
M  V30 12920 O 1248.48 3.19462 4.43403 0
M  V30 12921 H 1245.58 0.454141 0.691147 0
M  V30 12922 H 1248.12 1.45948 0.865869 0
M  V30 12923 H 1246.9 3.18366 2.27505 0
M  V30 12924 H 1246.52 1.9491 3.46548 0
M  V30 12925 N 1247.52 -1.0444 1.18026 0
M  V30 12926 C 1248.76 -1.79143 0.984238 0
M  V30 12927 C 1249.12 -1.85955 -0.478002 0
M  V30 12928 O 1250.32 -2.56826 -0.793345 0
M  V30 12929 C 1248.59 -3.18744 1.61669 0
M  V30 12930 S 1250.15 -4.09832 1.56791 0
M  V30 12931 H 1246.97 -0.61688 0.353525 0
M  V30 12932 H 1249.57 -1.25256 1.50104 0
M  V30 12933 H 1248.28 -3.11394 2.67324 0
M  V30 12934 H 1247.81 -3.77708 1.10001 0
M  V30 12935 H 1249.82 -4.92785 0.581175 0
M  V30 12936 N 1248.99 -0.981699 -1.2329 0
M  V30 12937 C 1250.41 -0.688087 -1.73558 0
M  V30 12938 C 1250.76 0.795633 -1.79344 0
M  V30 12939 O 1249.88 1.62227 -1.43218 0
M  V30 12940 C 1250.48 -1.24235 -3.152 0
M  V30 12941 C 1249.04 -0.998356 -3.62918 0
M  V30 12942 C 1248.18 -1.3693 -2.41134 0
M  V30 12943 H 1251.13 -1.15539 -1.08795 0
M  V30 12944 H 1251.15 -0.61541 -3.7549 0
M  V30 12945 H 1250.67 -2.32223 -3.10957 0
M  V30 12946 H 1248.77 0.0653847 -3.72543 0
M  V30 12947 H 1248.88 -1.65385 -4.49649 0
M  V30 12948 H 1247.24 -0.787773 -2.42211 0
M  V30 12949 H 1248.03 -2.45898 -2.39561 0
M  V30 12950 N 1250.47 1.3842 -0.753509 0
M  V30 12951 C 1251.7 2.04403 -0.320449 0
M  V30 12952 C 1252.12 1.5683 1.05118 0
M  V30 12953 O 1251.47 0.741335 1.66765 0
M  V30 12954 C 1251.52 3.59954 -0.333937 0
M  V30 12955 O 1251.24 4.05782 -1.65144 0
M  V30 12956 C 1252.75 4.43156 0.112997 0
M  V30 12957 H 1249.97 0.656881 -0.136927 0
M  V30 12958 H 1252.51 1.77112 -1.02234 0
M  V30 12959 H 1250.66 3.86083 0.319215 0
M  V30 12960 H 1251.08 5.00213 -1.57757 0
M  V30 12961 H 1252.55 5.51975 0.0523995 0
M  V30 12962 H 1253.03 4.23581 1.16087 0
M  V30 12963 H 1253.64 4.22216 -0.511278 0
M  V30 12964 N 1251.95 0.502579 1.49372 0
M  V30 12965 C 1253.18 -0.0403087 2.07361 0
M  V30 12966 C 1253.6 -1.29918 1.36026 0
M  V30 12967 O 1252.96 -1.76428 0.417488 0
M  V30 12968 C 1253.01 -0.275362 3.59547 0
M  V30 12969 O 1252.11 -1.34975 3.89686 0
M  V30 12970 H 1251.45 0.0269268 0.663454 0
M  V30 12971 H 1253.98 0.702652 1.92156 0
M  V30 12972 H 1253.99 -0.506392 4.04845 0
M  V30 12973 H 1252.67 0.644382 4.10878 0
M  V30 12974 H 1251.24 -1.10355 3.56197 0
M  V30 12975 N 1253.43 -1.55816 0.23648 0
M  V30 12976 C 1254.36 -2.23924 -0.661834 0
M  V30 12977 C 1255.34 -1.21597 -1.18946 0
M  V30 12978 O 1256.52 -1.50222 -1.23073 0
M  V30 12979 C 1253.65 -2.93069 -1.86355 0
M  V30 12980 C 1252.61 -4.01996 -1.46913 0
M  V30 12981 C 1251.93 -4.58512 -2.75083 0
M  V30 12982 C 1253.23 -5.18265 -0.647964 0
M  V30 12983 H 1254.93 -2.99253 -0.0939368 0
M  V30 12984 H 1252.47 -1.43934 -0.0437407 0
M  V30 12985 H 1254.43 -3.39412 -2.49755 0
M  V30 12986 H 1253.15 -2.15212 -2.45665 0
M  V30 12987 H 1251.81 -3.56406 -0.858522 0
M  V30 12988 H 1251.46 -3.77368 -3.3257 0
M  V30 12989 H 1251.16 -5.32037 -2.49421 0
M  V30 12990 H 1252.68 -5.07583 -3.39399 0
M  V30 12991 H 1254.1 -5.60898 -1.18602 0
M  V30 12992 H 1252.49 -5.98114 -0.487823 0
M  V30 12993 H 1253.56 -4.83691 0.342151 0
M  V30 12994 N 1254.91 0.036755 -1.57557 0
M  V30 12995 C 1255.86 1.04744 -2.02516 0
M  V30 12996 C 1256.84 1.3248 -0.913116 0
M  V30 12997 O 1258.03 1.32194 -1.17702 0
M  V30 12998 C 1255.16 2.3509 -2.50175 0
M  V30 12999 C 1254.25 2.10478 -3.68185 0
M  V30 13000 N 1254.64 1.55899 -4.81175 0
M  V30 13001 C 1252.94 2.40797 -3.7541 0
M  V30 13002 C 1253.64 1.46913 -5.62842 0
M  V30 13003 N 1252.61 1.94202 -5.07727 0
M  V30 13004 H 1256.42 0.619342 -2.873 0
M  V30 13005 H 1253.93 0.243208 -1.60569 0
M  V30 13006 H 1255.93 3.08297 -2.8064 0
M  V30 13007 H 1254.59 2.78586 -1.66793 0
M  V30 13008 H 1255.6 1.24275 -5.02769 0
M  V30 13009 H 1252.27 2.8742 -3.02813 0
M  V30 13010 H 1253.66 1.0527 -6.63602 0
M  V30 13011 N 1256.39 1.54543 0.308881 0
M  V30 13012 C 1257.32 1.81309 1.40212 0
M  V30 13013 C 1258.33 0.69568 1.47187 0
M  V30 13014 O 1259.52 0.973034 1.49647 0
M  V30 13015 C 1256.62 1.92901 2.78644 0
M  V30 13016 C 1255.79 3.23222 2.94697 0
M  V30 13017 C 1254.85 3.25329 4.13579 0
M  V30 13018 O 1253.88 3.989 4.06039 0
M  V30 13019 N 1255.08 2.50158 5.23833 0
M  V30 13020 H 1257.84 2.75659 1.1761 0
M  V30 13021 H 1255.41 1.54021 0.498925 0
M  V30 13022 H 1257.4 1.91721 3.56406 0
M  V30 13023 H 1255.97 1.05582 2.9423 0
M  V30 13024 H 1255.19 3.37241 2.04113 0
M  V30 13025 H 1256.48 4.09238 3.02328 0
M  V30 13026 H 1255.87 1.90002 5.32838 0
M  V30 13027 H 1254.43 2.5474 5.99959 0
M  V30 13028 N 1257.86 -0.571685 1.46866 0
M  V30 13029 C 1258.79 -1.68994 1.61131 0
M  V30 13030 C 1259.77 -1.63728 0.461222 0
M  V30 13031 O 1260.96 -1.81574 0.688813 0
M  V30 13032 C 1258.09 -3.07638 1.61172 0
M  V30 13033 C 1257.04 -3.27742 2.75262 0
M  V30 13034 C 1256.37 -4.67025 2.60368 0
M  V30 13035 C 1257.67 -3.14511 4.16989 0
M  V30 13036 H 1259.36 -1.57311 2.54742 0
M  V30 13037 H 1256.91 -0.755382 1.22597 0
M  V30 13038 H 1258.86 -3.857 1.69744 0
M  V30 13039 H 1257.59 -3.20245 0.641122 0
M  V30 13040 H 1256.25 -2.52083 2.66176 0
M  V30 13041 H 1255.89 -4.76413 1.61368 0
M  V30 13042 H 1255.59 -4.81428 3.36899 0
M  V30 13043 H 1257.12 -5.47242 2.70848 0
M  V30 13044 H 1258.53 -3.82407 4.27128 0
M  V30 13045 H 1256.93 -3.40431 4.94193 0
M  V30 13046 H 1258 -2.11443 4.36371 0
M  V30 13047 N 1259.34 -1.34755 -0.817236 0
M  V30 13048 C 1260.27 -1.21147 -1.93387 0
M  V30 13049 C 1261.25 -0.101788 -1.62281 0
M  V30 13050 O 1262.44 -0.267968 -1.86586 0
M  V30 13051 C 1259.56 -0.86301 -3.27521 0
M  V30 13052 C 1258.61 -1.98325 -3.77584 0
M  V30 13053 S 1259.44 -3.59751 -3.9666 0
M  V30 13054 C 1260.6 -3.26959 -5.33712 0
M  V30 13055 H 1260.83 -2.15667 -2.04634 0
M  V30 13056 H 1258.36 -1.19848 -0.973441 0
M  V30 13057 H 1260.32 -0.668754 -4.05016 0
M  V30 13058 H 1258.98 0.0639417 -3.14035 0
M  V30 13059 H 1258.18 -1.69332 -4.74703 0
M  V30 13060 H 1257.78 -2.13529 -3.07053 0
M  V30 13061 H 1260.07 -2.79126 -6.17329 0
M  V30 13062 H 1261.01 -4.23238 -5.67693 0
M  V30 13063 H 1261.42 -2.62996 -4.99493 0
M  V30 13064 N 1260.82 1.03812 -1.18578 0
M  V30 13065 C 1261.75 2.13802 -0.938665 0
M  V30 13066 C 1262.73 1.69643 0.124575 0
M  V30 13067 O 1263.92 1.94179 -0.0285421 0
M  V30 13068 C 1261.05 3.44154 -0.466392 0
M  V30 13069 C 1260 4.01949 -1.47041 0
M  V30 13070 C 1259.33 5.27811 -0.855558 0
M  V30 13071 C 1260.63 4.37827 -2.84789 0
M  V30 13072 H 1262.32 2.34732 -1.85852 0
M  V30 13073 H 1259.87 1.12808 -0.895007 0
M  V30 13074 H 1261.82 4.20463 -0.280856 0
M  V30 13075 H 1260.54 3.22918 0.489041 0
M  V30 13076 H 1259.2 3.27725 -1.64293 0
M  V30 13077 H 1258.85 5.02886 0.107142 0
M  V30 13078 H 1258.55 5.67441 -1.52592 0
M  V30 13079 H 1260.07 6.06795 -0.680609 0
M  V30 13080 H 1261.49 5.05112 -2.71173 0
M  V30 13081 H 1259.88 4.88514 -3.48532 0
M  V30 13082 H 1260.95 3.47541 -3.38147 0
M  V30 13083 N 1262.3 0.988223 1.22768 0
M  V30 13084 C 1263.57 0.577578 1.86878 0
M  V30 13085 C 1263.95 -0.945197 1.88757 0
M  V30 13086 O 1263.3 -1.82519 1.37474 0
M  V30 13087 C 1263.51 1.19263 3.2799 0
M  V30 13088 C 1264.86 1.29024 4.04522 0
M  V30 13089 O 1265.88 1.14667 3.37239 0
M  V30 13090 O 1264.74 1.51949 5.24951 0
M  V30 13091 H 1261.84 0.195579 0.803541 0
M  V30 13092 H 1264.38 1.0838 1.30582 0
M  V30 13093 H 1263.16 2.23442 3.21231 0
M  V30 13094 H 1262.78 0.671706 3.91885 0
M  V30 13095 N 1263.78 -1.38018 0.760839 0
M  V30 13096 C 1265.02 -2.01795 0.325264 0
M  V30 13097 C 1265.38 -1.59092 -1.07489 0
M  V30 13098 O 1266.58 -2.15251 -1.60998 0
M  V30 13099 C 1264.85 -3.5453 0.452007 0
M  V30 13100 S 1266.41 -4.38686 0.100084 0
M  V30 13101 H 1263.23 -0.69979 0.125758 0
M  V30 13102 H 1265.83 -1.684 0.993054 0
M  V30 13103 H 1264.53 -3.83099 1.47186 0
M  V30 13104 H 1264.07 -3.92711 -0.232716 0
M  V30 13105 H 1266.08 -4.83672 -1.10797 0
M  V30 13106 N 1265.25 -0.510493 -1.49103 0
M  V30 13107 C 1266.5 0.0226445 -2.03387 0
M  V30 13108 C 1266.85 1.33817 -1.38242 0
M  V30 13109 O 1266.15 1.84625 -0.512282 0
M  V30 13110 C 1266.34 0.221921 -3.5671 0
M  V30 13111 C 1266.17 -1.07273 -4.36718 0
M  V30 13112 C 1264.94 -1.62719 -4.78383 0
M  V30 13113 C 1267.14 -1.97844 -4.74723 0
M  V30 13114 N 1265.12 -2.86676 -5.42854 0
M  V30 13115 C 1266.49 -3.06378 -5.3901 0
M  V30 13116 C 1268.55 -1.98407 -4.56661 0
M  V30 13117 C 1267.25 -4.15515 -5.87145 0
M  V30 13118 C 1269.28 -3.06525 -5.05763 0
M  V30 13119 C 1268.64 -4.13778 -5.70059 0
M  V30 13120 H 1264.74 -0.0327303 -0.781315 0
M  V30 13121 H 1267.32 -0.687457 -1.8216 0
M  V30 13122 H 1265.49 0.901088 -3.77803 0
M  V30 13123 H 1267.22 0.752916 -3.97635 0
M  V30 13124 H 1263.98 -1.17109 -4.58893 0
M  V30 13125 H 1264.4 -3.49733 -5.79669 0
M  V30 13126 H 1269.04 -1.16789 -4.0635 0
M  V30 13127 H 1266.76 -4.97925 -6.36472 0
M  V30 13128 H 1270.35 -3.07992 -4.93591 0
M  V30 13129 H 1269.23 -4.96061 -6.07366 0
M  V30 13130 N 1266.73 1.55688 -0.24474 0
M  V30 13131 C 1267.66 2.18616 0.68844 0
M  V30 13132 C 1268.68 1.16185 1.14039 0
M  V30 13133 O 1269.87 1.43059 1.06754 0
M  V30 13134 C 1266.97 2.77375 1.94721 0
M  V30 13135 C 1266.14 4.05204 1.64706 0
M  V30 13136 C 1265.2 4.48302 2.75521 0
M  V30 13137 O 1264.22 5.14723 2.42999 0
M  V30 13138 N 1265.43 4.15907 4.04971 0
M  V30 13139 H 1268.19 2.99324 0.150018 0
M  V30 13140 H 1265.75 1.61771 -0.0646183 0
M  V30 13141 H 1267.74 3.03165 2.68091 0
M  V30 13142 H 1266.31 2.00837 2.39548 0
M  V30 13143 H 1265.53 3.87026 0.74865 0
M  V30 13144 H 1266.82 4.8855 1.42114 0
M  V30 13145 H 1266.22 3.62579 4.34227 0
M  V30 13146 H 1264.78 4.46538 4.74813 0
M  V30 13147 N 1268.21 -0.0283989 1.57574 0
M  V30 13148 C 1269.16 -1.02881 2.06601 0
M  V30 13149 C 1270.13 -1.35879 0.955308 0
M  V30 13150 O 1271.31 -1.46205 1.22592 0
M  V30 13151 C 1268.45 -2.32447 2.55073 0
M  V30 13152 C 1267.56 -2.05602 3.79937 0
M  V30 13153 C 1266.7 -3.29043 4.17018 0
M  V30 13154 C 1265.74 -2.97755 5.34797 0
M  V30 13155 N 1264.88 -4.1365 5.67308 0
M  V30 13156 H 1269.72 -0.603772 2.91819 0
M  V30 13157 H 1267.25 -0.286503 1.44283 0
M  V30 13158 H 1269.21 -3.08152 2.81244 0
M  V30 13159 H 1267.84 -2.72672 1.72771 0
M  V30 13160 H 1266.89 -1.2039 3.60847 0
M  V30 13161 H 1268.2 -1.78522 4.65759 0
M  V30 13162 H 1267.36 -4.13115 4.4432 0
M  V30 13163 H 1266.1 -3.59237 3.29849 0
M  V30 13164 H 1265.1 -2.12085 5.07247 0
M  V30 13165 H 1266.33 -2.68839 6.23621 0
M  V30 13166 H 1264.27 -4.43794 4.83097 0
M  V30 13167 H 1264.19 -3.89996 6.47641 0
M  V30 13168 H 1265.46 -4.98594 5.99186 0
M  V30 13169 N 1269.69 -1.54705 -0.300681 0
M  V30 13170 C 1270.96 -1.6468 -1.05546 0
M  V30 13171 C 1271.34 -0.495292 -2.05207 0
M  V30 13172 O 1270.69 0.507944 -2.22783 0
M  V30 13173 C 1270.9 -3.02702 -1.73703 0
M  V30 13174 C 1272.25 -3.59527 -2.25888 0
M  V30 13175 O 1273.27 -3.05156 -1.83735 0
M  V30 13176 O 1272.13 -4.54727 -3.03126 0
M  V30 13177 H 1269.23 -0.667769 -0.487867 0
M  V30 13178 H 1271.77 -1.6705 -0.298743 0
M  V30 13179 H 1270.55 -3.7795 -1.01338 0
M  V30 13180 H 1270.17 -3.0411 -2.5613 0
M  V30 13181 N 1271.17 0.563888 -1.47167 0
M  V30 13182 C 1272.58 0.889156 -1.32537 0
M  V30 13183 C 1272.78 1.99088 -0.310854 0
M  V30 13184 O 1271.84 2.50943 0.27998 0
M  V30 13185 C 1273.15 1.28871 -2.71685 0
M  V30 13186 C 1274.7 1.40051 -2.79919 0
M  V30 13187 C 1275.17 1.83364 -4.19692 0
M  V30 13188 N 1276.67 1.90526 -4.22201 0
M  V30 13189 C 1277.4 2.25355 -5.2726 0
M  V30 13190 N 1276.9 2.58844 -6.42629 0
M  V30 13191 N 1278.69 2.26071 -5.14634 0
M  V30 13192 H 1270.84 -0.163581 -2.11769 0
M  V30 13193 H 1273.1 -0.0105151 -0.947942 0
M  V30 13194 H 1272.81 0.553057 -3.47324 0
M  V30 13195 H 1272.68 2.24629 -3.03021 0
M  V30 13196 H 1275.07 2.12698 -2.04557 0
M  V30 13197 H 1275.15 0.424971 -2.52245 0
M  V30 13198 H 1274.8 1.11289 -4.95557 0
M  V30 13199 H 1274.73 2.81909 -4.44786 0
M  V30 13200 H 1277.22 1.67059 -3.38968 0
M  V30 13201 H 1277.53 2.84427 -7.18555 0
M  V30 13202 H 1275.87 2.56439 -6.4596 0
M  V30 13203 H 1279.07 1.99343 -4.23533 0
M  V30 13204 H 1279.24 2.52885 -5.96618 0
M  V30 13205 N 1272.64 1.35187 0.810078 0
M  V30 13206 C 1273.59 1.27848 1.94313 0
M  V30 13207 C 1274.59 0.174081 1.68503 0
M  V30 13208 O 1275.79 0.339848 1.76763 0
M  V30 13209 H 1272.17 0.397504 0.638353 0
M  V30 13210 H 1274.14 2.23579 1.97623 0
M  V30 13211 C 1272.89 1.06382 3.31026 0
M  V30 13212 H 1272.21 1.90601 3.51441 0
M  V30 13213 H 1273.65 1.05287 4.1072 0
M  V30 13214 C 1272.11 -0.232462 3.36097 0
M  V30 13215 O 1272.64 -1.22946 3.82423 0
M  V30 13216 N 1270.85 -0.270028 2.89343 0
M  V30 13217 H 1270.39 0.541891 2.51836 0
M  V30 13218 H 1270.35 -1.13708 2.93117 0
M  V30 13219 N 1274.12 -1.03182 1.19127 0
M  V30 13220 C 1275.09 -2.09559 0.928307 0
M  V30 13221 C 1276.09 -1.60548 -0.0899992 0
M  V30 13222 O 1277.28 -1.736 0.144422 0
M  V30 13223 C 1274.41 -3.38609 0.394561 0
M  V30 13224 H 1275.6 -2.34321 1.87173 0
M  V30 13225 H 1273.15 -1.19746 1.00452 0
M  V30 13226 H 1273.89 -3.19515 -0.555046 0
M  V30 13227 H 1273.67 -3.75502 1.12873 0
M  V30 13228 H 1275.16 -4.16969 0.229569 0
M  V30 13229 N 1275.6 -0.99472 -1.22242 0
M  V30 13230 C 1277.02 -0.705762 -1.43147 0
M  V30 13231 C 1277.22 0.722908 -1.88086 0
M  V30 13232 O 1276.27 1.49359 -2.03588 0
M  V30 13233 C 1277.59 -1.71288 -2.47145 0
M  V30 13234 C 1279.13 -1.72853 -2.60942 0
M  V30 13235 C 1279.61 -2.72433 -3.68163 0
M  V30 13236 N 1281.1 -2.71039 -3.75623 0
M  V30 13237 C 1281.83 -3.44753 -4.58184 0
M  V30 13238 N 1281.33 -4.28075 -5.44724 0
M  V30 13239 N 1283.12 -3.33451 -4.52512 0
M  V30 13240 H 1275.27 -1.91738 -0.913792 0
M  V30 13241 H 1277.54 -0.82702 -0.463403 0
M  V30 13242 H 1277.24 -2.7353 -2.21075 0
M  V30 13243 H 1277.12 -1.50721 -3.45779 0
M  V30 13244 H 1279.5 -0.713085 -2.86355 0
M  V30 13245 H 1279.59 -1.9749 -1.62577 0
M  V30 13246 H 1279.23 -3.74129 -3.43497 0
M  V30 13247 H 1279.16 -2.45066 -4.66101 0
M  V30 13248 H 1281.65 -2.10581 -3.1379 0
M  V30 13249 H 1281.96 -4.81143 -6.04749 0
M  V30 13250 H 1280.31 -4.32161 -5.44299 0
M  V30 13251 H 1283.5 -2.67797 -3.8393 0
M  V30 13252 H 1283.67 -3.91158 -5.16623 0
M  V30 13253 N 1277.08 1.37613 -0.768148 0
M  V30 13254 C 1278.49 1.82437 -0.396703 0
M  V30 13255 C 1278.84 1.64019 1.07668 0
M  V30 13256 O 1277.97 1.14932 1.83356 0
M  V30 13257 C 1278.56 3.31207 -0.713265 0
M  V30 13258 C 1277.12 3.74323 -0.39492 0
M  V30 13259 C 1276.27 2.60191 -0.958962 0
M  V30 13260 H 1279.22 1.26135 -0.963099 0
M  V30 13261 H 1279.24 3.805 0.00337228 0
M  V30 13262 H 1278.75 3.4458 -1.78567 0
M  V30 13263 H 1276.85 3.66521 0.670313 0
M  V30 13264 H 1276.96 4.70558 -0.900653 0
M  V30 13265 H 1275.33 2.51797 -0.383423 0
M  V30 13266 H 1276.11 2.76358 -2.03669 0
M  V30 13267 N 1278.56 0.518393 1.4883 0
M  V30 13268 C 1279.97 0.175476 1.58632 0
M  V30 13269 C 1280.17 -1.32081 1.52174 0
M  V30 13270 O 1279.23 -2.09817 1.40474 0
M  V30 13271 C 1280.54 0.767722 2.90734 0
M  V30 13272 C 1282.09 0.735402 3.04238 0
M  V30 13273 C 1282.56 1.30602 4.38984 0
M  V30 13274 N 1284.06 1.26748 4.45521 0
M  V30 13275 C 1284.79 1.679 5.48267 0
M  V30 13276 N 1284.29 2.16728 6.58028 0
M  V30 13277 N 1286.08 1.59209 5.39082 0
M  V30 13278 H 1278.23 1.491 1.51271 0
M  V30 13279 H 1280.49 0.619497 0.717584 0
M  V30 13280 H 1280.2 1.81777 3.01081 0
M  V30 13281 H 1280.07 0.238119 3.76448 0
M  V30 13282 H 1282.46 -0.305852 2.93511 0
M  V30 13283 H 1282.54 1.30235 2.20165 0
M  V30 13284 H 1282.19 2.34614 4.50465 0
M  V30 13285 H 1282.12 0.714858 5.21725 0
M  V30 13286 H 1284.61 0.90991 3.66782 0
M  V30 13287 H 1284.92 2.46154 7.32549 0
M  V30 13288 H 1283.26 2.20714 6.59022 0
M  V30 13289 H 1286.46 1.20869 4.52226 0
M  V30 13290 H 1286.63 1.91602 6.19025 0
M  V30 13291 N 1280.03 -1.55556 0.252993 0
M  V30 13292 C 1281.28 -1.9909 -0.37005 0
M  V30 13293 C 1281.61 -1.1412 -1.57502 0
M  V30 13294 O 1280.86 -0.193471 -1.94741 0
M  V30 13295 C 1281.16 -3.47925 -0.817484 0
M  V30 13296 C 1280.83 -4.50027 0.280398 0
M  V30 13297 C 1279.49 -4.77669 0.581914 0
M  V30 13298 C 1281.84 -5.11096 1.02129 0
M  V30 13299 C 1279.17 -5.63652 1.62829 0
M  V30 13300 C 1281.52 -5.98215 2.05723 0
M  V30 13301 C 1280.19 -6.24186 2.36533 0
M  V30 13302 H 1279.46 -0.728522 -0.135411 0
M  V30 13303 H 1282.1 -1.88046 0.36209 0
M  V30 13304 H 1280.41 -3.56333 -1.62893 0
M  V30 13305 H 1282.11 -3.79001 -1.30993 0
M  V30 13306 H 1278.7 -4.28585 0.0352579 0
M  V30 13307 H 1282.88 -4.89784 0.801603 0
M  V30 13308 H 1278.14 -5.82028 1.87227 0
M  V30 13309 H 1282.31 -6.44575 2.6362 0
M  V30 13310 H 1279.94 -6.90607 3.17752 0
M  V30 13311 N 1281.51 0.0200419 -1.57587 0
M  V30 13312 C 1282.92 0.565484 -1.7793 0
M  V30 13313 C 1283.27 1.75096 -0.885201 0
M  V30 13314 O 1282.4 2.16243 -0.0823831 0
M  V30 13315 C 1282.99 1.03263 -3.2268 0
M  V30 13316 C 1281.55 1.52352 -3.44189 0
M  V30 13317 C 1280.7 0.465637 -2.73363 0
M  V30 13318 H 1283.65 -0.206174 -1.57355 0
M  V30 13319 H 1283.67 1.89959 -3.2969 0
M  V30 13320 H 1283.18 0.169613 -3.87729 0
M  V30 13321 H 1281.29 2.40809 -2.84327 0
M  V30 13322 H 1281.4 1.5648 -4.52825 0
M  V30 13323 H 1279.76 0.922738 -2.37398 0
M  V30 13324 H 1280.55 -0.388068 -3.411 0
M  V30 13325 N 1282.99 1.54862 0.292472 0
M  V30 13326 C 1283.92 1.82786 1.38282 0
M  V30 13327 C 1284.94 0.711253 1.46441 0
M  V30 13328 O 1286.12 0.988851 1.48607 0
M  V30 13329 C 1283.22 1.95845 2.76582 0
M  V30 13330 C 1282.4 3.2633 2.91252 0
M  V30 13331 C 1281.46 3.29697 4.10105 0
M  V30 13332 O 1280.48 4.03184 4.01785 0
M  V30 13333 N 1281.68 2.557 5.21151 0
M  V30 13334 H 1284.45 2.76891 1.1468 0
M  V30 13335 H 1282.01 1.54541 0.482561 0
M  V30 13336 H 1284 1.95491 3.54352 0
M  V30 13337 H 1282.57 1.08696 2.93094 0
M  V30 13338 H 1281.79 3.39387 2.00525 0
M  V30 13339 H 1283.08 4.12421 2.9797 0
M  V30 13340 H 1282.48 1.95642 5.30792 0
M  V30 13341 H 1281.04 2.61089 5.97223 0
M  V30 13342 N 1284.47 -0.556076 1.47464 0
M  V30 13343 C 1285.71 -1.31515 1.54375 0
M  V30 13344 C 1286.05 -1.93106 0.205837 0
M  V30 13345 O 1285.32 -1.77927 -0.785643 0
M  V30 13346 C 1285.61 -2.4244 2.66261 0
M  V30 13347 C 1285.46 -1.8571 4.09673 0
M  V30 13348 C 1286.78 -3.4436 2.74051 0
M  V30 13349 H 1283.9 -0.476817 0.561974 0
M  V30 13350 H 1286.54 -0.622157 1.79525 0
M  V30 13351 H 1284.69 -3.01551 2.44948 0
M  V30 13352 H 1286.36 -1.30851 4.42353 0
M  V30 13353 H 1284.6 -1.16379 4.17898 0
M  V30 13354 H 1285.27 -2.65904 4.83735 0
M  V30 13355 H 1287.75 -2.95169 2.93282 0
M  V30 13356 H 1286.63 -4.194 3.54111 0
M  V30 13357 H 1286.89 -4.03281 1.81155 0
M  V30 13358 N 1285.95 -1.35615 -0.802897 0
M  V30 13359 C 1287.19 -1.29285 -1.56247 0
M  V30 13360 C 1287.53 0.131474 -1.93754 0
M  V30 13361 O 1286.8 1.08172 -1.61645 0
M  V30 13362 C 1287.08 -2.20285 -2.84863 0
M  V30 13363 C 1286.94 -3.71351 -2.53808 0
M  V30 13364 C 1288.26 -2.10318 -3.86593 0
M  V30 13365 H 1285.38 -0.470972 -0.566882 0
M  V30 13366 H 1288.02 -1.66048 -0.923469 0
M  V30 13367 H 1286.17 -1.89063 -3.39393 0
M  V30 13368 H 1287.84 -4.13031 -2.05433 0
M  V30 13369 H 1286.08 -3.9145 -1.86947 0
M  V30 13370 H 1286.75 -4.30416 -3.4561 0
M  V30 13371 H 1289.23 -2.37772 -3.41473 0
M  V30 13372 H 1288.11 -2.76183 -4.74357 0
M  V30 13373 H 1288.37 -1.08627 -4.28547 0
M  V30 13374 N 1287.43 1.02549 -1.19673 0
M  V30 13375 C 1288.65 1.8016 -1.02748 0
M  V30 13376 C 1289.08 1.83372 0.419105 0
M  V30 13377 O 1288.43 1.26222 1.30144 0
M  V30 13378 C 1288.48 3.22907 -1.60509 0
M  V30 13379 O 1287.59 4.03823 -0.836702 0
M  V30 13380 H 1286.93 0.556027 -0.362946 0
M  V30 13381 H 1289.46 1.29047 -1.5877 0
M  V30 13382 H 1289.47 3.73646 -1.63868 0
M  V30 13383 H 1288.14 3.19885 -2.65794 0
M  V30 13384 H 1286.72 3.6245 -0.876626 0
M  V30 13385 N 1288.9 1.00119 1.21713 0
M  V30 13386 C 1289.87 0.563409 2.22167 0
M  V30 13387 C 1290.87 -0.35819 1.5676 0
M  V30 13388 O 1292.06 -0.149001 1.73562 0
M  V30 13389 C 1289.19 -0.179365 3.40428 0
M  V30 13390 H 1290.38 1.45189 2.62412 0
M  V30 13391 H 1287.93 0.789286 1.34907 0
M  V30 13392 H 1288.67 -1.08345 3.05666 0
M  V30 13393 H 1288.45 0.482471 3.8912 0
M  V30 13394 H 1289.94 -0.473537 4.14906 0
M  V30 13395 N 1290.38 -1.37203 0.775435 0
M  V30 13396 C 1291.31 -2.32819 0.17826 0
M  V30 13397 C 1292.29 -1.55963 -0.678944 0
M  V30 13398 O 1293.48 -1.84183 -0.615648 0
M  V30 13399 C 1290.61 -3.40198 -0.698768 0
M  V30 13400 C 1289.56 -4.27961 0.057423 0
M  V30 13401 C 1288.89 -5.26385 -0.93929 0
M  V30 13402 C 1290.19 -5.07402 1.23856 0
M  V30 13403 H 1291.88 -2.8301 0.977028 0
M  V30 13404 H 1289.43 -1.3607 0.471274 0
M  V30 13405 H 1291.38 -4.06067 -1.12637 0
M  V30 13406 H 1290.1 -2.88541 -1.53009 0
M  V30 13407 H 1288.76 -3.63628 0.465848 0
M  V30 13408 H 1288.41 -4.71007 -1.76527 0
M  V30 13409 H 1288.11 -5.85966 -0.437844 0
M  V30 13410 H 1289.64 -5.9513 -1.36576 0
M  V30 13411 H 1291.05 -5.6639 0.887423 0
M  V30 13412 H 1289.45 -5.76327 1.67234 0
M  V30 13413 H 1290.52 -4.3986 2.04085 0
M  V30 13414 N 1291.86 -0.526279 -1.48553 0
M  V30 13415 C 1293.14 0.073385 -1.95462 0
M  V30 13416 C 1293.52 1.51658 -1.46843 0
M  V30 13417 O 1292.86 2.17729 -0.693293 0
M  V30 13418 C 1293.07 -0.040041 -3.48977 0
M  V30 13419 C 1294.42 0.121108 -4.24427 0
M  V30 13420 O 1295.45 0.0339335 -3.56184 0
M  V30 13421 O 1294.31 0.303297 -5.45658 0
M  V30 13422 H 1291.4 0.0813498 -0.822989 0
M  V30 13423 H 1293.95 -0.590614 -1.59091 0
M  V30 13424 H 1292.72 -1.0455 -3.77074 0
M  V30 13425 H 1292.34 0.662975 -3.92034 0
M  V30 13426 N 1293.34 1.5542 -0.261239 0
M  V30 13427 C 1294.28 2.21972 0.632216 0
M  V30 13428 C 1295.25 1.18843 1.16041 0
M  V30 13429 O 1296.44 1.47339 1.21226 0
M  V30 13430 C 1293.58 2.93397 1.81693 0
M  V30 13431 C 1292.69 4.11214 1.3239 0
M  V30 13432 C 1291.83 4.70318 2.46931 0
M  V30 13433 C 1290.87 5.80355 1.94561 0
M  V30 13434 N 1290 6.33581 3.02523 0
M  V30 13435 H 1294.84 2.97944 0.058018 0
M  V30 13436 H 1292.38 1.4709 0.0168725 0
M  V30 13437 H 1294.34 3.33015 2.5131 0
M  V30 13438 H 1292.97 2.19874 2.36337 0
M  V30 13439 H 1292.02 3.76811 0.521292 0
M  V30 13440 H 1293.33 4.90609 0.900214 0
M  V30 13441 H 1292.49 5.12584 3.24565 0
M  V30 13442 H 1291.23 3.90169 2.92608 0
M  V30 13443 H 1290.23 5.37552 1.15402 0
M  V30 13444 H 1291.46 6.62364 1.49836 0
M  V30 13445 H 1289.4 5.56332 3.47608 0
M  V30 13446 H 1289.32 7.08209 2.64529 0
M  V30 13447 H 1290.59 6.80506 3.80174 0
M  V30 13448 N 1294.82 -0.0116844 1.57596 0
M  V30 13449 C 1295.75 -1.04043 2.03102 0
M  V30 13450 C 1296.73 -1.34164 0.918622 0
M  V30 13451 O 1297.91 -1.46527 1.18584 0
M  V30 13452 C 1295.04 -2.37094 2.41876 0
M  V30 13453 C 1294.08 -2.22713 3.63732 0
M  V30 13454 S 1294.92 -1.56416 5.12147 0
M  V30 13455 C 1296.07 -2.90921 5.5418 0
M  V30 13456 H 1296.31 -0.652899 2.90042 0
M  V30 13457 H 1293.84 -0.222201 1.52793 0
M  V30 13458 H 1295.8 -3.13602 2.64885 0
M  V30 13459 H 1294.46 -2.7299 1.55356 0
M  V30 13460 H 1293.65 -3.20976 3.88575 0
M  V30 13461 H 1293.25 -1.54349 3.40665 0
M  V30 13462 H 1295.54 -3.87237 5.55926 0
M  V30 13463 H 1296.49 -2.70792 6.54276 0
M  V30 13464 H 1296.9 -2.94293 4.81717 0
M  V30 13465 N 1296.29 -1.55015 -0.284256 0
M  V30 13466 C 1297.54 -1.74297 -1.01506 0
M  V30 13467 C 1297.86 -0.545134 -1.8785 0
M  V30 13468 O 1299.06 -0.620118 -2.64323 0
M  V30 13469 C 1297.52 -3.08438 -1.85456 0
M  V30 13470 C 1297.13 -4.35753 -1.04034 0
M  V30 13471 C 1298.87 -3.37073 -2.58035 0
M  V30 13472 C 1296.78 -5.60938 -1.87358 0
M  V30 13473 H 1295.71 -0.649656 -0.382705 0
M  V30 13474 H 1298.36 -1.81484 -0.271239 0
M  V30 13475 H 1296.74 -2.95259 -2.63891 0
M  V30 13476 H 1297.91 -4.59816 -0.300954 0
M  V30 13477 H 1296.23 -4.14178 -0.429616 0
M  V30 13478 H 1298.83 -4.27806 -3.20759 0
M  V30 13479 H 1299.17 -2.56698 -3.27738 0
M  V30 13480 H 1299.7 -3.51299 -1.86638 0
M  V30 13481 H 1296.44 -6.44029 -1.22096 0
M  V30 13482 H 1295.96 -5.41035 -2.58923 0
M  V30 13483 H 1297.64 -5.98819 -2.44999 0
M  V30 13484 N 1297.77 0.548248 -1.47757 0
M  V30 13485 C 1299.19 0.875048 -1.33473 0
M  V30 13486 C 1299.39 1.98747 -0.331952 0
M  V30 13487 O 1298.44 2.51226 0.253348 0
M  V30 13488 C 1299.76 1.25982 -2.73037 0
M  V30 13489 C 1301.3 1.37074 -2.81389 0
M  V30 13490 C 1301.78 1.78902 -4.21613 0
M  V30 13491 N 1303.27 1.86037 -4.24198 0
M  V30 13492 C 1304.01 2.1975 -5.2962 0
M  V30 13493 N 1303.5 2.52013 -6.45338 0
M  V30 13494 N 1305.29 2.206 -5.17003 0
M  V30 13495 H 1297.45 -0.186033 -2.11584 0
M  V30 13496 H 1299.71 -0.0205687 -0.947777 0
M  V30 13497 H 1299.41 0.516188 -3.47891 0
M  V30 13498 H 1299.29 2.21402 -3.05387 0
M  V30 13499 H 1301.68 2.10517 -2.06801 0
M  V30 13500 H 1301.76 0.398193 -2.52682 0
M  V30 13501 H 1301.4 1.06026 -4.9671 0
M  V30 13502 H 1301.33 2.77176 -4.47751 0
M  V30 13503 H 1303.82 1.63455 -3.40721 0
M  V30 13504 H 1304.13 2.7679 -7.21531 0
M  V30 13505 H 1302.48 2.49573 -6.48643 0
M  V30 13506 H 1305.67 1.9484 -4.25623 0
M  V30 13507 H 1305.84 2.46543 -5.99267 0
M  V30 13508 N 1299.25 1.36039 0.795694 0
M  V30 13509 C 1300.2 1.29902 1.92946 0
M  V30 13510 C 1301.19 0.191943 1.68309 0
M  V30 13511 O 1302.4 0.358577 1.76392 0
M  V30 13512 H 1298.77 0.404252 0.634101 0
M  V30 13513 H 1300.74 2.25663 1.95241 0
M  V30 13514 C 1299.49 1.09887 3.29879 0
M  V30 13515 H 1298.82 1.94318 3.494 0
M  V30 13516 H 1300.26 1.09638 4.0958 0
M  V30 13517 C 1298.71 -0.196802 3.36325 0
M  V30 13518 O 1299.24 -1.18883 3.83705 0
M  V30 13519 N 1297.45 -0.239325 2.89613 0
M  V30 13520 H 1297 0.568571 2.51247 0
M  V30 13521 H 1296.96 -1.10593 2.94307 0
M  V30 13522 N 1300.73 -1.01913 1.20215 0
M  V30 13523 C 1302.14 -1.5692 1.01159 0
M  V30 13524 C 1302.49 -1.91368 -0.432746 0
M  V30 13525 O 1301.62 -1.71959 -1.31374 0
M  V30 13526 C 1302.21 -2.85125 1.83001 0
M  V30 13527 C 1300.77 -3.36669 1.68318 0
M  V30 13528 C 1299.92 -2.10003 1.81091 0
M  V30 13529 H 1302.87 -0.843246 1.34443 0
M  V30 13530 H 1302.89 -3.56428 1.33188 0
M  V30 13531 H 1302.4 -2.60021 2.88116 0
M  V30 13532 H 1300.5 -3.66739 0.658292 0
M  V30 13533 H 1300.61 -4.09042 2.49442 0
M  V30 13534 H 1298.98 -2.22337 1.24252 0
M  V30 13535 H 1299.76 -1.87329 2.87685 0
M  V30 13536 N 1302.21 -1.00763 -1.2118 0
M  V30 13537 C 1303.17 -0.575183 -2.21865 0
M  V30 13538 C 1304.17 0.349871 -1.56948 0
M  V30 13539 O 1305.36 0.139795 -1.73638 0
M  V30 13540 C 1302.49 0.161308 -3.40518 0
M  V30 13541 H 1303.68 -1.46578 -2.61639 0
M  V30 13542 H 1301.24 -0.79643 -1.34487 0
M  V30 13543 H 1301.97 1.06723 -3.06236 0
M  V30 13544 H 1301.76 -0.503101 -3.88859 0
M  V30 13545 H 1303.25 0.451527 -4.15152 0
M  V30 13546 N 1303.68 1.3679 -0.7827 0
M  V30 13547 C 1304.91 2.04206 -0.362571 0
M  V30 13548 C 1305.33 1.58637 1.01074 0
M  V30 13549 O 1304.69 0.751692 1.64983 0
M  V30 13550 C 1304.74 3.58062 -0.4271 0
M  V30 13551 O 1303.84 4.08463 0.56845 0
M  V30 13552 H 1303.19 0.645638 -0.155073 0
M  V30 13553 H 1305.72 1.74883 -1.06194 0
M  V30 13554 H 1305.73 4.0698 -0.288298 0
M  V30 13555 H 1304.4 3.90582 -1.42893 0
M  V30 13556 H 1302.98 3.70835 0.391863 0
M  V30 13557 N 1305.16 0.53415 1.48272 0
M  V30 13558 C 1306.09 -0.215037 2.32508 0
M  V30 13559 C 1307.07 -0.931083 1.42355 0
M  V30 13560 O 1308.26 -0.916051 1.71237 0
M  V30 13561 C 1305.39 -1.25985 3.23643 0
M  V30 13562 C 1304.34 -0.661692 4.22854 0
M  V30 13563 C 1303.67 -1.80946 5.03153 0
M  V30 13564 C 1304.97 0.369358 5.20992 0
M  V30 13565 H 1306.66 0.488158 2.95394 0
M  V30 13566 H 1304.21 0.236206 1.4205 0
M  V30 13567 H 1306.16 -1.79195 3.81402 0
M  V30 13568 H 1304.89 -1.99268 2.58766 0
M  V30 13569 H 1303.54 -0.151082 3.66289 0
M  V30 13570 H 1303.19 -2.53077 4.34696 0
M  V30 13571 H 1302.89 -1.41513 5.70305 0
M  V30 13572 H 1304.42 -2.34526 5.63764 0
M  V30 13573 H 1305.83 -0.0758076 5.7325 0
M  V30 13574 H 1304.23 0.681301 5.9622 0
M  V30 13575 H 1305.3 1.27363 4.67875 0
M  V30 13576 N 1306.64 -1.55279 0.269478 0
M  V30 13577 C 1307.59 -2.22304 -0.620435 0
M  V30 13578 C 1308.56 -1.19457 -1.15409 0
M  V30 13579 O 1309.74 -1.4798 -1.20443 0
M  V30 13580 C 1306.88 -2.94356 -1.80134 0
M  V30 13581 C 1306 -4.1191 -1.30207 0
M  V30 13582 C 1305.13 -4.71621 -2.44433 0
M  V30 13583 C 1304.17 -5.81379 -1.91481 0
M  V30 13584 N 1303.31 -6.35176 -2.99158 0
M  V30 13585 H 1308.15 -2.9797 -0.0422165 0
M  V30 13586 H 1305.68 -1.47097 -0.00907173 0
M  V30 13587 H 1307.64 -3.34343 -2.4954 0
M  V30 13588 H 1306.27 -2.21124 -2.35168 0
M  V30 13589 H 1305.32 -3.77082 -0.501301 0
M  V30 13590 H 1306.64 -4.9108 -0.874183 0
M  V30 13591 H 1305.79 -5.14298 -3.21842 0
M  V30 13592 H 1304.53 -3.91715 -2.90535 0
M  V30 13593 H 1303.53 -5.38157 -1.12549 0
M  V30 13594 H 1304.76 -6.63149 -1.46322 0
M  V30 13595 H 1302.7 -5.58167 -3.44652 0
M  V30 13596 H 1302.62 -7.09602 -2.60769 0
M  V30 13597 H 1303.89 -6.82512 -3.7656 0
M  V30 13598 N 1308.12 0.00332656 -1.576 0
M  V30 13599 C 1309.37 0.688044 -1.89602 0
M  V30 13600 C 1309.68 1.75121 -0.871316 0
M  V30 13601 O 1310.89 2.49032 -1.08144 0
M  V30 13602 C 1309.34 1.27494 -3.36561 0
M  V30 13603 C 1308.95 0.246771 -4.4732 0
M  V30 13604 C 1310.69 1.93804 -3.77677 0
M  V30 13605 C 1308.6 0.843471 -5.85354 0
M  V30 13606 H 1307.53 0.260747 -0.707479 0
M  V30 13607 H 1310.18 -0.0566727 -1.83412 0
M  V30 13608 H 1308.56 2.07022 -3.37577 0
M  V30 13609 H 1309.74 -0.523668 -4.57815 0
M  V30 13610 H 1308.05 -0.3157 -4.15202 0
M  V30 13611 H 1310.65 2.39347 -4.78139 0
M  V30 13612 H 1310.99 2.7672 -3.11017 0
M  V30 13613 H 1311.53 1.21015 -3.78946 0
M  V30 13614 H 1308.27 0.0531655 -6.55478 0
M  V30 13615 H 1307.79 1.58315 -5.7853 0
M  V30 13616 H 1309.46 1.34311 -6.32906 0
M  V30 13617 N 1309.6 1.55164 0.276031 0
M  V30 13618 C 1310.84 1.75887 1.00953 0
M  V30 13619 C 1311.18 0.5567 1.8605 0
M  V30 13620 O 1310.45 -0.445799 1.89322 0
M  V30 13621 C 1310.73 3.06228 1.89463 0
M  V30 13622 C 1310.59 4.36795 1.07379 0
M  V30 13623 C 1311.91 3.32589 2.88223 0
M  V30 13624 H 1309.02 0.639929 0.365596 0
M  V30 13625 H 1311.67 1.87893 0.282156 0
M  V30 13626 H 1309.82 2.96124 2.51481 0
M  V30 13627 H 1311.49 4.58853 0.474549 0
M  V30 13628 H 1309.73 4.32157 0.377165 0
M  V30 13629 H 1310.4 5.24315 1.72621 0
M  V30 13630 H 1312.88 3.42467 2.36338 0
M  V30 13631 H 1311.75 4.2506 3.47297 0
M  V30 13632 H 1312.02 2.52083 3.6319 0
M  V30 13633 N 1311.07 -0.540404 1.48045 0
M  V30 13634 C 1312.04 -1.62813 1.61322 0
M  V30 13635 C 1313.04 -1.53243 0.487161 0
M  V30 13636 O 1314.23 -1.571 0.752684 0
M  V30 13637 C 1311.36 -3.02408 1.5736 0
M  V30 13638 H 1312.55 -1.52385 2.583 0
M  V30 13639 H 1310.11 -0.761654 1.36486 0
M  V30 13640 H 1310.84 -3.18353 0.618195 0
M  V30 13641 H 1310.63 -3.10763 2.39099 0
M  V30 13642 H 1312.12 -3.8151 1.69822 0
M  V30 13643 N 1312.55 -1.36459 -0.788468 0
M  V30 13644 C 1313.97 -1.16893 -1.08666 0
M  V30 13645 C 1314.17 0.00633808 -2.01499 0
M  V30 13646 O 1313.22 0.671417 -2.4341 0
M  V30 13647 C 1314.54 -2.48018 -1.70022 0
M  V30 13648 C 1316.09 -2.5439 -1.82358 0
M  V30 13649 C 1316.56 -3.85605 -2.47129 0
M  V30 13650 N 1318.05 -3.86956 -2.54597 0
M  V30 13651 C 1318.79 -4.85224 -3.05525 0
M  V30 13652 N 1318.28 -5.93885 -3.56753 0
M  V30 13653 N 1320.08 -4.72643 -3.04246 0
M  V30 13654 H 1312.23 -2.11705 -0.171733 0
M  V30 13655 H 1314.49 -0.937784 -0.1388 0
M  V30 13656 H 1314.2 -3.34292 -1.09277 0
M  V30 13657 H 1314.07 -2.63894 -2.69518 0
M  V30 13658 H 1316.46 -1.68534 -2.4224 0
M  V30 13659 H 1316.54 -2.42414 -0.816651 0
M  V30 13660 H 1316.18 -4.71868 -1.87891 0
M  V30 13661 H 1316.11 -3.94878 -3.48395 0
M  V30 13662 H 1318.6 -3.08453 -2.18323 0
M  V30 13663 H 1318.92 -6.64839 -3.93966 0
M  V30 13664 H 1317.26 -5.97553 -3.54902 0
M  V30 13665 H 1320.45 -3.86883 -2.63513 0
M  V30 13666 H 1320.62 -5.49385 -3.43627 0
M  V30 13667 N 1314.03 1.01274 -1.20754 0
M  V30 13668 C 1314.94 2.1335 -0.975656 0
M  V30 13669 C 1315.96 1.7386 0.0697364 0
M  V30 13670 O 1317.13 2.01051 -0.118578 0
M  V30 13671 C 1314.2 3.42548 -0.534931 0
M  V30 13672 C 1313.26 3.96257 -1.65163 0
M  V30 13673 C 1312.49 5.19289 -1.23184 0
M  V30 13674 O 1312.71 5.70309 -0.102158 0
M  V30 13675 O 1311.65 5.66248 -2.04076 0
M  V30 13676 H 1315.47 2.35783 -1.91415 0
M  V30 13677 H 1313.06 1.11736 -0.991743 0
M  V30 13678 H 1314.94 4.20341 -0.298568 0
M  V30 13679 H 1313.62 3.21521 0.374937 0
M  V30 13680 H 1312.52 3.19726 -1.94232 0
M  V30 13681 H 1313.86 4.2168 -2.53864 0
M  V30 13682 N 1315.51 1.01404 1.20644 0
M  V30 13683 C 1316.46 0.575388 2.25371 0
M  V30 13684 C 1317.45 -0.384598 1.64976 0
M  V30 13685 O 1318.66 -0.2548 1.78187 0
M  V30 13686 H 1315.03 0.167752 0.733051 0
M  V30 13687 H 1317 1.46964 2.597 0
M  V30 13688 C 1315.75 -0.0731257 3.47623 0
M  V30 13689 H 1315.08 0.656551 3.94372 0
M  V30 13690 H 1316.52 -0.343203 4.22609 0
M  V30 13691 C 1314.97 -1.31515 3.1017 0
M  V30 13692 O 1315.5 -2.40869 3.21473 0
M  V30 13693 N 1313.71 -1.19829 2.64744 0
M  V30 13694 H 1313.26 -0.308463 2.55746 0
M  V30 13695 H 1313.22 -2.0303 2.40054 0
M  V30 13696 N 1316.99 -1.36373 0.789944 0
M  V30 13697 C 1318.24 -1.98834 0.361866 0
M  V30 13698 C 1318.56 -1.63006 -1.07024 0
M  V30 13699 O 1317.83 -0.904312 -1.73779 0
M  V30 13700 H 1316.41 -0.735457 0.130812 0
M  V30 13701 H 1319.07 -1.66561 1.0121 0
M  V30 13702 H 1318.16 -3.08778 0.454122 0
M  V30 13703 N 1318.47 -0.542005 -1.47987 0
M  V30 13704 C 1319.71 -0.0122873 -2.02096 0
M  V30 13705 C 1320.03 1.3362 -1.42024 0
M  V30 13706 O 1319.3 1.86807 -0.589911 0
M  V30 13707 H 1317.88 -0.00155365 -0.746998 0
M  V30 13708 H 1320.55 -0.708566 -1.81564 0
M  V30 13709 H 1319.64 0.0871275 -3.11978 0
M  V30 13710 N 1319.94 1.55134 -0.277709 0
M  V30 13711 C 1320.91 2.21327 0.595569 0
M  V30 13712 C 1321.91 1.19193 1.07933 0
M  V30 13713 O 1323.1 1.44081 0.979093 0
M  V30 13714 C 1320.23 2.88127 1.82196 0
M  V30 13715 H 1321.42 2.99895 0.0175855 0
M  V30 13716 H 1318.97 1.56274 -0.0283453 0
M  V30 13717 H 1319.71 2.13578 2.44039 0
M  V30 13718 H 1319.49 3.62974 1.48297 0
M  V30 13719 H 1320.98 3.38691 2.44291 0
M  V30 13720 N 1321.42 0.00503138 1.57599 0
M  V30 13721 C 1322.65 -0.693231 1.95471 0
M  V30 13722 C 1323.07 -1.66233 0.880246 0
M  V30 13723 O 1322.43 -1.80582 -0.161164 0
M  V30 13724 C 1322.48 -1.39696 3.32442 0
M  V30 13725 O 1321.58 -2.51154 3.27101 0
M  V30 13726 H 1320.92 -0.184015 0.637992 0
M  V30 13727 H 1323.45 0.0597194 2.04513 0
M  V30 13728 H 1323.46 -1.75924 3.68123 0
M  V30 13729 H 1322.14 -0.686438 4.10196 0
M  V30 13730 H 1320.71 -2.17216 3.03103 0
M  V30 13731 N 1322.9 -1.55308 -0.267798 0
M  V30 13732 C 1323.85 -1.84933 -1.33356 0
M  V30 13733 C 1324.83 -0.708605 -1.44456 0
M  V30 13734 O 1326.03 -0.970069 -1.4805 0
M  V30 13735 C 1323.15 -2.12927 -2.69289 0
M  V30 13736 C 1322.24 -3.33273 -2.62279 0
M  V30 13737 N 1322.63 -4.53055 -2.24889 0
M  V30 13738 C 1320.93 -3.35966 -2.93331 0
M  V30 13739 C 1321.63 -5.35156 -2.27998 0
M  V30 13740 N 1320.61 -4.73692 -2.66677 0
M  V30 13741 H 1324.41 -2.75086 -1.03465 0
M  V30 13742 H 1321.92 -1.55254 -0.476435 0
M  V30 13743 H 1323.92 -2.32309 -3.46177 0
M  V30 13744 H 1322.58 -1.24061 -3.00065 0
M  V30 13745 H 1323.59 -4.79059 -1.9678 0
M  V30 13746 H 1320.27 -2.57308 -3.28784 0
M  V30 13747 H 1321.66 -6.4094 -2.01608 0
M  V30 13748 N 1324.38 0.532545 -1.4833 0
M  V30 13749 C 1325.79 1.11451 -1.49785 0
M  V30 13750 C 1326.14 1.94386 -0.266207 0
M  V30 13751 O 1325.26 2.07121 0.62688 0
M  V30 13752 C 1325.86 2.0279 -2.71407 0
M  V30 13753 C 1324.42 2.56209 -2.75742 0
M  V30 13754 C 1323.57 1.33114 -2.43261 0
M  V30 13755 H 1326.52 0.317924 -1.55483 0
M  V30 13756 H 1326.54 2.87038 -2.49779 0
M  V30 13757 H 1326.05 1.42401 -3.61031 0
M  V30 13758 H 1324.15 3.20327 -1.9032 0
M  V30 13759 H 1324.26 2.95518 -3.77102 0
M  V30 13760 H 1322.63 1.64607 -1.94362 0
M  V30 13761 H 1323.41 0.744809 -3.35123 0
M  V30 13762 N 1325.86 1.36875 0.78122 0
M  V30 13763 C 1326.79 1.34559 1.9083 0
M  V30 13764 C 1327.77 0.215713 1.68727 0
M  V30 13765 O 1328.95 0.41462 1.89722 0
M  V30 13766 C 1326.08 1.14233 3.27976 0
M  V30 13767 C 1325.04 2.24132 3.64621 0
M  V30 13768 C 1324.36 1.8894 5.00206 0
M  V30 13769 C 1325.66 3.66266 3.72353 0
M  V30 13770 H 1327.36 2.28871 1.93025 0
M  V30 13771 H 1324.9 1.10171 0.927275 0
M  V30 13772 H 1326.85 1.11246 4.06451 0
M  V30 13773 H 1325.58 0.163747 3.26189 0
M  V30 13774 H 1324.24 2.26259 2.88448 0
M  V30 13775 H 1323.89 0.896351 4.94949 0
M  V30 13776 H 1323.59 2.62525 5.25694 0
M  V30 13777 H 1325.11 1.87523 5.81092 0
M  V30 13778 H 1326.52 3.66321 4.41001 0
M  V30 13779 H 1324.92 4.38825 4.09332 0
M  V30 13780 H 1325.99 4.00578 2.7325 0
M  V30 13781 N 1327.33 -1.00632 1.21289 0
M  V30 13782 C 1328.26 -2.11238 0.995021 0
M  V30 13783 C 1329.24 -1.69914 -0.0795537 0
M  V30 13784 O 1330.43 -1.94035 0.0800152 0
M  V30 13785 C 1327.56 -3.42797 0.557475 0
M  V30 13786 C 1326.51 -3.97909 1.57646 0
M  V30 13787 C 1325.84 -5.25357 0.995197 0
M  V30 13788 C 1327.14 -4.30123 2.96297 0
M  V30 13789 H 1328.83 -2.29722 1.9201 0
M  V30 13790 H 1326.38 -1.10395 0.924602 0
M  V30 13791 H 1328.33 -4.19571 0.392236 0
M  V30 13792 H 1327.06 -3.24101 -0.403253 0
M  V30 13793 H 1325.72 -3.23254 1.72924 0
M  V30 13794 H 1325.36 -5.02993 0.026227 0
M  V30 13795 H 1325.06 -5.63196 1.67583 0
M  V30 13796 H 1326.59 -6.04777 0.841251 0
M  V30 13797 H 1328 -4.97744 2.8447 0
M  V30 13798 H 1326.4 -4.79101 3.61361 0
M  V30 13799 H 1327.47 -3.38454 3.47242 0
M  V30 13800 N 1328.81 -1.02043 -1.20104 0
M  V30 13801 C 1330.09 -0.626922 -1.85281 0
M  V30 13802 C 1330.47 0.894819 -1.91197 0
M  V30 13803 O 1329.82 1.7881 -1.42265 0
M  V30 13804 C 1330.03 -1.27917 -3.24713 0
M  V30 13805 C 1331.37 -1.39704 -4.00959 0
M  V30 13806 O 1332.4 -1.23568 -3.3408 0
M  V30 13807 O 1331.26 -1.65814 -5.20738 0
M  V30 13808 H 1328.35 -0.216815 -0.798073 0
M  V30 13809 H 1330.9 -1.11804 -1.27663 0
M  V30 13810 H 1329.67 -2.3188 -3.15194 0
M  V30 13811 H 1329.29 -0.775371 -3.89966 0
M  V30 13812 N 1330.29 1.35952 -0.797165 0
M  V30 13813 C 1331.22 2.28649 -0.15877 0
M  V30 13814 C 1332.24 1.49842 0.636481 0
M  V30 13815 O 1333.42 1.72191 0.47039 0
M  V30 13816 C 1330.52 3.29373 0.797913 0
M  V30 13817 C 1329.7 4.3737 0.0510574 0
M  V30 13818 C 1328.76 5.18009 0.924826 0
M  V30 13819 O 1327.78 5.67935 0.379223 0
M  V30 13820 N 1328.98 5.352 2.24813 0
M  V30 13821 H 1331.75 2.84075 -0.955056 0
M  V30 13822 H 1329.31 1.48201 -0.651767 0
M  V30 13823 H 1331.3 3.80209 1.38646 0
M  V30 13824 H 1329.87 2.74531 1.49504 0
M  V30 13825 H 1329.09 3.87594 -0.718633 0
M  V30 13826 H 1330.38 5.0668 -0.464025 0
M  V30 13827 H 1329.78 4.96266 2.71545 0
M  V30 13828 H 1328.34 5.89252 2.78614 0
M  V30 13829 N 1331.77 0.549846 1.47697 0
M  V30 13830 C 1333.18 0.209085 1.58225 0
M  V30 13831 C 1333.38 -1.28823 1.54941 0
M  V30 13832 O 1332.44 -2.0679 1.44893 0
M  V30 13833 C 1333.75 0.829219 2.89041 0
M  V30 13834 C 1335.3 0.79977 3.0261 0
M  V30 13835 C 1335.78 1.39884 4.36115 0
M  V30 13836 N 1337.27 1.36169 4.42733 0
M  V30 13837 C 1338 1.79492 5.44583 0
M  V30 13838 N 1337.5 2.30637 6.53283 0
M  V30 13839 N 1339.29 1.70608 5.35583 0
M  V30 13840 H 1331.44 1.52275 1.48074 0
M  V30 13841 H 1333.71 0.634579 0.704283 0
M  V30 13842 H 1333.41 1.88122 2.97158 0
M  V30 13843 H 1333.29 0.317916 3.75858 0
M  V30 13844 H 1335.67 -0.243525 2.94093 0
M  V30 13845 H 1335.75 1.34875 2.17353 0
M  V30 13846 H 1335.4 2.44116 4.45387 0
M  V30 13847 H 1335.33 0.825362 5.20092 0
M  V30 13848 H 1337.82 0.987505 3.64769 0
M  V30 13849 H 1338.13 2.61637 7.27163 0
M  V30 13850 H 1336.48 2.34643 6.54192 0
M  V30 13851 H 1339.67 1.30434 4.4956 0
M  V30 13852 H 1339.84 2.0469 6.14822 0
M  V30 13853 N 1333.25 -1.54984 0.285932 0
M  V30 13854 C 1334.18 -2.20365 -0.630236 0
M  V30 13855 C 1335.19 -1.19168 -1.10918 0
M  V30 13856 O 1336.38 -1.45839 -1.02923 0
M  V30 13857 C 1333.48 -2.8244 -1.87299 0
M  V30 13858 C 1332.65 -4.09429 -1.53905 0
M  V30 13859 C 1331.71 -4.55449 -2.63538 0
M  V30 13860 O 1330.74 -5.20985 -2.29267 0
M  V30 13861 N 1331.94 -4.26498 -3.93802 0
M  V30 13862 H 1334.71 -2.99617 -0.0706044 0
M  V30 13863 H 1332.27 -1.61543 0.107486 0
M  V30 13864 H 1334.26 -3.10167 -2.59959 0
M  V30 13865 H 1332.83 -2.07117 -2.34139 0
M  V30 13866 H 1332.05 -3.88875 -0.645774 0
M  V30 13867 H 1333.34 -4.92146 -1.29111 0
M  V30 13868 H 1332.73 -3.73964 -4.24461 0
M  V30 13869 H 1331.29 -4.5897 -4.62807 0
M  V30 13870 N 1334.72 -0.0133892 -1.57594 0
M  V30 13871 C 1336.14 0.527615 -1.7909 0
M  V30 13872 C 1336.49 1.73179 -0.922142 0
M  V30 13873 O 1335.61 2.1602 -0.128233 0
M  V30 13874 C 1336.21 0.963949 -3.24798 0
M  V30 13875 C 1334.77 1.45017 -3.47343 0
M  V30 13876 C 1333.91 0.407548 -2.74289 0
M  V30 13877 H 1336.86 -0.239505 -1.56882 0
M  V30 13878 H 1336.88 1.82924 -3.33645 0
M  V30 13879 H 1336.4 0.0873315 -3.88002 0
M  V30 13880 H 1334.5 2.34724 -2.89371 0
M  V30 13881 H 1334.61 1.4684 -4.56043 0
M  V30 13882 H 1332.97 0.872174 -2.39301 0
M  V30 13883 H 1333.76 -0.460333 -3.402 0
M  V30 13884 N 1336.2 1.55448 0.259558 0
M  V30 13885 C 1337.15 1.85637 1.32374 0
M  V30 13886 C 1338.14 0.716256 1.44078 0
M  V30 13887 O 1339.33 0.977907 1.47533 0
M  V30 13888 C 1336.46 2.14353 2.68156 0
M  V30 13889 C 1335.54 3.34659 2.60508 0
M  V30 13890 N 1335.93 4.54241 2.22484 0
M  V30 13891 C 1334.23 3.37517 2.91545 0
M  V30 13892 C 1334.93 5.36358 2.25157 0
M  V30 13893 N 1333.91 4.751 2.64162 0
M  V30 13894 H 1337.71 2.75631 1.02005 0
M  V30 13895 H 1335.23 1.55505 0.468194 0
M  V30 13896 H 1337.22 2.34141 3.4494 0
M  V30 13897 H 1335.88 1.25651 2.99403 0
M  V30 13898 H 1336.89 4.80096 1.94237 0
M  V30 13899 H 1333.57 2.59048 3.27414 0
M  V30 13900 H 1334.96 6.42 1.98206 0
M  V30 13901 N 1337.68 -0.524672 1.4861 0
M  V30 13902 C 1338.91 -1.30292 1.60335 0
M  V30 13903 C 1339.32 -1.87338 0.264774 0
M  V30 13904 O 1338.66 -1.67388 -0.756756 0
M  V30 13905 C 1338.72 -2.48809 2.59488 0
M  V30 13906 C 1338.39 -2.12811 4.04426 0
M  V30 13907 C 1339.38 -1.68171 4.9195 0
M  V30 13908 C 1337.07 -2.23171 4.5 0
M  V30 13909 C 1339.06 -1.34363 6.23077 0
M  V30 13910 C 1336.75 -1.88975 5.81147 0
M  V30 13911 C 1337.75 -1.44643 6.67508 0
M  V30 13912 O 1337.44 -1.10898 7.96214 0
M  V30 13913 H 1337.17 -0.402288 0.543268 0
M  V30 13914 H 1339.72 -0.63908 1.95205 0
M  V30 13915 H 1337.95 -3.18192 2.19751 0
M  V30 13916 H 1339.64 -3.10866 2.60992 0
M  V30 13917 H 1340.41 -1.59632 4.57977 0
M  V30 13918 H 1336.29 -2.56632 3.82963 0
M  V30 13919 H 1339.83 -0.996875 6.90441 0
M  V30 13920 H 1335.73 -1.97156 6.14654 0
M  V30 13921 H 1336.5 -1.2425 8.09014 0
M  V30 13922 N 1339.16 -1.37287 -0.77395 0
M  V30 13923 C 1340.38 -1.35734 -1.56815 0
M  V30 13924 C 1340.81 0.0555546 -1.88018 0
M  V30 13925 O 1340.17 1.03197 -1.49064 0
M  V30 13926 C 1340.21 -2.2008 -2.85652 0
M  V30 13927 O 1339.32 -1.60391 -3.79932 0
M  V30 13928 H 1338.66 -0.463881 -0.47509 0
M  V30 13929 H 1341.19 -1.80781 -0.958087 0
M  V30 13930 H 1341.2 -2.33215 -3.34776 0
M  V30 13931 H 1339.87 -3.22781 -2.6227 0
M  V30 13932 H 1338.45 -1.56285 -3.3857 0
M  V30 13933 N 1340.64 0.999871 -1.21821 0
M  V30 13934 C 1341.6 2.07024 -0.983541 0
M  V30 13935 C 1342.6 1.6073 0.0474011 0
M  V30 13936 O 1343.79 1.73156 -0.190398 0
M  V30 13937 C 1340.92 3.37444 -0.484199 0
M  V30 13938 H 1342.11 2.29276 -1.9332 0
M  V30 13939 H 1339.67 1.1704 -1.03592 0
M  V30 13940 H 1340.4 3.20874 0.470138 0
M  V30 13941 H 1340.19 3.72378 -1.2279 0
M  V30 13942 H 1341.68 4.16213 -0.34004 0
M  V30 13943 N 1342.11 1.02678 1.19562 0
M  V30 13944 C 1343.36 0.722016 1.89191 0
M  V30 13945 C 1343.69 -0.749217 1.79491 0
M  V30 13946 O 1342.94 -1.56105 1.18025 0
M  V30 13947 C 1343.24 1.11603 3.39529 0
M  V30 13948 C 1342.91 2.58518 3.69431 0
M  V30 13949 C 1341.57 2.98658 3.77302 0
M  V30 13950 C 1343.92 3.53579 3.82925 0
M  V30 13951 C 1341.25 4.32776 3.96134 0
M  V30 13952 C 1343.6 4.87398 4.0327 0
M  V30 13953 C 1342.27 5.27229 4.09373 0
M  V30 13954 H 1341.54 0.264204 0.692298 0
M  V30 13955 H 1344.18 1.28924 1.41601 0
M  V30 13956 H 1342.49 0.467374 3.89002 0
M  V30 13957 H 1344.19 0.857771 3.91718 0
M  V30 13958 H 1340.78 2.26421 3.63911 0
M  V30 13959 H 1344.96 3.23721 3.76189 0
M  V30 13960 H 1340.22 4.63175 3.99098 0
M  V30 13961 H 1344.39 5.60973 4.12653 0
M  V30 13962 H 1342.02 6.31164 4.23718 0
M  V30 13963 N 1343.59 -1.35528 0.804364 0
M  V30 13964 C 1344.84 -1.98439 0.382934 0
M  V30 13965 C 1345.16 -1.64132 -1.05289 0
M  V30 13966 O 1344.43 -0.922693 -1.7281 0
M  V30 13967 H 1343.01 -0.734028 0.138605 0
M  V30 13968 H 1345.67 -1.65478 1.02971 0
M  V30 13969 H 1344.77 -3.08279 0.486846 0
M  V30 13970 N 1345.07 -0.557671 -1.47404 0
M  V30 13971 C 1346.3 -0.0366797 -2.07368 0
M  V30 13972 C 1346.72 1.2478 -1.40754 0
M  V30 13973 O 1346.08 1.74757 -0.48268 0
M  V30 13974 C 1346.13 0.141728 -3.60321 0
M  V30 13975 O 1345.23 1.20419 -3.94427 0
M  V30 13976 H 1344.57 -0.0515319 -0.661997 0
M  V30 13977 H 1347.1 -0.773485 -1.89416 0
M  V30 13978 H 1347.11 0.355787 -4.06446 0
M  V30 13979 H 1345.79 -0.796433 -4.08203 0
M  V30 13980 H 1344.36 0.970589 -3.60047 0
M  V30 13981 N 1346.55 1.54831 -0.294147 0
M  V30 13982 C 1347.8 2.00298 0.317605 0
M  V30 13983 C 1348.13 1.18228 1.54064 0
M  V30 13984 O 1347.4 0.257034 1.92794 0
M  V30 13985 C 1347.69 3.53602 0.680991 0
M  V30 13986 C 1347.54 4.46416 -0.550711 0
M  V30 13987 C 1348.86 4.13379 1.51016 0
M  V30 13988 H 1345.98 0.728135 0.113965 0
M  V30 13989 H 1348.62 1.85636 -0.404883 0
M  V30 13990 H 1346.77 3.66227 1.29654 0
M  V30 13991 H 1348.44 4.45707 -1.18922 0
M  V30 13992 H 1346.68 4.17294 -1.18524 0
M  V30 13993 H 1347.36 5.51423 -0.252412 0
M  V30 13994 H 1349.83 4.04148 0.99012 0
M  V30 13995 H 1348.71 5.20818 1.73321 0
M  V30 13996 H 1348.97 3.64817 2.49722 0
M  V30 13997 N 1348.03 0.0217466 1.57585 0
M  V30 13998 C 1349.28 -0.657187 1.91116 0
M  V30 13999 C 1349.6 -1.7309 0.898039 0
M  V30 14000 O 1348.87 -1.95803 -0.0615116 0
M  V30 14001 H 1347.45 -0.245732 0.705425 0
M  V30 14002 H 1350.11 0.0678096 1.94782 0
M  V30 14003 H 1349.2 -1.11462 2.91518 0
M  V30 14004 N 1349.51 -1.55583 -0.251311 0
M  V30 14005 C 1350.42 -1.93073 -1.33266 0
M  V30 14006 C 1351.43 -0.830612 -1.52895 0
M  V30 14007 O 1352.61 -1.13162 -1.66602 0
M  V30 14008 C 1349.67 -2.21396 -2.66805 0
M  V30 14009 C 1348.73 -3.44815 -2.55737 0
M  V30 14010 C 1347.97 -3.71777 -3.82907 0
M  V30 14011 O 1348.19 -3.00884 -4.84587 0
M  V30 14012 O 1347.12 -4.65305 -3.81805 0
M  V30 14013 H 1350.95 -2.85168 -1.04465 0
M  V30 14014 H 1348.53 -1.42408 -0.451693 0
M  V30 14015 H 1350.42 -2.4094 -3.45725 0
M  V30 14016 H 1349.09 -1.3248 -2.95348 0
M  V30 14017 H 1348 -3.30582 -1.75118 0
M  V30 14018 H 1349.33 -4.34019 -2.32139 0
M  V30 14019 N 1350.98 0.516783 -1.48886 0
M  V30 14020 C 1352.23 1.27118 -1.58785 0
M  V30 14021 C 1352.58 1.90579 -0.264114 0
M  V30 14022 O 1351.88 1.76972 0.734271 0
M  V30 14023 C 1352.07 2.37296 -2.67256 0
M  V30 14024 C 1351.9 1.84637 -4.10048 0
M  V30 14025 C 1350.67 1.66646 -4.77029 0
M  V30 14026 C 1352.87 1.36728 -4.95792 0
M  V30 14027 N 1350.85 1.08751 -6.04191 0
M  V30 14028 C 1352.22 0.908663 -6.13305 0
M  V30 14029 C 1354.28 1.25154 -4.81914 0
M  V30 14030 C 1352.98 0.345766 -7.18468 0
M  V30 14031 C 1355.01 0.702625 -5.87211 0
M  V30 14032 C 1354.37 0.254151 -7.03941 0
M  V30 14033 H 1350.47 0.455698 -0.635503 0
M  V30 14034 H 1353.05 0.581119 -1.85825 0
M  V30 14035 H 1351.22 3.03782 -2.42014 0
M  V30 14036 H 1352.95 3.04334 -2.66764 0
M  V30 14037 H 1349.71 1.90556 -4.33573 0
M  V30 14038 H 1350.13 0.817766 -6.72043 0
M  V30 14039 H 1354.77 1.58429 -3.91995 0
M  V30 14040 H 1352.49 0.000713578 -8.081 0
M  V30 14041 H 1356.08 0.616065 -5.78529 0
M  V30 14042 H 1354.96 -0.163978 -7.84029 0
M  V30 14043 N 1352.46 1.37696 0.766659 0
M  V30 14044 C 1353.39 1.36576 1.89392 0
M  V30 14045 C 1354.37 0.233597 1.68488 0
M  V30 14046 O 1355.56 0.434719 1.89272 0
M  V30 14047 C 1352.69 1.17705 3.26746 0
M  V30 14048 C 1351.64 2.27987 3.62224 0
M  V30 14049 C 1350.97 1.94235 4.98174 0
M  V30 14050 C 1352.27 3.70195 3.68447 0
M  V30 14051 H 1353.96 2.30905 1.90587 0
M  V30 14052 H 1351.51 1.11148 0.915538 0
M  V30 14053 H 1353.46 1.15551 4.05248 0
M  V30 14054 H 1352.18 0.198334 3.25997 0
M  V30 14055 H 1350.84 2.29306 2.86032 0
M  V30 14056 H 1350.49 0.948796 4.93971 0
M  V30 14057 H 1350.19 2.68086 5.2288 0
M  V30 14058 H 1351.72 1.93676 5.7907 0
M  V30 14059 H 1353.13 3.70978 4.37091 0
M  V30 14060 H 1351.53 4.43142 4.04654 0
M  V30 14061 H 1352.6 4.03453 2.68986 0
M  V30 14062 N 1353.94 -0.993397 1.22349 0
M  V30 14063 C 1355.36 -1.25708 0.983345 0
M  V30 14064 C 1355.56 -1.98888 -0.323372 0
M  V30 14065 O 1354.61 -2.2981 -1.04612 0
M  V30 14066 C 1355.92 -2.06935 2.1817 0
M  V30 14067 C 1357.47 -2.20121 2.22521 0
M  V30 14068 C 1357.95 -3.04735 3.41907 0
M  V30 14069 N 1359.44 -3.12322 3.42066 0
M  V30 14070 C 1360.17 -3.78081 4.31095 0
M  V30 14071 N 1359.67 -4.45771 5.3034 0
M  V30 14072 N 1361.46 -3.74837 4.18872 0
M  V30 14073 H 1353.61 -0.502767 2.06364 0
M  V30 14074 H 1355.88 -0.284656 0.904254 0
M  V30 14075 H 1355.58 -1.60525 3.12929 0
M  V30 14076 H 1355.46 -3.0769 2.18189 0
M  V30 14077 H 1357.84 -2.65745 1.28311 0
M  V30 14078 H 1357.92 -1.18798 2.26541 0
M  V30 14079 H 1357.57 -2.59811 4.36418 0
M  V30 14080 H 1357.5 -4.06198 3.35128 0
M  V30 14081 H 1359.99 -2.64146 2.7025 0
M  V30 14082 H 1360.3 -4.93687 5.94553 0
M  V30 14083 H 1358.65 -4.44521 5.34253 0
M  V30 14084 H 1361.84 -3.21116 3.40591 0
M  V30 14085 H 1362.01 -4.25806 4.8846 0
M  V30 14086 N 1355.42 -1.03311 -1.19015 0
M  V30 14087 C 1356.38 -0.622114 -2.20596 0
M  V30 14088 C 1357.38 0.316502 -1.57654 0
M  V30 14089 O 1358.57 0.102932 -1.73896 0
M  V30 14090 C 1355.7 0.0890432 -3.40784 0
M  V30 14091 H 1356.9 -1.52095 -2.58471 0
M  V30 14092 H 1354.45 -0.824777 -1.32767 0
M  V30 14093 H 1355.18 1.00203 -3.08431 0
M  V30 14094 H 1354.97 -0.58547 -3.87704 0
M  V30 14095 H 1356.46 0.363366 -4.16016 0
M  V30 14096 N 1356.9 1.35099 -0.81154 0
M  V30 14097 C 1358.14 1.9788 -0.390695 0
M  V30 14098 C 1358.46 1.6509 1.04903 0
M  V30 14099 O 1359.66 2.21273 1.57324 0
M  V30 14100 C 1358.12 3.54025 -0.647632 0
M  V30 14101 C 1357.73 3.9572 -2.10023 0
M  V30 14102 C 1359.47 4.23492 -0.29239 0
M  V30 14103 C 1357.38 5.44731 -2.30266 0
M  V30 14104 H 1356.31 0.740441 -0.14235 0
M  V30 14105 H 1358.96 1.54098 -0.996294 0
M  V30 14106 H 1357.34 3.9599 0.0279838 0
M  V30 14107 H 1358.52 3.64893 -2.81407 0
M  V30 14108 H 1356.83 3.39157 -2.41581 0
M  V30 14109 H 1359.43 5.33035 -0.421618 0
M  V30 14110 H 1359.77 4.09268 0.76195 0
M  V30 14111 H 1360.3 3.86965 -0.922122 0
M  V30 14112 H 1357.04 5.63928 -3.34163 0
M  V30 14113 H 1356.56 5.7711 -1.63413 0
M  V30 14114 H 1358.24 6.1126 -2.12062 0
M  V30 14115 N 1358.37 0.56548 1.47106 0
M  V30 14116 C 1359.32 -0.177564 2.30116 0
M  V30 14117 C 1360.29 -0.900534 1.39569 0
M  V30 14118 O 1361.48 -0.894603 1.68527 0
M  V30 14119 C 1358.62 -1.19633 3.237 0
M  V30 14120 C 1357.73 -0.47858 4.29341 0
M  V30 14121 C 1356.86 -1.48336 5.10068 0
M  V30 14122 C 1355.9 -0.751049 6.07475 0
M  V30 14123 N 1355.04 -1.70306 6.81132 0
M  V30 14124 H 1359.88 0.536409 2.93132 0
M  V30 14125 H 1357.42 0.276352 1.44481 0
M  V30 14126 H 1359.37 -1.79967 3.76388 0
M  V30 14127 H 1358 -1.87823 2.6253 0
M  V30 14128 H 1357.06 0.239454 3.79646 0
M  V30 14129 H 1358.37 0.0947147 4.9871 0
M  V30 14130 H 1357.52 -2.16 5.66947 0
M  V30 14131 H 1356.26 -2.09058 4.4062 0
M  V30 14132 H 1355.27 -0.0605336 5.49767 0
M  V30 14133 H 1356.49 -0.14946 6.78936 0
M  V30 14134 H 1354.44 -2.2987 6.14407 0
M  V30 14135 H 1354.35 -1.18213 7.46701 0
M  V30 14136 H 1355.62 -2.37058 7.42579 0
M  V30 14137 N 1359.85 -1.54672 0.302354 0
M  V30 14138 C 1360.79 -2.19752 -0.615175 0
M  V30 14139 C 1361.76 -1.16737 -1.13186 0
M  V30 14140 O 1362.95 -1.45385 -1.19981 0
M  V30 14141 C 1360.07 -2.84243 -1.84184 0
M  V30 14142 C 1359.12 -4.00795 -1.45827 0
M  V30 14143 S 1359.95 -5.33037 -0.513046 0
M  V30 14144 C 1361.11 -6.01011 -1.74747 0
M  V30 14145 H 1361.34 -2.97235 -0.0622917 0
M  V30 14146 H 1358.88 -1.54158 0.0864897 0
M  V30 14147 H 1360.83 -3.22025 -2.54578 0
M  V30 14148 H 1359.49 -2.06603 -2.36589 0
M  V30 14149 H 1358.69 -4.44707 -2.37175 0
M  V30 14150 H 1358.29 -3.64577 -0.83425 0
M  V30 14151 H 1360.58 -6.21901 -2.68786 0
M  V30 14152 H 1361.52 -6.95095 -1.35089 0
M  V30 14153 H 1361.93 -5.30671 -1.9248 0
M  V30 14154 N 1361.33 -0.0301034 -1.57571 0
M  V30 14155 C 1362.58 0.647042 -1.91462 0
M  V30 14156 C 1362.9 1.72612 -0.907206 0
M  V30 14157 O 1362.17 1.95833 0.0511268 0
M  V30 14158 H 1360.75 0.241988 -0.706718 0
M  V30 14159 H 1363.41 -0.0781385 -1.94743 0
M  V30 14160 H 1362.51 1.09915 -2.92105 0
M  V30 14161 N 1362.81 1.55714 0.243056 0
M  V30 14162 C 1364.22 1.48224 0.591754 0
M  V30 14163 C 1364.42 0.72105 1.88157 0
M  V30 14164 O 1363.48 0.251966 2.5124 0
M  V30 14165 C 1364.79 2.92655 0.690918 0
M  V30 14166 C 1366.34 3.03048 0.782988 0
M  V30 14167 C 1366.82 4.48794 0.913682 0
M  V30 14168 N 1368.31 4.52748 0.978454 0
M  V30 14169 C 1369.04 5.62771 1.09891 0
M  V30 14170 N 1368.54 6.82596 1.18467 0
M  V30 14171 N 1370.33 5.50576 1.13237 0
M  V30 14172 H 1362.48 2.03642 -0.603614 0
M  V30 14173 H 1364.75 0.924702 -0.208878 0
M  V30 14174 H 1364.45 3.51203 -0.186871 0
M  V30 14175 H 1364.33 3.43357 1.5616 0
M  V30 14176 H 1366.71 2.44578 1.65123 0
M  V30 14177 H 1366.79 2.55551 -0.112921 0
M  V30 14178 H 1366.44 5.07875 0.0499835 0
M  V30 14179 H 1366.37 4.93976 1.82469 0
M  V30 14180 H 1368.86 3.66445 0.92337 0
M  V30 14181 H 1369.17 7.62197 1.27576 0
M  V30 14182 H 1367.52 6.85349 1.15418 0
M  V30 14183 H 1370.71 4.55897 1.06188 0
M  V30 14184 H 1370.88 6.36358 1.2228 0
M  V30 14185 N 1364.29 -0.50888 1.49158 0
M  V30 14186 C 1365.52 -1.28585 1.61708 0
M  V30 14187 C 1365.92 -1.87047 0.284629 0
M  V30 14188 O 1365.27 -1.68182 -0.738959 0
M  V30 14189 C 1365.33 -2.46043 2.62113 0
M  V30 14190 C 1364.99 -2.0851 4.0666 0
M  V30 14191 C 1365.99 -1.62943 4.93706 0
M  V30 14192 C 1363.68 -2.18386 4.52342 0
M  V30 14193 C 1365.67 -1.27747 6.24467 0
M  V30 14194 C 1363.36 -1.82801 5.83118 0
M  V30 14195 C 1364.35 -1.37555 6.69005 0
M  V30 14196 O 1364.04 -1.02447 7.97345 0
M  V30 14197 H 1363.77 -0.396504 0.547504 0
M  V30 14198 H 1366.33 -0.61834 1.95872 0
M  V30 14199 H 1364.56 -3.15844 2.23113 0
M  V30 14200 H 1366.25 -3.08081 2.64275 0
M  V30 14201 H 1367.01 -1.54766 4.59644 0
M  V30 14202 H 1362.89 -2.52556 3.85664 0
M  V30 14203 H 1366.44 -0.923589 6.91459 0
M  V30 14204 H 1362.33 -1.90626 6.16711 0
M  V30 14205 H 1363.1 -1.15663 8.10287 0
M  V30 14206 N 1365.76 -1.381 -0.759346 0
M  V30 14207 C 1366.67 -1.37086 -1.9038 0
M  V30 14208 C 1367.69 -0.268738 -1.71912 0
M  V30 14209 O 1368.87 -0.506205 -1.94935 0
M  V30 14210 C 1365.93 -1.18905 -3.25672 0
M  V30 14211 C 1364.99 -2.3887 -3.56707 0
M  V30 14212 C 1364.23 -2.21546 -4.85544 0
M  V30 14213 O 1364.45 -1.20616 -5.57501 0
M  V30 14214 O 1363.38 -3.10009 -5.15924 0
M  V30 14215 H 1367.21 -2.33505 -1.94188 0
M  V30 14216 H 1364.79 -1.18959 -0.903826 0
M  V30 14217 H 1366.68 -1.10803 -4.06572 0
M  V30 14218 H 1365.35 -0.255675 -3.22689 0
M  V30 14219 H 1364.26 -2.52546 -2.75992 0
M  V30 14220 H 1365.59 -3.30817 -3.64446 0
M  V30 14221 N 1367.24 0.986894 -1.22875 0
M  V30 14222 C 1368.15 2.11232 -1.02069 0
M  V30 14223 C 1369.17 1.73969 0.0328424 0
M  V30 14224 O 1370.34 2.00754 -0.161197 0
M  V30 14225 C 1367.41 3.41337 -0.60747 0
M  V30 14226 C 1366.47 3.92665 -1.73531 0
M  V30 14227 C 1365.7 5.1656 -1.34171 0
M  V30 14228 O 1365.93 5.69964 -0.223106 0
M  V30 14229 O 1364.86 5.61791 -2.16041 0
M  V30 14230 H 1368.69 2.3167 -1.96374 0
M  V30 14231 H 1366.27 1.09607 -1.01522 0
M  V30 14232 H 1368.15 4.19613 -0.387661 0
M  V30 14233 H 1366.83 3.22244 0.306653 0
M  V30 14234 H 1365.74 3.15534 -2.0097 0
M  V30 14235 H 1367.07 4.162 -2.62751 0
M  V30 14236 N 1368.72 1.0394 1.18466 0
M  V30 14237 C 1369.95 0.761926 1.92897 0
M  V30 14238 C 1370.37 -0.674618 1.75586 0
M  V30 14239 O 1369.73 -1.46711 1.06515 0
M  V30 14240 C 1369.78 1.13152 3.42387 0
M  V30 14241 O 1368.88 0.256266 4.11603 0
M  V30 14242 H 1368.22 0.280527 0.601831 0
M  V30 14243 H 1370.75 1.3889 1.50235 0
M  V30 14244 H 1370.76 1.0929 3.9309 0
M  V30 14245 H 1369.44 2.17804 3.54308 0
M  V30 14246 H 1368.01 0.354392 3.71212 0
M  V30 14247 N 1370.2 -1.34667 0.818693 0
M  V30 14248 C 1371.45 -1.98414 0.404759 0
M  V30 14249 C 1371.77 -1.64919 -1.03112 0
M  V30 14250 O 1371.03 -0.910695 -1.73219 0
M  V30 14251 C 1371.33 -3.53157 0.549059 0
M  V30 14252 C 1370.99 -4.06552 1.95003 0
M  V30 14253 C 1369.66 -4.20846 2.33329 0
M  V30 14254 C 1372.01 -4.35324 2.86604 0
M  V30 14255 C 1369.34 -4.61236 3.62599 0
M  V30 14256 C 1371.69 -4.77159 4.15334 0
M  V30 14257 C 1370.35 -4.89658 4.53642 0
M  V30 14258 H 1369.62 -0.726047 0.148112 0
M  V30 14259 H 1372.27 -1.60681 1.04182 0
M  V30 14260 H 1370.57 -3.91425 -0.17141 0
M  V30 14261 H 1372.27 -4.00453 0.209374 0
M  V30 14262 H 1368.86 -3.95887 1.64231 0
M  V30 14263 H 1373.04 -4.23823 2.58239 0
M  V30 14264 H 1368.3 -4.69104 3.92112 0
M  V30 14265 H 1372.47 -4.98381 4.86404 0
M  V30 14266 H 1370.1 -5.20713 5.53861 0
M  V30 14267 N 1371.68 -0.573274 -1.46804 0
M  V30 14268 C 1372.64 0.155066 -2.28675 0
M  V30 14269 C 1373.64 0.827706 -1.37861 0
M  V30 14270 O 1374.83 0.681105 -1.60333 0
M  V30 14271 C 1371.96 1.22864 -3.1799 0
M  V30 14272 H 1373.15 -0.564305 -2.94543 0
M  V30 14273 H 1370.71 -0.330855 -1.52758 0
M  V30 14274 H 1371.44 1.97989 -2.56848 0
M  V30 14275 H 1371.23 0.750936 -3.84842 0
M  V30 14276 H 1372.72 1.73974 -3.79635 0
M  V30 14277 N 1373.15 1.5451 -0.310553 0
M  V30 14278 C 1374.12 2.2254 0.548489 0
M  V30 14279 C 1375.12 1.21456 1.05381 0
M  V30 14280 O 1376.31 1.46126 0.948311 0
M  V30 14281 C 1373.44 2.91927 1.76043 0
M  V30 14282 H 1374.63 2.99865 -0.0460306 0
M  V30 14283 H 1372.19 1.56179 -0.061487 0
M  V30 14284 H 1372.92 2.18706 2.39454 0
M  V30 14285 H 1372.71 3.66038 1.40564 0
M  V30 14286 H 1374.2 3.43797 2.37051 0
M  V30 14287 N 1374.63 0.0384594 1.57553 0
M  V30 14288 C 1375.6 -0.925358 2.0969 0
M  V30 14289 C 1376.6 -1.24811 1.01385 0
M  V30 14290 O 1377.79 -1.1869 1.27508 0
M  V30 14291 C 1374.92 -2.2391 2.57055 0
M  V30 14292 H 1376.11 -0.473633 2.96136 0
M  V30 14293 H 1373.66 -0.209736 1.54886 0
M  V30 14294 H 1374.4 -2.73691 1.73964 0
M  V30 14295 H 1374.18 -2.01793 3.36188 0
M  V30 14296 H 1375.67 -2.92974 2.97583 0
M  V30 14297 N 1376.11 -1.55841 -0.234795 0
M  V30 14298 C 1377.36 -1.77886 -0.959217 0
M  V30 14299 C 1377.68 -0.604621 -1.8539 0
M  V30 14300 O 1376.95 0.379092 -1.92197 0
M  V30 14301 H 1375.53 -0.656077 -0.357172 0
M  V30 14302 H 1378.19 -1.93292 -0.249831 0
M  V30 14303 H 1377.29 -2.69512 -1.57383 0
M  V30 14304 N 1377.59 0.500963 -1.49426 0
M  V30 14305 C 1378.84 1.25509 -1.58915 0
M  V30 14306 C 1379.16 1.92534 -0.275868 0
M  V30 14307 O 1378.42 1.81324 0.736212 0
M  V30 14308 C 1378.72 2.34448 -2.69757 0
M  V30 14309 C 1378.38 1.8488 -4.11254 0
M  V30 14310 C 1377.05 1.71081 -4.49761 0
M  V30 14311 C 1379.4 1.4778 -4.9981 0
M  V30 14312 C 1376.73 1.18561 -5.74596 0
M  V30 14313 C 1379.08 0.967118 -6.25164 0
M  V30 14314 C 1377.74 0.815523 -6.62499 0
M  V30 14315 H 1377.01 0.459268 -0.58151 0
M  V30 14316 H 1379.66 0.555817 -1.83256 0
M  V30 14317 H 1377.96 3.10163 -2.39387 0
M  V30 14318 H 1379.66 2.925 -2.74308 0
M  V30 14319 H 1376.25 1.9658 -3.8086 0
M  V30 14320 H 1380.44 1.57288 -4.70717 0
M  V30 14321 H 1375.69 1.05536 -6.02223 0
M  V30 14322 H 1379.87 0.670857 -6.93161 0
M  V30 14323 H 1377.49 0.406375 -7.59113 0
M  V30 14324 N 1379.07 1.38501 0.752011 0
M  V30 14325 C 1380.32 1.34529 1.50819 0
M  V30 14326 C 1380.64 -0.0636155 1.94896 0
M  V30 14327 O 1379.91 -1.01161 1.6776 0
M  V30 14328 H 1378.49 0.49501 0.559441 0
M  V30 14329 H 1381.15 1.73196 0.893822 0
M  V30 14330 H 1380.24 1.99713 2.39835 0
M  V30 14331 N 1380.55 -0.980364 1.23396 0
M  V30 14332 C 1381.77 -1.76223 1.09363 0
M  V30 14333 C 1382.2 -1.84801 -0.350759 0
M  V30 14334 O 1381.55 -1.30966 -1.2537 0
M  V30 14335 C 1381.6 -3.16728 1.72383 0
M  V30 14336 O 1380.71 -4.00439 0.986002 0
M  V30 14337 H 1380.05 -0.542174 0.383332 0
M  V30 14338 H 1382.58 -1.23066 1.6345 0
M  V30 14339 H 1382.59 -3.67307 1.77623 0
M  V30 14340 H 1381.26 -3.098 2.77483 0
M  V30 14341 H 1379.84 -3.58946 1.01054 0
M  V30 14342 N 1382.02 -1.04567 -1.17913 0
M  V30 14343 C 1383.27 -0.752023 -1.88018 0
M  V30 14344 C 1383.6 0.720567 -1.8066 0
M  V30 14345 O 1382.85 1.54207 -1.20493 0
M  V30 14346 C 1383.15 -1.1699 -3.3771 0
M  V30 14347 C 1382.82 -2.64363 -3.65271 0
M  V30 14348 C 1381.48 -3.04622 -3.72503 0
M  V30 14349 C 1383.83 -3.59626 -3.77251 0
M  V30 14350 C 1381.16 -4.39023 -3.89199 0
M  V30 14351 C 1383.51 -4.93752 -3.95465 0
M  V30 14352 C 1382.18 -5.33675 -4.00933 0
M  V30 14353 H 1381.45 -0.275185 -0.688008 0
M  V30 14354 H 1384.09 -1.31161 -1.39532 0
M  V30 14355 H 1382.4 -0.529202 -3.8821 0
M  V30 14356 H 1384.1 -0.919981 -3.90304 0
M  V30 14357 H 1380.69 -2.32182 -3.60263 0
M  V30 14358 H 1384.87 -3.29665 -3.70992 0
M  V30 14359 H 1380.13 -4.69466 -3.91679 0
M  V30 14360 H 1384.3 -5.67467 -4.03676 0
M  V30 14361 H 1381.93 -6.37825 -4.13623 0
M  V30 14362 N 1383.5 1.34231 -0.825823 0
M  V30 14363 C 1384.41 2.33245 -0.251803 0
M  V30 14364 C 1385.43 1.62756 0.615334 0
M  V30 14365 O 1386.6 1.94503 0.522547 0
M  V30 14366 C 1383.67 3.41908 0.574456 0
M  V30 14367 C 1382.73 4.2814 -0.315422 0
M  V30 14368 C 1381.96 5.31613 0.471496 0
M  V30 14369 O 1382.19 5.44337 1.70449 0
M  V30 14370 O 1381.12 6.01719 -0.147691 0
M  V30 14371 H 1384.95 2.84174 -1.07139 0
M  V30 14372 H 1382.53 1.37341 -0.588032 0
M  V30 14373 H 1384.41 4.08252 1.04444 0
M  V30 14374 H 1383.09 2.93217 1.37132 0
M  V30 14375 H 1381.99 3.64709 -0.832963 0
M  V30 14376 H 1383.33 4.80279 -1.07672 0
M  V30 14377 N 1384.98 0.581051 1.46498 0
M  V30 14378 C 1385.91 -0.140957 2.33074 0
M  V30 14379 C 1386.89 -0.885323 1.45245 0
M  V30 14380 O 1388.08 -0.86111 1.74065 0
M  V30 14381 C 1385.21 -1.15625 3.27488 0
M  V30 14382 C 1384.16 -0.526829 4.24745 0
M  V30 14383 C 1383.49 -1.64847 5.08655 0
M  V30 14384 C 1384.79 0.53492 5.19554 0
M  V30 14385 H 1386.48 0.581888 2.93691 0
M  V30 14386 H 1384.03 0.281278 1.41226 0
M  V30 14387 H 1385.98 -1.6697 3.8691 0
M  V30 14388 H 1384.7 -1.90935 2.64974 0
M  V30 14389 H 1383.36 -0.0344738 3.66584 0
M  V30 14390 H 1383.01 -2.3912 4.42528 0
M  V30 14391 H 1382.71 -1.23298 5.74518 0
M  V30 14392 H 1384.23 -2.16472 5.7094 0
M  V30 14393 H 1385.65 0.106606 5.73201 0
M  V30 14394 H 1384.04 0.870639 5.93751 0
M  V30 14395 H 1385.11 1.42184 4.63586 0
M  V30 14396 N 1386.46 -1.54343 0.318742 0
M  V30 14397 C 1387.7 -2.00777 -0.285699 0
M  V30 14398 C 1388.04 -1.20664 -1.52164 0
M  V30 14399 O 1387.31 -0.287674 -1.92361 0
M  V30 14400 C 1387.59 -3.54641 -0.624649 0
M  V30 14401 C 1387.45 -4.45483 0.621663 0
M  V30 14402 C 1388.77 -4.15729 -1.4442 0
M  V30 14403 H 1385.89 -0.729856 -0.102367 0
M  V30 14404 H 1388.53 -1.84968 0.434364 0
M  V30 14405 H 1386.68 -3.68243 -1.23811 0
M  V30 14406 H 1388.35 -4.43759 1.25998 0
M  V30 14407 H 1386.59 -4.15356 1.25148 0
M  V30 14408 H 1387.26 -5.50951 0.340106 0
M  V30 14409 H 1389.74 -4.05672 -0.925699 0
M  V30 14410 H 1388.62 -5.23509 -1.65013 0
M  V30 14411 H 1388.88 -3.68743 -2.43887 0
M  V30 14412 N 1387.94 -0.0468143 -1.5753 0
M  V30 14413 C 1389.16 0.641161 -1.97241 0
M  V30 14414 C 1389.59 1.6384 -0.92401 0
M  V30 14415 O 1388.94 1.80946 0.113229 0
M  V30 14416 C 1388.99 1.30832 -3.36029 0
M  V30 14417 O 1388.1 2.42394 -3.33645 0
M  V30 14418 H 1387.44 0.167035 -0.642647 0
M  V30 14419 H 1389.97 -0.113921 -2.04283 0
M  V30 14420 H 1389.98 1.66102 -3.72658 0
M  V30 14421 H 1388.65 0.57744 -4.11872 0
M  V30 14422 H 1387.23 2.09104 -3.08756 0
M  V30 14423 N 1389.41 1.55964 0.226527 0
M  V30 14424 C 1390.35 1.88487 1.30405 0
M  V30 14425 C 1391.36 0.772723 1.43293 0
M  V30 14426 O 1392.55 1.05099 1.44279 0
M  V30 14427 C 1389.65 2.074 2.68027 0
M  V30 14428 C 1388.82 3.38389 2.77149 0
M  V30 14429 C 1387.88 3.46795 3.95752 0
M  V30 14430 O 1386.91 4.19862 3.84323 0
M  V30 14431 N 1388.11 2.77573 5.09836 0
M  V30 14432 H 1390.87 2.81506 1.02833 0
M  V30 14433 H 1388.43 1.56449 0.416581 0
M  V30 14434 H 1390.43 2.10344 3.45742 0
M  V30 14435 H 1389 1.2103 2.8822 0
M  V30 14436 H 1388.22 3.47586 1.8595 0
M  V30 14437 H 1389.5 4.24688 2.8021 0
M  V30 14438 H 1388.9 2.17979 5.22017 0
M  V30 14439 H 1387.46 2.86185 5.85612 0
M  V30 14440 N 1390.89 -0.493031 1.4969 0
M  V30 14441 C 1392.14 -1.2433 1.58823 0
M  V30 14442 C 1392.45 -1.9353 0.283823 0
M  V30 14443 O 1393.66 -2.70311 0.253801 0
M  V30 14444 C 1392.12 -2.25792 2.8026 0
M  V30 14445 C 1391.72 -1.62496 4.17491 0
M  V30 14446 C 1393.47 -3.01598 2.98729 0
M  V30 14447 C 1391.38 -2.62115 5.30141 0
M  V30 14448 H 1390.31 -0.467738 0.591386 0
M  V30 14449 H 1392.96 -0.516238 1.76089 0
M  V30 14450 H 1391.34 -3.01696 2.56506 0
M  V30 14451 H 1392.51 -0.925305 4.51414 0
M  V30 14452 H 1390.83 -0.990516 4.04447 0
M  V30 14453 H 1393.42 -3.76111 3.80058 0
M  V30 14454 H 1393.77 -3.59687 2.09597 0
M  V30 14455 H 1394.3 -2.32809 3.2256 0
M  V30 14456 H 1391.04 -2.08797 6.21357 0
M  V30 14457 H 1390.56 -3.30298 5.00663 0
M  V30 14458 H 1392.24 -3.24385 5.59807 0
M  V30 14459 N 1392.37 -1.38898 -0.744656 0
M  V30 14460 C 1393.6 -1.3903 -1.53901 0
M  V30 14461 C 1394.02 0.0156607 -1.88093 0
M  V30 14462 O 1393.38 1.00012 -1.51219 0
M  V30 14463 C 1393.43 -2.2609 -2.80919 0
M  V30 14464 O 1392.53 -1.68414 -3.76444 0
M  V30 14465 H 1391.87 -0.473854 -0.465144 0
M  V30 14466 H 1394.4 -1.82773 -0.919525 0
M  V30 14467 H 1394.41 -2.40264 -3.29754 0
M  V30 14468 H 1393.09 -3.28271 -2.55364 0
M  V30 14469 H 1391.66 -1.63431 -3.35179 0
M  V30 14470 N 1393.85 0.973806 -1.23914 0
M  V30 14471 C 1394.81 2.04892 -1.02723 0
M  V30 14472 C 1395.81 1.60795 0.0132972 0
M  V30 14473 O 1397 1.72714 -0.227084 0
M  V30 14474 C 1394.13 3.36341 -0.555667 0
M  V30 14475 H 1395.33 2.25124 -1.98139 0
M  V30 14476 H 1392.88 1.14817 -1.06051 0
M  V30 14477 H 1393.61 3.21799 0.40197 0
M  V30 14478 H 1393.4 3.69689 -1.30661 0
M  V30 14479 H 1394.89 4.15398 -0.428248 0
M  V30 14480 N 1395.33 1.05191 1.17357 0
M  V30 14481 C 1396.24 0.663617 2.25018 0
M  V30 14482 C 1397.25 -0.315299 1.71119 0
M  V30 14483 O 1398.43 -0.167398 2.00703 0
M  V30 14484 C 1395.49 0.0443307 3.46672 0
M  V30 14485 C 1394.55 1.07369 4.15656 0
M  V30 14486 C 1393.79 0.483864 5.31502 0
M  V30 14487 O 1394.01 -0.706692 5.66005 0
M  V30 14488 O 1392.94 1.21812 5.89445 0
M  V30 14489 H 1396.77 1.56088 2.60519 0
M  V30 14490 H 1394.36 0.823474 1.24657 0
M  V30 14491 H 1396.24 -0.299839 4.20332 0
M  V30 14492 H 1394.91 -0.826579 3.12969 0
M  V30 14493 H 1393.82 1.46985 3.44015 0
M  V30 14494 H 1395.15 1.91575 4.53387 0
M  V30 14495 N 1396.8 -1.33791 0.83293 0
M  V30 14496 C 1398.08 -1.9248 0.347955 0
M  V30 14497 C 1398.46 -1.75978 -1.16597 0
M  V30 14498 O 1397.81 -1.14456 -1.97768 0
M  V30 14499 C 1398.02 -3.3998 0.78831 0
M  V30 14500 C 1399.37 -4.17131 0.7929 0
M  V30 14501 O 1400.39 -3.48607 0.731533 0
M  V30 14502 O 1399.25 -5.39446 0.875223 0
M  V30 14503 H 1396.34 -0.821264 0.0972309 0
M  V30 14504 H 1398.89 -1.42702 0.918387 0
M  V30 14505 H 1397.66 -3.45836 1.83065 0
M  V30 14506 H 1397.29 -3.97126 0.194123 0
M  V30 14507 N 1398.28 -0.588812 -1.46187 0
M  V30 14508 C 1399.21 0.128595 -2.33146 0
M  V30 14509 C 1400.19 0.877608 -1.45712 0
M  V30 14510 O 1401.38 0.851866 -1.74519 0
M  V30 14511 C 1398.51 1.13886 -3.28096 0
M  V30 14512 C 1397.46 0.504296 -4.25019 0
M  V30 14513 C 1396.79 1.62147 -5.09522 0
M  V30 14514 C 1398.09 -0.562466 -5.19263 0
M  V30 14515 H 1399.78 -0.597455 -2.93378 0
M  V30 14516 H 1397.33 -0.288764 -1.41075 0
M  V30 14517 H 1399.28 1.64916 -3.8779 0
M  V30 14518 H 1398.01 1.89527 -2.65983 0
M  V30 14519 H 1396.66 0.0150325 -3.66597 0
M  V30 14520 H 1396.31 2.36769 -4.4379 0
M  V30 14521 H 1396.01 1.20249 -5.75164 0
M  V30 14522 H 1397.54 2.13441 -5.7208 0
M  V30 14523 H 1398.95 -0.137003 -5.73136 0
M  V30 14524 H 1397.35 -0.902115 -5.93281 0
M  V30 14525 H 1398.42 -1.4464 -4.62825 0
M  V30 14526 N 1399.76 1.54172 -0.326923 0
M  V30 14527 C 1400.69 2.27402 0.530154 0
M  V30 14528 C 1401.67 1.28325 1.11655 0
M  V30 14529 O 1402.86 1.57142 1.14105 0
M  V30 14530 C 1399.99 3.03435 1.68951 0
M  V30 14531 C 1398.94 4.09877 1.23226 0
M  V30 14532 C 1398.27 4.7377 2.47882 0
M  V30 14533 C 1399.57 5.21161 0.344698 0
M  V30 14534 H 1401.26 2.99291 -0.0806959 0
M  V30 14535 H 1398.81 1.43944 -0.0402511 0
M  V30 14536 H 1400.76 3.53396 2.29541 0
M  V30 14537 H 1399.48 2.29169 2.327 0
M  V30 14538 H 1398.14 3.60805 0.649267 0
M  V30 14539 H 1397.79 3.96116 3.10002 0
M  V30 14540 H 1397.49 5.45674 2.17977 0
M  V30 14541 H 1399.01 5.26507 3.09229 0
M  V30 14542 H 1400.43 5.66859 0.856979 0
M  V30 14543 H 1398.83 5.99941 0.138276 0
M  V30 14544 H 1399.9 4.80874 -0.623575 0
M  V30 14545 N 1401.24 0.0551678 1.57503 0
M  V30 14546 C 1402.65 -0.3014 1.56728 0
M  V30 14547 C 1402.85 -1.71169 1.06317 0
M  V30 14548 O 1401.91 -2.4197 0.721566 0
M  V30 14549 C 1403.22 -0.12622 3.00435 0
M  V30 14550 C 1404.77 -0.197022 3.12379 0
M  V30 14551 C 1405.25 -0.0503235 4.57972 0
M  V30 14552 N 1406.74 -0.106471 4.63078 0
M  V30 14553 C 1407.47 -0.0171325 5.73397 0
M  V30 14554 N 1406.97 0.124781 6.92688 0
M  V30 14555 N 1408.76 -0.0730028 5.62053 0
M  V30 14556 H 1400.91 0.977072 1.88592 0
M  V30 14557 H 1403.18 0.37963 0.868668 0
M  V30 14558 H 1402.88 0.846286 3.41366 0
M  V30 14559 H 1402.76 -0.885574 3.66657 0
M  V30 14560 H 1405.14 -1.16 2.71345 0
M  V30 14561 H 1405.22 0.593155 2.48828 0
M  V30 14562 H 1404.87 0.909352 4.99693 0
M  V30 14563 H 1404.8 -0.859695 5.19535 0
M  V30 14564 H 1407.29 -0.215241 3.77287 0
M  V30 14565 H 1407.6 0.185548 7.72577 0
M  V30 14566 H 1405.95 0.15992 6.94816 0
M  V30 14567 H 1409.14 -0.182456 4.67744 0
M  V30 14568 H 1409.31 7.85052e-05 6.48 0
M  V30 14569 N 1402.72 -1.56081 -0.218252 0
M  V30 14570 C 1403.97 -1.78445 -0.94022 0
M  V30 14571 C 1404.28 -0.624317 -1.85369 0
M  V30 14572 O 1405.48 -0.731669 -2.61455 0
M  V30 14573 C 1403.94 -3.16026 -1.72208 0
M  V30 14574 C 1403.55 -4.39774 -0.854584 0
M  V30 14575 C 1405.29 -3.47714 -2.43506 0
M  V30 14576 C 1403.2 -5.68379 -1.63398 0
M  V30 14577 H 1402.13 -0.665303 -0.354806 0
M  V30 14578 H 1404.78 -1.82471 -0.194021 0
M  V30 14579 H 1403.16 -3.06185 -2.5113 0
M  V30 14580 H 1404.34 -4.60679 -0.105659 0
M  V30 14581 H 1402.65 -4.15627 -0.253562 0
M  V30 14582 H 1405.25 -4.41026 -3.02325 0
M  V30 14583 H 1405.59 -2.70367 -3.16555 0
M  V30 14584 H 1406.12 -3.58899 -1.71571 0
M  V30 14585 H 1402.86 -6.48628 -0.946704 0
M  V30 14586 H 1402.38 -5.5153 -2.35743 0
M  V30 14587 H 1404.06 -6.08672 -2.1938 0
M  V30 14588 N 1404.2 0.485086 -1.49949 0
M  V30 14589 C 1405.44 1.23571 -1.5992 0
M  V30 14590 C 1405.76 1.92754 -0.295108 0
M  V30 14591 O 1405.03 1.83474 0.686582 0
M  V30 14592 H 1403.61 0.459104 -0.589264 0
M  V30 14593 H 1406.28 0.560822 -1.86657 0
M  V30 14594 H 1405.37 1.99114 -2.40333 0
M  V30 14595 N 1405.67 1.39291 0.737279 0
M  V30 14596 C 1406.92 1.36592 1.49901 0
M  V30 14597 C 1407.25 -0.0388812 1.94161 0
M  V30 14598 O 1406.53 -1.00337 1.66622 0
M  V30 14599 C 1406.81 2.33625 2.74028 0
M  V30 14600 C 1406.66 3.83037 2.35802 0
M  V30 14601 C 1407.98 2.28524 3.76118 0
M  V30 14602 H 1405.1 0.497482 0.543765 0
M  V30 14603 H 1407.74 1.70265 0.843193 0
M  V30 14604 H 1405.89 2.0504 3.29986 0
M  V30 14605 H 1407.57 4.22363 1.85493 0
M  V30 14606 H 1405.81 3.99924 1.68058 0
M  V30 14607 H 1406.48 4.46415 3.24681 0
M  V30 14608 H 1408.96 2.53794 3.29739 0
M  V30 14609 H 1407.83 2.98501 4.60639 0
M  V30 14610 H 1408.09 1.28949 4.22876 0
M  V30 14611 N 1407.15 -0.967221 1.24429 0
M  V30 14612 C 1408.38 -1.7452 1.11133 0
M  V30 14613 C 1408.79 -1.85785 -0.336087 0
M  V30 14614 O 1408.15 -1.34652 -1.23188 0
M  V30 14615 C 1408.2 -3.16544 1.74591 0
M  V30 14616 O 1407.92 -3.05845 3.13673 0
M  V30 14617 C 1409.42 -4.10677 1.6691 0
M  V30 14618 H 1406.64 -0.547267 0.388253 0
M  V30 14619 H 1409.19 -1.2143 1.64545 0
M  V30 14620 H 1407.34 -3.66618 1.2518 0
M  V30 14621 H 1407.76 -3.95346 3.44676 0
M  V30 14622 H 1409.23 -5.07987 2.15992 0
M  V30 14623 H 1409.71 -4.34652 0.630411 0
M  V30 14624 H 1410.31 -3.66514 2.15749 0
M  V30 14625 N 1408.63 -1.05812 -1.16797 0
M  V30 14626 C 1409.56 -0.685778 -2.23202 0
M  V30 14627 C 1410.54 0.319428 -1.67074 0
M  V30 14628 O 1411.73 0.195635 -1.93212 0
M  V30 14629 C 1408.86 -0.0662958 -3.47237 0
M  V30 14630 C 1407.81 -0.996943 -4.16227 0
M  V30 14631 C 1407.14 -0.241015 -5.34157 0
M  V30 14632 C 1408.44 -2.32384 -4.67755 0
M  V30 14633 H 1410.13 -1.57535 -2.54604 0
M  V30 14634 H 1407.68 -0.758909 -1.22379 0
M  V30 14635 H 1409.63 0.206024 -4.20896 0
M  V30 14636 H 1408.35 0.858263 -3.15121 0
M  V30 14637 H 1407.01 -1.25393 -3.44488 0
M  V30 14638 H 1406.66 0.686508 -4.98293 0
M  V30 14639 H 1406.36 -0.861188 -5.81255 0
M  V30 14640 H 1407.88 0.0238739 -6.10595 0
M  V30 14641 H 1409.3 -2.11099 -5.3302 0
M  V30 14642 H 1407.69 -2.89855 -5.25456 0
M  V30 14643 H 1408.76 -2.958 -3.84227 0
M  V30 14644 N 1410.11 1.33347 -0.840014 0
M  V30 14645 C 1411.07 2.27492 -0.279264 0
M  V30 14646 C 1412.07 1.51004 0.552669 0
M  V30 14647 O 1413.26 1.70305 0.366295 0
M  V30 14648 C 1410.39 3.35462 0.606466 0
M  V30 14649 H 1411.59 2.78601 -1.11001 0
M  V30 14650 H 1409.14 1.4377 -0.613187 0
M  V30 14651 H 1409.87 2.89596 1.45961 0
M  V30 14652 H 1409.66 3.92098 0.0111889 0
M  V30 14653 H 1411.15 4.05645 0.992052 0
M  V30 14654 N 1411.59 0.596556 1.45873 0
M  V30 14655 C 1412.83 0.0872856 2.01911 0
M  V30 14656 C 1413.15 -1.28257 1.46885 0
M  V30 14657 O 1412.42 -1.84489 0.658837 0
M  V30 14658 H 1411 0.0292769 0.746426 0
M  V30 14659 H 1413.67 0.775464 1.78809 0
M  V30 14660 H 1412.76 0.0287213 3.12087 0
M  V30 14661 N 1413.06 -1.53996 0.335095 0
M  V30 14662 C 1414.01 -2.21479 -0.541388 0
M  V30 14663 C 1415 -1.19926 -1.07268 0
M  V30 14664 O 1416.19 -1.45508 -1.00779 0
M  V30 14665 C 1413.32 -2.98477 -1.69607 0
M  V30 14666 C 1412.4 -4.07379 -1.17912 0
M  V30 14667 N 1412.8 -5.0435 -0.382732 0
M  V30 14668 C 1411.09 -4.21537 -1.45679 0
M  V30 14669 C 1411.79 -5.81608 -0.103194 0
M  V30 14670 N 1410.77 -5.39171 -0.692513 0
M  V30 14671 H 1414.57 -2.93806 0.0742285 0
M  V30 14672 H 1412.09 -1.61782 0.141529 0
M  V30 14673 H 1414.08 -3.45316 -2.33587 0
M  V30 14674 H 1412.74 -2.27674 -2.31505 0
M  V30 14675 H 1413.75 -5.17894 -0.0245533 0
M  V30 14676 H 1410.43 -3.61953 -2.08078 0
M  V30 14677 H 1411.82 -6.69737 0.538682 0
M  V30 14678 N 1414.54 -0.0635198 -1.57472 0
M  V30 14679 C 1415.47 0.93602 -2.09216 0
M  V30 14680 C 1416.49 1.2668 -1.02255 0
M  V30 14681 O 1417.68 1.22543 -1.2979 0
M  V30 14682 C 1414.78 2.25417 -2.53062 0
M  V30 14683 C 1413.95 2.10347 -3.83501 0
M  V30 14684 C 1413.01 3.25394 -4.13528 0
M  V30 14685 O 1412.03 3.00751 -4.83257 0
M  V30 14686 N 1413.24 4.50243 -3.66417 0
M  V30 14687 H 1416 0.494288 -2.95596 0
M  V30 14688 H 1413.56 0.122416 -1.61437 0
M  V30 14689 H 1415.55 3.01272 -2.70217 0
M  V30 14690 H 1414.12 2.61116 -1.71864 0
M  V30 14691 H 1413.34 1.19009 -3.75807 0
M  V30 14692 H 1414.63 1.97519 -4.68896 0
M  V30 14693 H 1414.03 4.73152 -3.1007 0
M  V30 14694 H 1412.59 5.23152 -3.88787 0
M  V30 14695 N 1416.02 1.56195 0.209972 0
M  V30 14696 C 1416.97 1.93355 1.26026 0
M  V30 14697 C 1417.94 0.792195 1.45991 0
M  V30 14698 O 1419.12 1.04909 1.5937 0
M  V30 14699 C 1416.26 2.26558 2.60318 0
M  V30 14700 C 1415.37 3.53685 2.48055 0
M  V30 14701 C 1414.51 3.76279 3.7495 0
M  V30 14702 C 1413.55 4.96881 3.57457 0
M  V30 14703 N 1412.69 5.15806 4.76328 0
M  V30 14704 H 1417.53 2.82907 0.936357 0
M  V30 14705 H 1415.06 1.40015 0.451022 0
M  V30 14706 H 1417.02 2.43821 3.38537 0
M  V30 14707 H 1415.65 1.40165 2.90781 0
M  V30 14708 H 1414.7 3.44551 1.61211 0
M  V30 14709 H 1416.01 4.42057 2.31056 0
M  V30 14710 H 1415.17 3.93702 4.6161 0
M  V30 14711 H 1413.91 2.86209 3.94887 0
M  V30 14712 H 1412.91 4.79397 2.69181 0
M  V30 14713 H 1414.14 5.88447 3.38979 0
M  V30 14714 H 1412.08 4.28681 4.96557 0
M  V30 14715 H 1412 5.98332 4.62099 0
M  V30 14716 H 1413.27 5.37674 5.64382 0
M  V30 14717 N 1417.5 -0.477127 1.50204 0
M  V30 14718 C 1418.44 -1.57587 1.68626 0
M  V30 14719 C 1419.41 -1.57499 0.527576 0
M  V30 14720 O 1420.6 -1.75121 0.757438 0
M  V30 14721 C 1417.74 -2.956 1.78086 0
M  V30 14722 C 1416.85 -3.05523 3.05417 0
M  V30 14723 C 1415.99 -4.34414 3.05709 0
M  V30 14724 C 1415.03 -4.38057 4.27519 0
M  V30 14725 N 1414.16 -5.5841 4.25585 0
M  V30 14726 H 1419 -1.41185 2.62433 0
M  V30 14727 H 1416.54 -0.686537 1.30096 0
M  V30 14728 H 1418.5 -3.75626 1.81552 0
M  V30 14729 H 1417.13 -3.10651 0.877251 0
M  V30 14730 H 1416.18 -2.18409 3.11451 0
M  V30 14731 H 1417.49 -3.04075 3.95398 0
M  V30 14732 H 1416.65 -5.22782 3.07871 0
M  V30 14733 H 1415.39 -4.38462 2.13548 0
M  V30 14734 H 1414.39 -3.48087 4.25577 0
M  V30 14735 H 1415.62 -4.35705 5.20901 0
M  V30 14736 H 1413.56 -5.63255 3.36274 0
M  V30 14737 H 1413.48 -5.58677 5.09328 0
M  V30 14738 H 1414.75 -6.4892 4.31884 0
M  V30 14739 N 1418.98 -1.3968 -0.729882 0
M  V30 14740 C 1420.23 -1.36492 -1.48502 0
M  V30 14741 C 1420.54 0.0346572 -1.95569 0
M  V30 14742 O 1421.74 0.189135 -2.7084 0
M  V30 14743 C 1420.2 -2.39813 -2.68361 0
M  V30 14744 C 1419.81 -3.85511 -2.28222 0
M  V30 14745 C 1421.55 -2.45709 -3.46161 0
M  V30 14746 C 1419.46 -4.80462 -3.44834 0
M  V30 14747 H 1418.39 -0.507455 -0.557679 0
M  V30 14748 H 1421.04 -1.6535 -0.795708 0
M  V30 14749 H 1419.42 -2.04033 -3.39392 0
M  V30 14750 H 1420.6 -4.30359 -1.64704 0
M  V30 14751 H 1418.91 -3.82957 -1.63501 0
M  V30 14752 H 1421.51 -3.1384 -4.32907 0
M  V30 14753 H 1421.85 -1.48318 -3.88983 0
M  V30 14754 H 1422.38 -2.80409 -2.82163 0
M  V30 14755 H 1419.12 -5.79134 -3.07057 0
M  V30 14756 H 1418.64 -4.40289 -4.07315 0
M  V30 14757 H 1420.32 -4.99607 -4.11098 0
M  V30 14758 N 1420.45 0.960609 -1.2494 0
M  V30 14759 C 1421.38 2.074 -1.07274 0
M  V30 14760 C 1422.37 1.70092 0.0164365 0
M  V30 14761 O 1423.55 1.93604 -0.151975 0
M  V30 14762 C 1420.68 3.40491 -0.684317 0
M  V30 14763 C 1419.63 3.91784 -1.72306 0
M  V30 14764 C 1418.96 5.21301 -1.18949 0
M  V30 14765 C 1420.26 4.18829 -3.12056 0
M  V30 14766 H 1421.95 2.22438 -2.00404 0
M  V30 14767 H 1419.5 1.06888 -0.964937 0
M  V30 14768 H 1421.45 4.17826 -0.547686 0
M  V30 14769 H 1420.18 3.25374 0.282687 0
M  V30 14770 H 1418.84 3.16613 -1.84802 0
M  V30 14771 H 1418.48 5.02549 -0.212892 0
M  V30 14772 H 1418.18 5.56588 -1.8837 0
M  V30 14773 H 1419.71 6.01238 -1.06513 0
M  V30 14774 H 1421.12 4.86844 -3.02748 0
M  V30 14775 H 1419.52 4.6536 -3.78894 0
M  V30 14776 H 1420.59 3.25333 -3.59564 0
M  V30 14777 N 1421.93 1.0643 1.16234 0
M  V30 14778 C 1422.9 0.680383 2.18869 0
M  V30 14779 C 1423.9 -0.274591 1.58438 0
M  V30 14780 O 1425.09 -0.0567907 1.74107 0
M  V30 14781 C 1422.22 0.00134091 3.409 0
M  V30 14782 H 1423.41 1.58894 2.54347 0
M  V30 14783 H 1420.96 0.859688 1.30534 0
M  V30 14784 H 1421.7 -0.919903 3.1098 0
M  V30 14785 H 1421.48 0.688057 3.86016 0
M  V30 14786 H 1422.97 -0.252938 4.16833 0
M  V30 14787 N 1423.41 -1.329 0.847073 0
M  V30 14788 C 1424.64 -2.02244 0.459588 0
M  V30 14789 C 1425.06 -1.63279 -0.933897 0
M  V30 14790 O 1424.42 -0.829551 -1.61208 0
M  V30 14791 C 1424.47 -3.55616 0.59745 0
M  V30 14792 O 1423.57 -4.1071 -0.372919 0
M  V30 14793 H 1422.91 -0.637504 0.1857 0
M  V30 14794 H 1425.44 -1.69617 1.14417 0
M  V30 14795 H 1425.45 -4.05141 0.482145 0
M  V30 14796 H 1424.13 -3.8332 1.61365 0
M  V30 14797 H 1422.7 -3.72283 -0.214487 0
M  V30 14798 N 1424.89 -0.604284 -1.45555 0
M  V30 14799 C 1426.13 -0.0983316 -2.02561 0
M  V30 14800 C 1426.47 1.26659 -1.47211 0
M  V30 14801 O 1425.74 1.83476 -0.645519 0
M  V30 14802 C 1426.03 -0.0558349 -3.60057 0
M  V30 14803 C 1425.88 -1.45119 -4.25747 0
M  V30 14804 C 1427.2 0.633708 -4.35514 0
M  V30 14805 H 1424.32 -0.0372071 -0.73606 0
M  V30 14806 H 1426.96 -0.775623 -1.73448 0
M  V30 14807 H 1425.11 0.520935 -3.84992 0
M  V30 14808 H 1426.78 -2.07478 -4.12008 0
M  V30 14809 H 1425.02 -2.01283 -3.84275 0
M  V30 14810 H 1425.69 -1.37372 -5.34633 0
M  V30 14811 H 1428.17 0.143501 -4.15852 0
M  V30 14812 H 1427.05 0.632538 -5.45243 0
M  V30 14813 H 1427.31 1.69917 -4.08143 0
M  V30 14814 N 1426.37 1.53816 -0.343257 0
M  V30 14815 C 1427.3 2.22552 0.548015 0
M  V30 14816 C 1428.31 1.23202 1.06419 0
M  V30 14817 O 1429.5 1.49559 0.974394 0
M  V30 14818 C 1426.6 2.89197 1.76687 0
M  V30 14819 C 1425.77 4.14859 1.38603 0
M  V30 14820 C 1424.83 4.64917 2.46453 0
M  V30 14821 O 1423.86 5.29135 2.09773 0
M  V30 14822 N 1425.06 4.4082 3.77701 0
M  V30 14823 H 1427.83 2.99672 -0.040645 0
M  V30 14824 H 1425.39 1.61033 -0.167368 0
M  V30 14825 H 1427.38 3.19601 2.48268 0
M  V30 14826 H 1425.95 2.15664 2.26291 0
M  V30 14827 H 1425.17 3.91003 0.501001 0
M  V30 14828 H 1426.46 4.96599 1.10756 0
M  V30 14829 H 1425.85 3.8946 4.1029 0
M  V30 14830 H 1424.41 4.7583 4.45453 0
M  V30 14831 N 1427.84 0.0718701 1.57436 0
M  V30 14832 C 1428.79 -0.905443 2.0925 0
M  V30 14833 C 1429.78 -1.25875 1.00221 0
M  V30 14834 O 1430.97 -1.23771 1.26529 0
M  V30 14835 C 1428.1 -2.17298 2.65775 0
M  V30 14836 C 1427.19 -1.84614 3.81809 0
M  V30 14837 N 1427.58 -1.22381 4.90771 0
M  V30 14838 C 1425.87 -2.14364 3.91106 0
M  V30 14839 C 1426.58 -1.07791 5.71626 0
M  V30 14840 N 1425.55 -1.58764 5.19899 0
M  V30 14841 H 1429.35 -0.419955 2.90884 0
M  V30 14842 H 1426.87 -0.132017 1.61863 0
M  V30 14843 H 1428.86 -2.88231 3.01211 0
M  V30 14844 H 1427.52 -2.66434 1.85588 0
M  V30 14845 H 1428.54 -0.89345 5.10135 0
M  V30 14846 H 1425.21 -2.65877 3.21894 0
M  V30 14847 H 1426.6 -0.593061 6.69278 0
M  V30 14848 N 1429.32 -1.56304 -0.201686 0
M  V30 14849 C 1430.26 -1.8907 -1.27781 0
M  V30 14850 C 1431.23 -0.75009 -1.44265 0
M  V30 14851 O 1432.42 -1.00044 -1.59761 0
M  V30 14852 C 1429.54 -2.11513 -2.64537 0
M  V30 14853 C 1428.59 -3.34214 -2.64959 0
M  V30 14854 S 1429.42 -4.89541 -2.17047 0
M  V30 14855 C 1430.58 -5.15044 -3.55641 0
M  V30 14856 H 1430.81 -2.8005 -0.997971 0
M  V30 14857 H 1428.35 -1.48997 -0.404872 0
M  V30 14858 H 1430.3 -2.25126 -3.43262 0
M  V30 14859 H 1428.96 -1.21295 -2.89735 0
M  V30 14860 H 1428.16 -3.47023 -3.65501 0
M  V30 14861 H 1427.76 -3.1956 -1.94312 0
M  V30 14862 H 1430.05 -5.05161 -4.51463 0
M  V30 14863 H 1430.99 -6.16838 -3.47731 0
M  V30 14864 H 1431.4 -4.42704 -3.50248 0
M  V30 14865 N 1430.8 0.469154 -1.50455 0
M  V30 14866 C 1431.75 1.56691 -1.6946 0
M  V30 14867 C 1432.72 1.57217 -0.535921 0
M  V30 14868 O 1433.9 1.74717 -0.766715 0
M  V30 14869 C 1431.04 2.94651 -1.79651 0
M  V30 14870 C 1430.16 3.03899 -3.07033 0
M  V30 14871 C 1429.29 4.32786 -3.08009 0
M  V30 14872 C 1428.33 4.35784 -4.29836 0
M  V30 14873 N 1427.47 5.56145 -4.28541 0
M  V30 14874 H 1432.31 1.39791 -2.63178 0
M  V30 14875 H 1429.84 0.679628 -1.30459 0
M  V30 14876 H 1431.8 3.74658 -1.83541 0
M  V30 14877 H 1430.43 3.10182 -0.893713 0
M  V30 14878 H 1429.48 2.16754 -3.12605 0
M  V30 14879 H 1430.8 3.01974 -3.97005 0
M  V30 14880 H 1429.95 5.21141 -3.10639 0
M  V30 14881 H 1428.69 4.37323 -2.1587 0
M  V30 14882 H 1427.69 3.45825 -4.27417 0
M  V30 14883 H 1428.92 4.32937 -5.23204 0
M  V30 14884 H 1426.86 5.61464 -3.39256 0
M  V30 14885 H 1426.78 5.55969 -5.12284 0
M  V30 14886 H 1428.05 6.4662 -4.35319 0
M  V30 14887 N 1432.28 1.40065 0.722464 0
M  V30 14888 C 1433.5 1.4146 1.5167 0
M  V30 14889 C 1433.93 0.0142653 1.88095 0
M  V30 14890 O 1433.29 -0.975934 1.52791 0
M  V30 14891 C 1433.33 2.30531 2.77287 0
M  V30 14892 O 1432.44 1.74382 3.73717 0
M  V30 14893 H 1431.78 0.481194 0.457546 0
M  V30 14894 H 1434.31 1.84213 0.890331 0
M  V30 14895 H 1434.32 2.45479 3.25889 0
M  V30 14896 H 1432.99 3.32292 2.50109 0
M  V30 14897 H 1431.57 1.68743 3.32536 0
M  V30 14898 N 1433.76 -0.95397 1.25448 0
M  V30 14899 C 1434.69 -2.05412 1.01679 0
M  V30 14900 C 1435.7 -1.62789 -0.0184932 0
M  V30 14901 O 1436.89 -1.77137 0.220136 0
M  V30 14902 C 1433.99 -3.3496 0.515292 0
M  V30 14903 C 1433.16 -4.06418 1.61688 0
M  V30 14904 C 1432.22 -5.14237 1.11564 0
M  V30 14905 O 1431.25 -5.39649 1.81017 0
M  V30 14906 N 1432.45 -5.80484 -0.0427228 0
M  V30 14907 H 1435.22 -2.26372 1.96407 0
M  V30 14908 H 1432.78 -1.12257 1.16662 0
M  V30 14909 H 1434.77 -4.04366 0.164426 0
M  V30 14910 H 1433.34 -3.10767 -0.33807 0
M  V30 14911 H 1432.56 -3.31101 2.1393 0
M  V30 14912 H 1433.85 -4.50917 2.35693 0
M  V30 14913 H 1433.25 -5.62259 -0.623038 0
M  V30 14914 H 1431.8 -6.50941 -0.334615 0
M  V30 14915 N 1435.24 -1.07045 -1.15668 0
M  V30 14916 C 1436.2 -0.69198 -2.18505 0
M  V30 14917 C 1437.2 0.266185 -1.58582 0
M  V30 14918 O 1438.39 0.0475566 -1.74135 0
M  V30 14919 C 1435.52 -0.0194196 -3.40894 0
M  V30 14920 H 1436.71 -1.60241 -2.53501 0
M  V30 14921 H 1434.27 -0.866598 -1.30076 0
M  V30 14922 H 1435 0.903398 -3.11463 0
M  V30 14923 H 1434.79 -0.708519 -3.85645 0
M  V30 14924 H 1436.28 0.230829 -4.16962 0
M  V30 14925 N 1436.71 1.32449 -0.85411 0
M  V30 14926 C 1437.66 2.2889 -0.296341 0
M  V30 14927 C 1438.63 1.55024 0.596378 0
M  V30 14928 O 1439.82 1.8325 0.531406 0
M  V30 14929 C 1436.96 3.41315 0.509729 0
M  V30 14930 C 1436.07 4.30062 -0.40872 0
M  V30 14931 C 1435.2 5.29616 0.409928 0
M  V30 14932 C 1434.24 6.10005 -0.505953 0
M  V30 14933 N 1433.38 7.01559 0.275483 0
M  V30 14934 H 1438.22 2.75989 -1.12401 0
M  V30 14935 H 1435.76 1.35787 -0.565717 0
M  V30 14936 H 1437.71 4.05218 0.992697 0
M  V30 14937 H 1436.34 2.95367 1.30223 0
M  V30 14938 H 1435.4 3.66745 -1.01007 0
M  V30 14939 H 1436.71 4.86255 -1.11165 0
M  V30 14940 H 1435.86 5.99119 0.956083 0
M  V30 14941 H 1434.6 4.74039 1.14623 0
M  V30 14942 H 1433.61 5.39406 -1.064 0
M  V30 14943 H 1434.83 6.67667 -1.24086 0
M  V30 14944 H 1432.78 6.48412 0.994887 0
M  V30 14945 H 1432.69 7.55102 -0.368426 0
M  V30 14946 H 1433.96 7.75349 0.803382 0
M  V30 14947 N 1438.19 0.611994 1.45232 0
M  V30 14948 C 1439.6 0.193464 1.85695 0
M  V30 14949 C 1439.95 -1.25069 1.5117 0
M  V30 14950 O 1439.08 -1.94894 0.940497 0
M  V30 14951 C 1439.67 0.344334 3.37046 0
M  V30 14952 C 1438.23 -0.0195378 3.76395 0
M  V30 14953 C 1437.38 0.666714 2.69166 0
M  V30 14954 H 1440.33 0.818395 1.35971 0
M  V30 14955 H 1440.35 -0.422209 3.7815 0
M  V30 14956 H 1439.86 1.3955 3.62143 0
M  V30 14957 H 1437.96 -1.06971 3.56915 0
M  V30 14958 H 1438.08 0.377184 4.77613 0
M  V30 14959 H 1436.44 0.103912 2.54488 0
M  V30 14960 H 1437.22 1.7201 2.97099 0
M  V30 14961 N 1439.67 -1.53632 0.351409 0
M  V30 14962 C 1440.92 -2.00643 -0.242208 0
M  V30 14963 C 1441.24 -1.24074 -1.50435 0
M  V30 14964 O 1440.51 -0.350067 -1.92747 0
M  V30 14965 H 1439.09 -0.741252 -0.0924904 0
M  V30 14966 H 1441.75 -1.89039 0.474379 0
M  V30 14967 H 1440.85 -3.084 -0.479151 0
M  V30 14968 N 1441.15 -0.0802183 -1.57396 0
M  V30 14969 C 1442.38 0.595754 -1.98137 0
M  V30 14970 C 1442.79 1.62638 -0.958871 0
M  V30 14971 O 1442.15 1.82422 0.0534316 0
M  V30 14972 C 1442.2 1.2568 -3.38949 0
M  V30 14973 O 1441.92 0.267417 -4.37283 0
M  V30 14974 C 1443.42 2.0198 -3.94612 0
M  V30 14975 H 1440.64 0.160853 -0.651435 0
M  V30 14976 H 1443.18 -0.155111 -2.03911 0
M  V30 14977 H 1441.34 1.9587 -3.34236 0
M  V30 14978 H 1441.75 0.742695 -5.19215 0
M  V30 14979 H 1443.23 2.43613 -4.95335 0
M  V30 14980 H 1443.7 2.87973 -3.31614 0
M  V30 14981 H 1444.31 1.36639 -4.02753 0
M  V30 14982 N 1442.63 1.56409 0.193394 0
M  V30 14983 C 1444.04 1.70624 0.757915 0
M  V30 14984 C 1444.39 0.687074 1.83776 0
M  V30 14985 O 1443.51 -0.15616 2.15836 0
M  V30 14986 C 1444.11 3.09352 1.38156 0
M  V30 14987 C 1442.67 3.25326 1.89315 0
M  V30 14988 C 1441.81 2.66576 0.763727 0
M  V30 14989 H 1444.76 1.58668 -0.0317034 0
M  V30 14990 H 1444.79 3.06776 2.25098 0
M  V30 14991 H 1444.3 3.83506 0.595398 0
M  V30 14992 H 1442.4 2.5609 2.70644 0
M  V30 14993 H 1442.51 4.32848 2.05376 0
M  V30 14994 H 1440.88 2.25797 1.17846 0
M  V30 14995 H 1441.66 3.43298 -0.0102243 0
M  V30 14996 N 1444.1 -0.461169 1.50702 0
M  V30 14997 C 1445.35 -1.21012 1.61866 0
M  V30 14998 C 1445.67 -1.9226 0.325736 0
M  V30 14999 O 1444.94 -1.84543 -0.657306 0
M  V30 15000 H 1443.52 -0.449671 0.596494 0
M  V30 15001 H 1446.18 -0.531056 1.87525 0
M  V30 15002 H 1445.28 -1.95266 2.4347 0
M  V30 15003 N 1445.58 -1.40446 -0.715026 0
M  V30 15004 C 1446.83 -1.3848 -1.47199 0
M  V30 15005 C 1447.15 0.0119198 -1.94996 0
M  V30 15006 O 1446.42 0.966772 -1.70383 0
M  V30 15007 H 1445 -0.509669 -0.54612 0
M  V30 15008 H 1447.66 -1.75505 -0.847588 0
M  V30 15009 H 1446.76 -2.06002 -2.34456 0
M  V30 15010 N 1447.06 0.947303 -1.25952 0
M  V30 15011 C 1448.29 1.7273 -1.13895 0
M  V30 15012 C 1448.7 1.86296 0.306488 0
M  V30 15013 O 1448.06 1.36594 1.2103 0
M  V30 15014 C 1448.11 3.13727 -1.79604 0
M  V30 15015 O 1447.83 3.00816 -3.18499 0
M  V30 15016 C 1449.33 4.0797 -1.73422 0
M  V30 15017 H 1446.55 0.54102 -0.39691 0
M  V30 15018 H 1449.1 1.18797 -1.66456 0
M  V30 15019 H 1447.25 3.6458 -1.30997 0
M  V30 15020 H 1447.67 3.89813 -3.50922 0
M  V30 15021 H 1449.14 5.04487 -2.24047 0
M  V30 15022 H 1449.62 4.33594 -0.699481 0
M  V30 15023 H 1450.22 3.63035 -2.21553 0
M  V30 15024 N 1448.54 1.07657 1.15099 0
M  V30 15025 C 1449.79 0.800025 1.85591 0
M  V30 15026 C 1450.11 -0.675973 1.82909 0
M  V30 15027 O 1449.38 -1.48971 1.27218 0
M  V30 15028 H 1447.96 0.292958 0.687157 0
M  V30 15029 H 1450.62 1.36096 1.39513 0
M  V30 15030 H 1449.72 1.13733 2.90639 0
M  V30 15031 N 1450.02 -1.31994 0.861122 0
M  V30 15032 C 1451.26 -1.96636 0.466754 0
M  V30 15033 C 1451.59 -1.6845 -0.982328 0
M  V30 15034 O 1450.86 -0.995157 -1.68741 0
M  V30 15035 H 1449.44 -0.727489 0.169613 0
M  V30 15036 H 1452.1 -1.60962 1.09897 0
M  V30 15037 H 1451.19 -3.05937 0.61716 0
M  V30 15038 N 1451.49 -0.619688 -1.44906 0
M  V30 15039 C 1452.91 -0.203309 -1.8559 0
M  V30 15040 C 1453.26 1.24265 -1.51831 0
M  V30 15041 O 1452.38 1.94392 -0.950819 0
M  V30 15042 C 1452.98 -0.362204 -3.36858 0
M  V30 15043 C 1451.54 -0.000423575 -3.764 0
M  V30 15044 C 1450.68 -0.680979 -2.68808 0
M  V30 15045 H 1453.63 -0.825595 -1.35535 0
M  V30 15046 H 1453.65 0.402149 -3.78369 0
M  V30 15047 H 1453.17 -1.41468 -3.61398 0
M  V30 15048 H 1451.27 1.05077 -3.57477 0
M  V30 15049 H 1451.38 -0.402508 -4.77406 0
M  V30 15050 H 1449.74 -0.117407 -2.54429 0
M  V30 15051 H 1450.53 -1.73583 -2.96182 0
M  V30 15052 N 1452.97 1.53444 -0.359552 0
M  V30 15053 C 1453.94 2.24173 0.477412 0
M  V30 15054 C 1454.94 1.24747 1.01464 0
M  V30 15055 O 1456.13 1.49069 0.901343 0
M  V30 15056 C 1453.26 2.9738 1.66667 0
M  V30 15057 H 1454.45 2.99566 -0.141407 0
M  V30 15058 H 1452 1.55904 -0.111143 0
M  V30 15059 H 1452.74 2.26214 2.32374 0
M  V30 15060 H 1452.52 3.70325 1.28848 0
M  V30 15061 H 1454.01 3.51165 2.25994 0
M  V30 15062 N 1454.45 0.0885642 1.57351 0
M  V30 15063 C 1455.86 -0.441569 1.81403 0
M  V30 15064 C 1456.21 -1.68582 1.00372 0
M  V30 15065 O 1455.34 -2.15162 0.231153 0
M  V30 15066 C 1455.93 -0.807886 3.29027 0
M  V30 15067 C 1454.49 -1.2828 3.53866 0
M  V30 15068 C 1453.64 -0.276217 2.75921 0
M  V30 15069 H 1456.59 0.314083 1.55561 0
M  V30 15070 H 1456.61 -1.66797 3.41993 0
M  V30 15071 H 1456.12 0.0978886 3.87977 0
M  V30 15072 H 1454.22 -2.2065 3.0024 0
M  V30 15073 H 1454.34 -1.24914 4.62529 0
M  V30 15074 H 1452.7 -0.757007 2.4319 0
M  V30 15075 H 1453.48 0.622123 3.37616 0
M  V30 15076 N 1455.93 -1.56509 -0.185096 0
M  V30 15077 C 1456.86 -1.91878 -1.25361 0
M  V30 15078 C 1457.87 -0.810443 -1.41194 0
M  V30 15079 O 1459.06 -1.08887 -1.41442 0
M  V30 15080 C 1456.16 -2.14433 -2.62434 0
M  V30 15081 C 1455.34 -3.45618 -2.6808 0
M  V30 15082 C 1454.39 -3.57165 -3.86419 0
M  V30 15083 O 1453.42 -4.29904 -3.73056 0
M  V30 15084 N 1454.62 -2.90993 -5.02298 0
M  V30 15085 H 1457.39 -2.84133 -0.953328 0
M  V30 15086 H 1454.95 -1.57498 -0.374955 0
M  V30 15087 H 1456.94 -2.19437 -3.40044 0
M  V30 15088 H 1455.51 -1.28629 -2.84909 0
M  V30 15089 H 1454.73 -3.52394 -1.76669 0
M  V30 15090 H 1456.02 -4.31968 -2.68851 0
M  V30 15091 H 1455.42 -2.31743 -5.16054 0
M  V30 15092 H 1453.97 -3.01611 -5.77819 0
M  V30 15093 N 1457.41 0.45317 -1.50944 0
M  V30 15094 C 1458.64 1.22494 -1.66369 0
M  V30 15095 C 1459.04 1.85862 -0.353854 0
M  V30 15096 O 1458.39 1.70808 0.676031 0
M  V30 15097 C 1458.45 2.36145 -2.71064 0
M  V30 15098 C 1458.11 1.93273 -4.14119 0
M  V30 15099 C 1459.11 1.44508 -4.99413 0
M  V30 15100 C 1456.8 2.01447 -4.60135 0
M  V30 15101 C 1458.79 1.04482 -6.28778 0
M  V30 15102 C 1456.48 1.61033 -5.89501 0
M  V30 15103 C 1457.47 1.1263 -6.73649 0
M  V30 15104 O 1457.16 0.727835 -8.00598 0
M  V30 15105 H 1456.89 0.37591 -0.561843 0
M  V30 15106 H 1459.45 0.545218 -1.98032 0
M  V30 15107 H 1457.68 3.07345 -2.34682 0
M  V30 15108 H 1459.37 2.9806 -2.75527 0
M  V30 15109 H 1460.13 1.376 -4.65071 0
M  V30 15110 H 1456.01 2.38068 -3.94771 0
M  V30 15111 H 1459.56 0.666322 -6.9441 0
M  V30 15112 H 1455.45 1.67606 -6.23361 0
M  V30 15113 H 1456.22 0.855097 -8.14021 0
M  V30 15114 O 1458.92 1.49987 0.598835 0
M  V30 15115 H 1459.61 1.47666 1.25357 0
M  V30 END ATOM
M  V30 BEGIN BOND
M  V30 END BOND
M  V30 END CTAB
M  END
$$$$
