drugbank_target|P21817 Ryanodine receptor 1 (DB00201; DB01219; DB04786; DB09085)
 OpenBabel12092119383D

  0  0  0     0  0            999 V3000
M  V30 BEGIN CTAB
M  V30 COUNTS 78751 79628 0 0 0
M  V30 BEGIN ATOM
M  V30 1 H -0.908 1.98254 -0.117106 0
M  V30 2 N 0 1.576 0 0
M  V30 3 C 0.933 2.03868 1.02534 0
M  V30 4 C 1.911 0.928543 1.3348 0
M  V30 5 O 3.095 1.19667 1.45644 0
M  V30 6 C 0.222 2.43627 2.35294 0
M  V30 7 C -0.732 3.65373 2.2001 0
M  V30 8 S 0.101 5.13292 1.52614 0
M  V30 9 C 1.257 5.56322 2.86805 0
M  V30 10 H 1.49 2.90518 0.631377 0
M  V30 11 H -0.977 1.52953 0.210867 0
M  V30 12 H 0.981 2.67203 3.11629 0
M  V30 13 H -0.358 1.57376 2.7183 0
M  V30 14 H -1.165 3.90944 3.18086 0
M  V30 15 H -1.563 3.418 1.51819 0
M  V30 16 H 0.729 5.58782 3.83104 0
M  V30 17 H 1.672 6.56266 2.65933 0
M  V30 18 H 2.08 4.83886 2.90714 0
M  V30 19 N 1.4781 -0.272755 1.55222 0
M  V30 20 C 2.7261 -1.00234 1.75492 0
M  V30 21 C 3.0471 -1.8681 0.5592 0
M  V30 22 O 2.3171 -1.91215 -0.425882 0
M  V30 23 H 0.8971 -0.373076 0.647166 0
M  V30 24 H 3.5591 -0.296926 1.92625 0
M  V30 25 H 2.6551 -1.63913 2.65592 0
M  V30 26 N 2.9562 -1.48159 -0.537278 0
M  V30 27 C 4.2332 -1.46291 -1.29839 0
M  V30 28 C 4.6132 -0.170613 -2.10409 0
M  V30 29 O 3.9612 0.847746 -2.12192 0
M  V30 30 C 4.1712 -2.72055 -2.18603 0
M  V30 31 C 5.5192 -3.20087 -2.7898 0
M  V30 32 O 6.5432 -2.72921 -2.28894 0
M  V30 33 O 5.4022 -4.02138 -3.70064 0
M  V30 34 H 2.4962 -0.583906 -0.585647 0
M  V30 35 H 5.0422 -1.60384 -0.554534 0
M  V30 36 H 3.8142 -3.57628 -1.58801 0
M  V30 37 H 3.4372 -2.60646 -3.00249 0
M  V30 38 N 4.4343 0.785586 -1.36625 0
M  V30 39 C 5.3973 1.87999 -1.31107 0
M  V30 40 C 6.3973 1.59316 -0.217959 0
M  V30 41 O 7.5873 1.67656 -0.472977 0
M  V30 42 C 4.7193 3.24861 -1.03334 0
M  V30 43 H 5.9123 1.94307 -2.2844 0
M  V30 44 H 3.4653 0.983813 -1.21453 0
M  V30 45 H 4.2003 3.24235 -0.0647432 0
M  V30 46 H 3.9853 3.4707 -1.82441 0
M  V30 47 H 5.4753 4.04929 -1.02088 0
M  V30 48 N 5.9124 1.20967 1.01018 0
M  V30 49 C 6.8224 0.980157 2.13143 0
M  V30 50 C 7.8384 -0.0660665 1.73875 0
M  V30 51 O 9.0144 0.122821 2.01025 0
M  V30 52 C 6.0794 0.54216 3.42435 0
M  V30 53 C 5.1404 1.65999 3.95908 0
M  V30 54 C 4.3734 1.2428 5.19028 0
M  V30 55 O 4.5964 0.114196 5.70286 0
M  V30 56 O 3.5304 2.05271 5.65816 0
M  V30 57 H 7.3564 1.91913 2.35379 0
M  V30 58 H 4.9414 0.994099 1.11526 0
M  V30 59 H 6.8234 0.30744 4.20277 0
M  V30 60 H 5.4984 -0.36815 3.216 0
M  V30 61 H 4.4054 1.94906 3.19316 0
M  V30 62 H 5.7384 2.54753 4.21143 0
M  V30 63 N 7.3905 -1.2043 1.01659 0
M  V30 64 C 8.6385 -1.89423 0.704522 0
M  V30 65 C 8.9595 -1.79231 -0.768197 0
M  V30 66 O 8.2295 -1.1947 -1.55254 0
M  V30 67 H 6.8095 -0.701178 0.257602 0
M  V30 68 H 9.4715 -1.4626 1.28818 0
M  V30 69 H 8.5675 -2.96052 0.987916 0
M  V30 70 N 8.8686 -0.792821 -1.36206 0
M  V30 71 C 9.7786 -0.194808 -2.3379 0
M  V30 72 C 10.7946 0.654869 -1.61206 0
M  V30 73 O 11.9706 0.569856 -1.9317 0
M  V30 74 C 9.0356 0.657721 -3.40404 0
M  V30 75 C 8.0966 -0.210849 -4.28782 0
M  V30 76 C 7.3296 0.601086 -5.30304 0
M  V30 77 O 7.5526 1.83682 -5.40016 0
M  V30 78 O 6.4866 -0.000808277 -6.019 0
M  V30 79 H 10.3126 -1.00172 -2.86704 0
M  V30 80 H 7.8976 -0.554341 -1.38735 0
M  V30 81 H 9.7796 1.14375 -4.05581 0
M  V30 82 H 8.4546 1.44247 -2.89784 0
M  V30 83 H 7.3616 -0.743714 -3.66633 0
M  V30 84 H 8.6946 -0.959195 -4.82763 0
M  V30 85 N 10.3467 1.47872 -0.545128 0
M  V30 86 C 11.6237 1.9554 0.0485222 0
M  V30 87 C 12.0037 1.4876 1.49779 0
M  V30 88 O 11.3517 0.720925 2.16829 0
M  V30 89 C 11.5617 3.48898 -0.084417 0
M  V30 90 C 12.9097 4.24547 0.0671239 0
M  V30 91 O 13.9337 3.56198 -0.0113649 0
M  V30 92 O 12.7927 5.45999 0.233882 0
M  V30 93 H 9.8867 0.823957 0.0708773 0
M  V30 94 H 12.4327 1.58327 -0.610798 0
M  V30 95 H 11.2047 3.75714 -1.09337 0
M  V30 96 H 10.8277 3.92845 0.613066 0
M  V30 97 N 11.8248 0.280983 1.55075 0
M  V30 98 C 12.7348 -0.61388 2.26426 0
M  V30 99 C 13.7508 -1.16521 1.29224 0
M  V30 100 O 14.9268 -1.19426 1.62171 0
M  V30 101 C 11.9918 -1.7788 2.9759 0
M  V30 102 C 11.0528 -1.26355 4.10284 0
M  V30 103 C 10.2858 -2.37295 4.78045 0
M  V30 104 O 10.5088 -3.56777 4.45047 0
M  V30 105 O 9.4428 -2.05119 5.65871 0
M  V30 106 H 13.2688 -0.0356932 3.03679 0
M  V30 107 H 10.8538 0.0481686 1.49322 0
M  V30 108 H 12.7358 -2.45791 3.42293 0
M  V30 109 H 11.4108 -2.34397 2.23249 0
M  V30 110 H 10.3178 -0.550735 3.70024 0
M  V30 111 H 11.6508 -0.744065 4.86543 0
M  V30 112 N 13.3029 -1.57598 0.00835791 0
M  V30 113 C 14.5489 -1.91211 -0.675732 0
M  V30 114 C 14.8819 -0.883139 -1.72958 0
M  V30 115 O 14.1569 0.097016 -1.94258 0
M  V30 116 C 14.4399 -3.35379 -1.31123 0
M  V30 117 C 14.2929 -4.48999 -0.268356 0
M  V30 118 C 15.6119 -3.7912 -2.23508 0
M  V30 119 H 12.7309 -0.695374 -0.244179 0
M  V30 120 H 15.3729 -1.89901 0.0613655 0
M  V30 121 H 13.5229 -3.36626 -1.93946 0
M  V30 122 H 15.1949 -4.59887 0.360844 0
M  V30 123 H 13.4379 -4.31873 0.408482 0
M  V30 124 H 14.1089 -5.46851 -0.752218 0
M  V30 125 H 16.5849 -3.79477 -1.70693 0
M  V30 126 H 15.4609 -4.80729 -2.64936 0
M  V30 127 H 15.7219 -3.13455 -3.11766 0
M  V30 128 N 14.781 0.264519 -1.55364 0
M  V30 129 C 15.713 1.34965 -1.85248 0
M  V30 130 C 16.726 1.45136 -0.737525 0
M  V30 131 O 17.915 1.46801 -1.01547 0
M  V30 132 C 15.015 2.73008 -2.00797 0
M  V30 133 C 14.188 2.85324 -3.31525 0
M  V30 134 C 13.247 4.04097 -3.37034 0
M  V30 135 O 12.273 3.94455 -4.10358 0
M  V30 136 N 13.475 5.16458 -2.65049 0
M  V30 137 H 16.24 1.09672 -2.78913 0
M  V30 138 H 13.801 0.454635 -1.55386 0
M  V30 139 H 15.793 3.50772 -2.01844 0
M  V30 140 H 14.363 2.91087 -1.1396 0
M  V30 141 H 13.583 1.94377 -3.42945 0
M  V30 142 H 14.871 2.9049 -4.17724 0
M  V30 143 H 14.269 5.27181 -2.05175 0
M  V30 144 H 12.826 5.92422 -2.71809 0
M  V30 145 N 16.2591 1.48442 0.529413 0
M  V30 146 C 17.5061 1.56488 1.28521 0
M  V30 147 C 17.8341 0.239042 1.93025 0
M  V30 148 O 17.0891 -0.770713 1.79885 0
M  V30 149 C 17.3881 2.6523 2.39558 0
M  V30 150 C 17.0541 4.07648 1.92702 0
M  V30 151 C 15.7161 4.46411 1.79641 0
M  V30 152 C 18.0681 4.96896 1.573 0
M  V30 153 C 15.3961 5.72226 1.29514 0
M  V30 154 C 17.7481 6.23202 1.08636 0
M  V30 155 C 16.4121 6.60821 0.941919 0
M  V30 156 H 15.6821 0.572631 0.470292 0
M  V30 157 H 18.3291 1.82161 0.59072 0
M  V30 158 H 16.6341 2.33419 3.14679 0
M  V30 159 H 18.3311 2.68671 2.97686 0
M  V30 160 H 14.9211 3.77036 2.03819 0
M  V30 161 H 19.1051 4.67626 1.66251 0
M  V30 162 H 14.3611 6.00097 1.17019 0
M  V30 163 H 18.5351 6.91753 0.803136 0
M  V30 164 H 16.1621 7.58198 0.5513 0
M  V30 165 N 17.7372 -0.778329 1.37039 0
M  V30 166 C 18.6672 -1.90546 1.34962 0
M  V30 167 C 19.6482 -1.68681 0.219274 0
M  V30 168 O 20.8332 -1.89634 0.418624 0
M  V30 169 C 17.9632 -3.27734 1.14925 0
M  V30 170 C 16.9172 -3.64147 2.24902 0
M  V30 171 C 16.2432 -4.99806 1.89996 0
M  V30 172 C 17.5432 -3.71579 3.67051 0
M  V30 173 H 19.2372 -1.92541 2.29277 0
M  V30 174 H 16.7832 -0.924948 1.10366 0
M  V30 175 H 18.7362 -4.06215 1.12104 0
M  V30 176 H 17.4602 -3.26154 0.170631 0
M  V30 177 H 16.1192 -2.8797 2.26868 0
M  V30 178 H 15.7672 -4.94759 0.906796 0
M  V30 179 H 15.4672 -5.25139 2.63634 0
M  V30 180 H 16.9912 -5.80694 1.88749 0
M  V30 181 H 18.4052 -4.40227 3.67251 0
M  V30 182 H 16.8022 -4.08405 4.39688 0
M  V30 183 H 17.8722 -2.72404 4.01154 0
M  V30 184 N 19.2153 -1.21501 -1.00376 0
M  V30 185 C 20.6313 -0.972629 -1.26539 0
M  V30 186 C 20.8313 0.340257 -1.98606 0
M  V30 187 O 19.8873 1.06561 -2.28913 0
M  V30 188 C 21.2003 -2.16404 -2.08781 0
M  V30 189 C 22.7483 -2.20643 -2.22004 0
M  V30 190 C 23.2233 -3.39306 -3.07629 0
M  V30 191 N 24.7143 -3.39401 -3.15217 0
M  V30 192 C 25.4493 -4.27867 -3.81729 0
M  V30 193 N 24.9453 -5.26533 -4.5026 0
M  V30 194 N 26.7383 -4.15672 -3.78382 0
M  V30 195 H 18.8893 -2.05929 -0.520281 0
M  V30 196 H 21.1523 -0.901803 -0.292328 0
M  V30 197 H 20.8583 -3.11554 -1.63178 0
M  V30 198 H 20.7323 -2.15567 -3.09533 0
M  V30 199 H 23.1193 -1.26048 -2.66825 0
M  V30 200 H 23.2003 -2.25523 -1.20718 0
M  V30 201 H 22.8443 -4.34195 -2.63509 0
M  V30 202 H 22.7743 -3.31665 -4.09031 0
M  V30 203 H 25.2653 -2.67997 -2.66432 0
M  V30 204 H 25.5783 -5.90337 -4.98721 0
M  V30 205 H 23.9233 -5.30457 -4.49044 0
M  V30 206 H 27.1143 -3.3785 -3.23998 0
M  V30 207 H 27.2873 -4.84825 -4.2994 0
M  V30 208 N 20.6934 1.19889 -1.02296 0
M  V30 209 C 21.9214 1.9339 -0.735399 0
M  V30 210 C 22.3364 1.75148 0.704887 0
M  V30 211 O 21.6934 1.06954 1.47875 0
M  V30 212 C 21.7444 3.45313 -1.06962 0
M  V30 213 O 21.4654 3.62964 -2.45334 0
M  V30 214 C 22.9664 4.35948 -0.804021 0
M  V30 215 H 20.1864 0.61448 -0.269546 0
M  V30 216 H 22.7304 1.522 -1.36585 0
M  V30 217 H 20.8854 3.84359 -0.484455 0
M  V30 218 H 21.2994 4.56886 -2.57595 0
M  V30 219 H 22.7734 5.41174 -1.0879 0
M  V30 220 H 23.2504 4.3842 0.261691 0
M  V30 221 H 23.8564 4.02574 -1.37164 0
M  V30 222 N 22.1715 0.800033 1.35784 0
M  V30 223 C 23.4485 0.30088 1.93272 0
M  V30 224 C 23.8285 -1.20857 1.73081 0
M  V30 225 O 23.1765 -2.00502 1.09596 0
M  V30 226 C 23.3865 0.70511 3.41803 0
M  V30 227 C 24.7345 0.690871 4.18942 0
M  V30 228 O 25.7585 0.646244 3.50289 0
M  V30 229 O 24.6175 0.74332 5.41421 0
M  V30 230 H 21.7115 0.0771605 0.823393 0
M  V30 231 H 24.2575 0.88329 1.449 0
M  V30 232 H 23.0295 1.74571 3.50201 0
M  V30 233 H 22.6525 0.0971541 3.97481 0
M  V30 234 N 23.6496 -1.47581 0.552962 0
M  V30 235 C 24.9266 -1.95563 -0.0381515 0
M  V30 236 C 25.3066 -1.49552 -1.48988 0
M  V30 237 O 24.6546 -0.732414 -2.16444 0
M  V30 238 C 24.8646 -3.48848 0.102919 0
M  V30 239 C 26.2126 -4.24577 -0.0446082 0
M  V30 240 O 27.2366 -3.56187 0.0302548 0
M  V30 241 O 26.0956 -5.46116 -0.204923 0
M  V30 242 H 23.1896 -0.824321 -0.0665067 0
M  V30 243 H 25.7356 -1.58001 0.619186 0
M  V30 244 H 24.5076 -3.75129 1.11328 0
M  V30 245 H 24.1306 -3.93165 -0.592224 0
M  V30 246 N 25.1277 -0.289203 -1.54924 0
M  V30 247 C 26.0377 0.601863 -2.26748 0
M  V30 248 C 27.0537 1.15834 -1.2984 0
M  V30 249 O 28.2297 1.18564 -1.62802 0
M  V30 250 C 25.2947 1.76299 -2.98529 0
M  V30 251 C 24.3557 1.24178 -4.10948 0
M  V30 252 C 23.5887 2.34757 -4.79296 0
M  V30 253 O 23.8117 3.54411 -4.46933 0
M  V30 254 O 22.7457 2.02115 -5.66951 0
M  V30 255 H 26.5717 0.0195879 -3.03694 0
M  V30 256 H 24.1567 -0.0560868 -1.49295 0
M  V30 257 H 26.0387 2.43973 -3.43592 0
M  V30 258 H 24.7137 2.33209 -2.24488 0
M  V30 259 H 23.6207 0.531104 -3.70311 0
M  V30 260 H 24.9537 0.718252 -4.86931 0
M  V30 261 N 26.6058 1.57591 -0.0167156 0
M  V30 262 C 27.8518 1.91567 0.665582 0
M  V30 263 C 28.1848 0.892298 1.72487 0
M  V30 264 O 27.4598 -0.0867127 1.94307 0
M  V30 265 C 27.7428 3.36069 1.29342 0
M  V30 266 C 27.5958 4.49135 0.244541 0
M  V30 267 C 28.9148 3.803 2.21495 0
M  V30 268 H 26.0338 0.69666 0.240488 0
M  V30 269 H 28.6758 1.89866 -0.0714356 0
M  V30 270 H 26.8258 3.3765 1.92158 0
M  V30 271 H 28.4978 4.59689 -0.385228 0
M  V30 272 H 26.7408 4.3165 -0.431379 0
M  V30 273 H 27.4118 5.47242 0.723207 0
M  V30 274 H 29.8878 3.80377 1.68678 0
M  V30 275 H 28.7638 4.82127 2.62382 0
M  V30 276 H 29.0248 3.15104 3.101 0
M  V30 277 N 28.0839 -0.256276 1.55502 0
M  V30 278 C 29.3299 -0.987079 1.77157 0
M  V30 279 C 29.6629 -1.85327 0.580315 0
M  V30 280 O 28.9379 -1.89874 -0.421686 0
M  V30 281 C 29.2209 -1.85553 3.08613 0
M  V30 282 C 29.0739 -1.01816 4.38125 0
M  V30 283 C 30.3929 -2.8397 3.36228 0
M  V30 284 H 27.5119 -0.357428 0.644526 0
M  V30 285 H 30.1539 -0.258239 1.88237 0
M  V30 286 H 28.3039 -2.47695 2.99298 0
M  V30 287 H 29.9759 -0.416159 4.59419 0
M  V30 288 H 28.2189 -0.322178 4.32602 0
M  V30 289 H 28.8899 -1.65939 5.26468 0
M  V30 290 H 31.3659 -2.31964 3.45445 0
M  V30 291 H 30.2419 -3.41864 4.29442 0
M  V30 292 H 30.5029 -3.59955 2.56681 0
M  V30 293 N 29.562 -1.4872 -0.521534 0
M  V30 294 C 30.492 -1.66771 -1.63431 0
M  V30 295 C 31.473 -0.516499 -1.62069 0
M  V30 296 O 32.658 -0.750013 -1.79132 0
M  V30 297 C 29.788 -1.71515 -3.01993 0
M  V30 298 C 28.742 -2.86222 -3.18216 0
M  V30 299 C 28.068 -2.76061 -4.57924 0
M  V30 300 C 29.368 -4.27419 -3.00184 0
M  V30 301 H 31.062 -2.59932 -1.48579 0
M  V30 302 H 28.608 -1.25089 -0.713358 0
M  V30 303 H 30.561 -1.82731 -3.7972 0
M  V30 304 H 29.285 -0.749393 -3.17886 0
M  V30 305 H 27.944 -2.74575 -2.42908 0
M  V30 306 H 27.592 -1.77437 -4.70665 0
M  V30 307 H 27.292 -3.53037 -4.69722 0
M  V30 308 H 28.816 -2.89256 -5.37739 0
M  V30 309 H 30.23 -4.39855 -3.67697 0
M  V30 310 H 28.627 -5.05458 -3.2347 0
M  V30 311 H 29.697 -4.43293 -1.96518 0
M  V30 312 N 31.0401 0.771051 -1.3745 0
M  V30 313 C 31.9721 1.89352 -1.29146 0
M  V30 314 C 32.9851 1.61477 -0.207124 0
M  V30 315 O 34.1741 1.72382 -0.463324 0
M  V30 316 C 31.2741 3.24596 -0.974195 0
M  V30 317 C 30.4471 3.80111 -2.16413 0
M  V30 318 C 29.5061 4.93832 -1.81703 0
M  V30 319 O 28.5321 5.09382 -2.54006 0
M  V30 320 N 29.7341 5.75483 -0.761573 0
M  V30 321 H 32.4991 1.96991 -2.25864 0
M  V30 322 H 30.0601 0.950191 -1.31084 0
M  V30 323 H 32.0521 3.98193 -0.722828 0
M  V30 324 H 30.6221 3.12454 -0.0955527 0
M  V30 325 H 29.8421 2.98284 -2.57721 0
M  V30 326 H 31.1301 4.13932 -2.95867 0
M  V30 327 H 30.5281 5.65469 -0.161609 0
M  V30 328 H 29.0851 6.49302 -0.570064 0
M  V30 329 N 32.5182 1.22032 0.997298 0
M  V30 330 C 33.7582 1.05375 1.75144 0
M  V30 331 C 34.1222 -0.404696 1.87686 0
M  V30 332 O 35.3232 -0.691998 2.5974 0
M  V30 333 C 33.5942 1.74046 3.12158 0
M  V30 334 S 35.1532 1.72745 4.03366 0
M  V30 335 H 31.9712 0.377449 0.602539 0
M  V30 336 H 34.5732 1.54902 1.19272 0
M  V30 337 H 33.2772 2.79332 3.00669 0
M  V30 338 H 32.8082 1.24731 3.73103 0
M  V30 339 H 34.8232 0.774015 4.90126 0
M  V30 340 N 33.9963 -1.19345 1.0293 0
M  V30 341 C 35.2213 -1.93538 0.745511 0
M  V30 342 C 35.6463 -1.75007 -0.689511 0
M  V30 343 O 35.0043 -1.05265 -1.47611 0
M  V30 344 C 35.0523 -3.43336 1.10239 0
M  V30 345 O 34.1563 -4.11806 0.221289 0
M  V30 346 H 33.4973 -0.604193 0.275404 0
M  V30 347 H 36.0273 -1.5141 1.37609 0
M  V30 348 H 36.0373 -3.94004 1.05947 0
M  V30 349 H 34.7123 -3.56146 2.14786 0
M  V30 350 H 33.2893 -3.715 0.322842 0
M  V30 351 N 35.4744 -0.807222 -1.35358 0
M  V30 352 C 36.4374 -0.223665 -2.28106 0
M  V30 353 C 37.4374 0.589354 -1.4961 0
M  V30 354 O 38.6274 0.407745 -1.69361 0
M  V30 355 C 35.7594 0.688149 -3.33882 0
M  V30 356 H 36.9524 -1.04169 -2.81227 0
M  V30 357 H 34.5054 -0.577921 -1.45223 0
M  V30 358 H 35.2404 1.52984 -2.85948 0
M  V30 359 H 35.0254 0.10687 -3.91954 0
M  V30 360 H 36.5154 1.09075 -4.03104 0
M  V30 361 N 36.9525 1.47285 -0.560781 0
M  V30 362 C 38.1805 2.06855 -0.0430262 0
M  V30 363 C 38.5955 1.41291 1.25229 0
M  V30 364 O 37.9525 0.510648 1.7521 0
M  V30 365 C 38.0035 3.61178 0.152518 0
M  V30 366 O 37.7245 4.24285 -1.0915 0
M  V30 367 C 39.2255 4.37624 0.707145 0
M  V30 368 H 36.4455 0.669319 -0.0474652 0
M  V30 369 H 38.9895 1.89237 -0.77521 0
M  V30 370 H 37.1445 3.78298 0.834843 0
M  V30 371 H 37.5585 5.16868 -0.891482 0
M  V30 372 H 39.0325 5.46271 0.793244 0
M  V30 373 H 39.5095 4.04152 1.71923 0
M  V30 374 H 40.1155 4.25257 0.0604027 0
M  V30 375 N 38.4306 0.297415 1.54768 0
M  V30 376 C 39.6766 -0.313376 2.00364 0
M  V30 377 C 40.0096 -1.53815 1.18553 0
M  V30 378 O 39.2846 -1.92739 0.261103 0
M  V30 379 C 39.5676 -0.673525 3.53745 0
M  V30 380 C 39.4206 0.560133 4.46299 0
M  V30 381 C 40.7396 -1.50143 4.13697 0
M  V30 382 H 37.8586 -0.112428 0.728374 0
M  V30 383 H 40.5006 0.4088 1.8555 0
M  V30 384 H 38.6506 -1.28881 3.665 0
M  V30 385 H 40.3226 1.19863 4.45455 0
M  V30 386 H 38.5656 1.19405 4.17043 0
M  V30 387 H 39.2366 0.26405 5.51368 0
M  V30 388 H 41.7126 -0.981588 4.04356 0
M  V30 389 H 40.5886 -1.72221 5.21182 0
M  V30 390 H 40.8496 -2.48952 3.65343 0
M  V30 391 N 39.9087 -1.5758 0.0250728 0
M  V30 392 C 40.8387 -2.13007 -0.956575 0
M  V30 393 C 41.8197 -1.0452 -1.342 0
M  V30 394 O 43.0047 -1.32332 -1.42133 0
M  V30 395 C 40.1347 -2.65386 -2.24026 0
M  V30 396 C 39.0887 -3.78623 -1.99571 0
M  V30 397 C 38.4147 -4.17414 -3.3417 0
M  V30 398 C 39.7147 -5.04867 -1.33814 0
M  V30 399 H 41.4087 -2.9528 -0.494991 0
M  V30 400 H 38.9547 -1.42042 -0.236651 0
M  V30 401 H 40.9077 -3.02794 -2.93076 0
M  V30 402 H 39.6317 -1.80268 -2.72343 0
M  V30 403 H 38.2907 -3.41646 -1.32941 0
M  V30 404 H 37.9387 -3.29284 -3.80238 0
M  V30 405 H 37.6387 -4.93719 -3.18615 0
M  V30 406 H 39.1627 -4.57402 -4.04495 0
M  V30 407 H 40.5767 -5.39888 -1.92857 0
M  V30 408 H 38.9737 -5.86144 -1.28669 0
M  V30 409 H 40.0437 -4.83904 -0.310561 0
M  V30 410 N 41.3868 0.248026 -1.55636 0
M  V30 411 C 42.3338 1.30707 -1.90222 0
M  V30 412 C 43.3038 1.47881 -0.756332 0
M  V30 413 O 44.4888 1.61883 -1.00988 0
M  V30 414 C 41.6288 2.65769 -2.20138 0
M  V30 415 C 40.7418 2.56612 -3.47526 0
M  V30 416 C 39.8768 3.8402 -3.67017 0
M  V30 417 C 38.9158 3.69476 -4.8801 0
M  V30 418 N 38.0528 4.88774 -5.04029 0
M  V30 419 H 42.8928 1.00512 -2.80538 0
M  V30 420 H 40.4298 0.485055 -1.38873 0
M  V30 421 H 42.3878 3.44386 -2.35487 0
M  V30 422 H 41.0178 2.94115 -1.33027 0
M  V30 423 H 40.0698 1.69571 -3.40514 0
M  V30 424 H 41.3818 2.41774 -4.36287 0
M  V30 425 H 40.5358 4.7108 -3.8232 0
M  V30 426 H 39.2748 4.01754 -2.76487 0
M  V30 427 H 38.2798 2.80799 -4.72686 0
M  V30 428 H 39.5048 3.53238 -5.8 0
M  V30 429 H 37.4508 5.0687 -4.16435 0
M  V30 430 H 37.3678 4.76562 -5.86877 0
M  V30 431 H 38.6358 5.77335 -5.23741 0
M  V30 432 N 42.8649 1.48995 0.513639 0
M  V30 433 C 43.7749 1.67443 1.64317 0
M  V30 434 C 44.7909 0.556947 1.64846 0
M  V30 435 O 45.9669 0.830082 1.83498 0
M  V30 436 C 43.0319 1.72515 3.00732 0
M  V30 437 C 42.0929 2.96009 3.1093 0
M  V30 438 C 41.3259 3.00829 4.40837 0
M  V30 439 O 41.5489 2.13594 5.28898 0
M  V30 440 O 40.4829 3.93168 4.55744 0
M  V30 441 H 44.3089 2.63106 1.51687 0
M  V30 442 H 41.8939 1.32588 0.688543 0
M  V30 443 H 43.7759 1.78277 3.81831 0
M  V30 444 H 42.4509 0.800278 3.13651 0
M  V30 445 H 41.3579 2.9577 2.29065 0
M  V30 446 H 42.6909 3.87934 3.02933 0
M  V30 447 N 44.343 -0.763751 1.37857 0
M  V30 448 C 45.275 -1.88664 1.30148 0
M  V30 449 C 46.288 -1.61365 0.215685 0
M  V30 450 O 47.477 -1.72134 0.472459 0
M  V30 451 C 44.577 -3.24075 0.991396 0
M  V30 452 C 43.75 -3.78958 2.18426 0
M  V30 453 C 42.809 -4.92862 1.8432 0
M  V30 454 O 41.835 -5.08027 2.56704 0
M  V30 455 N 43.037 -5.75071 0.792081 0
M  V30 456 H 45.802 -1.95791 2.26905 0
M  V30 457 H 43.363 -0.943226 1.31586 0
M  V30 458 H 45.355 -3.97804 0.743935 0
M  V30 459 H 43.925 -3.12399 0.112122 0
M  V30 460 H 43.145 -2.96913 2.59299 0
M  V30 461 H 44.433 -4.12357 2.98058 0
M  V30 462 H 43.831 -5.65375 0.191595 0
M  V30 463 H 42.388 -6.48991 0.60449 0
M  V30 464 N 45.8211 -1.22559 -0.990812 0
M  V30 465 C 46.7511 -1.0218 -2.09956 0
M  V30 466 C 47.7321 0.0579394 -1.70001 0
M  V30 467 O 48.9171 -0.104684 -1.93918 0
M  V30 468 C 46.0471 -0.601023 -3.4206 0
M  V30 469 C 45.0011 -1.62694 -3.95872 0
M  V30 470 C 44.3271 -1.06193 -5.24049 0
M  V30 471 C 45.6271 -3.01743 -4.2632 0
M  V30 472 H 47.3211 -1.94916 -2.27262 0
M  V30 473 H 44.8671 -0.938566 -1.09211 0
M  V30 474 H 46.8201 -0.445561 -4.19038 0
M  V30 475 H 45.5441 0.362005 -3.24588 0
M  V30 476 H 44.2031 -1.77021 -3.21028 0
M  V30 477 H 43.8511 -0.0901903 -5.02919 0
M  V30 478 H 43.5511 -1.74732 -5.61019 0
M  V30 479 H 45.0751 -0.918092 -6.03658 0
M  V30 480 H 46.4891 -2.90777 -4.94087 0
M  V30 481 H 44.8861 -3.67425 -4.74467 0
M  V30 482 H 45.9561 -3.51518 -3.34011 0
M  V30 483 N 47.2992 1.18797 -1.03562 0
M  V30 484 C 48.2462 2.22253 -0.622259 0
M  V30 485 C 49.2162 1.61987 0.36736 0
M  V30 486 O 50.4012 1.88986 0.262492 0
M  V30 487 C 47.5412 3.45097 0.0138462 0
M  V30 488 C 46.6542 4.19722 -1.02263 0
M  V30 489 C 45.7892 5.30009 -0.355573 0
M  V30 490 C 44.8282 5.96399 -1.37749 0
M  V30 491 N 43.9652 6.98234 -0.735766 0
M  V30 492 H 48.8052 2.56968 -1.50903 0
M  V30 493 H 46.3422 1.26245 -0.755017 0
M  V30 494 H 48.3002 4.15279 0.399948 0
M  V30 495 H 46.9302 3.11018 0.864158 0
M  V30 496 H 45.9822 3.48418 -1.52673 0
M  V30 497 H 47.2942 4.65227 -1.79903 0
M  V30 498 H 46.4482 6.0664 0.0850095 0
M  V30 499 H 45.1872 4.85592 0.452967 0
M  V30 500 H 44.1922 5.18512 -1.82826 0
M  V30 501 H 45.4172 6.42899 -2.18764 0
M  V30 502 H 43.3632 6.55979 0.0525597 0
M  V30 503 H 43.2802 7.41965 -1.44995 0
M  V30 504 H 44.5482 7.78845 -0.31941 0
M  V30 505 N 48.7773 0.814389 1.34928 0
M  V30 506 C 49.7073 0.244827 2.32213 0
M  V30 507 C 50.6883 -0.634024 1.57842 0
M  V30 508 O 51.8733 -0.562676 1.8587 0
M  V30 509 C 49.0033 -0.601106 3.42058 0
M  V30 510 C 47.9573 0.179896 4.27622 0
M  V30 511 C 47.2833 -0.788237 5.28858 0
M  V30 512 C 48.5833 1.38329 5.03649 0
M  V30 513 H 50.2773 1.05763 2.80097 0
M  V30 514 H 47.8233 0.510029 1.34665 0
M  V30 515 H 49.7763 -1.00968 4.09125 0
M  V30 516 H 48.5003 -1.44688 2.92802 0
M  V30 517 H 47.1593 0.569739 3.62146 0
M  V30 518 H 46.8073 -1.62973 4.75866 0
M  V30 519 H 46.5073 -0.269942 5.8698 0
M  V30 520 H 48.0313 -1.19485 5.98795 0
M  V30 521 H 49.4453 1.04918 5.63618 0
M  V30 522 H 47.8423 1.83662 5.71304 0
M  V30 523 H 48.9123 2.16592 4.33839 0
M  V30 524 N 50.2554 -1.46986 0.568584 0
M  V30 525 C 51.4954 -2.04336 0.0512999 0
M  V30 526 C 51.8594 -1.43214 -1.27881 0
M  V30 527 O 53.0604 -1.91679 -1.88448 0
M  V30 528 C 51.3314 -3.57389 -0.0282328 0
M  V30 529 S 52.8904 -4.36056 -0.489991 0
M  V30 530 H 49.7084 -0.71034 0.0306349 0
M  V30 531 H 52.3104 -1.80212 0.757891 0
M  V30 532 H 51.0144 -3.99395 0.944011 0
M  V30 533 H 50.5454 -3.86028 -0.75803 0
M  V30 534 H 52.5604 -4.6441 -1.74752 0
M  V30 535 N 51.7335 -0.305618 -1.54608 0
M  V30 536 C 52.6635 0.561482 -2.26649 0
M  V30 537 C 53.6445 1.13415 -1.26772 0
M  V30 538 O 54.8295 1.16262 -1.55553 0
M  V30 539 C 51.9595 1.73122 -3.01075 0
M  V30 540 C 50.9135 1.2887 -4.08138 0
M  V30 541 C 50.2395 2.54396 -4.70305 0
M  V30 542 C 51.5395 0.416578 -5.20636 0
M  V30 543 H 53.2335 -0.0393902 -2.99374 0
M  V30 544 H 50.7795 -0.020385 -1.43986 0
M  V30 545 H 52.7325 2.34396 -3.50195 0
M  V30 546 H 51.4565 2.3584 -2.25936 0
M  V30 547 H 50.1155 0.698991 -3.59875 0
M  V30 548 H 49.7635 3.15439 -3.918 0
M  V30 549 H 49.4635 2.25486 -5.42614 0
M  V30 550 H 50.9875 3.16464 -5.2219 0
M  V30 551 H 52.4015 0.935116 -5.65622 0
M  V30 552 H 50.7985 0.221046 -5.99693 0
M  V30 553 H 51.8685 -0.557162 -4.81688 0
M  V30 554 N 53.2116 1.57565 -0.0334293 0
M  V30 555 C 54.1746 2.09393 0.932048 0
M  V30 556 C 55.1746 1.00986 1.25134 0
M  V30 557 O 56.3646 1.27129 1.19096 0
M  V30 558 C 53.4966 2.56338 2.2473 0
M  V30 559 H 54.6896 2.95984 0.483085 0
M  V30 560 H 52.2426 1.54819 0.21468 0
M  V30 561 H 52.9776 1.7309 2.74245 0
M  V30 562 H 52.7626 3.35542 2.02865 0
M  V30 563 H 54.2526 2.96646 2.93923 0
M  V30 564 N 54.6897 -0.239769 1.55765 0
M  V30 565 C 55.6527 -1.28038 1.90103 0
M  V30 566 C 56.6527 -1.40723 0.778055 0
M  V30 567 O 57.8427 -1.39301 1.04599 0
M  V30 568 C 54.9747 -2.65702 2.13577 0
M  V30 569 H 56.1677 -0.988048 2.83157 0
M  V30 570 H 53.7207 -0.479382 1.48767 0
M  V30 571 H 54.4557 -3.00063 1.23015 0
M  V30 572 H 54.2407 -2.57875 2.95369 0
M  V30 573 H 55.7307 -3.40828 2.41301 0
M  V30 574 N 56.1678 -1.49265 -0.50573 0
M  V30 575 C 57.0778 -1.68312 -1.63427 0
M  V30 576 C 58.0938 -0.565682 -1.64548 0
M  V30 577 O 59.2698 -0.839801 -1.83055 0
M  V30 578 C 56.3348 -1.74107 -2.99813 0
M  V30 579 C 55.3958 -2.97653 -3.09356 0
M  V30 580 C 54.6288 -3.03163 -4.39236 0
M  V30 581 O 54.8518 -2.16396 -5.27758 0
M  V30 582 O 53.7858 -3.9558 -4.53652 0
M  V30 583 H 57.6118 -2.63907 -1.50289 0
M  V30 584 H 55.1968 -1.32951 -0.681502 0
M  V30 585 H 57.0788 -1.803 -3.80881 0
M  V30 586 H 55.7538 -0.816901 -3.13223 0
M  V30 587 H 54.6608 -2.96981 -2.27493 0
M  V30 588 H 55.9938 -3.89535 -3.00871 0
M  V30 589 N 57.6459 0.756429 -1.3826 0
M  V30 590 C 58.8939 1.51248 -1.34047 0
M  V30 591 C 59.2149 1.94875 0.0698372 0
M  V30 592 O 58.4849 1.67436 1.01696 0
M  V30 593 H 57.0649 0.561018 -0.493222 0
M  V30 594 H 59.7269 0.899347 -1.7291 0
M  V30 595 H 58.8229 2.40472 -1.98947 0
M  V30 596 N 59.124 1.23083 0.984299 0
M  V30 597 C 60.371 1.06057 1.72505 0
M  V30 598 C 60.699 -0.403105 1.90277 0
M  V30 599 O 59.954 -1.3149 1.44944 0
M  V30 600 C 60.253 1.72673 3.1292 0
M  V30 601 C 59.919 3.22586 3.15038 0
M  V30 602 C 58.581 3.63489 3.15324 0
M  V30 603 C 60.933 4.185 3.10657 0
M  V30 604 C 58.261 4.98772 3.08939 0
M  V30 605 C 60.613 5.53769 3.05814 0
M  V30 606 C 59.277 5.94041 3.04419 0
M  V30 607 H 58.547 0.388091 0.631242 0
M  V30 608 H 61.194 1.52963 1.15215 0
M  V30 609 H 59.499 1.18116 3.73572 0
M  V30 610 H 61.196 1.56982 3.68996 0
M  V30 611 H 57.786 2.90022 3.15571 0
M  V30 612 H 61.97 3.87911 3.09579 0
M  V30 613 H 57.226 5.29193 3.0621 0
M  V30 614 H 61.4 6.27808 3.0138 0
M  V30 615 H 59.027 6.98833 2.99227 0
M  V30 616 N 60.6021 -1.18246 1.0419 0
M  V30 617 C 61.8501 -1.87886 0.744543 0
M  V30 618 C 62.1711 -1.8082 -0.730006 0
M  V30 619 O 61.4411 -1.22736 -1.52685 0
M  V30 620 H 60.0211 -0.695556 0.272417 0
M  V30 621 H 62.6831 -1.43494 1.31892 0
M  V30 622 H 61.7791 -2.9389 1.05049 0
M  V30 623 N 62.0802 -0.821533 -1.34494 0
M  V30 624 C 63.0282 -0.230702 -2.31453 0
M  V30 625 C 64.0222 0.627793 -1.57338 0
M  V30 626 O 65.2282 0.519288 -1.72347 0
M  V30 627 H 61.6032 -0.0558577 -0.749923 0
M  V30 628 H 63.5742 -1.06332 -2.78812 0
M  V30 629 C 62.3232 0.59391 -3.4259 0
M  V30 630 H 61.6462 -0.0573588 -3.99759 0
M  V30 631 H 63.0862 0.973446 -4.12674 0
M  V30 632 C 61.5452 1.76568 -2.86924 0
M  V30 633 O 62.0752 2.8638 -2.81691 0
M  V30 634 N 60.2812 1.58198 -2.43766 0
M  V30 635 H 59.8282 0.68872 -2.48222 0
M  V30 636 H 59.7862 2.36752 -2.06871 0
M  V30 637 N 63.5583 1.46682 -0.576371 0
M  V30 638 C 64.9743 1.57822 -0.237562 0
M  V30 639 C 65.1743 1.57237 1.26011 0
M  V30 640 O 64.2303 1.48596 2.04146 0
M  V30 641 C 65.5433 2.87499 -0.881168 0
M  V30 642 C 67.0913 3.01119 -0.85417 0
M  V30 643 C 67.5663 4.33524 -1.4772 0
M  V30 644 N 69.0573 4.40207 -1.44125 0
M  V30 645 C 69.7923 5.4126 -1.89276 0
M  V30 646 N 69.2883 6.49021 -2.42371 0
M  V30 647 N 71.0813 5.32422 -1.80231 0
M  V30 648 H 63.2323 1.45306 -1.54919 0
M  V30 649 H 65.4953 0.692733 -0.647167 0
M  V30 650 H 65.2013 2.9372 -1.93447 0
M  V30 651 H 65.0753 3.75224 -0.385592 0
M  V30 652 H 67.4623 2.94485 0.190491 0
M  V30 653 H 67.5433 2.14887 -1.3877 0
M  V30 654 H 67.1873 4.40916 -2.52103 0
M  V30 655 H 67.1173 5.1852 -0.918947 0
M  V30 656 H 69.6083 3.62931 -1.05307 0
M  V30 657 H 69.9213 7.2233 -2.74698 0
M  V30 658 H 68.2663 6.49858 -2.46393 0
M  V30 659 H 71.4573 4.47137 -1.38514 0
M  V30 660 H 71.6303 6.11034 -2.15735 0
M  V30 661 N 65.0364 0.313813 1.54444 0
M  V30 662 C 65.9664 -0.549454 2.26943 0
M  V30 663 C 66.9474 -1.12741 1.27372 0
M  V30 664 O 68.1324 -1.15436 1.56167 0
M  V30 665 C 65.2624 -1.71523 3.01989 0
M  V30 666 C 64.2164 -1.26703 4.08816 0
M  V30 667 C 63.5424 -2.51898 4.71647 0
M  V30 668 C 64.8424 -0.388962 5.2085 0
M  V30 669 H 66.5364 0.0552661 2.99349 0
M  V30 670 H 64.0824 0.0280207 1.43973 0
M  V30 671 H 66.0354 -2.32535 3.51433 0
M  V30 672 H 64.7594 -2.34639 2.27183 0
M  V30 673 H 63.4184 -0.679896 3.6024 0
M  V30 674 H 63.0664 -3.13356 3.93468 0
M  V30 675 H 62.7664 -2.22605 5.43802 0
M  V30 676 H 64.2904 -3.1369 5.23861 0
M  V30 677 H 65.7044 -0.905107 5.6611 0
M  V30 678 H 64.1014 -0.18924 5.99802 0
M  V30 679 H 65.1714 0.582699 4.81386 0
M  V30 680 N 66.5145 -1.57545 0.0417849 0
M  V30 681 C 67.7545 -1.94185 -0.63809 0
M  V30 682 C 68.1185 -0.919339 -1.68559 0
M  V30 683 O 69.3195 -1.17236 -2.41886 0
M  V30 684 C 67.5905 -3.35672 -1.22714 0
M  V30 685 S 69.1495 -3.94256 -1.92633 0
M  V30 686 H 65.9675 -0.679353 -0.209764 0
M  V30 687 H 68.5695 -1.95199 0.108479 0
M  V30 688 H 67.2735 -4.07898 -0.452503 0
M  V30 689 H 66.8045 -3.38132 -2.01073 0
M  V30 690 H 68.8195 -3.7872 -3.20602 0
M  V30 691 N 67.9926 0.231505 -1.5589 0
M  V30 692 C 69.2396 0.957352 -1.78441 0
M  V30 693 C 69.5676 1.84726 -0.60882 0
M  V30 694 O 68.8226 1.91416 0.40725 0
M  V30 695 C 69.1216 1.83577 -3.0665 0
M  V30 696 C 68.7876 1.09993 -4.37278 0
M  V30 697 C 67.4496 0.896629 -4.72773 0
M  V30 698 C 69.8016 0.579558 -5.17968 0
M  V30 699 C 67.1296 0.160896 -5.86479 0
M  V30 700 C 69.4816 -0.142783 -6.32439 0
M  V30 701 C 68.1456 -0.357427 -6.66542 0
M  V30 702 H 67.4156 0.35032 -0.65296 0
M  V30 703 H 70.0626 0.226259 -1.90159 0
M  V30 704 H 68.3676 2.63441 -2.90011 0
M  V30 705 H 70.0646 2.39934 -3.21298 0
M  V30 706 H 66.6546 1.26835 -4.09403 0
M  V30 707 H 70.8386 0.724125 -4.90989 0
M  V30 708 H 66.0946 -0.0157293 -6.11398 0
M  V30 709 H 70.2686 -0.553559 -6.94196 0
M  V30 710 H 67.8956 -0.929466 -7.54497 0
M  V30 711 N 69.4707 1.49531 0.497807 0
M  V30 712 C 70.4007 1.6935 1.60757 0
M  V30 713 C 71.3817 0.542218 1.61227 0
M  V30 714 O 72.5667 0.778417 1.77917 0
M  V30 715 C 69.6967 1.76298 2.99226 0
M  V30 716 C 68.6507 2.91248 3.13622 0
M  V30 717 C 67.9767 2.83312 4.53474 0
M  V30 718 C 69.2767 4.3214 2.93346 0
M  V30 719 H 70.9707 2.62263 1.44425 0
M  V30 720 H 68.5167 1.26208 0.693367 0
M  V30 721 H 70.4697 1.88749 3.76765 0
M  V30 722 H 69.1937 0.799871 3.16654 0
M  V30 723 H 67.8527 2.78404 2.38509 0
M  V30 724 H 67.5007 1.84902 4.67782 0
M  V30 725 H 67.2007 3.60465 4.64046 0
M  V30 726 H 68.7247 2.97775 5.33069 0
M  V30 727 H 70.1387 4.45649 3.60652 0
M  V30 728 H 68.5357 5.1054 3.15387 0
M  V30 729 H 69.6057 4.46363 1.89441 0
M  V30 730 N 70.9488 -0.749086 1.3866 0
M  V30 731 C 71.8588 -1.89358 1.38494 0
M  V30 732 C 72.8748 -1.71708 0.281476 0
M  V30 733 O 74.0508 -1.94554 0.520643 0
M  V30 734 C 71.1158 -3.24782 1.21316 0
M  V30 735 C 70.1768 -3.54926 2.41508 0
M  V30 736 C 69.4098 -4.83888 2.2514 0
M  V30 737 O 69.6328 -5.56592 1.24746 0
M  V30 738 O 68.5668 -5.13612 3.13826 0
M  V30 739 H 72.3928 -1.92452 2.34938 0
M  V30 740 H 69.9778 -0.894981 1.19626 0
M  V30 741 H 71.8598 -4.05739 1.13814 0
M  V30 742 H 70.5348 -3.2249 0.279592 0
M  V30 743 H 69.4418 -2.74112 2.54585 0
M  V30 744 H 70.7748 -3.61983 3.3351 0
M  V30 745 N 72.4269 -1.23603 -0.977757 0
M  V30 746 C 73.8379 -1.06424 -1.53398 0
M  V30 747 C 74.1889 0.367578 -1.92726 0
M  V30 748 O 73.3139 1.25465 -1.76316 0
M  V30 749 C 73.9089 -1.92568 -2.78753 0
M  V30 750 C 72.4679 -1.79642 -3.30765 0
M  V30 751 C 71.6149 -1.88111 -2.03739 0
M  V30 752 H 74.5659 -1.37227 -0.797152 0
M  V30 753 H 74.5869 -1.45203 -3.51705 0
M  V30 754 H 74.0989 -2.96771 -2.50098 0
M  V30 755 H 72.1999 -0.782325 -3.64294 0
M  V30 756 H 72.3129 -2.63174 -4.00345 0
M  V30 757 H 70.6769 -1.31723 -2.17994 0
M  V30 758 H 71.4599 -2.93875 -1.77461 0
M  V30 759 N 73.905 1.17692 -1.04816 0
M  V30 760 C 75.133 1.91786 -0.776254 0
M  V30 761 C 75.548 1.76604 0.667577 0
M  V30 762 O 74.905 1.10067 1.45573 0
M  V30 763 C 74.956 3.42967 -1.14263 0
M  V30 764 O 74.677 3.57678 -2.52978 0
M  V30 765 C 76.178 4.34144 -0.896311 0
M  V30 766 H 73.398 0.608624 -0.282519 0
M  V30 767 H 75.942 1.49268 -1.39783 0
M  V30 768 H 74.097 3.83245 -0.565874 0
M  V30 769 H 74.511 4.51319 -2.67229 0
M  V30 770 H 75.985 5.38744 -1.20244 0
M  V30 771 H 76.462 4.38876 0.168636 0
M  V30 772 H 77.068 3.99574 -1.45672 0
M  V30 773 N 75.3831 0.828654 1.34056 0
M  V30 774 C 76.6081 0.431637 2.02859 0
M  V30 775 C 77.0331 -0.956339 1.61975 0
M  V30 776 O 76.3911 -1.62338 0.807228 0
M  V30 777 C 76.4391 0.548323 3.56407 0
M  V30 778 O 75.5431 -0.429556 4.10157 0
M  V30 779 H 74.8841 0.176886 0.640006 0
M  V30 780 H 77.4141 1.12066 1.71179 0
M  V30 781 H 77.4241 0.426196 4.05768 0
M  V30 782 H 76.0991 1.5606 3.8551 0
M  V30 783 H 74.6761 -0.265836 3.71951 0
M  V30 784 N 76.8612 -1.46375 0.584142 0
M  V30 785 C 77.8092 -2.32042 -0.161047 0
M  V30 786 C 78.8032 -1.44569 -0.882966 0
M  V30 787 O 80.0092 -1.61186 -0.801191 0
M  V30 788 H 76.3842 -0.748659 -0.0708033 0
M  V30 789 H 78.3552 -2.92704 0.580269 0
M  V30 790 C 77.1042 -3.27762 -1.1605 0
M  V30 791 H 76.4272 -3.95051 -0.614419 0
M  V30 792 H 77.8672 -3.90481 -1.65228 0
M  V30 793 C 76.3262 -2.53218 -2.22221 0
M  V30 794 O 76.8562 -2.29628 -3.29597 0
M  V30 795 N 75.0622 -2.13756 -1.96868 0
M  V30 796 H 74.6092 -2.33142 -1.09557 0
M  V30 797 H 74.5672 -1.642 -2.68115 0
M  V30 798 N 78.3393 -0.321999 -1.54275 0
M  V30 799 C 79.3023 0.531975 -2.22941 0
M  V30 800 C 80.3023 1.04478 -1.22234 0
M  V30 801 O 81.4923 0.937452 -1.46825 0
M  V30 802 C 78.6243 1.73874 -2.93224 0
M  V30 803 H 79.8173 -0.0682612 -2.99822 0
M  V30 804 H 77.3703 -0.0730644 -1.56129 0
M  V30 805 H 78.1053 2.37825 -2.20476 0
M  V30 806 H 77.8903 1.37847 -3.6707 0
M  V30 807 H 79.3803 2.34496 -3.45545 0
M  V30 808 N 79.8174 1.5752 -0.0501392 0
M  V30 809 C 80.7494 2.08413 0.95376 0
M  V30 810 C 81.7624 1.01175 1.27544 0
M  V30 811 O 82.9514 1.28744 1.23641 0
M  V30 812 C 80.0514 2.51138 2.27559 0
M  V30 813 C 79.2244 3.817 2.13598 0
M  V30 814 C 78.2834 4.10749 3.28895 0
M  V30 815 O 77.3094 4.80685 3.04845 0
M  V30 816 N 78.5114 3.62579 4.5334 0
M  V30 817 H 81.2764 2.95165 0.519383 0
M  V30 818 H 78.8374 1.61327 0.136127 0
M  V30 819 H 80.8294 2.67648 3.03557 0
M  V30 820 H 79.3994 1.6964 2.62567 0
M  V30 821 H 78.6194 3.74782 1.22197 0
M  V30 822 H 79.9074 4.67201 2.01496 0
M  V30 823 H 79.3054 3.06039 4.75769 0
M  V30 824 H 77.8624 3.84329 5.26436 0
M  V30 825 N 81.2955 -0.223234 1.56011 0
M  V30 826 C 82.2435 -1.29627 1.93131 0
M  V30 827 C 83.2375 -1.48608 0.813146 0
M  V30 828 O 84.4435 -1.49802 0.997966 0
M  V30 829 H 80.8185 -0.434563 0.613726 0
M  V30 830 H 82.7895 -0.955995 2.82672 0
M  V30 831 C 81.5385 -2.63983 2.26292 0
M  V30 832 H 80.8615 -2.50185 3.11846 0
M  V30 833 H 82.3015 -3.3788 2.56151 0
M  V30 834 C 80.7605 -3.18866 1.08747 0
M  V30 835 O 81.2905 -4.00192 0.347727 0
M  V30 836 N 79.4965 -2.77217 0.871743 0
M  V30 837 H 79.0435 -2.1119 1.47501 0
M  V30 838 H 79.0015 -3.1428 0.0869905 0
M  V30 839 N 82.7736 -1.49793 -0.48987 0
M  V30 840 C 84.0196 -1.60078 -1.24511 0
M  V30 841 C 84.3526 -0.291608 -1.91998 0
M  V30 842 O 83.6276 0.705647 -1.81248 0
M  V30 843 C 83.9106 -2.76791 -2.30345 0
M  V30 844 C 83.7636 -4.17535 -1.67286 0
M  V30 845 C 85.0826 -2.89111 -3.31817 0
M  V30 846 H 82.2016 -0.582645 -0.451324 0
M  V30 847 H 84.8436 -1.82117 -0.541612 0
M  V30 848 H 82.9936 -2.5813 -2.90346 0
M  V30 849 H 84.6656 -4.4774 -1.11026 0
M  V30 850 H 82.9086 -4.22665 -0.976577 0
M  V30 851 H 83.5796 -4.95094 -2.44103 0
M  V30 852 H 86.0556 -3.06133 -2.81819 0
M  V30 853 H 84.9316 -3.72433 -4.03219 0
M  V30 854 H 85.1926 -1.9893 -3.94815 0
M  V30 855 N 84.2517 0.741722 -1.39055 0
M  V30 856 C 85.6627 1.31966 -1.32068 0
M  V30 857 C 86.0137 1.96192 0.0180797 0
M  V30 858 O 85.1387 1.95861 0.920196 0
M  V30 859 C 85.7337 2.39954 -2.39181 0
M  V30 860 C 84.2927 2.93438 -2.35735 0
M  V30 861 C 83.4397 1.66936 -2.21422 0
M  V30 862 H 86.3907 0.539721 -1.4924 0
M  V30 863 H 86.4117 3.20182 -2.05581 0
M  V30 864 H 85.9237 1.9318 -3.36605 0
M  V30 865 H 84.0247 3.4451 -1.41929 0
M  V30 866 H 84.1377 3.4701 -3.30335 0
M  V30 867 H 82.5017 1.91016 -1.68478 0
M  V30 868 H 83.2847 1.22224 -3.20806 0
M  V30 869 N 85.7298 1.2412 0.971189 0
M  V30 870 C 87.1408 1.07236 1.52831 0
M  V30 871 C 87.4918 -0.357352 1.92918 0
M  V30 872 O 86.6168 -1.24528 1.76979 0
M  V30 873 C 87.2118 1.94043 2.77728 0
M  V30 874 C 85.7708 1.81394 3.29808 0
M  V30 875 C 84.9178 1.89189 2.02738 0
M  V30 876 H 87.8688 1.37648 0.789864 0
M  V30 877 H 87.8898 1.47066 3.5093 0
M  V30 878 H 87.4018 2.98093 2.4852 0
M  V30 879 H 85.5028 0.801634 3.63874 0
M  V30 880 H 85.6158 2.65294 3.98944 0
M  V30 881 H 83.9798 1.32877 2.17292 0
M  V30 882 H 84.7628 2.94812 1.759 0
M  V30 883 N 87.2079 -1.17134 1.05439 0
M  V30 884 C 88.4849 -1.83411 0.679699 0
M  V30 885 C 88.8649 -1.9368 -0.839726 0
M  V30 886 O 88.2129 -1.47325 -1.74664 0
M  V30 887 C 88.4229 -3.20918 1.37159 0
M  V30 888 C 89.7709 -3.96796 1.51123 0
M  V30 889 O 90.7949 -3.30406 1.3308 0
M  V30 890 O 89.6539 -5.15778 1.80651 0
M  V30 891 H 86.7479 -0.79154 0.239569 0
M  V30 892 H 89.2939 -1.24411 1.15413 0
M  V30 893 H 88.0659 -3.08428 2.40807 0
M  V30 894 H 87.6889 -3.87587 0.886674 0
M  V30 895 N 88.686 -0.835752 -1.33615 0
M  V30 896 C 89.616 -0.281739 -2.31794 0
M  V30 897 C 90.597 0.608833 -1.58831 0
M  V30 898 O 91.782 0.533035 -1.86741 0
M  V30 899 C 88.912 0.546612 -3.42971 0
M  V30 900 C 87.866 -0.247904 -4.27281 0
M  V30 901 C 87.192 0.704001 -5.30045 0
M  V30 902 C 88.492 -1.46324 -5.01385 0
M  V30 903 H 90.186 -1.10206 -2.78379 0
M  V30 904 H 87.732 -0.531388 -1.33837 0
M  V30 905 H 89.685 0.944467 -4.1068 0
M  V30 906 H 88.409 1.40011 -2.95067 0
M  V30 907 H 87.068 -0.627281 -3.61194 0
M  V30 908 H 86.716 1.55381 -4.78399 0
M  V30 909 H 86.416 0.176524 -5.87335 0
M  V30 910 H 87.94 1.09944 -6.0062 0
M  V30 911 H 89.354 -1.13871 -5.61877 0
M  V30 912 H 87.751 -1.92728 -5.6831 0
M  V30 913 H 88.821 -2.23467 -4.30338 0
M  V30 914 N 90.1641 1.46063 -0.591896 0
M  V30 915 C 91.1271 2.28854 0.125973 0
M  V30 916 C 92.1271 1.38903 0.810107 0
M  V30 917 O 93.3171 1.61186 0.66066 0
M  V30 918 C 90.4491 3.19526 1.1881 0
M  V30 919 H 91.6421 2.93802 -0.601717 0
M  V30 920 H 89.1951 1.52325 -0.350254 0
M  V30 921 H 89.9301 2.59345 1.94707 0
M  V30 922 H 89.7151 3.85766 0.701936 0
M  V30 923 H 91.2051 3.81817 1.69132 0
M  V30 924 N 91.6422 0.330177 1.54103 0
M  V30 925 C 92.8912 -0.271336 1.99867 0
M  V30 926 C 93.2042 -1.52723 1.22209 0
M  V30 927 O 94.4102 -2.20515 1.58383 0
M  V30 928 C 92.8662 -0.534032 3.55916 0
M  V30 929 C 92.4742 0.705193 4.42415 0
M  V30 930 C 94.2182 -1.09514 4.1013 0
M  V30 931 C 92.1252 0.414035 5.89949 0
M  V30 932 H 91.0552 -0.105166 0.74663 0
M  V30 933 H 93.7062 0.443429 1.78062 0
M  V30 934 H 92.0882 -1.30915 3.73734 0
M  V30 935 H 93.2622 1.4804 4.36372 0
M  V30 936 H 91.5772 1.18698 3.99124 0
M  V30 937 H 94.1742 -1.3277 5.17954 0
M  V30 938 H 94.5172 -2.04656 3.62521 0
M  V30 939 H 95.0502 -0.381038 3.95971 0
M  V30 940 H 91.7892 1.33481 6.41766 0
M  V30 941 H 91.3092 -0.323336 5.98928 0
M  V30 942 H 92.9882 0.0263105 6.46995 0
M  V30 943 N 93.1203 -1.57491 0.0584922 0
M  V30 944 C 94.3603 -1.94851 -0.617458 0
M  V30 945 C 94.7243 -0.937165 -1.67575 0
M  V30 946 O 95.9253 -1.19795 -2.40629 0
M  V30 947 C 94.1963 -3.36955 -1.19147 0
M  V30 948 S 95.7553 -3.96277 -1.8844 0
M  V30 949 H 92.5733 -0.681539 -0.202547 0
M  V30 950 H 95.1753 -1.95073 0.129176 0
M  V30 951 H 93.8793 -4.08355 -0.409215 0
M  V30 952 H 93.4103 -3.40245 -1.97476 0
M  V30 953 H 95.4253 -3.82099 -3.16568 0
M  V30 954 N 94.5984 0.214957 -1.56127 0
M  V30 955 C 95.8384 0.945364 -1.81224 0
M  V30 956 C 96.2024 1.81265 -0.633005 0
M  V30 957 O 97.4034 2.57731 -0.763423 0
M  V30 958 C 95.6744 1.75665 -3.1125 0
M  V30 959 S 97.2334 2.54179 -3.57685 0
M  V30 960 H 94.0514 0.317443 -0.6362 0
M  V30 961 H 96.6534 0.210381 -1.94365 0
M  V30 962 H 95.3574 1.10977 -3.9511 0
M  V30 963 H 94.8884 2.53381 -3.00934 0
M  V30 964 H 96.9034 3.7792 -3.21545 0
M  V30 965 N 96.0765 1.50051 0.48192 0
M  V30 966 C 97.3235 1.60498 1.23477 0
M  V30 967 C 97.6515 0.300331 1.92167 0
M  V30 968 O 96.9065 -0.713094 1.82246 0
M  V30 969 C 97.2055 2.72717 2.30998 0
M  V30 970 C 96.8715 4.13572 1.79636 0
M  V30 971 C 95.5335 4.519 1.65348 0
M  V30 972 C 97.8855 5.01649 1.41412 0
M  V30 973 C 95.2135 5.76057 1.11244 0
M  V30 974 C 97.5655 6.26343 0.887538 0
M  V30 975 C 96.2295 6.63483 0.731207 0
M  V30 976 H 95.4995 0.587303 0.451836 0
M  V30 977 H 98.1465 1.83948 0.532468 0
M  V30 978 H 96.4515 2.43312 3.07094 0
M  V30 979 H 98.1485 2.78006 2.88988 0
M  V30 980 H 94.7385 3.83329 1.91721 0
M  V30 981 H 98.9225 4.72679 1.51289 0
M  V30 982 H 94.1785 6.03516 0.978686 0
M  V30 983 H 98.3525 6.93958 0.582654 0
M  V30 984 H 95.9795 7.59568 0.309806 0
M  V30 985 N 97.5546 -0.734337 1.39446 0
M  V30 986 C 98.8006 -1.49613 1.36908 0
M  V30 987 C 99.1336 -1.94169 -0.0347829 0
M  V30 988 O 98.4086 -1.66833 -0.999847 0
M  V30 989 C 98.6916 -2.73534 2.34203 0
M  V30 990 C 98.5446 -2.34993 3.83534 0
M  V30 991 C 99.8636 -3.75635 2.29317 0
M  V30 992 H 96.9826 -0.542714 0.498629 0
M  V30 993 H 99.6246 -0.839597 1.70443 0
M  V30 994 H 97.7746 -3.29553 2.05736 0
M  V30 995 H 99.4466 -1.84601 4.22753 0
M  V30 996 H 97.6896 -1.67213 4.00278 0
M  V30 997 H 98.3606 -3.23738 4.47099 0
M  V30 998 H 100.837 -3.29203 2.54489 0
M  V30 999 H 99.7126 -4.60008 2.99472 0
M  V30 1000 H 99.9736 -4.22603 1.29842 0
M  V30 1001 N 99.0327 -1.24633 -0.964593 0
M  V30 1002 C 99.9627 -1.06611 -2.07741 0
M  V30 1003 C 100.944 0.0218666 -1.70086 0
M  V30 1004 O 102.129 -0.145793 -1.93652 0
M  V30 1005 C 99.2587 -0.673444 -3.40708 0
M  V30 1006 C 98.2127 -1.71054 -3.92332 0
M  V30 1007 C 97.5387 -1.17285 -5.21678 0
M  V30 1008 C 98.8387 -3.10718 -4.19824 0
M  V30 1009 H 100.533 -1.99693 -2.23076 0
M  V30 1010 H 98.0787 -0.96152 -1.07195 0
M  V30 1011 H 100.032 -0.534345 -4.17998 0
M  V30 1012 H 98.7557 0.293073 -3.25282 0
M  V30 1013 H 97.4147 -1.83791 -3.17201 0
M  V30 1014 H 97.0627 -0.196847 -5.02615 0
M  V30 1015 H 96.7627 -1.86592 -5.57187 0
M  V30 1016 H 98.2867 -1.04593 -6.01575 0
M  V30 1017 H 99.7007 -3.01192 -4.87808 0
M  V30 1018 H 98.0977 -3.77406 -4.66567 0
M  V30 1019 H 99.1677 -3.58524 -3.26479 0
M  V30 1020 N 100.511 1.16574 -1.06058 0
M  V30 1021 C 101.421 2.2452 -0.680282 0
M  V30 1022 C 102.437 1.71348 0.302604 0
M  V30 1023 O 103.613 2.00822 0.152513 0
M  V30 1024 C 100.678 3.46629 -0.0700315 0
M  V30 1025 C 99.7388 4.14849 -1.10448 0
M  V30 1026 C 98.9718 5.31129 -0.523256 0
M  V30 1027 O 99.1948 5.66514 0.664709 0
M  V30 1028 O 98.1288 5.88526 -1.26179 0
M  V30 1029 H 101.955 2.59355 -1.58015 0
M  V30 1030 H 99.5398 1.24043 -0.832694 0
M  V30 1031 H 101.422 4.20543 0.268667 0
M  V30 1032 H 100.097 3.13573 0.803353 0
M  V30 1033 H 99.0038 3.42916 -1.49532 0
M  V30 1034 H 100.337 4.51954 -1.94931 0
M  V30 1035 N 101.989 0.842826 1.3317 0
M  V30 1036 C 102.921 0.236245 2.27979 0
M  V30 1037 C 103.934 -0.585282 1.51915 0
M  V30 1038 O 105.123 -0.411705 1.73687 0
M  V30 1039 C 102.223 -0.685717 3.3189 0
M  V30 1040 C 101.396 0.0973448 4.37292 0
M  V30 1041 C 100.455 -0.748565 5.20848 0
M  V30 1042 O 99.4809 -0.186339 5.68895 0
M  V30 1043 N 100.683 -2.06527 5.42519 0
M  V30 1044 H 103.448 1.05088 2.80672 0
M  V30 1045 H 101.009 0.701667 1.45905 0
M  V30 1046 H 103.001 -1.25669 3.84694 0
M  V30 1047 H 101.571 -1.40105 2.79445 0
M  V30 1048 H 100.791 0.849706 3.84933 0
M  V30 1049 H 102.079 0.635643 5.04814 0
M  V30 1050 H 101.477 -2.54554 5.05192 0
M  V30 1051 H 100.034 -2.58464 5.98364 0
M  V30 1052 N 103.467 -1.45747 0.599634 0
M  V30 1053 C 104.692 -2.07178 0.0960198 0
M  V30 1054 C 105.117 -1.44268 -1.207 0
M  V30 1055 O 104.475 -0.532503 -1.73303 0
M  V30 1056 C 104.523 -3.60579 -0.0385348 0
M  V30 1057 O 103.627 -3.97713 -1.0908 0
M  V30 1058 H 102.968 -0.660251 0.0704593 0
M  V30 1059 H 105.498 -1.87124 0.827385 0
M  V30 1060 H 105.508 -4.07298 -0.239304 0
M  V30 1061 H 104.183 -4.05756 0.912947 0
M  V30 1062 H 102.76 -3.62678 -0.867135 0
M  V30 1063 N 104.945 -0.338344 -1.53925 0
M  V30 1064 C 105.875 0.51328 -2.27789 0
M  V30 1065 C 106.856 1.107 -1.29149 0
M  V30 1066 O 108.041 1.12937 -1.57984 0
M  V30 1067 C 105.171 1.66697 -3.04679 0
M  V30 1068 C 104.125 1.20183 -4.1078 0
M  V30 1069 C 103.451 2.44363 -4.75595 0
M  V30 1070 C 104.751 0.30605 -5.21403 0
M  V30 1071 H 106.445 -0.102883 -2.99223 0
M  V30 1072 H 103.991 -0.0509219 -1.4391 0
M  V30 1073 H 105.944 2.26915 -3.55088 0
M  V30 1074 H 104.668 2.30995 -2.30887 0
M  V30 1075 H 103.327 0.622499 -3.61276 0
M  V30 1076 H 102.975 3.07057 -3.98403 0
M  V30 1077 H 102.675 2.13925 -5.47275 0
M  V30 1078 H 104.199 3.05317 -5.28786 0
M  V30 1079 H 105.613 0.814929 -5.67478 0
M  V30 1080 H 104.01 0.0937929 -6.00027 0
M  V30 1081 H 105.08 -0.65921 -4.80398 0
M  V30 1082 N 106.423 1.57458 -0.0668435 0
M  V30 1083 C 107.648 1.9804 0.616027 0
M  V30 1084 C 108.073 0.944771 1.62652 0
M  V30 1085 O 107.431 -0.0902094 1.81075 0
M  V30 1086 C 107.479 3.37665 1.26549 0
M  V30 1087 O 106.583 3.36701 2.38131 0
M  V30 1088 H 105.924 0.644719 0.158849 0
M  V30 1089 H 108.454 2.04121 -0.139891 0
M  V30 1090 H 108.464 3.7474 1.6135 0
M  V30 1091 H 107.139 4.12573 0.525016 0
M  V30 1092 H 105.716 3.1139 2.0516 0
M  V30 1093 N 107.901 -0.206675 1.56239 0
M  V30 1094 C 109.147 -0.930218 1.80208 0
M  V30 1095 C 109.48 -1.83387 0.638981 0
M  V30 1096 O 108.755 -1.91119 -0.361066 0
M  V30 1097 C 109.038 -1.75641 3.1436 0
M  V30 1098 C 108.891 -0.878257 4.41142 0
M  V30 1099 C 110.21 -2.73129 3.45092 0
M  V30 1100 H 107.329 -0.336742 0.655571 0
M  V30 1101 H 109.971 -0.198222 1.88963 0
M  V30 1102 H 108.121 -2.38048 3.07027 0
M  V30 1103 H 109.793 -0.269787 4.6051 0
M  V30 1104 H 108.036 -0.184385 4.33408 0
M  V30 1105 H 108.707 -1.49106 5.3148 0
M  V30 1106 H 111.183 -2.20856 3.52649 0
M  V30 1107 H 110.059 -3.28028 4.40101 0
M  V30 1108 H 110.32 -3.51606 2.68003 0
M  V30 1109 N 109.379 -1.50304 -0.473955 0
M  V30 1110 C 110.795 -1.37667 -0.807466 0
M  V30 1111 C 110.995 -0.430555 -1.96846 0
M  V30 1112 O 110.051 0.127874 -2.52176 0
M  V30 1113 C 111.364 -2.78974 -1.12223 0
M  V30 1114 C 112.912 -2.87868 -1.22885 0
M  V30 1115 C 113.387 -4.30003 -1.57676 0
M  V30 1116 N 114.878 -4.3294 -1.64673 0
M  V30 1117 C 115.613 -5.3991 -1.93091 0
M  V30 1118 N 115.109 -6.57092 -2.1955 0
M  V30 1119 N 116.902 -5.27351 -1.94569 0
M  V30 1120 H 109.053 -2.10394 0.291212 0
M  V30 1121 H 111.316 -0.945575 0.0677609 0
M  V30 1122 H 111.022 -3.50031 -0.342229 0
M  V30 1123 H 110.896 -3.16038 -2.05913 0
M  V30 1124 H 113.283 -2.17032 -1.99953 0
M  V30 1125 H 113.364 -2.54352 -0.271814 0
M  V30 1126 H 113.008 -5.01375 -0.81149 0
M  V30 1127 H 112.938 -4.61004 -2.54525 0
M  V30 1128 H 115.429 -3.48441 -1.46277 0
M  V30 1129 H 115.742 -7.34425 -2.405 0
M  V30 1130 H 114.087 -6.60272 -2.16948 0
M  V30 1131 H 117.278 -4.34801 -1.73394 0
M  V30 1132 H 117.451 -6.10805 -2.16381 0
M  V30 1133 N 110.857 0.726932 -1.39834 0
M  V30 1134 C 111.82 1.82269 -1.38962 0
M  V30 1135 C 112.82 1.58248 -0.285334 0
M  V30 1136 O 114.01 1.65499 -0.54366 0
M  V30 1137 C 111.142 3.20186 -1.17019 0
M  V30 1138 H 112.335 1.84443 -2.36476 0
M  V30 1139 H 109.888 0.931416 -1.25516 0
M  V30 1140 H 110.623 3.23669 -0.202204 0
M  V30 1141 H 110.408 3.3902 -1.96998 0
M  V30 1142 H 111.898 4.00235 -1.1917 0
M  V30 1143 N 112.336 1.25143 0.95797 0
M  V30 1144 C 113.266 1.07711 2.07173 0
M  V30 1145 C 114.247 -0.0128462 1.70095 0
M  V30 1146 O 115.432 0.156061 1.93572 0
M  V30 1147 C 112.562 0.691503 3.40346 0
M  V30 1148 C 111.516 1.73132 3.9142 0
M  V30 1149 C 110.842 1.20049 5.21049 0
M  V30 1150 C 112.142 3.1294 4.1817 0
M  V30 1151 H 113.836 2.00873 2.22014 0
M  V30 1152 H 111.382 0.967191 1.06684 0
M  V30 1153 H 113.335 0.556505 4.17709 0
M  V30 1154 H 112.059 -0.275819 3.25433 0
M  V30 1155 H 110.718 1.8547 3.16222 0
M  V30 1156 H 110.366 0.223499 5.02503 0
M  V30 1157 H 110.066 1.89545 5.56189 0
M  V30 1158 H 111.59 1.07782 6.01012 0
M  V30 1159 H 113.004 3.03775 4.86203 0
M  V30 1160 H 111.401 3.79875 4.64559 0
M  V30 1161 H 112.471 3.6025 3.24573 0
M  V30 1162 N 113.814 -1.1601 1.06675 0
M  V30 1163 C 114.746 -2.20115 0.638921 0
M  V30 1164 C 115.759 -1.59916 -0.305057 0
M  V30 1165 O 116.948 -1.78245 -0.0954446 0
M  V30 1166 C 114.048 -3.38798 -0.0830083 0
M  V30 1167 C 113.221 -4.2855 0.875426 0
M  V30 1168 C 112.28 -5.25849 0.192042 0
M  V30 1169 O 111.306 -5.63102 0.830921 0
M  V30 1170 N 112.508 -5.70648 -1.06493 0
M  V30 1171 H 115.273 -2.57439 1.53444 0
M  V30 1172 H 112.834 -1.31057 0.950557 0
M  V30 1173 H 114.826 -4.00936 -0.550685 0
M  V30 1174 H 113.396 -2.99947 -0.880386 0
M  V30 1175 H 112.616 -3.63617 1.52238 0
M  V30 1176 H 113.904 -4.85393 1.52548 0
M  V30 1177 H 113.302 -5.42482 -1.60405 0
M  V30 1178 H 111.859 -6.34859 -1.47641 0
M  V30 1179 N 115.292 -0.849877 -1.32721 0
M  V30 1180 C 116.202 -0.293791 -2.32753 0
M  V30 1181 C 117.218 0.585906 -1.63839 0
M  V30 1182 O 118.394 0.487413 -1.95413 0
M  V30 1183 C 115.459 0.512752 -3.42887 0
M  V30 1184 C 114.52 -0.39252 -4.27502 0
M  V30 1185 C 113.753 0.375625 -5.32377 0
M  V30 1186 O 113.976 1.60613 -5.4732 0
M  V30 1187 O 112.91 -0.256094 -6.01355 0
M  V30 1188 H 116.736 -1.12242 -2.82197 0
M  V30 1189 H 114.321 -0.612685 -1.36259 0
M  V30 1190 H 116.203 0.970704 -4.10067 0
M  V30 1191 H 114.878 1.31826 -2.95641 0
M  V30 1192 H 113.785 -0.898547 -3.63149 0
M  V30 1193 H 115.118 -1.16309 -4.7826 0
M  V30 1194 N 116.77 1.45427 -0.607355 0
M  V30 1195 C 117.703 2.27635 0.160482 0
M  V30 1196 C 118.681 1.37122 0.873857 0
M  V30 1197 O 119.865 1.66551 0.882775 0
M  V30 1198 C 116.992 3.15486 1.23231 0
M  V30 1199 C 116.038 4.21939 0.622097 0
M  V30 1200 S 116.871 5.32459 -0.569852 0
M  V30 1201 C 118.027 6.23879 0.502577 0
M  V30 1202 H 118.26 2.9241 -0.536983 0
M  V30 1203 H 115.793 1.49265 -0.394868 0
M  V30 1204 H 117.751 3.66659 1.84585 0
M  V30 1205 H 116.412 2.49977 1.90185 0
M  V30 1206 H 115.605 4.8333 1.42856 0
M  V30 1207 H 115.207 3.73906 0.0837063 0
M  V30 1208 H 117.499 6.63261 1.38171 0
M  V30 1209 H 118.442 7.0806 -0.0751759 0
M  V30 1210 H 118.85 5.58545 0.8178 0
M  V30 1211 N 118.248 0.346503 1.53744 0
M  V30 1212 C 119.178 -0.501193 2.28058 0
M  V30 1213 C 120.159 -1.10014 1.29734 0
M  V30 1214 O 121.344 -1.12097 1.58581 0
M  V30 1215 C 118.474 -1.65078 3.05559 0
M  V30 1216 C 117.428 -1.18003 4.11411 0
M  V30 1217 C 116.754 -2.41837 4.76884 0
M  V30 1218 C 118.054 -0.278394 5.21558 0
M  V30 1219 H 119.748 0.11875 2.99164 0
M  V30 1220 H 117.294 0.0585531 1.43881 0
M  V30 1221 H 119.247 -2.25028 3.56287 0
M  V30 1222 H 117.971 -2.29767 2.32109 0
M  V30 1223 H 116.63 -0.603331 3.61601 0
M  V30 1224 H 116.278 -3.0494 4.00026 0
M  V30 1225 H 115.978 -2.1102 5.48402 0
M  V30 1226 H 117.502 -3.02508 5.30397 0
M  V30 1227 H 118.916 -0.784823 5.67903 0
M  V30 1228 H 117.313 -0.0619707 6.00068 0
M  V30 1229 H 118.383 0.684677 4.80042 0
M  V30 1230 N 119.726 -1.57421 0.075193 0
M  V30 1231 C 120.689 -2.11791 -0.876203 0
M  V30 1232 C 121.689 -1.04268 -1.22412 0
M  V30 1233 O 122.879 -1.30242 -1.15684 0
M  V30 1234 C 120.011 -2.62207 -2.17854 0
M  V30 1235 H 121.204 -2.9716 -0.40444 0
M  V30 1236 H 118.757 -1.55333 -0.173557 0
M  V30 1237 H 119.492 -1.803 -2.6956 0
M  V30 1238 H 119.277 -3.40802 -1.93897 0
M  V30 1239 H 120.767 -3.04335 -2.85955 0
M  V30 1240 N 121.204 0.198386 -1.56346 0
M  V30 1241 C 122.152 1.26538 -1.95169 0
M  V30 1242 C 123.146 1.47295 -0.836685 0
M  V30 1243 O 124.352 1.48195 -1.02167 0
M  V30 1244 H 120.727 0.424744 -0.620561 0
M  V30 1245 H 122.698 0.910904 -2.84157 0
M  V30 1246 C 121.447 2.6035 -2.30463 0
M  V30 1247 H 120.77 2.45192 -3.15786 0
M  V30 1248 H 122.21 3.33762 -2.61494 0
M  V30 1249 C 120.669 3.17096 -1.13806 0
M  V30 1250 O 121.199 3.99588 -0.41135 0
M  V30 1251 N 119.405 2.75795 -0.915736 0
M  V30 1252 H 118.952 2.08816 -1.50843 0
M  V30 1253 H 118.91 3.14101 -0.136979 0
M  V30 1254 N 122.682 1.50554 0.465978 0
M  V30 1255 C 123.91 1.65563 1.24083 0
M  V30 1256 C 124.325 0.341051 1.85694 0
M  V30 1257 O 123.682 -0.677543 1.69457 0
M  V30 1258 C 123.733 2.75051 2.34583 0
M  V30 1259 O 123.454 4.01413 1.75497 0
M  V30 1260 C 124.955 3.01078 3.25372 0
M  V30 1261 H 122.175 0.55638 0.375077 0
M  V30 1262 H 124.719 1.96807 0.555624 0
M  V30 1263 H 122.874 2.46486 2.9887 0
M  V30 1264 H 123.288 4.62002 2.48303 0
M  V30 1265 H 124.762 3.81339 3.99105 0
M  V30 1266 H 125.239 2.12349 3.84453 0
M  V30 1267 H 125.845 3.31194 2.66816 0
M  V30 1268 N 124.16 -0.719506 1.40217 0
M  V30 1269 C 125.406 -1.48152 1.38488 0
M  V30 1270 C 125.739 -1.94195 -0.0141867 0
M  V30 1271 O 125.014 -1.67884 -0.982096 0
M  V30 1272 C 125.297 -2.71035 2.37091 0
M  V30 1273 C 125.15 -2.30912 3.86005 0
M  V30 1274 C 126.469 -3.73182 2.33288 0
M  V30 1275 H 123.588 -0.537395 0.504357 0
M  V30 1276 H 126.23 -0.821472 1.71324 0
M  V30 1277 H 124.38 -3.27352 2.0922 0
M  V30 1278 H 126.052 -1.80107 4.24687 0
M  V30 1279 H 124.295 -1.62958 4.02029 0
M  V30 1280 H 124.966 -3.18978 4.50508 0
M  V30 1281 H 127.442 -3.26485 2.57966 0
M  V30 1282 H 126.318 -4.56806 3.04334 0
M  V30 1283 H 126.579 -4.21202 1.34317 0
M  V30 1284 N 125.638 -1.25649 -0.95132 0
M  V30 1285 C 126.548 -1.08073 -2.08224 0
M  V30 1286 C 127.564 -0.0169666 -1.73992 0
M  V30 1287 O 128.74 -0.218593 -2.0021 0
M  V30 1288 C 125.805 -0.704922 -3.39458 0
M  V30 1289 C 124.866 -1.84699 -3.87537 0
M  V30 1290 C 124.099 -1.48902 -5.12508 0
M  V30 1291 O 124.322 -0.386156 -5.69091 0
M  V30 1292 O 123.256 -2.32033 -5.55378 0
M  V30 1293 H 127.082 -2.02924 -2.25954 0
M  V30 1294 H 124.667 -1.04618 -1.06656 0
M  V30 1295 H 126.549 -0.507609 -4.18332 0
M  V30 1296 H 125.224 0.214291 -3.2299 0
M  V30 1297 H 124.131 -2.09919 -3.09653 0
M  V30 1298 H 125.464 -2.74557 -4.08509 0
M  V30 1299 N 127.117 1.15442 -1.07289 0
M  V30 1300 C 128.08 2.18358 -0.696591 0
M  V30 1301 C 129.08 1.58637 0.262837 0
M  V30 1302 O 130.27 1.74145 0.0438809 0
M  V30 1303 C 127.402 3.4089 -0.0266151 0
M  V30 1304 H 128.595 2.53162 -1.60776 0
M  V30 1305 H 126.148 1.29893 -0.869342 0
M  V30 1306 H 126.883 3.11653 0.896822 0
M  V30 1307 H 126.668 3.85495 -0.716657 0
M  V30 1308 H 128.158 4.17009 0.222028 0
M  V30 1309 N 128.595 0.856903 1.32268 0
M  V30 1310 C 129.843 0.460474 1.96784 0
M  V30 1311 C 130.164 -0.987701 1.68135 0
M  V30 1312 O 129.434 -1.69058 0.989765 0
M  V30 1313 H 128.014 0.167289 0.728027 0
M  V30 1314 H 130.676 1.09383 1.61312 0
M  V30 1315 H 129.772 0.60739 3.06133 0
M  V30 1316 N 130.073 -1.45103 0.615059 0
M  V30 1317 C 131.319 -2.02483 0.113347 0
M  V30 1318 C 131.652 -1.48146 -1.25564 0
M  V30 1319 O 130.927 -0.659104 -1.82992 0
M  V30 1320 C 131.21 -3.60005 0.0825278 0
M  V30 1321 C 131.063 -4.2466 1.48271 0
M  V30 1322 C 132.382 -4.35972 -0.601401 0
M  V30 1323 H 129.501 -0.735764 0.0426632 0
M  V30 1324 H 132.143 -1.72868 0.788461 0
M  V30 1325 H 130.293 -3.85367 -0.492378 0
M  V30 1326 H 131.965 -4.10458 2.10527 0
M  V30 1327 H 130.208 -3.82772 2.04127 0
M  V30 1328 H 130.879 -5.336 1.41332 0
M  V30 1329 H 133.355 -4.15947 -0.112666 0
M  V30 1330 H 132.231 -5.45697 -0.592097 0
M  V30 1331 H 132.492 -4.09391 -1.66887 0
M  V30 1332 N 131.551 -0.354651 -1.53558 0
M  V30 1333 C 132.461 0.50515 -2.29097 0
M  V30 1334 C 133.477 1.10223 -1.34636 0
M  V30 1335 O 134.653 1.11553 -1.67684 0
M  V30 1336 C 131.718 1.63479 -3.05738 0
M  V30 1337 C 130.779 1.06636 -4.15845 0
M  V30 1338 C 130.012 2.14217 -4.88822 0
M  V30 1339 O 130.235 3.35137 -4.61562 0
M  V30 1340 O 129.169 1.77887 -5.75013 0
M  V30 1341 H 132.995 -0.109237 -3.03503 0
M  V30 1342 H 130.58 -0.119357 -1.48922 0
M  V30 1343 H 132.462 2.2918 -3.5363 0
M  V30 1344 H 131.137 2.23478 -2.34178 0
M  V30 1345 H 130.044 0.373565 -3.7223 0
M  V30 1346 H 131.377 0.511081 -4.89539 0
M  V30 1347 N 133.029 1.57378 -0.0835403 0
M  V30 1348 C 134.254 1.98682 0.594987 0
M  V30 1349 C 134.679 0.961969 1.61641 0
M  V30 1350 O 134.037 -0.0709989 1.81161 0
M  V30 1351 C 134.085 3.38988 1.2296 0
M  V30 1352 O 133.189 3.39208 2.34546 0
M  V30 1353 H 132.53 0.646368 0.152002 0
M  V30 1354 H 135.06 2.03961 -0.161533 0
M  V30 1355 H 135.07 3.76431 1.57366 0
M  V30 1356 H 133.745 4.13107 0.481228 0
M  V30 1357 H 132.322 3.13548 2.01846 0
M  V30 1358 N 134.507 -0.190092 1.56449 0
M  V30 1359 C 135.732 -0.929864 1.85387 0
M  V30 1360 C 136.157 -1.7585 0.667704 0
M  V30 1361 O 135.515 -1.77198 -0.383459 0
M  V30 1362 C 135.563 -1.79773 3.12593 0
M  V30 1363 O 134.667 -2.89713 2.93496 0
M  V30 1364 H 134.008 -0.261574 0.610307 0
M  V30 1365 H 136.538 -0.193896 2.03679 0
M  V30 1366 H 136.548 -2.20139 3.43515 0
M  V30 1367 H 135.223 -1.18892 3.98544 0
M  V30 1368 H 133.8 -2.53065 2.73884 0
M  V30 1369 N 135.985 -1.50799 -0.457987 0
M  V30 1370 C 136.917 -1.66786 -1.57211 0
M  V30 1371 C 137.93 -0.548962 -1.53265 0
M  V30 1372 O 139.119 -0.8226 -1.58416 0
M  V30 1373 C 136.219 -1.64834 -2.96113 0
M  V30 1374 C 135.392 -2.92971 -3.24787 0
M  V30 1375 C 134.451 -2.83485 -4.43309 0
M  V30 1376 O 133.477 -3.5744 -4.42973 0
M  V30 1377 N 134.679 -1.97929 -5.45714 0
M  V30 1378 H 137.444 -2.62889 -1.43909 0
M  V30 1379 H 135.005 -1.48427 -0.646617 0
M  V30 1380 H 136.997 -1.56084 -3.7339 0
M  V30 1381 H 135.567 -0.764118 -3.03117 0
M  V30 1382 H 134.787 -3.15749 -2.36 0
M  V30 1383 H 136.075 -3.77834 -3.40762 0
M  V30 1384 H 135.473 -1.37182 -5.48815 0
M  V30 1385 H 134.03 -1.95073 -6.21924 0
M  V30 1386 N 137.463 0.71206 -1.40597 0
M  V30 1387 C 138.711 1.46907 -1.38791 0
M  V30 1388 C 139.032 1.94998 0.00780391 0
M  V30 1389 O 138.302 1.70587 0.963174 0
M  V30 1390 H 136.882 0.545043 -0.51082 0
M  V30 1391 H 139.544 0.843882 -1.75683 0
M  V30 1392 H 138.64 2.34021 -2.06496 0
M  V30 1393 N 138.941 1.26152 0.944643 0
M  V30 1394 C 140.189 1.11271 1.6871 0
M  V30 1395 C 140.51 -0.345166 1.91921 0
M  V30 1396 O 139.78 -1.24387 1.51343 0
M  V30 1397 H 138.36 0.408783 0.625224 0
M  V30 1398 H 141.022 1.58427 1.1352 0
M  V30 1399 H 140.118 1.62879 2.66227 0
M  V30 1400 N 140.419 -1.14872 1.07899 0
M  V30 1401 C 141.667 -1.85422 0.803941 0
M  V30 1402 C 141.988 -1.83051 -0.67211 0
M  V30 1403 O 141.258 -1.27532 -1.48703 0
M  V30 1404 H 139.838 -0.686537 0.294408 0
M  V30 1405 H 142.5 -1.39226 1.3639 0
M  V30 1406 H 141.596 -2.90399 1.14346 0
M  V30 1407 N 141.898 -0.863906 -1.31812 0
M  V30 1408 C 142.848 -0.286898 -2.26188 0
M  V30 1409 C 143.832 0.572577 -1.50367 0
M  V30 1410 O 145.024 0.420447 -1.71934 0
M  V30 1411 C 142.153 0.515849 -3.39402 0
M  V30 1412 C 141.239 -0.356531 -4.22599 0
M  V30 1413 N 141.63 -1.44716 -4.84656 0
M  V30 1414 C 139.928 -0.147898 -4.45755 0
M  V30 1415 C 140.629 -1.98462 -5.46798 0
M  V30 1416 N 139.605 -1.28247 -5.28255 0
M  V30 1417 H 143.407 -1.12055 -2.717 0
M  V30 1418 H 140.921 -0.711012 -1.46008 0
M  V30 1419 H 142.918 0.945701 -4.06032 0
M  V30 1420 H 141.578 1.34718 -2.95434 0
M  V30 1421 H 142.589 -1.83008 -4.84488 0
M  V30 1422 H 139.266 0.647973 -4.12441 0
M  V30 1423 H 140.656 -2.89932 -6.06126 0
M  V30 1424 N 143.376 1.44774 -0.622745 0
M  V30 1425 C 144.792 1.56986 -0.287652 0
M  V30 1426 C 144.992 1.61167 1.20944 0
M  V30 1427 O 144.048 1.55015 1.99315 0
M  V30 1428 C 145.361 2.84551 -0.972188 0
M  V30 1429 C 146.909 2.9825 -0.949536 0
M  V30 1430 C 147.384 4.28605 -1.61437 0
M  V30 1431 N 148.875 4.35399 -1.58057 0
M  V30 1432 C 149.61 5.34964 -2.064 0
M  V30 1433 N 149.106 6.40981 -2.62897 0
M  V30 1434 N 150.899 5.26419 -1.97078 0
M  V30 1435 H 143.05 1.40304 -1.59463 0
M  V30 1436 H 145.313 0.671794 -0.668878 0
M  V30 1437 H 145.019 2.87417 -2.02693 0
M  V30 1438 H 144.893 3.73807 -0.504771 0
M  V30 1439 H 147.28 2.94941 0.0967067 0
M  V30 1440 H 147.361 2.10364 -1.45536 0
M  V30 1441 H 147.005 4.32672 -2.66002 0
M  V30 1442 H 146.935 5.15334 -1.08344 0
M  V30 1443 H 149.426 3.59397 -1.16801 0
M  V30 1444 H 149.739 7.13225 -2.97539 0
M  V30 1445 H 148.084 6.4169 -2.66943 0
M  V30 1446 H 151.275 4.42504 -1.52669 0
M  V30 1447 H 151.448 6.03861 -2.35066 0
M  V30 1448 N 144.854 0.36279 1.53368 0
M  V30 1449 C 146.082 -0.228613 2.05633 0
M  V30 1450 C 146.497 -1.42676 1.23649 0
M  V30 1451 O 145.854 -1.80394 0.27647 0
M  V30 1452 C 145.905 -0.624845 3.56059 0
M  V30 1453 O 145.626 0.525675 4.34935 0
M  V30 1454 C 147.127 -1.27493 4.24571 0
M  V30 1455 H 144.347 -0.0407183 0.669763 0
M  V30 1456 H 146.891 0.520352 1.97769 0
M  V30 1457 H 145.046 -1.32373 3.64083 0
M  V30 1458 H 145.46 0.205969 5.24095 0
M  V30 1459 H 146.934 -1.50277 5.31151 0
M  V30 1460 H 147.411 -2.23439 3.78116 0
M  V30 1461 H 148.017 -0.617558 4.20792 0
M  V30 1462 N 146.332 -1.57332 0.0918853 0
M  V30 1463 C 147.262 -2.16872 -0.865371 0
M  V30 1464 C 148.243 -1.10118 -1.29646 0
M  V30 1465 O 149.428 -1.38242 -1.36392 0
M  V30 1466 C 146.558 -2.74649 -2.12569 0
M  V30 1467 C 145.512 -3.86747 -1.83333 0
M  V30 1468 C 144.838 -4.31212 -3.16166 0
M  V30 1469 C 146.138 -5.10089 -1.1228 0
M  V30 1470 H 147.832 -2.97114 -0.369307 0
M  V30 1471 H 145.378 -1.42918 -0.176194 0
M  V30 1472 H 147.331 -3.14952 -2.7997 0
M  V30 1473 H 146.055 -1.91657 -2.64452 0
M  V30 1474 H 144.714 -3.46978 -1.18331 0
M  V30 1475 H 144.362 -3.45115 -3.6593 0
M  V30 1476 H 144.062 -5.06788 -2.97388 0
M  V30 1477 H 145.586 -4.74146 -3.84731 0
M  V30 1478 H 147 -5.47582 -1.69785 0
M  V30 1479 H 145.397 -5.91073 -1.03693 0
M  V30 1480 H 146.467 -4.84786 -0.105041 0
M  V30 1481 N 147.81 0.181792 -1.56548 0
M  V30 1482 C 148.74 1.22765 -1.98623 0
M  V30 1483 C 149.721 1.46747 -0.860189 0
M  V30 1484 O 150.906 1.58259 -1.12551 0
M  V30 1485 C 148.036 2.56894 -2.33715 0
M  V30 1486 C 146.99 2.475 -3.49182 0
M  V30 1487 C 146.316 3.86023 -3.69986 0
M  V30 1488 C 147.616 1.98866 -4.82959 0
M  V30 1489 H 149.31 0.877942 -2.86239 0
M  V30 1490 H 146.856 0.42088 -1.37712 0
M  V30 1491 H 148.809 3.30253 -2.61746 0
M  V30 1492 H 147.533 2.93632 -1.42997 0
M  V30 1493 H 146.192 1.76596 -3.21262 0
M  V30 1494 H 145.84 4.20136 -2.76576 0
M  V30 1495 H 145.54 3.80609 -4.47672 0
M  V30 1496 H 147.064 4.60984 -4.00407 0
M  V30 1497 H 148.478 2.61992 -5.09934 0
M  V30 1498 H 146.875 2.04424 -5.64208 0
M  V30 1499 H 147.945 0.942465 -4.75653 0
M  V30 1500 N 149.288 1.51039 0.449983 0
M  V30 1501 C 150.518 1.66627 1.22143 0
M  V30 1502 C 150.926 0.357776 1.85786 0
M  V30 1503 O 150.269 -0.672424 1.70951 0
M  V30 1504 C 150.331 2.71562 2.35573 0
M  V30 1505 C 149.995 4.14526 1.92399 0
M  V30 1506 C 150.992 4.99717 1.43453 0
M  V30 1507 C 148.677 4.60559 2.00475 0
M  V30 1508 C 150.671 6.28998 1.03155 0
M  V30 1509 C 148.358 5.8984 1.59788 0
M  V30 1510 C 149.356 6.73886 1.11208 0
M  V30 1511 O 149.044 8.0075 0.710935 0
M  V30 1512 H 148.776 0.562635 0.374724 0
M  V30 1513 H 151.33 1.98146 0.541036 0
M  V30 1514 H 149.56 2.3533 3.06849 0
M  V30 1515 H 151.249 2.76156 2.97478 0
M  V30 1516 H 152.015 4.65361 1.36618 0
M  V30 1517 H 147.894 3.95273 2.37235 0
M  V30 1518 H 151.438 6.9455 0.651663 0
M  V30 1519 H 147.335 6.23713 1.66289 0
M  V30 1520 H 148.103 8.142 0.837913 0
M  V30 1521 N 150.766 -0.704594 1.40972 0
M  V30 1522 C 152.014 -1.46169 1.39568 0
M  V30 1523 C 152.335 -1.95 0.00253745 0
M  V30 1524 O 151.605 -1.71095 -0.954114 0
M  V30 1525 H 150.185 -0.542326 0.513704 0
M  V30 1526 H 152.847 -0.834553 1.76128 0
M  V30 1527 H 151.943 -2.32922 2.07735 0
M  V30 1528 N 152.244 -1.26651 -0.937939 0
M  V30 1529 C 153.194 -1.05156 -2.02302 0
M  V30 1530 C 154.178 0.0171233 -1.60891 0
M  V30 1531 O 155.37 -0.200213 -1.75864 0
M  V30 1532 C 152.499 -0.689962 -3.36295 0
M  V30 1533 C 151.585 -1.79626 -3.84181 0
M  V30 1534 N 151.976 -3.03422 -4.04684 0
M  V30 1535 C 150.274 -1.6806 -4.13124 0
M  V30 1536 C 150.975 -3.75345 -4.444 0
M  V30 1537 N 149.951 -3.03051 -4.51288 0
M  V30 1538 H 153.753 -1.99117 -2.1617 0
M  V30 1539 H 151.267 -1.17216 -1.12402 0
M  V30 1540 H 153.264 -0.517112 -4.13681 0
M  V30 1541 H 151.924 0.242139 -3.23796 0
M  V30 1542 H 152.935 -3.39293 -3.91281 0
M  V30 1543 H 149.612 -0.818629 -4.09396 0
M  V30 1544 H 151.002 -4.81691 -4.68427 0
M  V30 1545 N 153.722 1.14298 -1.08507 0
M  V30 1546 C 154.685 2.17607 -0.719711 0
M  V30 1547 C 155.685 1.58907 0.245997 0
M  V30 1548 O 156.875 1.74181 0.0254081 0
M  V30 1549 C 154.007 3.40842 -0.0627695 0
M  V30 1550 H 155.2 2.51443 -1.63452 0
M  V30 1551 H 152.753 1.28963 -0.88307 0
M  V30 1552 H 153.488 3.12587 0.863716 0
M  V30 1553 H 153.273 3.84713 -0.757504 0
M  V30 1554 H 154.763 4.17221 0.177786 0
M  V30 1555 N 155.201 0.870884 1.31352 0
M  V30 1556 C 156.45 0.478408 1.95944 0
M  V30 1557 C 156.763 -0.974493 1.69597 0
M  V30 1558 O 157.969 -1.47316 2.28058 0
M  V30 1559 C 156.425 0.804609 3.50791 0
M  V30 1560 C 156.033 2.27433 3.85977 0
M  V30 1561 C 157.777 0.480648 4.2177 0
M  V30 1562 C 155.684 2.5429 5.33939 0
M  V30 1563 H 154.614 0.175175 0.733369 0
M  V30 1564 H 157.265 1.06391 1.4951 0
M  V30 1565 H 155.647 0.148347 3.95722 0
M  V30 1566 H 156.821 2.97373 3.52002 0
M  V30 1567 H 155.136 2.56442 3.28065 0
M  V30 1568 H 157.733 0.658519 5.30629 0
M  V30 1569 H 158.076 -0.578979 4.12254 0
M  V30 1570 H 158.609 1.09349 3.82476 0
M  V30 1571 H 155.348 3.58939 5.48491 0
M  V30 1572 H 154.868 1.88945 5.69263 0
M  V30 1573 H 156.547 2.39066 6.01212 0
M  V30 1574 N 156.679 -1.44442 0.630414 0
M  V30 1575 C 157.609 -2.33418 -0.0618083 0
M  V30 1576 C 158.59 -1.48165 -0.835541 0
M  V30 1577 O 159.775 -1.76886 -0.801564 0
M  V30 1578 C 156.905 -3.31222 -1.04449 0
M  V30 1579 C 155.859 -4.26288 -0.382436 0
M  V30 1580 C 155.185 -5.13954 -1.47497 0
M  V30 1581 C 156.485 -5.1744 0.710865 0
M  V30 1582 H 158.179 -2.91548 0.681184 0
M  V30 1583 H 155.725 -1.40191 0.329026 0
M  V30 1584 H 157.678 -3.92351 -1.53748 0
M  V30 1585 H 156.402 -2.71299 -1.81836 0
M  V30 1586 H 155.061 -3.6649 0.0899054 0
M  V30 1587 H 154.709 -4.50385 -2.2397 0
M  V30 1588 H 154.409 -5.7837 -1.03737 0
M  V30 1589 H 155.933 -5.77955 -1.96979 0
M  V30 1590 H 157.347 -5.72509 0.300996 0
M  V30 1591 H 155.744 -5.90455 1.07156 0
M  V30 1592 H 156.814 -4.58496 1.57829 0
M  V30 1593 N 158.157 -0.370918 -1.53173 0
M  V30 1594 C 159.087 0.464847 -2.28826 0
M  V30 1595 C 160.068 1.07936 -1.31468 0
M  V30 1596 O 161.253 1.0956 -1.60344 0
M  V30 1597 C 158.383 1.60196 -3.08147 0
M  V30 1598 C 157.337 1.11443 -4.13237 0
M  V30 1599 C 156.663 2.3422 -4.80672 0
M  V30 1600 C 157.963 0.195384 -5.21934 0
M  V30 1601 H 159.657 -0.166329 -2.98938 0
M  V30 1602 H 157.203 -0.0814359 -1.4377 0
M  V30 1603 H 159.156 2.19332 -3.59822 0
M  V30 1604 H 157.88 2.26045 -2.35735 0
M  V30 1605 H 156.539 0.545727 -3.62515 0
M  V30 1606 H 156.187 2.98537 -4.04827 0
M  V30 1607 H 155.887 2.02269 -5.51689 0
M  V30 1608 H 157.411 2.94032 -5.35143 0
M  V30 1609 H 158.825 0.694375 -5.69079 0
M  V30 1610 H 157.222 -0.0335027 -6.00091 0
M  V30 1611 H 158.292 -0.760961 -4.78892 0
M  V30 1612 N 159.635 1.57281 -0.100228 0
M  V30 1613 C 161.051 1.57527 0.256416 0
M  V30 1614 C 161.251 1.11173 1.68056 0
M  V30 1615 O 160.307 0.79053 2.39806 0
M  V30 1616 C 161.62 3.00673 0.0401747 0
M  V30 1617 C 163.168 3.12815 0.107528 0
M  V30 1618 C 163.643 4.57929 -0.0807834 0
M  V30 1619 N 165.134 4.63193 -0.0261207 0
M  V30 1620 C 165.869 5.73212 -0.146999 0
M  V30 1621 N 165.365 6.92047 -0.322999 0
M  V30 1622 N 167.158 5.62031 -0.0879044 0
M  V30 1623 H 159.309 1.85718 -1.03065 0
M  V30 1624 H 161.572 0.857446 -0.404339 0
M  V30 1625 H 161.278 3.38804 -0.943649 0
M  V30 1626 H 161.152 3.69042 0.780262 0
M  V30 1627 H 163.539 2.74554 1.08186 0
M  V30 1628 H 163.62 2.47028 -0.664134 0
M  V30 1629 H 163.264 4.96886 -1.05201 0
M  V30 1630 H 163.194 5.21783 0.710635 0
M  V30 1631 H 165.685 3.77748 0.107161 0
M  V30 1632 H 165.998 7.7173 -0.406608 0
M  V30 1633 H 164.343 6.94074 -0.358733 0
M  V30 1634 H 167.534 4.68075 0.048498 0
M  V30 1635 H 167.707 6.47734 -0.185557 0
M  V30 1636 N 161.113 -0.173488 1.56642 0
M  V30 1637 C 162.063 -1.21941 1.92651 0
M  V30 1638 C 163.047 -1.39912 0.794577 0
M  V30 1639 O 164.239 -1.41919 1.05773 0
M  V30 1640 C 161.368 -2.55935 2.28806 0
M  V30 1641 C 160.454 -2.41667 3.48508 0
M  V30 1642 N 160.845 -1.9711 4.65813 0
M  V30 1643 C 159.143 -2.72499 3.53072 0
M  V30 1644 C 159.844 -1.95253 5.47952 0
M  V30 1645 N 158.82 -2.37575 4.88937 0
M  V30 1646 H 162.622 -0.866581 2.80834 0
M  V30 1647 H 160.136 -0.381776 1.57849 0
M  V30 1648 H 162.133 -3.31511 2.52797 0
M  V30 1649 H 160.793 -2.92022 1.41961 0
M  V30 1650 H 161.804 -1.67481 4.90072 0
M  V30 1651 H 158.481 -3.12639 2.767 0
M  V30 1652 H 159.871 -1.6252 6.51948 0
M  V30 1653 N 162.591 -1.51276 -0.441967 0
M  V30 1654 C 163.554 -1.7167 -1.51862 0
M  V30 1655 C 164.554 -0.586793 -1.49711 0
M  V30 1656 O 165.744 -0.854276 -1.51815 0
M  V30 1657 C 162.876 -1.76889 -2.91416 0
M  V30 1658 H 164.069 -2.67754 -1.35084 0
M  V30 1659 H 161.622 -1.41196 -0.670333 0
M  V30 1660 H 162.357 -0.826026 -3.13604 0
M  V30 1661 H 162.142 -2.59001 -2.94382 0
M  V30 1662 H 163.632 -1.94522 -3.69528 0
M  V30 1663 N 164.069 0.697108 -1.41344 0
M  V30 1664 C 165.019 1.80313 -1.39539 0
M  V30 1665 C 166.003 1.58618 -0.270001 0
M  V30 1666 O 167.195 1.69477 -0.510551 0
M  V30 1667 C 164.324 3.18606 -1.27848 0
M  V30 1668 C 163.41 3.46001 -2.45244 0
M  V30 1669 N 163.801 3.44103 -3.70711 0
M  V30 1670 C 162.099 3.76542 -2.39023 0
M  V30 1671 C 162.8 3.7036 -4.48563 0
M  V30 1672 N 161.776 3.90027 -3.78655 0
M  V30 1673 H 165.578 1.77207 -2.34468 0
M  V30 1674 H 163.092 0.897031 -1.35378 0
M  V30 1675 H 165.089 3.97833 -1.24637 0
M  V30 1676 H 163.749 3.22925 -0.339032 0
M  V30 1677 H 164.76 3.2452 -4.03618 0
M  V30 1678 H 161.437 3.88241 -1.53542 0
M  V30 1679 H 162.827 3.75042 -5.57488 0
M  V30 1680 N 165.547 1.27147 0.931209 0
M  V30 1681 C 166.772 1.16191 1.71797 0
M  V30 1682 C 167.197 -0.278004 1.86034 0
M  V30 1683 O 166.555 -1.20137 1.35782 0
M  V30 1684 C 166.603 1.84673 3.09723 0
M  V30 1685 O 165.707 1.14231 3.96264 0
M  V30 1686 H 165.048 0.404303 0.526721 0
M  V30 1687 H 167.578 1.68152 1.1656 0
M  V30 1688 H 167.588 1.91893 3.60057 0
M  V30 1689 H 166.263 2.89421 2.98677 0
M  V30 1690 H 164.84 1.15056 3.54706 0
M  V30 1691 N 167.025 -1.13721 1.09112 0
M  V30 1692 C 168.441 -1.36914 0.820174 0
M  V30 1693 C 168.641 -1.93356 -0.567079 0
M  V30 1694 O 167.697 -2.15093 -1.32255 0
M  V30 1695 C 169.01 -2.3235 1.90877 0
M  V30 1696 C 170.558 -2.45973 1.93562 0
M  V30 1697 C 171.033 -3.44714 3.01556 0
M  V30 1698 N 172.524 -3.52263 3.00775 0
M  V30 1699 C 173.259 -4.28536 3.80978 0
M  V30 1700 N 172.755 -5.07991 4.71081 0
M  V30 1701 N 174.548 -4.23804 3.69251 0
M  V30 1702 H 166.699 -0.754348 1.98553 0
M  V30 1703 H 168.962 -0.3944 0.862063 0
M  V30 1704 H 168.668 -1.98027 2.90651 0
M  V30 1705 H 168.542 -3.32332 1.78424 0
M  V30 1706 H 170.929 -2.79584 0.944286 0
M  V30 1707 H 171.01 -1.45926 2.10093 0
M  V30 1708 H 170.654 -3.11835 4.00901 0
M  V30 1709 H 170.584 -4.44558 2.82269 0
M  V30 1710 H 173.075 -2.95567 2.35475 0
M  V30 1711 H 173.388 -5.63487 5.28869 0
M  V30 1712 H 171.733 -5.07235 4.75119 0
M  V30 1713 H 174.924 -3.60806 2.98222 0
M  V30 1714 H 175.097 -4.82995 4.31995 0
M  V30 1715 N 168.503 -0.877838 -1.30888 0
M  V30 1716 C 169.436 -0.283995 -2.26426 0
M  V30 1717 C 170.414 0.591361 -1.51465 0
M  V30 1718 O 171.598 0.54304 -1.80509 0
M  V30 1719 C 168.725 0.597129 -3.33395 0
M  V30 1720 C 167.771 -0.207937 -4.25993 0
M  V30 1721 S 168.604 -1.59158 -5.11301 0
M  V30 1722 C 169.76 -0.716791 -6.21782 0
M  V30 1723 H 169.993 -1.09383 -2.76446 0
M  V30 1724 H 167.526 -0.676828 -1.38775 0
M  V30 1725 H 169.484 1.09978 -3.95493 0
M  V30 1726 H 168.145 1.38099 -2.82113 0
M  V30 1727 H 167.338 0.464163 -5.01858 0
M  V30 1728 H 166.94 -0.642963 -3.68432 0
M  V30 1729 H 169.232 0.0692833 -6.77465 0
M  V30 1730 H 170.175 -1.44682 -6.93161 0
M  V30 1731 H 170.583 -0.280855 -5.63801 0
M  V30 1732 N 169.982 1.44106 -0.638065 0
M  V30 1733 C 171.212 2.06037 -0.152394 0
M  V30 1734 C 171.62 1.47808 1.18108 0
M  V30 1735 O 170.963 0.598092 1.73691 0
M  V30 1736 C 171.025 3.59488 0.0293714 0
M  V30 1737 C 170.689 4.4022 -1.22702 0
M  V30 1738 C 171.686 4.73256 -2.15232 0
M  V30 1739 C 169.371 4.8048 -1.46437 0
M  V30 1740 C 171.365 5.45444 -3.29802 0
M  V30 1741 C 169.052 5.52417 -2.61303 0
M  V30 1742 C 170.05 5.84819 -3.52811 0
M  V30 1743 O 169.738 6.55289 -4.65673 0
M  V30 1744 H 169.47 0.671233 -0.0801401 0
M  V30 1745 H 172.024 1.85851 -0.874563 0
M  V30 1746 H 170.254 3.78191 0.806758 0
M  V30 1747 H 171.943 4.03164 0.470475 0
M  V30 1748 H 172.709 4.42684 -1.98131 0
M  V30 1749 H 168.588 4.54676 -0.760977 0
M  V30 1750 H 172.132 5.70653 -4.01249 0
M  V30 1751 H 168.029 5.82404 -2.78344 0
M  V30 1752 H 168.797 6.73762 -4.64744 0
M  V30 1753 N 171.46 0.379036 1.52974 0
M  V30 1754 C 172.39 -0.452706 2.29069 0
M  V30 1755 C 173.371 -1.07237 1.32039 0
M  V30 1756 O 174.556 -1.08708 1.60923 0
M  V30 1757 C 171.686 -1.5856 3.08992 0
M  V30 1758 C 170.64 -1.0925 4.13822 0
M  V30 1759 C 169.966 -2.31668 4.81907 0
M  V30 1760 C 171.266 -0.167702 5.22031 0
M  V30 1761 H 172.96 0.182181 2.98845 0
M  V30 1762 H 170.506 0.0890592 1.43724 0
M  V30 1763 H 172.459 -2.1742 3.6098 0
M  V30 1764 H 171.183 -2.24792 2.36931 0
M  V30 1765 H 169.842 -0.526494 3.628 0
M  V30 1766 H 169.49 -2.96386 4.06404 0
M  V30 1767 H 169.19 -1.9934 5.52754 0
M  V30 1768 H 170.714 -2.91189 5.36695 0
M  V30 1769 H 172.128 -0.664186 5.6944 0
M  V30 1770 H 170.525 0.0653265 6.00064 0
M  V30 1771 H 171.595 0.786347 4.78482 0
M  V30 1772 N 172.938 -1.57226 0.108567 0
M  V30 1773 C 174.163 -1.99604 -0.563303 0
M  V30 1774 C 174.588 -0.987563 -1.6009 0
M  V30 1775 O 173.946 0.0421687 -1.81251 0
M  V30 1776 C 173.994 -3.40902 -1.17552 0
M  V30 1777 O 173.098 -3.42896 -2.2912 0
M  V30 1778 H 172.439 -0.648704 -0.1417 0
M  V30 1779 H 174.969 -2.03679 0.193961 0
M  V30 1780 H 174.979 -3.78886 -1.51357 0
M  V30 1781 H 173.654 -4.1382 -0.415445 0
M  V30 1782 H 172.231 -3.1672 -1.96832 0
M  V30 1783 N 174.416 0.165178 -1.56732 0
M  V30 1784 C 175.656 0.887231 -1.8414 0
M  V30 1785 C 176.02 1.79159 -0.690353 0
M  V30 1786 O 177.221 2.55172 -0.845032 0
M  V30 1787 C 175.492 1.65674 -3.16681 0
M  V30 1788 S 177.051 2.42671 -3.6559 0
M  V30 1789 H 173.869 0.297042 -0.645978 0
M  V30 1790 H 176.471 0.148439 -1.94936 0
M  V30 1791 H 175.175 0.983507 -3.98441 0
M  V30 1792 H 174.706 2.43679 -3.08843 0
M  V30 1793 H 176.721 3.67499 -3.33406 0
M  V30 1794 N 175.894 1.51508 0.433938 0
M  V30 1795 C 176.824 1.76016 1.53429 0
M  V30 1796 C 177.805 0.610112 1.58782 0
M  V30 1797 O 178.99 0.853177 1.74455 0
M  V30 1798 C 176.12 1.88831 2.9148 0
M  V30 1799 C 175.074 3.04288 3.00987 0
M  V30 1800 C 174.4 3.0229 4.4105 0
M  V30 1801 C 175.7 4.44193 2.74754 0
M  V30 1802 H 177.394 2.68152 1.33171 0
M  V30 1803 H 174.94 1.29035 0.639214 0
M  V30 1804 H 176.893 2.04559 3.6842 0
M  V30 1805 H 175.617 0.933455 3.12976 0
M  V30 1806 H 174.276 2.8827 2.26486 0
M  V30 1807 H 173.924 2.04576 4.59519 0
M  V30 1808 H 173.624 3.79822 4.4834 0
M  V30 1809 H 175.148 3.20116 5.1996 0
M  V30 1810 H 176.562 4.60544 3.41426 0
M  V30 1811 H 174.959 5.23457 2.9345 0
M  V30 1812 H 176.029 4.53996 1.70339 0
M  V30 1813 N 177.372 -0.689602 1.41712 0
M  V30 1814 C 178.6 -1.47827 1.44758 0
M  V30 1815 C 179.015 -1.88721 0.0545703 0
M  V30 1816 O 178.372 -1.57176 -0.927463 0
M  V30 1817 C 178.423 -2.73698 2.3616 0
M  V30 1818 O 178.144 -2.34524 3.7004 0
M  V30 1819 C 179.645 -3.67389 2.48072 0
M  V30 1820 H 176.865 -0.455357 0.49284 0
M  V30 1821 H 179.409 -0.848574 1.86063 0
M  V30 1822 H 177.564 -3.32891 1.98148 0
M  V30 1823 H 177.978 -3.15701 4.18847 0
M  V30 1824 H 179.452 -4.52475 3.16181 0
M  V30 1825 H 179.929 -4.12284 1.51388 0
M  V30 1826 H 180.535 -3.14097 2.86746 0
M  V30 1827 N 178.85 -1.27639 -0.924453 0
M  V30 1828 C 180.078 -1.16989 -1.70649 0
M  V30 1829 C 180.493 0.272869 -1.86818 0
M  V30 1830 O 179.85 1.18549 -1.38753 0
M  V30 1831 C 179.901 -1.85229 -3.10439 0
M  V30 1832 O 179.622 -3.23868 -2.95028 0
M  V30 1833 C 181.123 -1.80746 -4.04779 0
M  V30 1834 H 178.343 -0.406595 -0.53378 0
M  V30 1835 H 180.887 -1.68569 -1.15778 0
M  V30 1836 H 179.042 -1.37545 -3.6216 0
M  V30 1837 H 179.456 -3.57889 -3.83426 0
M  V30 1838 H 180.93 -2.33101 -5.00368 0
M  V30 1839 H 181.407 -0.777499 -4.32263 0
M  V30 1840 H 182.013 -2.28059 -3.58984 0
M  V30 1841 N 180.328 1.1314 -1.09713 0
M  V30 1842 C 181.553 1.88862 -0.857081 0
M  V30 1843 C 181.978 1.78729 0.586304 0
M  V30 1844 O 181.336 1.13692 1.41222 0
M  V30 1845 C 181.384 3.36325 -1.30069 0
M  V30 1846 O 180.488 4.09815 -0.461007 0
M  V30 1847 H 179.829 0.587108 -0.310162 0
M  V30 1848 H 182.359 1.43129 -1.46203 0
M  V30 1849 H 182.369 3.87157 -1.28738 0
M  V30 1850 H 181.044 3.43017 -2.35185 0
M  V30 1851 H 179.621 3.68986 -0.538888 0
M  V30 1852 N 181.806 0.884767 1.30421 0
M  V30 1853 C 183.222 0.57874 1.48737 0
M  V30 1854 C 183.422 -0.883567 1.81095 0
M  V30 1855 O 182.478 -1.6648 1.89844 0
M  V30 1856 C 183.791 1.49171 2.61091 0
M  V30 1857 C 185.339 1.49532 2.74971 0
M  V30 1858 C 185.814 2.39421 3.90438 0
M  V30 1859 N 187.305 2.37383 3.97748 0
M  V30 1860 C 188.04 3.03647 4.86401 0
M  V30 1861 N 187.536 3.79136 5.79852 0
M  V30 1862 N 189.329 2.9288 4.79768 0
M  V30 1863 H 181.48 1.83075 1.0769 0
M  V30 1864 H 183.743 0.783637 0.533495 0
M  V30 1865 H 183.449 2.53291 2.44001 0
M  V30 1866 H 183.323 1.20113 3.57565 0
M  V30 1867 H 185.71 0.46163 2.91467 0
M  V30 1868 H 185.791 1.8262 1.79119 0
M  V30 1869 H 185.435 3.42874 3.74699 0
M  V30 1870 H 185.365 2.03649 4.85628 0
M  V30 1871 H 187.856 1.82525 3.30897 0
M  V30 1872 H 188.169 4.26789 6.4426 0
M  V30 1873 H 186.514 3.83243 5.79784 0
M  V30 1874 H 189.705 2.33433 4.05742 0
M  V30 1875 H 189.878 3.448 5.4865 0
M  V30 1876 N 183.284 -1.43765 0.645699 0
M  V30 1877 C 184.509 -2.06767 0.161883 0
M  V30 1878 C 184.934 -1.48034 -1.16049 0
M  V30 1879 O 184.292 -0.587369 -1.71522 0
M  V30 1880 C 184.34 -3.60519 0.0762003 0
M  V30 1881 O 183.444 -4.00982 -0.963721 0
M  V30 1882 H 182.785 -0.657675 0.091429 0
M  V30 1883 H 185.315 -1.84397 0.886499 0
M  V30 1884 H 185.325 -4.07853 -0.109604 0
M  V30 1885 H 184 -4.02646 1.04157 0
M  V30 1886 H 182.577 -3.65253 -0.751312 0
M  V30 1887 N 184.763 -0.387143 -1.52771 0
M  V30 1888 C 185.696 0.493123 -2.22808 0
M  V30 1889 C 186.674 1.0658 -1.22798 0
M  V30 1890 O 187.858 1.11785 -1.51777 0
M  V30 1891 C 184.985 1.68238 -2.93962 0
M  V30 1892 C 184.031 1.23515 -4.08223 0
M  V30 1893 S 184.864 0.21848 -5.35054 0
M  V30 1894 C 186.02 1.41357 -6.09729 0
M  V30 1895 H 186.253 -0.101625 -2.97126 0
M  V30 1896 H 183.786 -0.171323 -1.53447 0
M  V30 1897 H 185.744 2.36443 -3.35567 0
M  V30 1898 H 184.405 2.24842 -2.19328 0
M  V30 1899 H 183.598 2.12304 -4.57103 0
M  V30 1900 H 183.2 0.632044 -3.68621 0
M  V30 1901 H 185.492 2.34101 -6.3577 0
M  V30 1902 H 186.435 0.965736 -7.01484 0
M  V30 1903 H 186.843 1.6294 -5.40473 0
M  V30 1904 N 186.241 1.57166 -0.116904 0
M  V30 1905 C 187.469 1.99473 0.549383 0
M  V30 1906 C 187.884 0.996541 1.60357 0
M  V30 1907 O 187.241 -0.0108731 1.82497 0
M  V30 1908 C 187.292 3.41788 1.17741 0
M  V30 1909 O 187.013 4.37788 0.165362 0
M  V30 1910 C 188.514 3.99216 1.92722 0
M  V30 1911 H 185.734 0.655009 0.145616 0
M  V30 1912 H 188.278 2.03494 -0.202625 0
M  V30 1913 H 186.433 3.38713 1.88021 0
M  V30 1914 H 186.847 5.20806 0.621403 0
M  V30 1915 H 188.321 5.00882 2.31995 0
M  V30 1916 H 188.798 3.3824 2.80161 0
M  V30 1917 H 189.404 4.0583 1.27209 0
M  V30 1918 N 187.719 -0.156864 1.56817 0
M  V30 1919 C 188.996 -0.899244 1.73704 0
M  V30 1920 C 189.376 -1.99771 0.682254 0
M  V30 1921 O 188.724 -2.26515 -0.300522 0
M  V30 1922 C 188.934 -1.45075 3.17418 0
M  V30 1923 C 190.282 -1.91802 3.7881 0
M  V30 1924 O 191.306 -1.54838 3.20786 0
M  V30 1925 O 190.165 -2.5994 4.80722 0
M  V30 1926 H 187.259 -0.424267 0.709878 0
M  V30 1927 H 189.805 -0.143561 1.69092 0
M  V30 1928 H 188.577 -0.660846 3.85679 0
M  V30 1929 H 188.2 -2.27021 3.26416 0
M  V30 1930 N 189.197 -1.51736 -0.425897 0
M  V30 1931 C 190.144 -1.73875 -1.51776 0
M  V30 1932 C 191.114 -0.580702 -1.55618 0
M  V30 1933 O 192.299 -0.81641 -1.72451 0
M  V30 1934 C 189.439 -1.88012 -2.89388 0
M  V30 1935 C 188.552 -3.15606 -2.94986 0
M  V30 1936 C 187.687 -3.20271 -4.23793 0
M  V30 1937 C 186.726 -4.42134 -4.23302 0
M  V30 1938 N 185.863 -4.44284 -5.43651 0
M  V30 1939 H 190.703 -2.67071 -1.32201 0
M  V30 1940 H 188.24 -1.32351 -0.642008 0
M  V30 1941 H 190.198 -1.9419 -3.69251 0
M  V30 1942 H 188.828 -0.98213 -3.07496 0
M  V30 1943 H 187.88 -3.18681 -2.07717 0
M  V30 1944 H 189.192 -4.05486 -2.90486 0
M  V30 1945 H 188.346 -3.25428 -5.12036 0
M  V30 1946 H 187.085 -2.28299 -4.30965 0
M  V30 1947 H 186.09 -4.3714 -3.3345 0
M  V30 1948 H 187.315 -5.35382 -4.17783 0
M  V30 1949 H 185.261 -3.55188 -5.51523 0
M  V30 1950 H 185.178 -5.27988 -5.41078 0
M  V30 1951 H 186.446 -4.53649 -6.33895 0
M  V30 1952 N 190.675 0.682077 -1.42076 0
M  V30 1953 C 191.605 1.80796 -1.47767 0
M  V30 1954 C 192.586 1.6677 -0.334954 0
M  V30 1955 O 193.771 1.863 -0.548264 0
M  V30 1956 C 190.901 3.19038 -1.37229 0
M  V30 1957 C 189.855 3.47789 -2.49453 0
M  V30 1958 C 189.181 4.8553 -2.23975 0
M  V30 1959 C 190.481 3.45411 -3.91776 0
M  V30 1960 H 192.175 1.7629 -2.41997 0
M  V30 1961 H 189.721 0.846721 -1.16476 0
M  V30 1962 H 191.674 3.97528 -1.39821 0
M  V30 1963 H 190.398 3.24204 -0.394907 0
M  V30 1964 H 189.057 2.71657 -2.46166 0
M  V30 1965 H 188.705 4.87337 -1.24547 0
M  V30 1966 H 188.405 5.0573 -2.99184 0
M  V30 1967 H 189.929 5.66312 -2.28304 0
M  V30 1968 H 191.343 4.13882 -3.96705 0
M  V30 1969 H 189.74 3.77145 -4.66778 0
M  V30 1970 H 190.81 2.44122 -4.18966 0
M  V30 1971 N 192.153 1.28127 0.917671 0
M  V30 1972 C 193.116 1.11744 2.00115 0
M  V30 1973 C 194.116 0.0583052 1.60694 0
M  V30 1974 O 195.306 0.303755 1.71531 0
M  V30 1975 C 192.438 0.704862 3.33533 0
M  V30 1976 H 193.631 2.07966 2.16079 0
M  V30 1977 H 191.184 1.11058 1.09981 0
M  V30 1978 H 191.919 -0.258299 3.2327 0
M  V30 1979 H 191.704 1.4699 3.63505 0
M  V30 1980 H 193.194 0.612768 4.1308 0
M  V30 1981 N 193.631 -1.12557 1.10312 0
M  V30 1982 C 194.878 -1.84038 0.844759 0
M  V30 1983 C 195.206 -1.84026 -0.629668 0
M  V30 1984 O 194.461 -1.28026 -1.48013 0
M  V30 1985 C 194.76 -3.31462 1.33669 0
M  V30 1986 C 194.426 -3.51647 2.82232 0
M  V30 1987 C 193.088 -3.56864 3.22802 0
M  V30 1988 C 195.44 -3.58867 3.77974 0
M  V30 1989 C 192.768 -3.66844 4.57867 0
M  V30 1990 C 195.12 -3.70375 5.1284 0
M  V30 1991 C 193.784 -3.73848 5.52986 0
M  V30 1992 H 193.054 -0.673444 0.309119 0
M  V30 1993 H 195.701 -1.32824 1.37949 0
M  V30 1994 H 194.006 -3.85091 0.721949 0
M  V30 1995 H 195.703 -3.85236 1.11329 0
M  V30 1996 H 192.293 -3.48249 2.49842 0
M  V30 1997 H 196.477 -3.54107 3.47738 0
M  V30 1998 H 191.733 -3.67804 4.88396 0
M  V30 1999 H 195.907 -3.74904 5.86873 0
M  V30 2000 H 193.534 -3.81333 6.57639 0
M  V30 2001 N 195.109 -0.891671 -1.2995 0
M  V30 2002 C 196.386 -0.433307 -1.9074 0
M  V30 2003 C 196.766 1.08646 -1.80995 0
M  V30 2004 O 196.114 1.92476 -1.23147 0
M  V30 2005 C 196.324 -0.938895 -3.36134 0
M  V30 2006 C 197.672 -0.977829 -4.13187 0
M  V30 2007 O 198.696 -0.886015 -3.45005 0
M  V30 2008 O 197.555 -1.11453 -5.35015 0
M  V30 2009 H 194.649 -0.133699 -0.816121 0
M  V30 2010 H 197.195 -0.981011 -1.38471 0
M  V30 2011 H 195.967 -1.98281 -3.37343 0
M  V30 2012 H 195.59 -0.37074 -3.95868 0
M  V30 2013 N 196.587 1.43421 -0.653314 0
M  V30 2014 C 197.833 2.02111 -0.166992 0
M  V30 2015 C 198.166 1.51423 1.21592 0
M  V30 2016 O 197.441 0.707389 1.8118 0
M  V30 2017 C 197.724 3.5966 -0.177948 0
M  V30 2018 C 197.577 4.20579 -1.59478 0
M  V30 2019 C 198.896 4.37413 0.4856 0
M  V30 2020 H 196.015 0.734374 -0.0621557 0
M  V30 2021 H 198.657 1.70717 -0.834016 0
M  V30 2022 H 196.807 3.86537 0.390032 0
M  V30 2023 H 198.479 4.04732 -2.21336 0
M  V30 2024 H 196.722 3.77226 -2.14204 0
M  V30 2025 H 197.393 5.29665 -1.5543 0
M  V30 2026 H 199.869 4.161 0.00234528 0
M  V30 2027 H 198.745 5.47075 0.447207 0
M  V30 2028 H 199.006 4.13672 1.55974 0
M  V30 2029 N 198.065 0.39524 1.52563 0
M  V30 2030 C 199.313 -0.184678 2.01254 0
M  V30 2031 C 199.634 -1.46822 1.28329 0
M  V30 2032 O 198.904 -1.91666 0.405094 0
M  V30 2033 H 197.484 -0.0712355 0.743596 0
M  V30 2034 H 200.146 0.528293 1.87603 0
M  V30 2035 H 199.242 -0.390681 3.09645 0
M  V30 2036 N 199.544 -1.57102 0.125237 0
M  V30 2037 C 200.474 -2.18659 -0.819174 0
M  V30 2038 C 201.455 -1.12843 -1.27281 0
M  V30 2039 O 202.64 -1.41104 -1.33429 0
M  V30 2040 C 199.77 -2.79096 -2.06695 0
M  V30 2041 C 198.724 -3.90548 -1.75088 0
M  V30 2042 C 198.05 -4.37821 -3.06948 0
M  V30 2043 C 199.35 -5.12356 -1.01435 0
M  V30 2044 H 201.044 -2.9783 -0.306202 0
M  V30 2045 H 198.59 -1.4326 -0.145839 0
M  V30 2046 H 200.543 -3.2082 -2.73226 0
M  V30 2047 H 199.267 -1.97223 -2.60328 0
M  V30 2048 H 197.926 -3.49409 -1.10944 0
M  V30 2049 H 197.574 -3.52799 -3.58527 0
M  V30 2050 H 197.274 -5.12982 -2.86571 0
M  V30 2051 H 198.798 -4.822 -3.74587 0
M  V30 2052 H 200.212 -5.5106 -1.58132 0
M  V30 2053 H 198.609 -5.9314 -0.911319 0
M  V30 2054 H 199.679 -4.849 -0.00218681 0
M  V30 2055 N 201.022 0.148545 -1.56898 0
M  V30 2056 C 201.954 1.20852 -1.9475 0
M  V30 2057 C 202.967 1.39265 -0.843152 0
M  V30 2058 O 204.156 1.38864 -1.12156 0
M  V30 2059 C 201.256 2.57362 -2.20495 0
M  V30 2060 C 200.429 2.59947 -3.51776 0
M  V30 2061 C 199.488 3.77984 -3.6608 0
M  V30 2062 O 198.514 3.62929 -4.38487 0
M  V30 2063 N 199.716 4.95375 -3.02629 0
M  V30 2064 H 202.481 0.886804 -2.86279 0
M  V30 2065 H 200.042 0.338121 -1.5833 0
M  V30 2066 H 202.034 3.34833 -2.27307 0
M  V30 2067 H 200.604 2.81832 -1.35238 0
M  V30 2068 H 199.824 1.68403 -3.56419 0
M  V30 2069 H 201.112 2.58704 -4.38121 0
M  V30 2070 H 200.51 5.10509 -2.43715 0
M  V30 2071 H 199.067 5.70627 -3.15004 0
M  V30 2072 N 202.5 1.5196 0.417844 0
M  V30 2073 C 203.41 1.77554 1.53336 0
M  V30 2074 C 204.426 0.660655 1.6097 0
M  V30 2075 O 205.602 0.945099 1.77848 0
M  V30 2076 C 202.667 1.91291 2.89152 0
M  V30 2077 C 201.728 3.15183 2.91475 0
M  V30 2078 C 200.961 3.28256 4.20813 0
M  V30 2079 O 201.184 2.46798 5.14244 0
M  V30 2080 O 200.118 4.21356 4.29817 0
M  V30 2081 H 203.944 2.7222 1.34647 0
M  V30 2082 H 201.529 1.36698 0.602828 0
M  V30 2083 H 203.411 2.02199 3.69721 0
M  V30 2084 H 202.086 0.998129 3.07927 0
M  V30 2085 H 200.993 3.09739 2.09791 0
M  V30 2086 H 202.326 4.06414 2.77648 0
M  V30 2087 N 203.978 -0.674533 1.42435 0
M  V30 2088 C 205.255 -1.4305 1.33402 0
M  V30 2089 C 205.635 -2.11081 -0.0284674 0
M  V30 2090 O 204.983 -2.03257 -1.04397 0
M  V30 2091 C 205.193 -2.43272 2.50239 0
M  V30 2092 C 206.541 -3.07907 2.92367 0
M  V30 2093 O 207.565 -2.53599 2.50132 0
M  V30 2094 O 206.424 -4.0632 3.65467 0
M  V30 2095 H 203.518 -0.638076 0.526106 0
M  V30 2096 H 206.064 -0.703235 1.54443 0
M  V30 2097 H 204.836 -1.91803 3.41068 0
M  V30 2098 H 204.459 -3.23479 2.31186 0
M  V30 2099 N 205.456 -1.28612 -0.910864 0
M  V30 2100 C 206.419 -1.12803 -1.9952 0
M  V30 2101 C 207.419 -0.0668264 -1.60661 0
M  V30 2102 O 208.609 -0.312847 -1.71368 0
M  V30 2103 C 205.741 -0.72254 -3.33155 0
M  V30 2104 H 206.934 -2.09109 -2.14973 0
M  V30 2105 H 204.487 -1.11639 -1.09391 0
M  V30 2106 H 205.222 0.241152 -3.23402 0
M  V30 2107 H 205.007 -1.48916 -3.62721 0
M  V30 2108 H 206.497 -0.634666 -4.12749 0
M  V30 2109 N 206.934 1.1197 -1.10907 0
M  V30 2110 C 208.162 1.87402 -0.876824 0
M  V30 2111 C 208.577 1.79894 0.573025 0
M  V30 2112 O 207.934 1.17629 1.39534 0
M  V30 2113 C 207.985 3.36428 -1.32282 0
M  V30 2114 O 207.706 3.43765 -2.71582 0
M  V30 2115 C 209.207 4.28783 -1.12518 0
M  V30 2116 H 206.427 0.592793 -0.314384 0
M  V30 2117 H 208.971 1.41649 -1.47499 0
M  V30 2118 H 207.126 3.79706 -0.768229 0
M  V30 2119 H 207.54 4.3652 -2.90776 0
M  V30 2120 H 209.014 5.31613 -1.48633 0
M  V30 2121 H 209.491 4.39153 -0.0642394 0
M  V30 2122 H 210.097 3.91291 -1.66648 0
M  V30 2123 N 208.412 0.89855 1.29475 0
M  V30 2124 C 209.66 0.522847 1.9522 0
M  V30 2125 C 209.981 -0.93371 1.71192 0
M  V30 2126 O 209.251 -1.65823 1.04305 0
M  V30 2127 H 207.831 0.190366 0.722336 0
M  V30 2128 H 210.493 1.14459 1.5775 0
M  V30 2129 H 209.589 0.704476 3.04045 0
M  V30 2130 N 209.89 -1.43072 0.660911 0
M  V30 2131 C 210.8 -2.34585 -0.0264163 0
M  V30 2132 C 211.816 -1.54316 -0.803898 0
M  V30 2133 O 212.992 -1.86939 -0.749391 0
M  V30 2134 C 210.057 -3.32689 -0.975639 0
M  V30 2135 C 209.118 -4.2886 -0.194236 0
M  V30 2136 C 208.351 -5.22278 -1.09825 0
M  V30 2137 O 208.574 -5.20299 -2.33763 0
M  V30 2138 O 207.508 -5.99228 -0.566513 0
M  V30 2139 H 211.334 -2.94869 0.727034 0
M  V30 2140 H 208.919 -1.43342 0.42111 0
M  V30 2141 H 210.801 -3.92995 -1.52094 0
M  V30 2142 H 209.476 -2.74898 -1.70918 0
M  V30 2143 H 208.383 -3.72011 0.394835 0
M  V30 2144 H 209.716 -4.89655 0.499899 0
M  V30 2145 N 211.368 -0.403325 -1.52352 0
M  V30 2146 C 212.331 0.413051 -2.25447 0
M  V30 2147 C 213.331 0.978513 -1.276 0
M  V30 2148 O 214.521 0.858305 -1.51587 0
M  V30 2149 C 211.653 1.58087 -3.02029 0
M  V30 2150 H 212.846 -0.227094 -2.99039 0
M  V30 2151 H 210.399 -0.155722 -1.55522 0
M  V30 2152 H 211.134 2.25804 -2.32772 0
M  V30 2153 H 210.919 1.18195 -3.73861 0
M  V30 2154 H 212.409 2.1585 -3.57489 0
M  V30 2155 N 212.846 1.57033 -0.133567 0
M  V30 2156 C 214.086 1.97575 0.523789 0
M  V30 2157 C 214.45 1.01605 1.62912 0
M  V30 2158 O 215.651 1.3114 2.3464 0
M  V30 2159 C 213.922 3.42256 1.02935 0
M  V30 2160 S 215.481 4.04817 1.69319 0
M  V30 2161 H 212.299 0.690427 0.169799 0
M  V30 2162 H 214.901 1.94234 -0.222101 0
M  V30 2163 H 213.605 4.09842 0.213917 0
M  V30 2164 H 213.136 3.4928 1.81017 0
M  V30 2165 H 215.151 3.96767 2.97977 0
M  V30 2166 N 214.325 -0.140222 1.56975 0
M  V30 2167 C 215.571 -0.848084 1.84876 0
M  V30 2168 C 215.926 -1.78481 0.718481 0
M  V30 2169 O 215.219 -1.89497 -0.283093 0
M  V30 2170 C 215.413 -1.65386 3.16832 0
M  V30 2171 C 215.242 -0.79665 4.42587 0
M  V30 2172 C 214.012 -0.459648 5.03205 0
M  V30 2173 C 216.21 -0.12389 5.14151 0
M  V30 2174 N 214.192 0.410446 6.12526 0
M  V30 2175 C 215.563 0.606064 6.17031 0
M  V30 2176 C 217.618 -0.0452654 4.97879 0
M  V30 2177 C 216.321 1.40723 7.054 0
M  V30 2178 C 218.347 0.742658 5.86718 0
M  V30 2179 C 217.709 1.46087 6.89085 0
M  V30 2180 H 213.808 -0.287946 0.727056 0
M  V30 2181 H 216.392 -0.11304 1.94372 0
M  V30 2182 H 214.563 -2.36009 3.08471 0
M  V30 2183 H 216.295 -2.30541 3.32615 0
M  V30 2184 H 213.05 -0.797006 4.66846 0
M  V30 2185 H 213.474 0.836716 6.7181 0
M  V30 2186 H 218.116 -0.586184 4.18717 0
M  V30 2187 H 215.834 1.95938 7.83986 0
M  V30 2188 H 219.42 0.805574 5.76196 0
M  V30 2189 H 218.3 2.06077 7.56639 0
M  V30 2190 N 215.803 -1.52179 -0.40978 0
M  V30 2191 C 217.049 -1.67408 -1.15525 0
M  V30 2192 C 217.404 -0.398746 -1.88223 0
M  V30 2193 O 216.697 0.60678 -1.81738 0
M  V30 2194 C 216.891 -2.83428 -2.17723 0
M  V30 2195 C 216.72 -4.22121 -1.55061 0
M  V30 2196 C 215.49 -4.87657 -1.3236 0
M  V30 2197 C 217.688 -5.04248 -1.01185 0
M  V30 2198 N 215.67 -6.10387 -0.655834 0
M  V30 2199 C 217.041 -6.18209 -0.470963 0
M  V30 2200 C 219.096 -4.89583 -0.906252 0
M  V30 2201 C 217.799 -7.1911 0.165172 0
M  V30 2202 C 219.825 -5.90718 -0.28397 0
M  V30 2203 C 219.187 -7.03969 0.246243 0
M  V30 2204 H 215.286 -0.666251 -0.409431 0
M  V30 2205 H 217.87 -1.89482 -0.447729 0
M  V30 2206 H 216.041 -2.6297 -2.85834 0
M  V30 2207 H 217.773 -2.87697 -2.84627 0
M  V30 2208 H 214.528 -4.46007 -1.59294 0
M  V30 2209 H 214.952 -6.76153 -0.338596 0
M  V30 2210 H 219.594 -4.02253 -1.302 0
M  V30 2211 H 217.312 -8.06066 0.572986 0
M  V30 2212 H 220.898 -5.81443 -0.203792 0
M  V30 2213 H 219.778 -7.80886 0.720173 0
M  V30 2214 N 217.281 0.66697 -1.42791 0
M  V30 2215 C 218.509 1.45505 -1.47091 0
M  V30 2216 C 218.924 1.8861 -0.0845873 0
M  V30 2217 O 218.281 1.58632 0.90234 0
M  V30 2218 C 218.332 2.69906 -2.40485 0
M  V30 2219 O 218.053 2.28608 -3.73725 0
M  V30 2220 C 219.554 3.63396 -2.53886 0
M  V30 2221 H 216.774 0.447459 -0.500022 0
M  V30 2222 H 219.318 0.818866 -1.8739 0
M  V30 2223 H 217.473 3.29696 -2.03419 0
M  V30 2224 H 217.887 3.08997 -4.23817 0
M  V30 2225 H 219.361 4.47387 -3.2334 0
M  V30 2226 H 219.838 4.09824 -1.57927 0
M  V30 2227 H 220.444 3.09495 -2.91706 0
M  V30 2228 N 218.759 1.29093 0.90403 0
M  V30 2229 C 219.692 1.08176 2.00931 0
M  V30 2230 C 220.67 -0.005083 1.62599 0
M  V30 2231 O 221.854 0.144765 1.87943 0
M  V30 2232 C 218.981 0.645897 3.32484 0
M  V30 2233 C 218.027 1.73081 3.89801 0
M  V30 2234 S 218.86 3.32905 4.19446 0
M  V30 2235 C 220.016 2.91176 5.54046 0
M  V30 2236 H 220.249 2.01752 2.18365 0
M  V30 2237 H 217.782 1.13191 1.0501 0
M  V30 2238 H 219.74 0.401131 4.08535 0
M  V30 2239 H 218.401 -0.270188 3.12936 0
M  V30 2240 H 217.594 1.37768 4.84805 0
M  V30 2241 H 217.196 1.92888 3.20422 0
M  V30 2242 H 219.488 2.37952 6.34338 0
M  V30 2243 H 220.431 3.85014 5.94281 0
M  V30 2244 H 220.839 2.296 5.15698 0
M  V30 2245 N 220.237 -1.11381 1.11499 0
M  V30 2246 C 221.187 -2.15555 0.74298 0
M  V30 2247 C 222.171 -1.58894 -0.253276 0
M  V30 2248 O 223.363 -1.76897 -0.0602918 0
M  V30 2249 C 220.492 -3.42782 0.188481 0
M  V30 2250 C 219.578 -4.064 1.21244 0
M  V30 2251 N 219.969 -4.44864 2.40685 0
M  V30 2252 C 218.267 -4.3333 1.05552 0
M  V30 2253 C 218.968 -4.94715 3.05994 0
M  V30 2254 N 217.944 -4.90909 2.33472 0
M  V30 2255 H 221.746 -2.43074 1.65203 0
M  V30 2256 H 219.26 -1.28401 0.994329 0
M  V30 2257 H 221.257 -4.16789 -0.0961693 0
M  V30 2258 H 219.917 -3.16727 -0.715149 0
M  V30 2259 H 220.928 -4.36876 2.78136 0
M  V30 2260 H 217.605 -4.1698 0.208372 0
M  V30 2261 H 218.995 -5.34103 4.07656 0
M  V30 2262 N 221.715 -0.905404 -1.28997 0
M  V30 2263 C 223.126 -0.581953 -1.77398 0
M  V30 2264 C 223.477 0.902552 -1.74208 0
M  V30 2265 O 222.602 1.70584 -1.33154 0
M  V30 2266 C 223.197 -1.04961 -3.22131 0
M  V30 2267 C 221.756 -0.777229 -3.68288 0
M  V30 2268 C 220.903 -1.22109 -2.48967 0
M  V30 2269 H 223.854 -1.08754 -1.15578 0
M  V30 2270 H 223.875 -0.387387 -3.78523 0
M  V30 2271 H 223.387 -2.13008 -3.24421 0
M  V30 2272 H 221.488 0.290383 -3.71467 0
M  V30 2273 H 221.601 -1.37911 -4.58822 0
M  V30 2274 H 219.965 -0.639971 -2.46529 0
M  V30 2275 H 220.748 -2.30972 -2.53982 0
M  V30 2276 N 223.193 1.4272 -0.668489 0
M  V30 2277 C 224.156 2.292 0.00448567 0
M  V30 2278 C 225.156 1.43001 0.735339 0
M  V30 2279 O 226.346 1.64461 0.57429 0
M  V30 2280 C 223.478 3.25375 1.01705 0
M  V30 2281 H 224.671 2.90199 -0.756608 0
M  V30 2282 H 222.224 1.50254 -0.430506 0
M  V30 2283 H 222.959 2.69301 1.80686 0
M  V30 2284 H 222.744 3.88944 0.496463 0
M  V30 2285 H 224.234 3.90245 1.48655 0
M  V30 2286 N 224.671 0.411399 1.52136 0
M  V30 2287 C 225.896 -0.165538 2.06738 0
M  V30 2288 C 226.321 -1.379 1.27926 0
M  V30 2289 O 225.679 -1.78628 0.310114 0
M  V30 2290 C 225.727 -0.492124 3.57226 0
M  V30 2291 O 224.831 -1.58276 3.80818 0
M  V30 2292 H 224.172 -0.0132132 0.663869 0
M  V30 2293 H 226.702 0.585253 1.96051 0
M  V30 2294 H 226.712 -0.750104 4.01045 0
M  V30 2295 H 225.387 0.394922 4.14021 0
M  V30 2296 H 223.964 -1.31677 3.48877 0
M  V30 2297 N 226.149 -1.5696 0.141893 0
M  V30 2298 C 227.096 -2.16501 -0.799737 0
M  V30 2299 C 228.066 -1.09643 -1.24771 0
M  V30 2300 O 229.251 -1.3766 -1.32115 0
M  V30 2301 C 226.391 -2.78679 -2.03549 0
M  V30 2302 C 225.504 -3.99914 -1.6338 0
M  V30 2303 C 224.639 -4.50106 -2.82096 0
M  V30 2304 C 223.678 -5.63819 -2.38275 0
M  V30 2305 N 222.815 -6.08651 -3.49983 0
M  V30 2306 H 227.655 -2.96632 -0.285179 0
M  V30 2307 H 225.192 -1.46533 -0.129053 0
M  V30 2308 H 227.15 -3.1287 -2.75986 0
M  V30 2309 H 225.78 -2.012 -2.52425 0
M  V30 2310 H 224.832 -3.71735 -0.807279 0
M  V30 2311 H 226.144 -4.82311 -1.27192 0
M  V30 2312 H 225.298 -4.86325 -3.62729 0
M  V30 2313 H 224.037 -3.66706 -3.21525 0
M  V30 2314 H 223.042 -5.2718 -1.56081 0
M  V30 2315 H 224.267 -6.49 -1.99938 0
M  V30 2316 H 222.213 -5.28188 -3.89042 0
M  V30 2317 H 222.13 -6.85961 -3.17794 0
M  V30 2318 H 223.398 -6.49515 -4.30988 0
M  V30 2319 N 227.627 0.131896 -1.57047 0
M  V30 2320 C 228.559 1.1878 -1.9602 0
M  V30 2321 C 229.572 1.38363 -0.857875 0
M  V30 2322 O 230.761 1.37666 -1.13623 0
M  V30 2323 C 227.861 2.55008 -2.23213 0
M  V30 2324 C 227.034 2.56201 -3.54513 0
M  V30 2325 C 226.093 3.7408 -3.70069 0
M  V30 2326 O 225.119 3.58258 -4.42312 0
M  V30 2327 N 226.321 4.92137 -3.07866 0
M  V30 2328 H 229.086 0.85639 -2.87204 0
M  V30 2329 H 226.647 0.321309 -1.5868 0
M  V30 2330 H 228.639 3.32404 -2.30846 0
M  V30 2331 H 227.209 2.80382 -1.3822 0
M  V30 2332 H 226.429 1.64613 -3.58185 0
M  V30 2333 H 227.717 2.54043 -4.4084 0
M  V30 2334 H 227.115 5.07895 -2.49116 0
M  V30 2335 H 225.672 5.67254 -3.21039 0
M  V30 2336 N 229.106 1.52395 0.401703 0
M  V30 2337 C 230.522 1.41363 0.740864 0
M  V30 2338 C 230.722 0.523982 1.94568 0
M  V30 2339 O 229.778 -0.00741204 2.52499 0
M  V30 2340 C 231.091 2.84011 0.987847 0
M  V30 2341 C 232.639 2.93404 1.09011 0
M  V30 2342 C 233.114 4.37036 1.3698 0
M  V30 2343 N 234.605 4.40304 1.43829 0
M  V30 2344 C 235.34 5.48508 1.67112 0
M  V30 2345 N 234.836 6.66819 1.87949 0
M  V30 2346 N 236.629 5.36034 1.69187 0
M  V30 2347 H 228.78 2.08765 -0.391262 0
M  V30 2348 H 231.043 0.941265 -0.112798 0
M  V30 2349 H 230.749 3.51265 0.174835 0
M  V30 2350 H 230.623 3.25502 1.906 0
M  V30 2351 H 233.01 2.26325 1.8937 0
M  V30 2352 H 233.091 2.55359 0.15015 0
M  V30 2353 H 232.735 5.04676 0.571353 0
M  V30 2354 H 232.665 4.72623 2.3224 0
M  V30 2355 H 235.156 3.55024 1.29486 0
M  V30 2356 H 235.469 7.45063 2.05185 0
M  V30 2357 H 233.814 6.6987 1.85199 0
M  V30 2358 H 237.005 4.42579 1.52451 0
M  V30 2359 H 237.178 6.20434 1.86993 0
M  V30 2360 N 230.584 -0.659388 1.43143 0
M  V30 2361 C 231.809 -1.45221 1.48073 0
M  V30 2362 C 232.234 -1.87845 0.097995 0
M  V30 2363 O 231.592 -1.56985 -0.90694 0
M  V30 2364 C 231.64 -2.66748 2.42647 0
M  V30 2365 O 230.744 -3.65583 1.90848 0
M  V30 2366 H 230.085 -0.435669 0.501088 0
M  V30 2367 H 232.615 -0.807432 1.87994 0
M  V30 2368 H 232.625 -3.14637 2.59745 0
M  V30 2369 H 231.3 -2.35067 3.43098 0
M  V30 2370 H 229.877 -3.24693 1.83381 0
M  V30 2371 N 232.062 -1.29571 -0.897171 0
M  V30 2372 C 232.972 -1.16808 -2.03453 0
M  V30 2373 C 233.988 -0.0907471 -1.73763 0
M  V30 2374 O 235.164 -0.303312 -1.99103 0
M  V30 2375 C 232.229 -0.848264 -3.36163 0
M  V30 2376 C 231.29 -2.0097 -3.79354 0
M  V30 2377 C 230.523 -1.70505 -5.05731 0
M  V30 2378 O 230.746 -0.62718 -5.66941 0
M  V30 2379 O 229.68 -2.5538 -5.45036 0
M  V30 2380 H 233.506 -2.12325 -2.17144 0
M  V30 2381 H 231.091 -1.09047 -1.02123 0
M  V30 2382 H 232.973 -0.684581 -4.15802 0
M  V30 2383 H 231.648 0.0771071 -3.23608 0
M  V30 2384 H 230.555 -2.22863 -3.00471 0
M  V30 2385 H 231.888 -2.91636 -3.96496 0
M  V30 2386 N 233.54 1.10788 -1.12088 0
M  V30 2387 C 234.788 1.8231 -0.872205 0
M  V30 2388 C 235.109 1.85419 0.603709 0
M  V30 2389 O 234.379 1.32963 1.43867 0
M  V30 2390 H 232.959 0.675137 -0.319686 0
M  V30 2391 H 235.621 1.34068 -1.41463 0
M  V30 2392 H 234.717 2.85955 -1.25045 0
M  V30 2393 N 235.018 0.912232 1.28515 0
M  V30 2394 C 235.928 0.404506 2.31086 0
M  V30 2395 C 236.944 -0.50707 1.66448 0
M  V30 2396 O 238.12 -0.393624 1.97516 0
M  V30 2397 C 235.185 -0.348572 3.44943 0
M  V30 2398 C 234.246 0.59604 4.25142 0
M  V30 2399 C 233.479 -0.121194 5.33562 0
M  V30 2400 O 233.702 -1.34317 5.5436 0
M  V30 2401 O 232.636 0.542716 5.99448 0
M  V30 2402 H 236.462 1.25579 2.76521 0
M  V30 2403 H 234.047 0.676998 1.33181 0
M  V30 2404 H 235.929 -0.77395 4.14232 0
M  V30 2405 H 234.604 -1.17571 3.01594 0
M  V30 2406 H 233.511 1.07079 3.58448 0
M  V30 2407 H 234.844 1.38995 4.72167 0
M  V30 2408 N 236.496 -1.42363 0.676048 0
M  V30 2409 C 237.443 -2.308 -0.00150904 0
M  V30 2410 C 238.413 -1.46032 -0.791444 0
M  V30 2411 O 239.598 -1.74861 -0.76344 0
M  V30 2412 C 236.738 -3.31883 -0.945919 0
M  V30 2413 C 235.851 -4.31741 -0.149675 0
M  V30 2414 C 234.986 -5.19898 -1.08995 0
M  V30 2415 C 234.025 -6.11434 -0.285465 0
M  V30 2416 N 233.162 -6.92138 -1.17851 0
M  V30 2417 H 238.002 -2.88187 0.758455 0
M  V30 2418 H 235.539 -1.41952 0.38576 0
M  V30 2419 H 237.497 -3.89019 -1.50731 0
M  V30 2420 H 236.127 -2.76093 -1.6725 0
M  V30 2421 H 235.179 -3.76713 0.528359 0
M  V30 2422 H 236.491 -4.96534 0.474866 0
M  V30 2423 H 235.645 -5.81772 -1.72123 0
M  V30 2424 H 234.384 -4.55284 -1.74837 0
M  V30 2425 H 233.389 -5.48627 0.359018 0
M  V30 2426 H 234.614 -6.78097 0.368883 0
M  V30 2427 H 232.56 -6.30152 -1.82332 0
M  V30 2428 H 232.477 -7.53542 -0.609082 0
M  V30 2429 H 233.745 -7.58499 -1.79722 0
M  V30 2430 N 237.974 -0.419461 -1.51915 0
M  V30 2431 C 239.22 0.153166 -2.02221 0
M  V30 2432 C 239.553 1.43907 -1.30401 0
M  V30 2433 O 238.828 1.90055 -0.413438 0
M  V30 2434 C 239.111 0.390291 -3.57979 0
M  V30 2435 C 238.964 -0.913014 -4.40436 0
M  V30 2436 C 240.283 1.16794 -4.2432 0
M  V30 2437 H 237.402 0.0541924 -0.735005 0
M  V30 2438 H 240.044 -0.554955 -1.81715 0
M  V30 2439 H 238.194 0.993491 -3.75582 0
M  V30 2440 H 239.866 -1.54882 -4.34522 0
M  V30 2441 H 238.109 -1.52168 -4.06236 0
M  V30 2442 H 238.78 -0.701361 -5.47526 0
M  V30 2443 H 241.256 0.657161 -4.10878 0
M  V30 2444 H 240.132 1.3026 -5.3322 0
M  V30 2445 H 240.393 2.19132 -3.83971 0
M  V30 2446 N 239.452 1.56882 -0.150215 0
M  V30 2447 C 240.868 1.58263 0.20617 0
M  V30 2448 C 241.068 1.16464 1.64434 0
M  V30 2449 O 240.124 0.866422 2.3717 0
M  V30 2450 C 241.437 3.00649 -0.0555025 0
M  V30 2451 C 242.985 3.12999 0.00795388 0
M  V30 2452 C 243.46 4.5744 -0.226429 0
M  V30 2453 N 244.951 4.62875 -0.173469 0
M  V30 2454 C 245.686 5.72454 -0.329288 0
M  V30 2455 N 245.182 6.90669 -0.543005 0
M  V30 2456 N 246.975 5.61467 -0.266666 0
M  V30 2457 H 239.126 1.82345 -1.08922 0
M  V30 2458 H 241.389 0.844149 -0.431413 0
M  V30 2459 H 241.095 3.3563 -1.05096 0
M  V30 2460 H 240.969 3.71337 0.66246 0
M  V30 2461 H 243.356 2.77857 0.993966 0
M  V30 2462 H 243.437 2.4479 -0.742388 0
M  V30 2463 H 243.081 4.93287 -1.20956 0
M  V30 2464 H 243.011 5.2378 0.544274 0
M  V30 2465 H 245.502 3.77898 -0.0130709 0
M  V30 2466 H 245.815 7.70045 -0.651922 0
M  V30 2467 H 244.16 6.92581 -0.579366 0
M  V30 2468 H 247.351 4.67992 -0.100441 0
M  V30 2469 H 247.524 6.46816 -0.391535 0
M  V30 2470 N 240.93 -0.123565 1.57115 0
M  V30 2471 C 242.176 -0.833386 1.84885 0
M  V30 2472 C 242.509 -1.79742 0.735292 0
M  V30 2473 O 241.784 -1.92764 -0.25925 0
M  V30 2474 C 242.067 -1.5873 3.23228 0
M  V30 2475 C 241.92 -0.643183 4.45178 0
M  V30 2476 C 243.239 -2.54453 3.59085 0
M  V30 2477 H 240.358 -0.301518 0.6725 0
M  V30 2478 H 243 -0.097778 1.89748 0
M  V30 2479 H 241.15 -2.21438 3.19214 0
M  V30 2480 H 242.822 -0.0253015 4.61293 0
M  V30 2481 H 241.065 0.0456139 4.33776 0
M  V30 2482 H 241.736 -1.20724 5.38637 0
M  V30 2483 H 244.212 -2.01853 3.63861 0
M  V30 2484 H 243.088 -3.04238 4.5687 0
M  V30 2485 H 243.349 -3.36906 2.86264 0
M  V30 2486 N 242.408 -1.52605 -0.393616 0
M  V30 2487 C 243.656 -1.67093 -1.13685 0
M  V30 2488 C 243.977 -0.411011 -1.90619 0
M  V30 2489 O 243.247 0.574491 -1.87287 0
M  V30 2490 H 241.827 -0.615923 -0.422668 0
M  V30 2491 H 244.489 -1.89704 -0.447039 0
M  V30 2492 H 243.585 -2.51922 -1.84232 0
M  V30 2493 N 243.887 0.651787 -1.4349 0
M  V30 2494 C 245.164 1.40909 -1.35661 0
M  V30 2495 C 245.544 2.11099 -0.00511733 0
M  V30 2496 O 244.892 2.04892 1.0115 0
M  V30 2497 C 245.102 2.3926 -2.54078 0
M  V30 2498 C 246.45 3.03217 -2.97228 0
M  V30 2499 O 247.474 2.49588 -2.54135 0
M  V30 2500 O 246.333 4.00455 -3.71885 0
M  V30 2501 H 243.427 0.629625 -0.536191 0
M  V30 2502 H 245.973 0.678575 -1.55542 0
M  V30 2503 H 244.745 1.86352 -3.44076 0
M  V30 2504 H 244.368 3.1976 -2.36303 0
M  V30 2505 N 245.365 1.30045 0.890287 0
M  V30 2506 C 246.642 1.09227 1.62262 0
M  V30 2507 C 247.022 -0.360305 2.08002 0
M  V30 2508 O 246.37 -1.35084 1.84295 0
M  V30 2509 C 246.58 2.08835 2.79623 0
M  V30 2510 C 247.928 2.40266 3.50082 0
M  V30 2511 O 248.952 2.07104 2.89804 0
M  V30 2512 O 247.811 2.96967 4.58773 0
M  V30 2513 H 244.905 0.419132 0.712922 0
M  V30 2514 H 247.451 1.41451 0.937529 0
M  V30 2515 H 246.223 3.06633 2.43089 0
M  V30 2516 H 245.846 1.77397 3.55832 0
M  V30 2517 N 246.843 -1.10192 1.12674 0
M  V30 2518 C 248.092 -1.81573 0.8783 0
M  V30 2519 C 248.405 -1.86249 -0.597557 0
M  V30 2520 O 249.611 -2.5386 -0.962681 0
M  V30 2521 C 248.067 -3.26149 1.52167 0
M  V30 2522 C 247.675 -3.29763 3.03249 0
M  V30 2523 C 249.419 -4.0234 1.3536 0
M  V30 2524 C 247.326 -4.68815 3.60508 0
M  V30 2525 H 246.256 -0.680394 0.324931 0
M  V30 2526 H 248.907 -1.23902 1.35353 0
M  V30 2527 H 247.289 -3.83832 0.974104 0
M  V30 2528 H 248.463 -2.8189 3.6452 0
M  V30 2529 H 246.778 -2.67059 3.19481 0
M  V30 2530 H 249.375 -5.05058 1.75559 0
M  V30 2531 H 249.718 -4.15235 0.297554 0
M  V30 2532 H 250.251 -3.51079 1.87052 0
M  V30 2533 H 246.99 -4.61121 4.65884 0
M  V30 2534 H 246.51 -5.17045 3.04014 0
M  V30 2535 H 248.189 -5.37785 3.59717 0
M  V30 2536 N 248.321 -0.919034 -1.28029 0
M  V30 2537 C 249.57 -0.550802 -1.94034 0
M  V30 2538 C 249.883 0.910877 -1.73096 0
M  V30 2539 O 251.089 1.3875 -2.33368 0
M  V30 2540 C 249.545 -0.934249 -3.47563 0
M  V30 2541 C 249.153 -2.41602 -3.7727 0
M  V30 2542 C 250.897 -0.636854 -4.19696 0
M  V30 2543 C 248.804 -2.73932 -5.24133 0
M  V30 2544 H 247.734 -0.202273 -0.726362 0
M  V30 2545 H 250.385 -1.11867 -1.45458 0
M  V30 2546 H 248.767 -0.295115 -3.94899 0
M  V30 2547 H 249.941 -3.10233 -3.40723 0
M  V30 2548 H 248.256 -2.68441 -3.18321 0
M  V30 2549 H 250.853 -0.855005 -5.2782 0
M  V30 2550 H 251.196 0.425575 -4.14119 0
M  V30 2551 H 251.729 -1.23469 -3.78154 0
M  V30 2552 H 248.468 -3.79049 -5.34792 0
M  V30 2553 H 247.988 -2.09942 -5.61858 0
M  V30 2554 H 249.667 -2.61215 -5.91925 0
M  V30 2555 N 249.799 1.42003 -0.683588 0
M  V30 2556 C 250.729 2.33487 -0.024866 0
M  V30 2557 C 251.71 1.51163 0.779975 0
M  V30 2558 O 252.895 1.79739 0.735362 0
M  V30 2559 C 250.025 3.3487 0.920836 0
M  V30 2560 C 248.979 4.27414 0.223958 0
M  V30 2561 C 248.305 5.19074 1.2832 0
M  V30 2562 C 249.605 5.14445 -0.90242 0
M  V30 2563 H 251.299 2.88819 -0.788921 0
M  V30 2564 H 248.845 1.38873 -0.38083 0
M  V30 2565 H 250.798 3.97787 1.39081 0
M  V30 2566 H 249.522 2.77861 1.71642 0
M  V30 2567 H 248.181 3.65904 -0.225864 0
M  V30 2568 H 247.829 4.58387 2.071 0
M  V30 2569 H 247.529 5.81822 0.821995 0
M  V30 2570 H 249.053 5.84867 1.75392 0
M  V30 2571 H 250.467 5.70998 -0.513272 0
M  V30 2572 H 248.864 5.86072 -1.28997 0
M  V30 2573 H 249.934 4.52322 -1.74737 0
M  V30 2574 N 251.277 0.427512 1.51691 0
M  V30 2575 C 252.523 -0.142439 2.02299 0
M  V30 2576 C 252.856 -1.43214 1.31162 0
M  V30 2577 O 252.131 -1.89833 0.423511 0
M  V30 2578 C 252.414 -0.371301 3.58181 0
M  V30 2579 C 252.267 0.936358 4.39946 0
M  V30 2580 C 253.586 -1.14542 4.24933 0
M  V30 2581 H 250.705 -0.0502937 0.735282 0
M  V30 2582 H 253.347 0.564584 1.81418 0
M  V30 2583 H 251.497 -0.973559 3.76104 0
M  V30 2584 H 253.169 1.57184 4.33694 0
M  V30 2585 H 251.412 1.5432 4.05423 0
M  V30 2586 H 252.083 0.730388 5.47147 0
M  V30 2587 H 254.559 -0.635362 4.11221 0
M  V30 2588 H 253.435 -1.27431 5.33903 0
M  V30 2589 H 253.696 -2.17093 3.85127 0
M  V30 2590 N 252.755 -1.56801 0.158532 0
M  V30 2591 C 253.98 -2.01295 -0.499516 0
M  V30 2592 C 254.405 -1.03799 -1.56867 0
M  V30 2593 O 253.763 -0.0155162 -1.81293 0
M  V30 2594 C 253.811 -3.44469 -1.06647 0
M  V30 2595 O 252.915 -3.50012 -2.18095 0
M  V30 2596 H 252.256 -0.652884 -0.12099 0
M  V30 2597 H 254.786 -2.02958 0.258661 0
M  V30 2598 H 254.796 -3.8351 -1.39227 0
M  V30 2599 H 253.471 -4.14932 -0.283581 0
M  V30 2600 H 252.048 -3.22822 -1.86656 0
M  V30 2601 N 254.233 0.115231 -1.57178 0
M  V30 2602 C 255.479 0.82357 -1.85325 0
M  V30 2603 C 255.812 1.79349 -0.744814 0
M  V30 2604 O 255.087 1.92899 0.249024 0
M  V30 2605 C 255.37 1.57014 -3.24066 0
M  V30 2606 C 255.223 0.619565 -4.45513 0
M  V30 2607 C 256.542 2.52545 -3.60429 0
M  V30 2608 H 253.661 0.297948 -0.674089 0
M  V30 2609 H 256.303 0.0877138 -1.89797 0
M  V30 2610 H 254.453 2.19742 -3.20383 0
M  V30 2611 H 256.125 0.000837639 -4.613 0
M  V30 2612 H 254.368 -0.0686174 -4.33746 0
M  V30 2613 H 255.039 1.17866 -5.3927 0
M  V30 2614 H 257.515 1.9992 -3.64926 0
M  V30 2615 H 256.391 3.01811 -4.58477 0
M  V30 2616 H 256.652 3.35383 -2.88047 0
M  V30 2617 N 255.711 1.52812 0.385517 0
M  V30 2618 C 256.936 1.72207 1.15583 0
M  V30 2619 C 257.361 0.441034 1.82857 0
M  V30 2620 O 256.719 -0.603465 1.70962 0
M  V30 2621 C 256.767 2.87476 2.17692 0
M  V30 2622 O 255.871 2.54693 3.24354 0
M  V30 2623 H 255.212 0.572526 0.336319 0
M  V30 2624 H 257.742 1.99618 0.448744 0
M  V30 2625 H 257.752 3.13072 2.6163 0
M  V30 2626 H 256.427 3.80408 1.68115 0
M  V30 2627 H 255.004 2.3985 2.85529 0
M  V30 2628 N 257.189 -0.644168 1.43834 0
M  V30 2629 C 258.414 -1.43642 1.49605 0
M  V30 2630 C 258.839 -1.8773 0.117913 0
M  V30 2631 O 258.197 -1.57938 -0.890239 0
M  V30 2632 C 258.245 -2.6416 2.45463 0
M  V30 2633 O 257.349 -3.63538 1.94714 0
M  V30 2634 H 256.69 -0.430329 0.50568 0
M  V30 2635 H 259.22 -0.787448 1.8884 0
M  V30 2636 H 259.23 -3.11864 2.63068 0
M  V30 2637 H 257.905 -2.31414 3.45572 0
M  V30 2638 H 256.482 -3.2273 1.86814 0
M  V30 2639 N 258.668 -1.30515 -0.883378 0
M  V30 2640 C 259.578 -1.18959 -2.02203 0
M  V30 2641 C 260.594 -0.109172 -1.73657 0
M  V30 2642 O 261.77 -0.324413 -1.9877 0
M  V30 2643 C 258.835 -0.883871 -3.35244 0
M  V30 2644 C 257.896 -2.04982 -3.77201 0
M  V30 2645 C 257.129 -1.75859 -5.03894 0
M  V30 2646 O 257.352 -0.687276 -5.66244 0
M  V30 2647 O 256.286 -2.61146 -5.42297 0
M  V30 2648 H 260.112 -2.14616 -2.1488 0
M  V30 2649 H 257.697 -1.10124 -1.0096 0
M  V30 2650 H 259.579 -0.728644 -4.15053 0
M  V30 2651 H 258.254 0.0427798 -3.23672 0
M  V30 2652 H 257.161 -2.26038 -2.9809 0
M  V30 2653 H 258.494 -2.95825 -3.93381 0
M  V30 2654 N 260.146 1.09593 -1.13257 0
M  V30 2655 C 261.562 1.33775 -0.870423 0
M  V30 2656 C 261.762 1.95327 0.494926 0
M  V30 2657 O 260.818 2.19853 1.2418 0
M  V30 2658 C 262.131 2.25106 -1.99369 0
M  V30 2659 C 263.679 2.3862 -2.02558 0
M  V30 2660 C 264.154 3.33285 -3.14142 0
M  V30 2661 N 265.645 3.40857 -3.13641 0
M  V30 2662 C 266.38 4.14101 -3.96621 0
M  V30 2663 N 265.876 4.90157 -4.8961 0
M  V30 2664 N 267.669 4.09808 -3.84726 0
M  V30 2665 H 259.82 0.680136 -2.01216 0
M  V30 2666 H 262.083 0.362133 -0.876107 0
M  V30 2667 H 261.789 1.87103 -2.97801 0
M  V30 2668 H 261.663 3.25481 -1.90635 0
M  V30 2669 H 264.05 2.75887 -1.0474 0
M  V30 2670 H 264.131 1.38028 -2.15364 0
M  V30 2671 H 263.775 2.96741 -4.12198 0
M  V30 2672 H 263.705 4.33776 -2.98574 0
M  V30 2673 H 266.196 2.86624 -2.46282 0
M  V30 2674 H 266.509 5.4347 -5.49418 0
M  V30 2675 H 264.854 4.89251 -4.93617 0
M  V30 2676 H 268.045 3.4949 -3.11408 0
M  V30 2677 H 268.218 4.66629 -4.49623 0
M  V30 2678 N 261.624 0.925811 1.2754 0
M  V30 2679 C 262.854 0.580666 1.98272 0
M  V30 2680 C 263.262 -0.845207 1.69272 0
M  V30 2681 O 262.605 -1.57306 0.948707 0
M  V30 2682 C 262.667 0.724418 3.52126 0
M  V30 2683 C 262.331 2.12206 4.04744 0
M  V30 2684 C 263.328 3.09604 4.17662 0
M  V30 2685 C 261.013 2.4385 4.39138 0
M  V30 2686 C 263.007 4.36755 4.64246 0
M  V30 2687 C 260.694 3.71237 4.85414 0
M  V30 2688 C 261.692 4.67503 4.97926 0
M  V30 2689 O 261.38 5.92624 5.43187 0
M  V30 2690 H 261.112 0.218987 0.639547 0
M  V30 2691 H 263.666 1.24452 1.63404 0
M  V30 2692 H 261.896 0.0034663 3.867 0
M  V30 2693 H 263.585 0.384607 4.04074 0
M  V30 2694 H 264.351 2.86478 3.91351 0
M  V30 2695 H 260.23 1.69665 4.28643 0
M  V30 2696 H 263.774 5.11898 4.73927 0
M  V30 2697 H 259.671 3.94182 5.11166 0
M  V30 2698 H 260.439 5.95585 5.61445 0
M  V30 2699 N 263.102 -1.41638 0.69111 0
M  V30 2700 C 264.032 -2.3347 0.037248 0
M  V30 2701 C 265.013 -1.51575 -0.771947 0
M  V30 2702 O 266.198 -1.80126 -0.72582 0
M  V30 2703 C 263.328 -3.35354 -0.903064 0
M  V30 2704 C 262.282 -4.27526 -0.201288 0
M  V30 2705 C 261.608 -5.19747 -1.25565 0
M  V30 2706 C 262.908 -5.13959 0.929689 0
M  V30 2707 H 264.602 -2.88397 0.804227 0
M  V30 2708 H 262.148 -1.38669 0.388189 0
M  V30 2709 H 264.101 -3.98519 -1.36969 0
M  V30 2710 H 262.825 -2.78767 -1.70166 0
M  V30 2711 H 261.484 -3.65779 0.245265 0
M  V30 2712 H 261.132 -4.59479 -2.04666 0
M  V30 2713 H 260.832 -5.8225 -0.791128 0
M  V30 2714 H 262.356 -5.85789 -1.72288 0
M  V30 2715 H 263.77 -5.70718 0.543546 0
M  V30 2716 H 262.167 -5.85379 1.32103 0
M  V30 2717 H 263.237 -4.51389 1.77133 0
M  V30 2718 N 264.58 -0.43555 -1.51462 0
M  V30 2719 C 265.53 0.394701 -2.24558 0
M  V30 2720 C 266.514 0.99157 -1.26715 0
M  V30 2721 O 267.706 0.910007 -1.51815 0
M  V30 2722 C 264.835 1.4963 -3.08975 0
M  V30 2723 C 263.921 0.908912 -4.14246 0
M  V30 2724 N 264.312 0.0505335 -5.05775 0
M  V30 2725 C 262.61 1.17668 -4.30198 0
M  V30 2726 C 263.311 -0.279161 -5.8103 0
M  V30 2727 N 262.287 0.336767 -5.42556 0
M  V30 2728 H 266.089 -0.267106 -2.92684 0
M  V30 2729 H 263.603 -0.247518 -1.60503 0
M  V30 2730 H 265.6 2.10394 -3.59917 0
M  V30 2731 H 264.26 2.16046 -2.42393 0
M  V30 2732 H 265.271 -0.31577 -5.16936 0
M  V30 2733 H 261.948 1.83847 -3.74842 0
M  V30 2734 H 263.338 -0.977553 -6.64751 0
M  V30 2735 N 266.058 1.56714 -0.166846 0
M  V30 2736 C 266.988 2.20754 0.760913 0
M  V30 2737 C 267.969 1.16178 1.24244 0
M  V30 2738 O 269.154 1.44592 1.29641 0
M  V30 2739 C 266.284 2.84478 1.99223 0
M  V30 2740 C 265.238 3.95053 1.64672 0
M  V30 2741 C 264.564 4.45805 2.95232 0
M  V30 2742 C 265.864 5.14865 0.878155 0
M  V30 2743 H 267.558 2.98537 0.22713 0
M  V30 2744 H 265.104 1.43596 0.107805 0
M  V30 2745 H 267.057 3.27951 2.64624 0
M  V30 2746 H 265.781 2.04056 2.55007 0
M  V30 2747 H 264.44 3.52228 1.01641 0
M  V30 2748 H 264.088 3.62181 3.49047 0
M  V30 2749 H 263.788 5.204 2.7287 0
M  V30 2750 H 265.312 4.91962 3.6167 0
M  V30 2751 H 266.726 5.55059 1.43466 0
M  V30 2752 H 265.123 5.95348 0.753738 0
M  V30 2753 H 266.193 4.84735 -0.126377 0
M  V30 2754 N 267.536 -0.106894 1.57237 0
M  V30 2755 C 268.761 -0.830287 1.90055 0
M  V30 2756 C 269.186 -1.72064 0.75998 0
M  V30 2757 O 268.544 -1.78982 -0.288991 0
M  V30 2758 C 268.592 -1.6295 3.21683 0
M  V30 2759 O 267.696 -2.73748 3.08441 0
M  V30 2760 H 267.037 -0.228855 0.623315 0
M  V30 2761 H 269.567 -0.085658 2.04421 0
M  V30 2762 H 269.577 -2.01621 3.54701 0
M  V30 2763 H 268.252 -0.975989 4.04286 0
M  V30 2764 H 266.829 -2.38192 2.86913 0
M  V30 2765 N 269.014 -1.53014 -0.377408 0
M  V30 2766 C 270.242 -1.72515 -1.14219 0
M  V30 2767 C 270.657 -0.448735 -1.8339 0
M  V30 2768 O 270.014 0.577592 -1.73119 0
M  V30 2769 C 270.065 -2.8826 -2.18148 0
M  V30 2770 O 269.786 -4.10962 -1.51795 0
M  V30 2771 C 271.287 -3.19536 -3.07264 0
M  V30 2772 H 268.507 -0.577301 -0.342001 0
M  V30 2773 H 271.051 -1.99712 -0.439935 0
M  V30 2774 H 269.206 -2.63492 -2.83991 0
M  V30 2775 H 269.62 -4.75693 -2.20945 0
M  V30 2776 H 271.094 -4.03959 -3.76193 0
M  V30 2777 H 271.571 -2.34403 -3.71419 0
M  V30 2778 H 272.177 -3.46186 -2.47053 0
M  V30 2779 N 270.492 0.636531 -1.44174 0
M  V30 2780 C 271.455 1.73063 -1.50273 0
M  V30 2781 C 272.455 1.56113 -0.385397 0
M  V30 2782 O 273.645 1.61707 -0.64781 0
M  V30 2783 C 270.777 3.12096 -1.37145 0
M  V30 2784 H 271.97 1.69031 -2.47727 0
M  V30 2785 H 269.523 0.849706 -1.31186 0
M  V30 2786 H 270.258 3.21728 -0.407636 0
M  V30 2787 H 270.043 3.25805 -2.18159 0
M  V30 2788 H 271.533 3.91846 -1.44382 0
M  V30 2789 N 271.97 1.30982 0.876444 0
M  V30 2790 C 273.195 1.23373 1.66715 0
M  V30 2791 C 273.62 -0.19885 1.87046 0
M  V30 2792 O 272.978 -1.1427 1.40756 0
M  V30 2793 C 273.026 1.97644 3.01611 0
M  V30 2794 O 272.13 1.30935 3.91062 0
M  V30 2795 H 271.471 0.426279 0.509099 0
M  V30 2796 H 274.001 1.72944 1.09323 0
M  V30 2797 H 274.011 2.06992 3.51594 0
M  V30 2798 H 272.686 3.01829 2.86133 0
M  V30 2799 H 271.263 1.29996 3.49507 0
M  V30 2800 N 273.449 -1.08991 1.13837 0
M  V30 2801 C 274.697 -1.80899 0.901098 0
M  V30 2802 C 275.018 -1.86356 -0.574134 0
M  V30 2803 O 274.288 -1.35235 -1.41733 0
M  V30 2804 H 272.868 -0.669966 0.330386 0
M  V30 2805 H 275.53 -1.318 1.43578 0
M  V30 2806 H 274.626 -2.83929 1.29578 0
M  V30 2807 N 274.927 -0.932562 -1.27047 0
M  V30 2808 C 275.837 -0.441219 -2.30414 0
M  V30 2809 C 276.853 0.480525 -1.67233 0
M  V30 2810 O 278.029 0.362151 -1.98117 0
M  V30 2811 C 275.094 0.293651 -3.45454 0
M  V30 2812 C 274.155 -0.663601 -4.2414 0
M  V30 2813 C 273.388 0.0362932 -5.33688 0
M  V30 2814 O 273.611 1.2548 -5.56427 0
M  V30 2815 O 272.545 -0.638015 -5.98509 0
M  V30 2816 H 276.371 -1.29962 -2.74488 0
M  V30 2817 H 273.956 -0.6981 -1.32087 0
M  V30 2818 H 275.838 0.707951 -4.15411 0
M  V30 2819 H 274.513 1.12758 -3.03426 0
M  V30 2820 H 273.42 -1.12768 -3.56699 0
M  V30 2821 H 274.753 -1.46489 -4.69896 0
M  V30 2822 N 276.405 1.4127 -0.698611 0
M  V30 2823 C 277.335 2.33447 -0.049629 0
M  V30 2824 C 278.316 1.51982 0.763898 0
M  V30 2825 O 279.501 1.80509 0.716257 0
M  V30 2826 C 276.631 3.35828 0.885267 0
M  V30 2827 C 275.585 4.27627 0.178613 0
M  V30 2828 C 274.911 5.20406 1.22807 0
M  V30 2829 C 276.211 5.13459 -0.956933 0
M  V30 2830 H 277.905 2.87966 -0.81951 0
M  V30 2831 H 275.451 1.38461 -0.395538 0
M  V30 2832 H 277.404 3.9924 1.34854 0
M  V30 2833 H 276.128 2.79666 1.68685 0
M  V30 2834 H 274.787 3.65643 -0.26466 0
M  V30 2835 H 274.435 4.60558 2.02226 0
M  V30 2836 H 274.135 5.82661 0.760239 0
M  V30 2837 H 275.659 5.86695 1.69179 0
M  V30 2838 H 277.073 5.70421 -0.573805 0
M  V30 2839 H 275.47 5.8467 -1.35205 0
M  V30 2840 H 276.54 4.50443 -1.79524 0
M  V30 2841 N 277.883 0.443576 1.51229 0
M  V30 2842 C 278.815 -0.400608 2.25672 0
M  V30 2843 C 279.828 -0.980945 1.29928 0
M  V30 2844 O 281.017 -0.874024 1.55638 0
M  V30 2845 C 278.117 -1.57304 3.00181 0
M  V30 2846 C 277.29 -1.11046 4.23069 0
M  V30 2847 C 276.349 -2.15374 4.80105 0
M  V30 2848 O 275.375 -1.74554 5.41774 0
M  V30 2849 N 276.577 -3.47922 4.64683 0
M  V30 2850 H 279.342 0.23745 2.98758 0
M  V30 2851 H 276.903 0.272809 1.59585 0
M  V30 2852 H 278.895 -2.26733 3.35223 0
M  V30 2853 H 277.465 -2.11632 2.30066 0
M  V30 2854 H 276.685 -0.243019 3.9345 0
M  V30 2855 H 277.973 -0.778888 5.02803 0
M  V30 2856 H 277.371 -3.83815 4.15575 0
M  V30 2857 H 275.928 -4.13228 5.0407 0
M  V30 2858 N 279.361 -1.56624 0.175154 0
M  V30 2859 C 280.607 -1.9729 -0.469506 0
M  V30 2860 C 280.94 -1.06128 -1.62636 0
M  V30 2861 O 280.215 -0.109183 -1.94193 0
M  V30 2862 C 280.498 -3.47375 -0.948804 0
M  V30 2863 C 280.351 -4.49317 0.208491 0
M  V30 2864 C 281.67 -4.00652 -1.82116 0
M  V30 2865 H 278.789 -0.717317 -0.16919 0
M  V30 2866 H 281.431 -1.88184 0.262062 0
M  V30 2867 H 279.581 -3.55267 -1.57219 0
M  V30 2868 H 281.253 -4.53482 0.845682 0
M  V30 2869 H 279.496 -4.25121 0.863395 0
M  V30 2870 H 280.167 -5.51741 -0.169059 0
M  V30 2871 H 282.643 -3.95416 -1.2956 0
M  V30 2872 H 281.519 -5.06075 -2.12554 0
M  V30 2873 H 281.78 -3.44699 -2.7683 0
M  V30 2874 N 280.839 0.0985539 -1.57292 0
M  V30 2875 C 282.116 0.834155 -1.76921 0
M  V30 2876 C 282.496 1.97101 -0.755928 0
M  V30 2877 O 281.844 2.27474 0.216245 0
M  V30 2878 C 282.054 1.33194 -3.22584 0
M  V30 2879 C 283.402 1.77611 -3.85668 0
M  V30 2880 O 284.426 1.42825 -3.26312 0
M  V30 2881 O 283.285 2.4192 -4.90038 0
M  V30 2882 H 280.379 0.397628 -0.725135 0
M  V30 2883 H 282.925 0.0807044 -1.69508 0
M  V30 2884 H 281.697 0.517248 -3.87866 0
M  V30 2885 H 281.32 2.1475 -3.34616 0
M  V30 2886 N 282.317 1.53212 0.369288 0
M  V30 2887 C 283.28 1.7872 1.43498 0
M  V30 2888 C 284.28 0.657554 1.46741 0
M  V30 2889 O 285.47 0.925736 1.47566 0
M  V30 2890 C 282.602 1.90591 2.82645 0
M  V30 2891 H 283.795 2.73894 1.22156 0
M  V30 2892 H 281.348 1.44233 0.602203 0
M  V30 2893 H 282.083 0.974709 3.09306 0
M  V30 2894 H 281.868 2.72751 2.8169 0
M  V30 2895 H 283.358 2.11931 3.59826 0
M  V30 2896 N 283.795 -0.628877 1.44509 0
M  V30 2897 C 285.02 -1.42048 1.5112 0
M  V30 2898 C 285.445 -1.87594 0.137818 0
M  V30 2899 O 284.803 -1.58873 -0.873437 0
M  V30 2900 C 284.851 -2.61541 2.48251 0
M  V30 2901 O 283.955 -3.61453 1.98559 0
M  V30 2902 H 283.296 -0.424942 0.510216 0
M  V30 2903 H 285.826 -0.767374 1.89664 0
M  V30 2904 H 285.836 -3.09057 2.66361 0
M  V30 2905 H 284.511 -2.27736 3.48007 0
M  V30 2906 H 283.088 -3.20731 1.90227 0
M  V30 2907 N 285.273 -1.31445 -0.869486 0
M  V30 2908 C 286.52 -1.21158 -1.62256 0
M  V30 2909 C 286.848 0.230155 -1.93133 0
M  V30 2910 O 286.103 1.17906 -1.56194 0
M  V30 2911 C 286.402 -2.00145 -2.96102 0
M  V30 2912 C 286.068 -3.4964 -2.84715 0
M  V30 2913 C 284.73 -3.90403 -2.81317 0
M  V30 2914 C 287.082 -4.44769 -2.71716 0
M  V30 2915 C 284.41 -5.24561 -2.62778 0
M  V30 2916 C 286.762 -5.79054 -2.54714 0
M  V30 2917 C 285.426 -6.19037 -2.49699 0
M  V30 2918 H 284.696 -0.443348 -0.593737 0
M  V30 2919 H 287.343 -1.62715 -1.00976 0
M  V30 2920 H 285.648 -1.5127 -3.6142 0
M  V30 2921 H 287.345 -1.89566 -3.53363 0
M  V30 2922 H 283.935 -3.17256 -2.88178 0
M  V30 2923 H 288.119 -4.14208 -2.73397 0
M  V30 2924 H 283.375 -5.54613 -2.57321 0
M  V30 2925 H 287.549 -6.52393 -2.43632 0
M  V30 2926 H 285.176 -7.22935 -2.35093 0
M  V30 2927 N 286.751 1.08385 -1.14413 0
M  V30 2928 C 287.684 2.14642 -0.774871 0
M  V30 2929 C 288.662 1.60761 0.243876 0
M  V30 2930 O 289.846 1.88031 0.132883 0
M  V30 2931 C 286.973 3.38366 -0.150491 0
M  V30 2932 C 286.019 4.10997 -1.13945 0
M  V30 2933 S 286.852 4.63797 -2.67679 0
M  V30 2934 C 288.008 5.90808 -2.06631 0
M  V30 2935 H 288.241 2.45633 -1.67487 0
M  V30 2936 H 285.774 1.20498 -0.96538 0
M  V30 2937 H 287.732 4.09996 0.203334 0
M  V30 2938 H 286.393 3.05572 0.72694 0
M  V30 2939 H 285.586 4.99783 -0.65059 0
M  V30 2940 H 285.188 3.4528 -1.43727 0
M  V30 2941 H 287.48 6.62411 -1.4219 0
M  V30 2942 H 288.423 6.4439 -2.93542 0
M  V30 2943 H 288.831 5.4383 -1.51357 0
M  V30 2944 N 288.23 0.939286 1.26551 0
M  V30 2945 C 289.162 0.404704 2.25599 0
M  V30 2946 C 290.175 -0.470983 1.55838 0
M  V30 2947 O 291.364 -0.281734 1.76263 0
M  V30 2948 C 288.464 -0.43764 3.36062 0
M  V30 2949 C 287.637 0.421449 4.35365 0
M  V30 2950 C 286.696 -0.36015 5.24966 0
M  V30 2951 O 285.722 0.236167 5.6871 0
M  V30 2952 N 286.924 -1.65715 5.56344 0
M  V30 2953 H 289.689 1.25618 2.72103 0
M  V30 2954 H 287.25 0.807963 1.40298 0
M  V30 2955 H 289.242 -0.967866 3.92956 0
M  V30 2956 H 287.812 -1.18991 2.89067 0
M  V30 2957 H 287.032 1.1329 3.7757 0
M  V30 2958 H 288.32 1.00835 4.98708 0
M  V30 2959 H 287.718 -2.16378 5.22682 0
M  V30 2960 H 286.275 -2.13366 6.15888 0
M  V30 2961 N 289.708 -1.40897 0.706093 0
M  V30 2962 C 290.936 -2.05373 0.250887 0
M  V30 2963 C 291.351 -1.53172 -1.10381 0
M  V30 2964 O 290.708 -0.684305 -1.69185 0
M  V30 2965 C 290.759 -3.6088 0.211571 0
M  V30 2966 O 290.48 -4.11153 1.51276 0
M  V30 2967 C 291.981 -4.42517 -0.263346 0
M  V30 2968 H 289.201 -0.66115 0.114552 0
M  V30 2969 H 291.745 -1.80479 0.961635 0
M  V30 2970 H 289.9 -3.84777 -0.450073 0
M  V30 2971 H 290.314 -5.05279 1.40689 0
M  V30 2972 H 291.788 -5.51479 -0.239718 0
M  V30 2973 H 292.265 -4.19396 -1.30397 0
M  V30 2974 H 292.871 -4.23708 0.367677 0
M  V30 2975 N 291.186 -0.45159 -1.50991 0
M  V30 2976 C 292.116 0.342898 -2.30969 0
M  V30 2977 C 293.097 1.00815 -1.37005 0
M  V30 2978 O 294.282 1.00907 -1.65926 0
M  V30 2979 C 291.412 1.43637 -3.16205 0
M  V30 2980 C 290.366 0.893818 -4.18563 0
M  V30 2981 C 289.692 2.08411 -4.92411 0
M  V30 2982 C 290.992 -0.0815568 -5.22236 0
M  V30 2983 H 292.686 -0.324556 -2.97636 0
M  V30 2984 H 290.232 -0.157531 -1.43136 0
M  V30 2985 H 292.185 1.9995 -3.70942 0
M  V30 2986 H 290.909 2.13232 -2.47386 0
M  V30 2987 H 289.568 0.352798 -3.64898 0
M  V30 2988 H 289.216 2.76658 -4.20082 0
M  V30 2989 H 288.916 1.72741 -5.61636 0
M  V30 2990 H 290.44 2.65251 -5.49976 0
M  V30 2991 H 291.854 0.391742 -5.7196 0
M  V30 2992 H 290.251 -0.351551 -5.99069 0
M  V30 2993 H 291.321 -1.01374 -4.74185 0
M  V30 2994 N 292.664 1.56529 -0.183458 0
M  V30 2995 C 293.91 1.98304 0.452466 0
M  V30 2996 C 294.265 1.06799 1.60037 0
M  V30 2997 O 293.558 0.110049 1.91284 0
M  V30 2998 C 293.752 3.43939 0.971637 0
M  V30 2999 C 293.581 4.49528 -0.124425 0
M  V30 3000 C 292.351 5.01981 -0.578168 0
M  V30 3001 C 294.549 5.05836 -0.929207 0
M  V30 3002 N 292.531 5.91219 -1.65327 0
M  V30 3003 C 293.902 5.91632 -1.85396 0
M  V30 3004 C 295.957 4.88302 -0.972929 0
M  V30 3005 C 294.66 6.61768 -2.81878 0
M  V30 3006 C 296.686 5.59168 -1.92574 0
M  V30 3007 C 296.048 6.44701 -2.83795 0
M  V30 3008 H 292.147 0.770551 0.133324 0
M  V30 3009 H 294.731 1.92581 -0.286473 0
M  V30 3010 H 292.902 3.50184 1.68006 0
M  V30 3011 H 294.634 3.72702 1.5772 0
M  V30 3012 H 291.389 4.73282 -0.173639 0
M  V30 3013 H 291.813 6.40543 -2.19167 0
M  V30 3014 H 296.455 4.21861 -0.28168 0
M  V30 3015 H 294.173 7.27415 -3.51984 0
M  V30 3016 H 297.759 5.47582 -1.96583 0
M  V30 3017 H 296.639 6.98573 -3.56322 0
M  V30 3018 N 294.142 -0.090211 1.57342 0
M  V30 3019 C 295.09 -1.12792 2.03422 0
M  V30 3020 C 296.084 -1.41182 0.936166 0
M  V30 3021 O 297.29 -1.40805 1.12133 0
M  V30 3022 H 293.665 -0.380986 0.648347 0
M  V30 3023 H 295.636 -0.71299 2.89757 0
M  V30 3024 C 294.385 -2.43855 2.47851 0
M  V30 3025 H 293.708 -2.22855 3.31927 0
M  V30 3026 H 295.148 -3.14955 2.83865 0
M  V30 3027 C 293.607 -3.08503 1.3538 0
M  V30 3028 O 294.137 -3.95805 0.685641 0
M  V30 3029 N 292.343 -2.68831 1.10355 0
M  V30 3030 H 291.89 -1.97929 1.64869 0
M  V30 3031 H 291.848 -3.12412 0.353031 0
M  V30 3032 N 295.62 -1.53406 -0.361157 0
M  V30 3033 C 296.553 -1.74946 -1.46524 0
M  V30 3034 C 297.531 -0.59795 -1.51206 0
M  V30 3035 O 298.715 -0.831062 -1.69191 0
M  V30 3036 C 295.842 -1.83224 -2.84863 0
M  V30 3037 C 294.888 -3.05233 -2.97885 0
M  V30 3038 S 295.721 -4.6466 -2.66179 0
M  V30 3039 C 296.877 -4.75793 -4.06659 0
M  V30 3040 H 297.11 -2.68319 -1.28033 0
M  V30 3041 H 294.643 -1.44051 -0.555764 0
M  V30 3042 H 296.601 -1.88679 -3.64569 0
M  V30 3043 H 295.262 -0.908948 -3.00661 0
M  V30 3044 H 294.455 -3.07648 -3.9921 0
M  V30 3045 H 294.057 -2.97913 -2.26106 0
M  V30 3046 H 296.349 -4.5612 -5.0096 0
M  V30 3047 H 297.292 -5.7786 -4.09247 0
M  V30 3048 H 297.7 -4.04389 -3.93865 0
M  V30 3049 N 297.098 0.621204 -1.44841 0
M  V30 3050 C 298.046 1.75385 -1.52784 0
M  V30 3051 C 299.04 1.64639 -0.398779 0
M  V30 3052 O 300.246 1.70598 -0.574137 0
M  V30 3053 H 296.621 0.579193 -0.479625 0
M  V30 3054 H 298.592 1.6581 -2.48092 0
M  V30 3055 C 297.341 3.13742 -1.4987 0
M  V30 3056 H 296.664 3.22663 -2.36069 0
M  V30 3057 H 298.104 3.92861 -1.59487 0
M  V30 3058 C 296.563 3.36175 -0.220973 0
M  V30 3059 O 297.093 3.95469 0.704782 0
M  V30 3060 N 295.299 2.90348 -0.120963 0
M  V30 3061 H 294.846 2.42278 -0.875162 0
M  V30 3062 H 294.804 3.05732 0.733168 0
M  V30 3063 N 298.576 1.31904 0.862503 0
M  V30 3064 C 299.987 1.19803 1.43193 0
M  V30 3065 C 300.338 -0.192567 1.95253 0
M  V30 3066 O 299.463 -1.09081 1.86896 0
M  V30 3067 C 300.058 2.16883 2.60283 0
M  V30 3068 C 298.617 2.08692 3.13248 0
M  V30 3069 C 297.764 2.05691 1.85975 0
M  V30 3070 H 300.715 1.43846 0.670365 0
M  V30 3071 H 300.736 1.76278 3.37204 0
M  V30 3072 H 300.248 3.18083 2.22363 0
M  V30 3073 H 298.349 1.10713 3.55771 0
M  V30 3074 H 298.462 2.9815 3.75025 0
M  V30 3075 H 296.826 1.50814 2.05249 0
M  V30 3076 H 297.609 3.08659 1.50282 0
M  V30 3077 N 300.054 -1.07777 1.14986 0
M  V30 3078 C 301.303 -1.79669 0.916617 0
M  V30 3079 C 301.616 -1.87474 -0.557917 0
M  V30 3080 O 302.822 -2.55845 -0.908617 0
M  V30 3081 C 301.278 -3.22848 1.59051 0
M  V30 3082 C 300.886 -3.23257 3.10176 0
M  V30 3083 C 302.63 -3.99379 1.43864 0
M  V30 3084 C 300.537 -4.61063 3.70372 0
M  V30 3085 H 299.467 -0.673349 0.33929 0
M  V30 3086 H 302.118 -1.21003 1.37951 0
M  V30 3087 H 300.5 -3.8168 1.0553 0
M  V30 3088 H 301.674 -2.74095 3.70417 0
M  V30 3089 H 299.989 -2.60222 3.25074 0
M  V30 3090 H 302.586 -5.0122 1.86232 0
M  V30 3091 H 302.929 -4.14511 0.385564 0
M  V30 3092 H 303.462 -3.47032 1.94457 0
M  V30 3093 H 300.201 -4.51135 4.7556 0
M  V30 3094 H 299.721 -5.1048 3.14913 0
M  V30 3095 H 301.4 -5.30034 3.71043 0
M  V30 3096 N 301.532 -0.945985 -1.26051 0
M  V30 3097 C 302.772 -0.603665 -1.95282 0
M  V30 3098 C 303.136 0.842377 -1.72534 0
M  V30 3099 O 304.337 1.29387 -2.35611 0
M  V30 3100 C 302.608 -0.942292 -3.44754 0
M  V30 3101 S 304.167 -0.711242 -4.32997 0
M  V30 3102 H 300.985 -0.222176 -0.675395 0
M  V30 3103 H 303.587 -1.21832 -1.52896 0
M  V30 3104 H 302.291 -1.99203 -3.58812 0
M  V30 3105 H 301.822 -0.317546 -3.92116 0
M  V30 3106 H 303.837 0.422221 -4.944 0
M  V30 3107 N 303.011 1.40521 -0.713556 0
M  V30 3108 C 304.236 2.05759 -0.26035 0
M  V30 3109 C 304.661 1.53403 1.08854 0
M  V30 3110 O 304.019 0.668535 1.68524 0
M  V30 3111 C 304.067 3.59745 -0.248122 0
M  V30 3112 O 303.171 4.05123 0.77131 0
M  V30 3113 H 302.512 0.652564 -0.122703 0
M  V30 3114 H 305.042 1.79958 -0.973467 0
M  V30 3115 H 305.052 4.07911 -0.0851129 0
M  V30 3116 H 303.727 3.97218 -1.2325 0
M  V30 3117 H 302.304 3.68422 0.57619 0
M  V30 3118 N 304.489 0.459591 1.5075 0
M  V30 3119 C 305.905 0.113092 1.59199 0
M  V30 3120 C 306.105 -1.37951 1.46874 0
M  V30 3121 O 305.161 -2.15168 1.32132 0
M  V30 3122 C 306.474 0.653043 2.93523 0
M  V30 3123 C 308.022 0.615449 3.0689 0
M  V30 3124 C 308.497 1.13275 4.43771 0
M  V30 3125 N 309.988 1.09167 4.50152 0
M  V30 3126 C 310.723 1.46256 5.54434 0
M  V30 3127 N 310.219 1.90739 6.66026 0
M  V30 3128 N 312.012 1.37932 5.44914 0
M  V30 3129 H 304.163 1.43049 1.57005 0
M  V30 3130 H 306.426 0.590861 0.741341 0
M  V30 3131 H 306.132 1.69822 3.07983 0
M  V30 3132 H 306.006 0.0902132 3.77092 0
M  V30 3133 H 308.393 -0.420793 2.92084 0
M  V30 3134 H 308.474 1.21495 2.25106 0
M  V30 3135 H 308.118 2.16757 4.59324 0
M  V30 3136 H 308.048 0.509576 5.24129 0
M  V30 3137 H 310.539 0.76528 3.7007 0
M  V30 3138 H 310.852 2.17218 7.41644 0
M  V30 3139 H 309.197 1.94683 6.67176 0
M  V30 3140 H 312.388 1.0303 4.56621 0
M  V30 3141 H 312.561 1.67164 6.26067 0
M  V30 3142 N 305.967 -1.56429 0.191757 0
M  V30 3143 C 307.207 -1.99383 -0.450099 0
M  V30 3144 C 307.571 -1.07581 -1.59029 0
M  V30 3145 O 308.772 -1.39758 -2.29611 0
M  V30 3146 C 307.043 -3.45841 -0.901611 0
M  V30 3147 S 308.602 -4.10822 -1.54177 0
M  V30 3148 H 305.42 -0.696253 -0.144057 0
M  V30 3149 H 308.022 -1.93276 0.294036 0
M  V30 3150 H 306.726 -4.10354 -0.0616596 0
M  V30 3151 H 306.257 -3.55757 -1.67929 0
M  V30 3152 H 308.272 -4.07553 -2.83046 0
M  V30 3153 N 307.445 0.0818655 -1.57387 0
M  V30 3154 C 308.355 1.11642 -2.06333 0
M  V30 3155 C 309.371 1.43033 -0.99083 0
M  V30 3156 O 310.547 1.53411 -1.30488 0
M  V30 3157 C 307.612 2.41342 -2.48907 0
M  V30 3158 C 306.673 2.17014 -3.7041 0
M  V30 3159 C 305.906 3.4053 -4.10944 0
M  V30 3160 O 306.129 4.4927 -3.51444 0
M  V30 3161 O 305.063 3.29336 -5.03807 0
M  V30 3162 H 308.889 0.730657 -2.9478 0
M  V30 3163 H 306.474 0.295301 -1.46452 0
M  V30 3164 H 308.356 3.17691 -2.76858 0
M  V30 3165 H 307.031 2.79319 -1.63593 0
M  V30 3166 H 305.938 1.38403 -3.47556 0
M  V30 3167 H 307.271 1.83923 -4.56545 0
M  V30 3168 N 308.923 1.53595 0.353017 0
M  V30 3169 C 309.833 1.83897 1.45667 0
M  V30 3170 C 310.849 0.728334 1.58023 0
M  V30 3171 O 312.025 1.01968 1.73679 0
M  V30 3172 C 309.09 2.03383 2.80778 0
M  V30 3173 C 308.151 3.27262 2.77845 0
M  V30 3174 C 307.384 3.45809 4.06512 0
M  V30 3175 O 307.607 2.68387 5.03314 0
M  V30 3176 O 306.541 4.39207 4.11559 0
M  V30 3177 H 310.367 2.77686 1.2298 0
M  V30 3178 H 307.952 1.39132 0.544308 0
M  V30 3179 H 309.834 2.17698 3.60812 0
M  V30 3180 H 308.509 1.12783 3.03417 0
M  V30 3181 H 307.416 3.18359 1.96465 0
M  V30 3182 H 308.749 4.17824 2.60161 0
M  V30 3183 N 310.401 -0.613514 1.45168 0
M  V30 3184 C 311.649 -1.36997 1.48581 0
M  V30 3185 C 311.97 -1.94589 0.126545 0
M  V30 3186 O 311.24 -1.76816 -0.843372 0
M  V30 3187 H 309.82 -0.508558 0.547154 0
M  V30 3188 H 312.482 -0.720853 1.81079 0
M  V30 3189 H 311.578 -2.1924 2.22127 0
M  V30 3190 N 311.879 -1.3236 -0.855495 0
M  V30 3191 C 313.126 -1.22872 -1.60962 0
M  V30 3192 C 313.454 0.209658 -1.93367 0
M  V30 3193 O 312.709 1.16243 -1.57436 0
M  V30 3194 C 313.008 -2.03275 -2.93963 0
M  V30 3195 C 312.674 -3.5264 -2.80991 0
M  V30 3196 C 311.336 -3.93364 -2.7716 0
M  V30 3197 C 313.688 -4.47626 -2.66983 0
M  V30 3198 C 311.016 -5.27319 -2.572 0
M  V30 3199 C 313.368 -5.81723 -2.48558 0
M  V30 3200 C 312.032 -6.2165 -2.4312 0
M  V30 3201 H 311.302 -0.44962 -0.589001 0
M  V30 3202 H 313.949 -1.63777 -0.992442 0
M  V30 3203 H 312.254 -1.55095 -3.59795 0
M  V30 3204 H 313.951 -1.93303 -3.51333 0
M  V30 3205 H 310.541 -3.20295 -2.84797 0
M  V30 3206 H 314.725 -4.17084 -2.68988 0
M  V30 3207 H 309.981 -5.57311 -2.51424 0
M  V30 3208 H 314.155 -6.5494 -2.36699 0
M  V30 3209 H 311.782 -7.25388 -2.27412 0
M  V30 3210 N 313.357 1.07166 -1.15556 0
M  V30 3211 C 314.603 1.80065 -0.932984 0
M  V30 3212 C 314.936 1.86586 0.53845 0
M  V30 3213 O 314.211 1.35098 1.39924 0
M  V30 3214 C 314.494 3.25022 -1.55025 0
M  V30 3215 C 314.347 3.26634 -3.09242 0
M  V30 3216 C 315.666 4.22341 -1.2376 0
M  V30 3217 H 312.785 0.653697 -0.340366 0
M  V30 3218 H 315.427 1.25389 -1.4275 0
M  V30 3219 H 313.577 3.71712 -1.12972 0
M  V30 3220 H 315.249 2.88173 -3.60214 0
M  V30 3221 H 313.492 2.65539 -3.43033 0
M  V30 3222 H 314.163 4.28854 -3.47546 0
M  V30 3223 H 316.639 3.8405 -1.60139 0
M  V30 3224 H 315.515 5.22053 -1.69564 0
M  V30 3225 H 315.776 4.41828 -0.154938 0
M  V30 3226 N 314.835 0.952656 1.25548 0
M  V30 3227 C 316.063 0.623496 1.97282 0
M  V30 3228 C 316.478 -0.803987 1.70826 0
M  V30 3229 O 315.835 -1.53755 0.983147 0
M  V30 3230 C 315.886 0.870209 3.5087 0
M  V30 3231 O 315.607 2.24156 3.76412 0
M  V30 3232 C 317.108 0.553164 4.39835 0
M  V30 3233 H 314.328 0.233931 0.628902 0
M  V30 3234 H 316.872 1.27649 1.59768 0
M  V30 3235 H 315.027 0.263652 3.86502 0
M  V30 3236 H 315.441 2.31021 4.70882 0
M  V30 3237 H 316.915 0.776342 5.46513 0
M  V30 3238 H 317.392 -0.512215 4.36203 0
M  V30 3239 H 317.998 1.13896 4.09766 0
M  V30 3240 N 316.313 -1.40141 0.720998 0
M  V30 3241 C 317.561 -2.0039 0.262323 0
M  V30 3242 C 317.882 -1.57469 -1.15015 0
M  V30 3243 O 317.152 -0.816582 -1.78069 0
M  V30 3244 H 315.732 -0.741063 0.093996 0
M  V30 3245 H 318.394 -1.71398 0.927835 0
M  V30 3246 H 317.49 -3.10658 0.299671 0
M  V30 3247 N 317.792 -0.46758 -1.50504 0
M  V30 3248 C 319.04 0.0884469 -2.01906 0
M  V30 3249 C 319.361 1.40532 -1.35188 0
M  V30 3250 O 318.631 1.89515 -0.496079 0
M  V30 3251 H 317.211 0.0356765 -0.746148 0
M  V30 3252 H 319.873 -0.6172 -1.84869 0
M  V30 3253 H 318.969 0.2425 -3.11156 0
M  V30 3254 N 319.27 1.56325 -0.20005 0
M  V30 3255 C 320.22 2.15939 0.731743 0
M  V30 3256 C 321.204 1.10154 1.17281 0
M  V30 3257 O 322.396 1.36203 1.13038 0
M  V30 3258 C 319.525 2.82614 1.94895 0
M  V30 3259 C 318.611 3.95596 1.52855 0
M  V30 3260 N 319.002 4.99118 0.819418 0
M  V30 3261 C 317.3 4.07288 1.81748 0
M  V30 3262 C 318.001 5.78513 0.608053 0
M  V30 3263 N 316.977 5.31117 1.15828 0
M  V30 3264 H 320.779 2.9334 0.181285 0
M  V30 3265 H 318.293 1.624 -0.000452172 0
M  V30 3266 H 320.29 3.23718 2.62702 0
M  V30 3267 H 318.95 2.06702 2.50408 0
M  V30 3268 H 319.961 5.15723 0.47436 0
M  V30 3269 H 316.638 3.42509 2.38734 0
M  V30 3270 H 318.028 6.71885 0.0451619 0
M  V30 3271 N 320.748 -0.0735177 1.57428 0
M  V30 3272 C 321.994 -0.774145 1.87443 0
M  V30 3273 C 322.327 -1.77311 0.792103 0
M  V30 3274 O 321.602 -1.93492 -0.197793 0
M  V30 3275 C 321.885 -1.48367 3.28115 0
M  V30 3276 C 321.738 -0.501227 4.46999 0
M  V30 3277 C 323.057 -2.429 3.66998 0
M  V30 3278 H 320.176 -0.279971 0.681752 0
M  V30 3279 H 322.818 -0.0373616 1.89963 0
M  V30 3280 H 320.968 -2.11171 3.26097 0
M  V30 3281 H 322.64 0.121468 4.6114 0
M  V30 3282 H 320.883 0.183593 4.33411 0
M  V30 3283 H 321.554 -1.03526 5.42205 0
M  V30 3284 H 324.03 -1.90175 3.70098 0
M  V30 3285 H 322.906 -2.89549 4.66318 0
M  V30 3286 H 323.167 -3.27628 2.96837 0
M  V30 3287 N 322.226 -1.5378 -0.344866 0
M  V30 3288 C 323.156 -1.84662 -1.42906 0
M  V30 3289 C 324.137 -0.701648 -1.54955 0
M  V30 3290 O 325.322 -0.953438 -1.69184 0
M  V30 3291 C 322.452 -2.05503 -2.79974 0
M  V30 3292 C 321.406 -3.21318 -2.82734 0
M  V30 3293 C 320.732 -3.2749 -4.22675 0
M  V30 3294 C 322.032 -4.59456 -2.48389 0
M  V30 3295 H 323.726 -2.75461 -1.17311 0
M  V30 3296 H 321.272 -1.32542 -0.562896 0
M  V30 3297 H 323.225 -2.25691 -3.55867 0
M  V30 3298 H 321.949 -1.11434 -3.07002 0
M  V30 3299 H 320.608 -3.00984 -2.09294 0
M  V30 3300 H 320.256 -2.31019 -4.4681 0
M  V30 3301 H 319.956 -4.05316 -4.25433 0
M  V30 3302 H 321.48 -3.49887 -5.00412 0
M  V30 3303 H 322.894 -4.79667 -3.13995 0
M  V30 3304 H 321.291 -5.39675 -2.62432 0
M  V30 3305 H 322.361 -4.63155 -1.4358 0
M  V30 3306 N 323.704 0.605807 -1.45491 0
M  V30 3307 C 325.12 0.926751 -1.29936 0
M  V30 3308 C 325.32 1.99896 -0.253706 0
M  V30 3309 O 324.376 2.50038 0.351737 0
M  V30 3310 C 325.689 1.36599 -2.67883 0
M  V30 3311 C 327.237 1.4801 -2.75793 0
M  V30 3312 C 327.712 1.95309 -4.14268 0
M  V30 3313 N 329.203 2.0254 -4.16571 0
M  V30 3314 C 329.938 2.40363 -5.20589 0
M  V30 3315 N 329.434 2.77143 -6.34952 0
M  V30 3316 N 331.227 2.40718 -5.07948 0
M  V30 3317 H 323.378 -0.102862 -2.12151 0
M  V30 3318 H 325.641 0.016639 -0.947854 0
M  V30 3319 H 325.347 0.652306 -3.45598 0
M  V30 3320 H 325.221 2.33215 -2.96463 0
M  V30 3321 H 327.608 2.1847 -1.98381 0
M  V30 3322 H 327.689 0.497041 -2.50925 0
M  V30 3323 H 327.333 1.25436 -4.92167 0
M  V30 3324 H 327.263 2.94532 -4.3653 0
M  V30 3325 H 329.754 1.76699 -3.34045 0
M  V30 3326 H 330.067 3.0489 -7.10114 0
M  V30 3327 H 328.412 2.74834 -6.3835 0
M  V30 3328 H 331.603 2.11392 -4.1765 0
M  V30 3329 H 331.776 2.69869 -5.89131 0
M  V30 3330 N 325.182 1.32811 0.848464 0
M  V30 3331 C 326.112 1.24882 1.97299 0
M  V30 3332 C 327.093 0.131357 1.69592 0
M  V30 3333 O 328.278 0.319553 1.91553 0
M  V30 3334 C 325.408 0.97746 3.33261 0
M  V30 3335 C 324.362 2.05682 3.75338 0
M  V30 3336 C 323.688 1.63777 5.09 0
M  V30 3337 C 324.988 3.47254 3.90144 0
M  V30 3338 H 326.682 2.18966 2.04191 0
M  V30 3339 H 324.228 1.05413 0.981029 0
M  V30 3340 H 326.181 0.908513 4.1149 0
M  V30 3341 H 324.905 0.000980011 3.266 0
M  V30 3342 H 323.564 2.11603 2.99366 0
M  V30 3343 H 323.212 0.648569 4.98801 0
M  V30 3344 H 322.912 2.36 5.38124 0
M  V30 3345 H 324.436 1.5833 5.89715 0
M  V30 3346 H 325.85 3.43888 4.58709 0
M  V30 3347 H 324.247 4.1788 4.30693 0
M  V30 3348 H 325.317 3.86462 2.92874 0
M  V30 3349 N 326.66 -1.06551 1.16123 0
M  V30 3350 C 327.907 -1.79302 0.941126 0
M  V30 3351 C 328.235 -1.87105 -0.531235 0
M  V30 3352 O 327.49 -1.35692 -1.41018 0
M  V30 3353 C 327.789 -3.23911 1.51052 0
M  V30 3354 C 327.455 -3.36193 3.00475 0
M  V30 3355 C 326.117 -3.39252 3.41265 0
M  V30 3356 C 328.469 -3.38326 3.96465 0
M  V30 3357 C 325.797 -3.42057 4.76669 0
M  V30 3358 C 328.149 -3.4267 5.31752 0
M  V30 3359 C 326.813 -3.4401 5.72026 0
M  V30 3360 H 326.083 -0.656111 0.344382 0
M  V30 3361 H 328.73 -1.25325 1.44796 0
M  V30 3362 H 327.035 -3.80723 0.925063 0
M  V30 3363 H 328.732 -3.78793 1.31593 0
M  V30 3364 H 325.322 -3.34516 2.6795 0
M  V30 3365 H 329.506 -3.35176 3.6602 0
M  V30 3366 H 324.762 -3.41398 5.07206 0
M  V30 3367 H 328.936 -3.43268 6.05921 0
M  V30 3368 H 326.563 -3.45937 6.76928 0
M  V30 3369 N 328.138 -0.959301 -1.25041 0
M  V30 3370 C 329.088 -0.453888 -2.23436 0
M  V30 3371 C 330.072 0.459461 -1.542 0
M  V30 3372 O 331.264 0.291752 -1.74579 0
M  V30 3373 C 328.393 0.262667 -3.42294 0
M  V30 3374 C 327.479 -0.669022 -4.1879 0
M  V30 3375 N 327.87 -1.80267 -4.72586 0
M  V30 3376 C 326.168 -0.47814 -4.4343 0
M  V30 3377 C 326.869 -2.38475 -5.3057 0
M  V30 3378 N 325.845 -1.67078 -5.17287 0
M  V30 3379 H 329.647 -1.319 -2.6264 0
M  V30 3380 H 327.161 -0.817358 -1.40332 0
M  V30 3381 H 329.158 0.641911 -4.11929 0
M  V30 3382 H 327.818 1.12432 -3.04613 0
M  V30 3383 H 328.829 -2.18442 -4.69578 0
M  V30 3384 H 325.506 0.340249 -4.16111 0
M  V30 3385 H 326.896 -3.34094 -5.8295 0
M  V30 3386 N 329.616 1.39756 -0.72842 0
M  V30 3387 C 330.864 2.00248 -0.272946 0
M  V30 3388 C 331.185 1.58077 1.14178 0
M  V30 3389 O 330.455 0.826014 1.77634 0
M  V30 3390 H 329.035 0.740554 -0.0979247 0
M  V30 3391 H 331.697 1.70903 -0.936912 0
M  V30 3392 H 330.793 3.10495 -0.316142 0
M  V30 3393 N 331.094 0.475555 1.50254 0
M  V30 3394 C 332.044 -0.335025 2.25525 0
M  V30 3395 C 333.028 -0.957625 1.29299 0
M  V30 3396 O 334.22 -0.869436 1.54175 0
M  V30 3397 C 331.349 -1.41385 3.12834 0
M  V30 3398 C 330.435 -0.798762 4.1651 0
M  V30 3399 N 330.826 0.0835815 5.05731 0
M  V30 3400 C 329.124 -1.06221 4.33166 0
M  V30 3401 C 329.825 0.433113 5.80085 0
M  V30 3402 N 328.801 -0.1928 5.43258 0
M  V30 3403 H 332.603 0.344612 2.91873 0
M  V30 3404 H 330.117 0.289986 1.5979 0
M  V30 3405 H 332.114 -2.00777 3.65368 0
M  V30 3406 H 330.774 -2.09543 2.48036 0
M  V30 3407 H 331.785 0.452715 5.15918 0
M  V30 3408 H 328.462 -1.73844 3.79585 0
M  V30 3409 H 329.852 1.15346 6.61925 0
M  V30 3410 N 332.573 -1.56217 0.208337 0
M  V30 3411 C 333.506 -2.15633 -0.746842 0
M  V30 3412 C 334.484 -1.09685 -1.20034 0
M  V30 3413 O 335.668 -1.3787 -1.28547 0
M  V30 3414 C 332.795 -2.72594 -2.01023 0
M  V30 3415 C 331.841 -3.91251 -1.69779 0
M  V30 3416 S 332.674 -5.28962 -0.834209 0
M  V30 3417 C 333.83 -5.89353 -2.10745 0
M  V30 3418 H 334.063 -2.96315 -0.241789 0
M  V30 3419 H 331.596 -1.54398 -0.00682183 0
M  V30 3420 H 333.554 -3.06053 -2.73572 0
M  V30 3421 H 332.215 -1.91929 -2.48641 0
M  V30 3422 H 331.408 -4.29562 -2.63614 0
M  V30 3423 H 331.01 -3.58869 -1.05303 0
M  V30 3424 H 333.302 -6.04522 -3.05875 0
M  V30 3425 H 334.245 -6.85661 -1.76845 0
M  V30 3426 H 334.653 -5.1807 -2.24196 0
M  V30 3427 N 334.051 0.0651679 -1.57465 0
M  V30 3428 C 335.328 0.79644 -1.78651 0
M  V30 3429 C 335.708 1.95454 -0.797566 0
M  V30 3430 O 335.056 2.27882 0.167946 0
M  V30 3431 C 335.266 1.26322 -3.25337 0
M  V30 3432 C 336.614 1.6939 -3.89348 0
M  V30 3433 O 337.638 1.35872 -3.29268 0
M  V30 3434 O 336.497 2.31471 -4.95059 0
M  V30 3435 H 333.591 0.382157 -0.733407 0
M  V30 3436 H 336.137 0.0447311 -1.69641 0
M  V30 3437 H 334.909 0.434859 -3.88876 0
M  V30 3438 H 334.532 2.07604 -3.39096 0
M  V30 3439 N 335.529 1.53961 0.336706 0
M  V30 3440 C 336.439 1.85432 1.43708 0
M  V30 3441 C 337.455 0.745053 1.57242 0
M  V30 3442 O 338.631 1.03804 1.72588 0
M  V30 3443 C 335.696 2.06349 2.78605 0
M  V30 3444 C 334.757 3.30191 2.74358 0
M  V30 3445 C 333.99 3.50101 4.02822 0
M  V30 3446 O 334.213 2.7371 5.00439 0
M  V30 3447 O 333.147 4.43547 4.06878 0
M  V30 3448 H 336.973 2.78975 1.20028 0
M  V30 3449 H 334.558 1.39701 0.52952 0
M  V30 3450 H 336.44 2.21513 3.58483 0
M  V30 3451 H 335.115 1.15995 3.02203 0
M  V30 3452 H 334.022 3.20425 1.93078 0
M  V30 3453 H 335.355 4.2056 2.55715 0
M  V30 3454 N 337.007 -0.598083 1.45811 0
M  V30 3455 C 338.247 -1.36802 1.5187 0
M  V30 3456 C 338.611 -1.9133 0.160224 0
M  V30 3457 O 339.812 -2.6863 0.0955302 0
M  V30 3458 C 338.083 -2.47835 2.57513 0
M  V30 3459 S 339.642 -3.35458 2.82866 0
M  V30 3460 H 336.46 -0.466278 0.536755 0
M  V30 3461 H 339.062 -0.689152 1.82951 0
M  V30 3462 H 337.766 -2.06141 3.54872 0
M  V30 3463 H 337.297 -3.20512 2.28114 0
M  V30 3464 H 339.312 -4.46251 2.16967 0
M  V30 3465 N 338.485 -1.33259 -0.841409 0
M  V30 3466 C 339.415 -1.25926 -1.96634 0
M  V30 3467 C 340.396 -0.140349 -1.6952 0
M  V30 3468 O 341.581 -0.329707 -1.91381 0
M  V30 3469 C 338.711 -0.99512 -3.32738 0
M  V30 3470 C 337.665 -2.0767 -3.74242 0
M  V30 3471 C 336.991 -1.66474 -5.08125 0
M  V30 3472 C 338.291 -3.49318 -3.88297 0
M  V30 3473 H 339.985 -2.20046 -2.03027 0
M  V30 3474 H 337.531 -1.05931 -0.975425 0
M  V30 3475 H 339.484 -0.930323 -4.11002 0
M  V30 3476 H 338.208 -0.0183004 -3.26595 0
M  V30 3477 H 336.867 -2.13187 -2.98239 0
M  V30 3478 H 336.515 -0.675012 -4.9845 0
M  V30 3479 H 336.215 -2.3885 -5.36865 0
M  V30 3480 H 337.739 -1.61455 -5.88867 0
M  V30 3481 H 339.153 -3.46316 -4.56879 0
M  V30 3482 H 337.55 -4.20158 -4.28471 0
M  V30 3483 H 338.62 -3.8801 -2.9082 0
M  V30 3484 N 339.963 1.05934 -1.16686 0
M  V30 3485 C 341.191 1.8249 -0.974929 0
M  V30 3486 C 341.606 1.82679 0.476861 0
M  V30 3487 O 340.963 1.2486 1.33103 0
M  V30 3488 C 341.014 3.28943 -1.49929 0
M  V30 3489 O 340.735 3.28886 -2.89423 0
M  V30 3490 C 342.236 4.22215 -1.35089 0
M  V30 3491 H 339.456 0.575295 -0.345365 0
M  V30 3492 H 342 1.33631 -1.548 0
M  V30 3493 H 340.155 3.751 -0.968423 0
M  V30 3494 H 340.569 4.20493 -3.13506 0
M  V30 3495 H 342.043 5.22987 -1.76603 0
M  V30 3496 H 342.52 4.38195 -0.296935 0
M  V30 3497 H 343.126 3.81907 -1.87155 0
M  V30 3498 N 341.441 0.965919 1.2453 0
M  V30 3499 C 342.69 0.622437 1.91856 0
M  V30 3500 C 343.003 -0.846006 1.76358 0
M  V30 3501 O 344.209 -1.29993 2.38357 0
M  V30 3502 C 342.665 1.0626 3.43856 0
M  V30 3503 C 342.273 2.55437 3.68043 0
M  V30 3504 C 344.017 0.792183 4.17043 0
M  V30 3505 C 341.924 2.93196 5.13605 0
M  V30 3506 H 340.854 0.229092 0.718354 0
M  V30 3507 H 343.505 1.17189 1.41206 0
M  V30 3508 H 341.887 0.441476 3.93531 0
M  V30 3509 H 343.061 3.22665 3.28974 0
M  V30 3510 H 341.376 2.8007 3.08139 0
M  V30 3511 H 343.973 1.05031 5.24283 0
M  V30 3512 H 344.316 -0.271584 4.15413 0
M  V30 3513 H 344.849 1.37419 3.73311 0
M  V30 3514 H 341.588 3.98636 5.20355 0
M  V30 3515 H 341.108 2.30651 5.53679 0
M  V30 3516 H 342.787 2.83004 5.81823 0
M  V30 3517 N 342.919 -1.39368 0.735821 0
M  V30 3518 C 344.144 -2.05319 0.293052 0
M  V30 3519 C 344.569 -1.55115 -1.064 0
M  V30 3520 O 343.927 -0.695261 -1.67439 0
M  V30 3521 C 343.975 -3.59305 0.305323 0
M  V30 3522 O 343.079 -4.06299 -0.706761 0
M  V30 3523 H 342.42 -0.650529 0.13307 0
M  V30 3524 H 344.95 -1.78386 1.00197 0
M  V30 3525 H 344.96 -4.07724 0.149997 0
M  V30 3526 H 343.635 -3.95207 1.29553 0
M  V30 3527 H 342.212 -3.69292 -0.517504 0
M  V30 3528 N 344.397 -0.483516 -1.5 0
M  V30 3529 C 345.808 -0.0314176 -1.86674 0
M  V30 3530 C 346.159 1.37728 -1.39733 0
M  V30 3531 O 345.284 2.02327 -0.767635 0
M  V30 3532 C 345.879 -0.0502376 -3.38763 0
M  V30 3533 C 344.438 0.346442 -3.74802 0
M  V30 3534 C 343.585 -0.430366 -2.7394 0
M  V30 3535 H 346.536 -0.697182 -1.42566 0
M  V30 3536 H 346.557 0.749116 -3.73053 0
M  V30 3537 H 346.069 -1.07563 -3.72897 0
M  V30 3538 H 344.17 1.37572 -3.46273 0
M  V30 3539 H 344.283 0.0391486 -4.79084 0
M  V30 3540 H 342.647 0.117557 -2.54429 0
M  V30 3541 H 343.43 -1.4555 -3.10918 0
M  V30 3542 N 345.875 1.56104 -0.216619 0
M  V30 3543 C 346.838 2.18819 0.681962 0
M  V30 3544 C 347.838 1.14866 1.12528 0
M  V30 3545 O 349.028 1.40128 1.03488 0
M  V30 3546 C 346.16 2.80756 1.93362 0
M  V30 3547 H 347.353 2.99595 0.135254 0
M  V30 3548 H 344.906 1.56265 0.0330003 0
M  V30 3549 H 345.641 2.03837 2.52232 0
M  V30 3550 H 345.426 3.56876 1.62426 0
M  V30 3551 H 346.916 3.28844 2.57393 0
M  V30 3552 N 347.353 -0.0568162 1.57498 0
M  V30 3553 C 348.63 -0.786954 1.79071 0
M  V30 3554 C 349.01 -1.95028 0.80792 0
M  V30 3555 O 348.358 -2.27968 -0.155858 0
M  V30 3556 C 348.568 -1.24594 3.26002 0
M  V30 3557 C 349.916 -1.67323 3.90241 0
M  V30 3558 O 350.94 -1.34124 3.29984 0
M  V30 3559 O 349.799 -2.28842 4.9628 0
M  V30 3560 H 346.893 -0.378262 0.735423 0
M  V30 3561 H 349.439 -0.035734 1.69662 0
M  V30 3562 H 348.211 -0.41423 3.89101 0
M  V30 3563 H 347.834 -2.05803 3.40192 0
M  V30 3564 N 348.832 -1.54138 -0.328536 0
M  V30 3565 C 350.057 -1.76378 -1.09112 0
M  V30 3566 C 350.482 -0.508596 -1.81094 0
M  V30 3567 O 349.84 0.539598 -1.73084 0
M  V30 3568 C 349.888 -2.95358 -2.06872 0
M  V30 3569 O 348.992 -2.66556 -3.14677 0
M  V30 3570 H 348.333 -0.584614 -0.314838 0
M  V30 3571 H 350.863 -2.01146 -0.374348 0
M  V30 3572 H 350.873 -3.22566 -2.4983 0
M  V30 3573 H 349.548 -3.86385 -1.5388 0
M  V30 3574 H 348.125 -2.50282 -2.7643 0
M  V30 3575 N 350.31 0.590341 -1.46126 0
M  V30 3576 C 351.587 1.35029 -1.41515 0
M  V30 3577 C 351.967 2.10888 -0.0946472 0
M  V30 3578 O 351.315 2.08998 0.923693 0
M  V30 3579 C 351.525 2.28269 -2.63997 0
M  V30 3580 C 352.873 2.90338 -3.09821 0
M  V30 3581 O 353.897 2.38585 -2.64492 0
M  V30 3582 O 352.756 3.84321 -3.88535 0
M  V30 3583 H 349.85 0.606317 -0.562413 0
M  V30 3584 H 352.396 0.611994 -1.58281 0
M  V30 3585 H 351.168 1.71591 -3.51671 0
M  V30 3586 H 350.791 3.0945 -2.49652 0
M  V30 3587 N 351.788 1.33704 0.83433 0
M  V30 3588 C 353.065 1.16011 1.57483 0
M  V30 3589 C 353.445 -0.27176 2.09343 0
M  V30 3590 O 352.793 -1.27146 1.89858 0
M  V30 3591 C 353.003 2.20507 2.70514 0
M  V30 3592 C 354.351 2.54898 3.39577 0
M  V30 3593 O 355.375 2.19209 2.80759 0
M  V30 3594 O 354.234 3.16158 4.45765 0
M  V30 3595 H 351.328 0.448992 0.694503 0
M  V30 3596 H 353.874 1.453 0.876691 0
M  V30 3597 H 352.646 3.16667 2.29865 0
M  V30 3598 H 352.269 1.92329 3.47987 0
M  V30 3599 N 353.266 -1.05314 1.17247 0
M  V30 3600 C 354.198 -2.13023 0.845812 0
M  V30 3601 C 355.211 -1.62096 -0.151246 0
M  V30 3602 O 356.4 -1.78343 0.0748818 0
M  V30 3603 C 353.5 -3.38047 0.240292 0
M  V30 3604 C 352.673 -4.18255 1.27991 0
M  V30 3605 C 351.732 -5.21625 0.692375 0
M  V30 3606 O 350.758 -5.52619 1.36385 0
M  V30 3607 N 351.96 -5.78201 -0.516178 0
M  V30 3608 H 354.725 -2.41642 1.77283 0
M  V30 3609 H 352.286 -1.21401 1.07115 0
M  V30 3610 H 354.278 -4.04359 -0.16603 0
M  V30 3611 H 352.848 -3.06972 -0.590487 0
M  V30 3612 H 352.068 -3.47451 1.86203 0
M  V30 3613 H 353.356 -4.68643 1.98119 0
M  V30 3614 H 352.754 -5.55301 -1.07969 0
M  V30 3615 H 351.311 -6.4604 -0.86458 0
M  V30 3616 N 354.744 -0.972509 -1.24016 0
M  V30 3617 C 356.16 -0.679827 -1.44397 0
M  V30 3618 C 356.36 0.756716 -1.86751 0
M  V30 3619 O 355.416 1.53007 -2.00861 0
M  V30 3620 C 356.729 -1.66803 -2.50195 0
M  V30 3621 C 358.277 -1.68119 -2.64017 0
M  V30 3622 C 358.752 -2.65748 -3.73017 0
M  V30 3623 N 360.243 -2.64219 -3.8045 0
M  V30 3624 C 360.978 -3.36433 -4.64328 0
M  V30 3625 N 360.474 -4.1818 -5.52356 0
M  V30 3626 N 362.267 -3.25235 -4.58453 0
M  V30 3627 H 354.418 -1.90059 -0.948228 0
M  V30 3628 H 356.681 -0.818527 -0.478245 0
M  V30 3629 H 356.387 -2.69498 -2.25973 0
M  V30 3630 H 356.261 -1.4446 -3.48441 0
M  V30 3631 H 358.648 -0.661319 -2.87594 0
M  V30 3632 H 358.729 -1.94525 -1.66113 0
M  V30 3633 H 358.373 -3.67872 -3.50189 0
M  V30 3634 H 358.303 -2.36619 -4.70446 0
M  V30 3635 H 360.794 -2.04887 -3.17537 0
M  V30 3636 H 361.107 -4.70157 -6.13329 0
M  V30 3637 H 359.452 -4.22273 -5.52006 0
M  V30 3638 H 362.643 -2.60829 -3.88698 0
M  V30 3639 H 362.816 -3.81776 -5.23594 0
M  V30 3640 N 356.222 1.38976 -0.743202 0
M  V30 3641 C 357.638 1.53984 -0.419664 0
M  V30 3642 C 357.838 1.70837 1.0685 0
M  V30 3643 O 356.894 1.7135 1.8546 0
M  V30 3644 C 358.207 2.75287 -1.20985 0
M  V30 3645 C 359.755 2.89129 -1.19889 0
M  V30 3646 C 360.23 4.13381 -1.97181 0
M  V30 3647 N 361.721 4.20437 -1.94389 0
M  V30 3648 C 362.456 5.15547 -2.50996 0
M  V30 3649 N 361.952 6.16395 -3.16274 0
M  V30 3650 N 363.745 5.07822 -2.40984 0
M  V30 3651 H 355.896 1.26285 -1.7078 0
M  V30 3652 H 358.159 0.612689 -0.723406 0
M  V30 3653 H 357.865 2.69204 -2.26323 0
M  V30 3654 H 357.739 3.68184 -0.819759 0
M  V30 3655 H 360.126 2.947 -0.153606 0
M  V30 3656 H 360.207 1.97272 -1.62841 0
M  V30 3657 H 359.851 4.08572 -3.01714 0
M  V30 3658 H 359.781 5.04298 -1.51629 0
M  V30 3659 H 362.272 3.48205 -1.46839 0
M  V30 3660 H 362.585 6.85443 -3.56915 0
M  V30 3661 H 360.93 6.16758 -3.20367 0
M  V30 3662 H 364.121 4.27973 -1.89622 0
M  V30 3663 H 364.294 5.81767 -2.85397 0
M  V30 3664 N 357.7 0.491464 1.49741 0
M  V30 3665 C 358.63 -0.28154 2.31796 0
M  V30 3666 C 359.611 -0.971473 1.3963 0
M  V30 3667 O 360.796 -0.964719 1.68543 0
M  V30 3668 C 357.926 -1.35203 3.19902 0
M  V30 3669 C 356.88 -0.782529 4.20786 0
M  V30 3670 C 356.206 -1.95283 4.97764 0
M  V30 3671 C 357.506 0.21999 5.21837 0
M  V30 3672 H 359.2 0.403355 2.96671 0
M  V30 3673 H 356.746 0.195425 1.42668 0
M  V30 3674 H 358.699 -1.90045 3.76113 0
M  V30 3675 H 357.423 -2.06598 2.52953 0
M  V30 3676 H 356.082 -0.255928 3.65706 0
M  V30 3677 H 355.73 -2.65423 4.2727 0
M  V30 3678 H 355.43 -1.57789 5.66018 0
M  V30 3679 H 356.954 -2.50577 5.56816 0
M  V30 3680 H 358.368 -0.23996 5.72798 0
M  V30 3681 H 356.765 0.51026 5.97927 0
M  V30 3682 H 357.835 1.13911 4.7133 0
M  V30 3683 N 359.178 -1.55987 0.224894 0
M  V30 3684 C 360.424 -1.98684 -0.406502 0
M  V30 3685 C 360.757 -1.11248 -1.59177 0
M  V30 3686 O 360.032 -0.170909 -1.93748 0
M  V30 3687 C 360.315 -3.50218 -0.837808 0
M  V30 3688 C 360.168 -4.48426 0.351332 0
M  V30 3689 C 361.487 -4.06243 -1.69278 0
M  V30 3690 H 358.606 -0.722337 -0.146283 0
M  V30 3691 H 361.248 -1.87255 0.321799 0
M  V30 3692 H 359.398 -3.60089 -1.45837 0
M  V30 3693 H 361.07 -4.50562 0.989526 0
M  V30 3694 H 359.313 -4.22159 0.998207 0
M  V30 3695 H 359.984 -5.52 0.00655905 0
M  V30 3696 H 362.46 -3.99337 -1.16914 0
M  V30 3697 H 361.336 -5.12581 -1.96346 0
M  V30 3698 H 361.597 -3.53332 -2.65723 0
M  V30 3699 N 360.656 0.0484629 -1.57525 0
M  V30 3700 C 361.886 0.754326 -1.92337 0
M  V30 3701 C 362.294 1.70443 -0.82132 0
M  V30 3702 O 361.637 1.82466 0.21254 0
M  V30 3703 C 361.699 1.58231 -3.22805 0
M  V30 3704 C 361.363 0.799074 -4.4996 0
M  V30 3705 C 362.36 0.1079 -5.19788 0
M  V30 3706 C 360.045 0.759345 -4.96527 0
M  V30 3707 C 362.039 -0.612516 -6.3445 0
M  V30 3708 C 359.726 0.0351713 -6.1109 0
M  V30 3709 C 360.724 -0.649537 -6.79904 0
M  V30 3710 O 360.412 -1.36199 -7.92278 0
M  V30 3711 H 360.144 0.218257 -0.639797 0
M  V30 3712 H 362.698 0.0159295 -2.05394 0
M  V30 3713 H 360.928 2.36406 -3.06021 0
M  V30 3714 H 362.617 2.16898 -3.43089 0
M  V30 3715 H 363.383 0.129748 -4.84826 0
M  V30 3716 H 359.262 1.28177 -4.42822 0
M  V30 3717 H 362.806 -1.14751 -6.88097 0
M  V30 3718 H 358.703 0.0113314 -6.45499 0
M  V30 3719 H 359.471 -1.27366 -8.0853 0
M  V30 3720 N 362.134 1.5431 0.320358 0
M  V30 3721 C 363.364 1.7638 1.07582 0
M  V30 3722 C 363.772 0.513944 1.82086 0
M  V30 3723 O 363.115 -0.525123 1.76035 0
M  V30 3724 C 363.177 2.9055 2.1171 0
M  V30 3725 C 362.841 4.2934 1.56575 0
M  V30 3726 C 363.838 5.10077 1.00586 0
M  V30 3727 C 361.523 4.75893 1.60722 0
M  V30 3728 C 363.517 6.35477 0.494756 0
M  V30 3729 C 361.204 6.0126 1.09224 0
M  V30 3730 C 362.202 6.80886 0.53696 0
M  V30 3731 O 361.89 8.03894 0.0297371 0
M  V30 3732 H 361.622 0.592369 0.325692 0
M  V30 3733 H 364.176 2.02019 0.37116 0
M  V30 3734 H 362.406 2.60489 2.85801 0
M  V30 3735 H 364.095 3.00373 2.73003 0
M  V30 3736 H 364.861 4.75265 0.966869 0
M  V30 3737 H 360.74 4.13957 2.02882 0
M  V30 3738 H 364.284 6.97574 0.0606842 0
M  V30 3739 H 360.181 6.35562 1.12831 0
M  V30 3740 H 360.949 8.18372 0.14486 0
M  V30 3741 N 363.613 -0.582584 1.46437 0
M  V30 3742 C 364.523 -1.71949 1.59595 0
M  V30 3743 C 365.539 -1.67264 0.479443 0
M  V30 3744 O 366.715 -1.87171 0.743579 0
M  V30 3745 C 363.78 -3.08452 1.58298 0
M  V30 3746 C 362.841 -3.244 2.81182 0
M  V30 3747 C 362.074 -4.54391 2.79937 0
M  V30 3748 O 362.297 -5.38287 1.8869 0
M  V30 3749 O 361.231 -4.73588 3.71481 0
M  V30 3750 H 365.057 -1.63795 2.55744 0
M  V30 3751 H 362.642 -0.749643 1.29231 0
M  V30 3752 H 364.524 -3.89732 1.60271 0
M  V30 3753 H 363.199 -3.17043 0.653094 0
M  V30 3754 H 362.106 -2.42613 2.84763 0
M  V30 3755 H 363.439 -3.20699 3.7338 0
M  V30 3756 N 365.091 -1.34144 -0.827227 0
M  V30 3757 C 366.339 -1.26009 -1.58007 0
M  V30 3758 C 366.66 0.170971 -1.94249 0
M  V30 3759 O 365.93 1.10256 -1.61927 0
M  V30 3760 H 364.51 -0.463414 -0.585881 0
M  V30 3761 H 367.172 -1.68005 -0.987951 0
M  V30 3762 H 366.268 -1.86187 -2.50481 0
M  V30 3763 N 366.569 1.04691 -1.17803 0
M  V30 3764 C 367.817 1.7743 -0.967617 0
M  V30 3765 C 368.138 1.88359 0.504574 0
M  V30 3766 O 367.408 1.40402 1.36617 0
M  V30 3767 H 365.988 0.657242 -0.355024 0
M  V30 3768 H 368.65 1.2638 -1.48371 0
M  V30 3769 H 367.746 2.78924 -1.40027 0
M  V30 3770 N 368.047 0.979072 1.23499 0
M  V30 3771 C 369.01 0.523244 2.23147 0
M  V30 3772 C 370.01 -0.386406 1.56088 0
M  V30 3773 O 371.2 -0.180283 1.73265 0
M  V30 3774 C 368.332 -0.240739 3.40049 0
M  V30 3775 H 369.525 1.40432 2.64989 0
M  V30 3776 H 367.078 0.764824 1.36309 0
M  V30 3777 H 367.813 -1.13841 3.03662 0
M  V30 3778 H 367.598 0.412207 3.89927 0
M  V30 3779 H 369.088 -0.548297 4.13985 0
M  V30 3780 N 369.525 -1.3858 0.750561 0
M  V30 3781 C 370.771 -2.00481 0.305825 0
M  V30 3782 C 371.104 -1.5944 -1.10872 0
M  V30 3783 O 370.379 -0.83052 -1.75877 0
M  V30 3784 C 370.662 -3.5758 0.425287 0
M  V30 3785 C 370.515 -4.08594 1.88072 0
M  V30 3786 C 371.834 -4.39719 -0.183122 0
M  V30 3787 H 368.953 -0.728348 0.112598 0
M  V30 3788 H 371.595 -1.64566 0.949638 0
M  V30 3789 H 369.745 -3.88306 -0.122828 0
M  V30 3790 H 371.417 -3.88523 2.48691 0
M  V30 3791 H 369.66 -3.61574 2.39681 0
M  V30 3792 H 370.331 -5.177 1.91548 0
M  V30 3793 H 372.807 -4.15128 0.284303 0
M  V30 3794 H 371.683 -5.48856 -0.0692757 0
M  V30 3795 H 371.944 -4.23434 -1.27106 0
M  V30 3796 N 371.003 -0.499398 -1.49478 0
M  V30 3797 C 372.243 0.0440751 -2.04352 0
M  V30 3798 C 372.607 1.34423 -1.37093 0
M  V30 3799 O 373.808 1.97184 -1.82679 0
M  V30 3800 C 372.079 0.194918 -3.56868 0
M  V30 3801 S 373.638 0.69287 -4.33295 0
M  V30 3802 H 370.456 0.00253458 -0.710995 0
M  V30 3803 H 373.058 -0.673 -1.83551 0
M  V30 3804 H 371.762 -0.756672 -4.03364 0
M  V30 3805 H 371.293 0.93728 -3.82071 0
M  V30 3806 H 373.308 1.96226 -4.55752 0
M  V30 3807 N 372.481 1.55866 -0.233164 0
M  V30 3808 C 373.709 2.02998 0.399905 0
M  V30 3809 C 374.124 1.11274 1.52524 0
M  V30 3810 O 373.481 0.124528 1.82075 0
M  V30 3811 C 373.532 3.4958 0.920639 0
M  V30 3812 O 373.253 4.37808 -0.159834 0
M  V30 3813 C 374.754 4.12411 1.62578 0
M  V30 3814 H 371.974 0.664006 0.0966281 0
M  V30 3815 H 374.518 2.0143 -0.353013 0
M  V30 3816 H 372.673 3.51727 1.62379 0
M  V30 3817 H 373.087 5.23981 0.23337 0
M  V30 3818 H 374.561 5.16711 1.94201 0
M  V30 3819 H 375.038 3.5809 2.54299 0
M  V30 3820 H 375.644 4.14148 0.967553 0
M  V30 3821 N 373.959 -0.0401083 1.57549 0
M  V30 3822 C 374.909 -1.05175 2.02292 0
M  V30 3823 C 375.893 -1.32674 0.910294 0
M  V30 3824 O 377.085 -1.32444 1.17421 0
M  V30 3825 C 374.214 -2.35622 2.49674 0
M  V30 3826 C 373.3 -2.11261 3.67736 0
M  V30 3827 N 373.691 -1.56923 4.80842 0
M  V30 3828 C 371.989 -2.41596 3.74897 0
M  V30 3829 C 372.69 -1.48111 5.62528 0
M  V30 3830 N 371.666 -1.95282 5.07312 0
M  V30 3831 H 375.468 -0.625455 2.87168 0
M  V30 3832 H 372.982 -0.246624 1.60516 0
M  V30 3833 H 374.979 -3.08893 2.79983 0
M  V30 3834 H 373.639 -2.7894 1.662 0
M  V30 3835 H 374.65 -1.25345 5.02503 0
M  V30 3836 H 371.327 -2.88064 3.02201 0
M  V30 3837 H 372.717 -1.06683 6.63377 0
M  V30 3838 N 375.437 -1.54477 -0.31217 0
M  V30 3839 C 376.4 -1.83923 -1.36766 0
M  V30 3840 C 377.4 -0.711563 -1.44199 0
M  V30 3841 O 378.59 -0.979866 -1.44029 0
M  V30 3842 C 375.722 -2.0095 -2.75376 0
M  V30 3843 H 376.915 -2.78239 -1.11906 0
M  V30 3844 H 374.468 -1.46369 -0.548257 0
M  V30 3845 H 375.203 -1.08883 -3.05475 0
M  V30 3846 H 374.988 -2.83018 -2.71373 0
M  V30 3847 H 376.478 -2.2514 -3.51713 0
M  V30 3848 N 376.915 0.57481 -1.46744 0
M  V30 3849 C 378.331 0.898981 -1.31873 0
M  V30 3850 C 378.531 1.99313 -0.29605 0
M  V30 3851 O 377.587 2.50728 0.298621 0
M  V30 3852 C 378.9 1.30886 -2.7072 0
M  V30 3853 C 380.448 1.42127 -2.78871 0
M  V30 3854 C 380.923 1.86478 -4.18318 0
M  V30 3855 N 382.414 1.93658 -4.20774 0
M  V30 3856 C 383.149 2.29267 -5.2557 0
M  V30 3857 N 382.645 2.63612 -6.40688 0
M  V30 3858 N 384.438 2.29889 -5.1294 0
M  V30 3859 H 376.589 -0.147839 -2.11885 0
M  V30 3860 H 378.852 -0.00347013 -0.947994 0
M  V30 3861 H 378.558 0.578853 -3.46904 0
M  V30 3862 H 378.432 2.26874 -3.01343 0
M  V30 3863 H 380.819 2.14213 -2.0297 0
M  V30 3864 H 380.9 0.443705 -2.51922 0
M  V30 3865 H 380.544 1.14968 -4.94717 0
M  V30 3866 H 380.474 2.85207 -4.42679 0
M  V30 3867 H 382.965 1.69574 -3.37718 0
M  V30 3868 H 383.278 2.89759 -7.16421 0
M  V30 3869 H 381.623 2.61232 -6.44036 0
M  V30 3870 H 384.814 2.02485 -4.22039 0
M  V30 3871 H 384.987 2.57312 -5.94722 0
M  V30 3872 N 378.394 1.34581 0.820102 0
M  V30 3873 C 379.619 1.30333 1.61332 0
M  V30 3874 C 380.044 -0.119339 1.87721 0
M  V30 3875 O 379.402 -1.08197 1.45475 0
M  V30 3876 C 379.45 2.10258 2.92957 0
M  V30 3877 O 378.554 1.47404 3.85157 0
M  V30 3878 H 377.895 0.447488 0.490561 0
M  V30 3879 H 380.425 1.77425 1.01889 0
M  V30 3880 H 380.435 2.21718 3.42498 0
M  V30 3881 H 379.11 3.13693 2.73074 0
M  V30 3882 H 377.687 1.44703 3.43679 0
M  V30 3883 N 379.872 -1.04064 1.18357 0
M  V30 3884 C 380.802 -2.14001 0.934113 0
M  V30 3885 C 381.783 -1.69616 -0.128186 0
M  V30 3886 O 382.968 -1.94185 0.0244093 0
M  V30 3887 C 380.098 -3.44253 0.459066 0
M  V30 3888 C 379.052 -4.02261 1.46185 0
M  V30 3889 C 378.378 -5.27992 0.844322 0
M  V30 3890 C 379.678 -4.38432 2.83856 0
M  V30 3891 H 381.372 -2.35127 1.85352 0
M  V30 3892 H 378.918 -1.12998 0.892604 0
M  V30 3893 H 380.871 -4.20522 0.271907 0
M  V30 3894 H 379.595 -3.22813 -0.495912 0
M  V30 3895 H 378.254 -3.28074 1.63595 0
M  V30 3896 H 377.902 -5.02862 -0.117845 0
M  V30 3897 H 377.602 -5.67765 1.51384 0
M  V30 3898 H 379.126 -6.06938 0.667693 0
M  V30 3899 H 380.54 -5.05688 2.70098 0
M  V30 3900 H 378.937 -4.89254 3.47491 0
M  V30 3901 H 380.007 -3.4826 3.37406 0
M  V30 3902 N 381.35 -0.985608 -1.22978 0
M  V30 3903 C 382.596 -0.667998 -1.92118 0
M  V30 3904 C 382.951 0.790454 -1.75413 0
M  V30 3905 O 382.244 1.56336 -1.10768 0
M  V30 3906 C 382.438 -1.00014 -3.43121 0
M  V30 3907 C 382.267 -2.48933 -3.74516 0
M  V30 3908 C 381.037 -3.15218 -3.94925 0
M  V30 3909 C 383.235 -3.47024 -3.79577 0
M  V30 3910 N 381.217 -4.53689 -4.13569 0
M  V30 3911 C 382.588 -4.70923 -4.03276 0
M  V30 3912 C 384.643 -3.41432 -3.62393 0
M  V30 3913 C 383.346 -5.89914 -4.11574 0
M  V30 3914 C 385.372 -4.59793 -3.71947 0
M  V30 3915 C 384.734 -5.82489 -3.96088 0
M  V30 3916 H 380.833 -0.295589 -0.723983 0
M  V30 3917 H 383.417 -1.26413 -1.4808 0
M  V30 3918 H 381.588 -0.432655 -3.85983 0
M  V30 3919 H 383.32 -0.63927 -3.99619 0
M  V30 3920 H 380.075 -2.65702 -3.92045 0
M  V30 3921 H 380.499 -5.25492 -4.26834 0
M  V30 3922 H 385.141 -2.47594 -3.4272 0
M  V30 3923 H 382.859 -6.84164 -4.30053 0
M  V30 3924 H 386.445 -4.57048 -3.59998 0
M  V30 3925 H 385.325 -6.72546 -4.033 0
M  V30 3926 N 382.828 1.3818 -0.7579 0
M  V30 3927 C 384.244 1.5353 -0.435972 0
M  V30 3928 C 384.444 1.71961 1.05032 0
M  V30 3929 O 383.5 1.73307 1.83633 0
M  V30 3930 C 384.813 2.73989 -1.23898 0
M  V30 3931 C 386.361 2.87841 -1.22949 0
M  V30 3932 C 386.836 4.11266 -2.01554 0
M  V30 3933 N 388.327 4.18352 -1.98837 0
M  V30 3934 C 389.062 5.12856 -2.5645 0
M  V30 3935 N 388.558 6.13005 -3.22794 0
M  V30 3936 N 390.351 5.05238 -2.46356 0
M  V30 3937 H 382.502 1.24467 -1.7211 0
M  V30 3938 H 384.765 0.604982 -0.729864 0
M  V30 3939 H 384.471 2.66789 -2.29165 0
M  V30 3940 H 384.345 3.67294 -0.858764 0
M  V30 3941 H 386.732 2.9452 -0.184854 0
M  V30 3942 H 386.813 1.95534 -1.64924 0
M  V30 3943 H 386.457 4.05349 -3.06031 0
M  V30 3944 H 386.387 5.02661 -1.5697 0
M  V30 3945 H 388.878 3.46628 -1.50524 0
M  V30 3946 H 389.191 6.81619 -3.64165 0
M  V30 3947 H 387.536 6.13325 -3.2689 0
M  V30 3948 H 390.727 4.25938 -1.9415 0
M  V30 3949 H 390.9 5.78707 -2.91552 0
M  V30 3950 N 384.306 0.507319 1.49211 0
M  V30 3951 C 385.236 -0.256939 2.32082 0
M  V30 3952 C 386.217 -0.956609 1.40652 0
M  V30 3953 O 387.402 -0.946788 1.69557 0
M  V30 3954 C 384.532 -1.31802 3.21318 0
M  V30 3955 C 383.486 -0.737855 4.21592 0
M  V30 3956 C 382.812 -1.89992 4.99807 0
M  V30 3957 C 384.112 0.275325 5.21574 0
M  V30 3958 H 385.806 0.434798 2.96226 0
M  V30 3959 H 383.352 0.210546 1.42452 0
M  V30 3960 H 385.305 -1.86045 3.78107 0
M  V30 3961 H 384.029 -2.03903 2.5513 0
M  V30 3962 H 382.688 -0.217126 3.65956 0
M  V30 3963 H 382.336 -2.60877 4.30061 0
M  V30 3964 H 382.036 -1.51777 5.6766 0
M  V30 3965 H 383.56 -2.44657 5.59442 0
M  V30 3966 H 384.974 -0.179193 5.7302 0
M  V30 3967 H 383.371 0.573649 5.97352 0
M  V30 3968 H 384.441 1.18903 4.70096 0
M  V30 3969 N 385.784 -1.5574 0.241426 0
M  V30 3970 C 386.694 -2.2479 -0.671305 0
M  V30 3971 C 387.71 -1.26217 -1.19772 0
M  V30 3972 O 388.886 -1.59079 -1.23514 0
M  V30 3973 C 385.951 -2.92966 -1.85396 0
M  V30 3974 C 385.012 -4.06935 -1.36756 0
M  V30 3975 C 384.245 -4.71851 -2.49384 0
M  V30 3976 O 384.468 -4.35823 -3.67987 0
M  V30 3977 O 383.402 -5.60467 -2.19454 0
M  V30 3978 H 387.228 -3.0349 -0.112966 0
M  V30 3979 H 384.813 -1.49397 0.0101513 0
M  V30 3980 H 386.695 -3.35927 -2.54423 0
M  V30 3981 H 385.37 -2.17211 -2.40002 0
M  V30 3982 H 384.277 -3.68503 -0.644726 0
M  V30 3983 H 385.61 -4.84492 -0.867647 0
M  V30 3984 N 387.262 0.0317525 -1.57568 0
M  V30 3985 C 388.673 0.578692 -1.77505 0
M  V30 3986 C 389.024 1.75749 -0.872164 0
M  V30 3987 O 388.149 2.16298 -0.0663106 0
M  V30 3988 C 388.744 1.05658 -3.21904 0
M  V30 3989 C 387.303 1.54906 -3.43047 0
M  V30 3990 C 386.45 0.485939 -2.73009 0
M  V30 3991 H 389.401 -0.194475 -1.57504 0
M  V30 3992 H 389.422 1.92404 -3.28269 0
M  V30 3993 H 388.934 0.198422 -3.87592 0
M  V30 3994 H 387.035 2.42915 -2.82529 0
M  V30 3995 H 387.148 1.59841 -4.5165 0
M  V30 3996 H 385.512 0.940354 -2.36705 0
M  V30 3997 H 386.295 -0.362709 -3.41379 0
M  V30 3998 N 388.74 1.54641 0.303973 0
M  V30 3999 C 389.67 1.88386 1.3796 0
M  V30 4000 C 390.651 0.742485 1.5304 0
M  V30 4001 O 391.836 0.997959 1.66597 0
M  V30 4002 C 388.966 2.12854 2.74427 0
M  V30 4003 C 387.92 3.28702 2.74115 0
M  V30 4004 C 387.246 3.38582 4.13844 0
M  V30 4005 C 388.546 4.65881 2.3612 0
M  V30 4006 H 390.24 2.78474 1.09966 0
M  V30 4007 H 387.786 1.33988 0.527556 0
M  V30 4008 H 389.739 2.35047 3.49758 0
M  V30 4009 H 388.463 1.19535 3.03939 0
M  V30 4010 H 387.122 3.06428 2.0124 0
M  V30 4011 H 386.77 2.42784 4.40528 0
M  V30 4012 H 386.47 4.16453 4.14537 0
M  V30 4013 H 387.994 3.63031 4.90959 0
M  V30 4014 H 389.408 4.87823 3.01167 0
M  V30 4015 H 387.805 5.46444 2.48031 0
M  V30 4016 H 388.875 4.66799 1.3125 0
M  V30 4017 N 390.218 -0.567019 1.47046 0
M  V30 4018 C 391.634 -0.891975 1.32348 0
M  V30 4019 C 391.834 -1.99154 0.306616 0
M  V30 4020 O 390.89 -2.50883 -0.28532 0
M  V30 4021 C 392.203 -1.29449 2.7141 0
M  V30 4022 C 393.751 -1.40646 2.79621 0
M  V30 4023 C 394.226 -1.84257 4.19301 0
M  V30 4024 N 395.717 -1.91424 4.21795 0
M  V30 4025 C 396.452 -2.26476 5.26779 0
M  V30 4026 N 395.948 -2.60211 6.42077 0
M  V30 4027 N 397.741 -2.27166 5.14152 0
M  V30 4028 H 389.892 0.159074 2.11803 0
M  V30 4029 H 392.155 0.00849752 0.947962 0
M  V30 4030 H 391.861 -0.560448 3.47206 0
M  V30 4031 H 391.735 -2.25273 3.02542 0
M  V30 4032 H 394.122 -2.13133 2.04104 0
M  V30 4033 H 394.203 -0.430339 2.52154 0
M  V30 4034 H 393.847 -1.12343 4.95319 0
M  V30 4035 H 393.777 -2.82855 4.44185 0
M  V30 4036 H 396.268 -1.6778 3.38612 0
M  V30 4037 H 396.581 -2.85956 7.17948 0
M  V30 4038 H 394.926 -2.57813 6.45413 0
M  V30 4039 H 398.117 -2.00244 4.23107 0
M  V30 4040 H 398.29 -2.54154 5.96079 0
M  V30 4041 N 391.696 -1.35014 -0.812953 0
M  V30 4042 C 392.945 -1.27269 -1.56479 0
M  V30 4043 C 393.258 0.152771 -1.95002 0
M  V30 4044 O 394.464 0.352451 -2.69203 0
M  V30 4045 C 392.92 -2.23159 -2.82362 0
M  V30 4046 C 392.528 -3.71016 -2.511 0
M  V30 4047 C 394.272 -2.24342 -3.60376 0
M  V30 4048 C 392.179 -4.58746 -3.73237 0
M  V30 4049 H 391.109 -0.472829 -0.587324 0
M  V30 4050 H 393.76 -1.6024 -0.894171 0
M  V30 4051 H 392.142 -1.83151 -3.51101 0
M  V30 4052 H 393.316 -4.1962 -1.90409 0
M  V30 4053 H 391.631 -3.72378 -1.86343 0
M  V30 4054 H 394.228 -2.87107 -4.51081 0
M  V30 4055 H 394.571 -1.24542 -3.97234 0
M  V30 4056 H 395.104 -2.62846 -2.98591 0
M  V30 4057 H 391.843 -5.59521 -3.41492 0
M  V30 4058 H 391.363 -4.14871 -4.33176 0
M  V30 4059 H 393.042 -4.73852 -4.40537 0
M  V30 4060 N 393.175 1.03435 -1.18907 0
M  V30 4061 C 394.4 1.80919 -1.01406 0
M  V30 4062 C 394.825 1.83055 0.432721 0
M  V30 4063 O 394.183 1.25252 1.31079 0
M  V30 4064 C 394.231 3.24091 -1.58105 0
M  V30 4065 O 393.335 4.04434 -0.806669 0
M  V30 4066 H 392.676 0.558709 -0.358803 0
M  V30 4067 H 395.206 1.30223 -1.57807 0
M  V30 4068 H 395.216 3.74853 -1.61087 0
M  V30 4069 H 393.891 3.21851 -2.6341 0
M  V30 4070 H 392.468 3.63091 -0.849666 0
M  V30 4071 N 394.653 0.992116 1.22453 0
M  V30 4072 C 395.899 0.678177 1.91761 0
M  V30 4073 C 396.254 -0.781141 1.75829 0
M  V30 4074 O 395.547 -1.55747 1.11595 0
M  V30 4075 C 395.741 1.01832 3.42586 0
M  V30 4076 C 395.57 2.50916 3.73191 0
M  V30 4077 C 394.34 3.17308 3.93248 0
M  V30 4078 C 396.538 3.49032 3.77732 0
M  V30 4079 N 394.52 4.55876 4.11157 0
M  V30 4080 C 395.891 4.73055 4.00773 0
M  V30 4081 C 397.946 3.43349 3.60577 0
M  V30 4082 C 396.649 5.92089 4.0844 0
M  V30 4083 C 398.675 4.61759 3.69503 0
M  V30 4084 C 398.037 5.84582 3.92993 0
M  V30 4085 H 394.136 0.299425 0.722405 0
M  V30 4086 H 396.72 1.27197 1.47408 0
M  V30 4087 H 394.891 0.453118 3.85748 0
M  V30 4088 H 396.623 0.660454 3.99274 0
M  V30 4089 H 393.378 2.67778 3.9063 0
M  V30 4090 H 393.802 5.27748 4.24042 0
M  V30 4091 H 398.444 2.49408 3.41402 0
M  V30 4092 H 396.162 6.86435 4.26418 0
M  V30 4093 H 399.748 4.58951 3.57569 0
M  V30 4094 H 398.628 6.74676 3.99728 0
M  V30 4095 N 396.131 -1.37776 0.765217 0
M  V30 4096 C 397.356 -2.04651 0.336537 0
M  V30 4097 C 397.781 -1.57337 -1.03086 0
M  V30 4098 O 397.139 -0.730621 -1.65927 0
M  V30 4099 C 397.187 -3.58577 0.381468 0
M  V30 4100 O 396.291 -4.07706 -0.62042 0
M  V30 4101 H 395.632 -0.64756 0.146838 0
M  V30 4102 H 398.162 -1.76221 1.03959 0
M  V30 4103 H 398.172 -4.07314 0.236448 0
M  V30 4104 H 396.847 -3.9237 1.37907 0
M  V30 4105 H 395.424 -3.70306 -0.439056 0
M  V30 4106 N 397.609 -0.515225 -1.4894 0
M  V30 4107 C 398.857 0.0241671 -2.02086 0
M  V30 4108 C 399.178 1.3616 -1.3959 0
M  V30 4109 O 398.448 1.87841 -0.556121 0
M  V30 4110 H 397.028 0.0119203 -0.746905 0
M  V30 4111 H 399.69 -0.675702 -1.82812 0
M  V30 4112 H 398.786 0.143385 -3.1177 0
M  V30 4113 N 399.087 1.5561 -0.249682 0
M  V30 4114 C 400.312 2.03865 0.381305 0
M  V30 4115 C 400.737 1.12769 1.50548 0
M  V30 4116 O 400.095 0.121189 1.80895 0
M  V30 4117 C 400.143 3.50101 0.863816 0
M  V30 4118 O 399.247 3.62132 1.97318 0
M  V30 4119 H 398.588 0.658827 0.0827194 0
M  V30 4120 H 401.118 2.01105 -0.376552 0
M  V30 4121 H 401.128 3.90975 1.1663 0
M  V30 4122 H 399.803 4.1588 0.0411816 0
M  V30 4123 H 398.38 3.33155 1.67517 0
M  V30 4124 N 400.565 -0.0233959 1.57583 0
M  V30 4125 C 401.515 -1.03023 2.03397 0
M  V30 4126 C 402.499 -1.31701 0.924315 0
M  V30 4127 O 403.691 -1.31191 1.18819 0
M  V30 4128 C 400.82 -2.32961 2.52159 0
M  V30 4129 C 399.906 -2.07349 3.69956 0
M  V30 4130 N 400.297 -1.51814 4.82479 0
M  V30 4131 C 398.595 -2.37606 3.77438 0
M  V30 4132 C 399.296 -1.42136 5.64068 0
M  V30 4133 N 398.272 -1.89891 5.09355 0
M  V30 4134 H 402.074 -0.594962 2.87815 0
M  V30 4135 H 399.588 -0.229586 1.60769 0
M  V30 4136 H 401.585 -3.05906 2.83244 0
M  V30 4137 H 400.245 -2.77162 1.69149 0
M  V30 4138 H 401.256 -1.20008 5.03804 0
M  V30 4139 H 397.933 -2.84842 3.05239 0
M  V30 4140 H 399.323 -0.996405 6.64471 0
M  V30 4141 N 402.043 -1.548 -0.295768 0
M  V30 4142 C 402.973 -1.89115 -1.36959 0
M  V30 4143 C 403.954 -0.75059 -1.52644 0
M  V30 4144 O 405.139 -1.00678 -1.66065 0
M  V30 4145 C 402.269 -2.14307 -2.73295 0
M  V30 4146 C 401.223 -3.30151 -2.72368 0
M  V30 4147 C 400.549 -3.40772 -4.12042 0
M  V30 4148 C 401.849 -4.67126 -2.33646 0
M  V30 4149 H 403.543 -2.79053 -1.08488 0
M  V30 4150 H 401.089 -1.34266 -0.520443 0
M  V30 4151 H 403.042 -2.36898 -3.48507 0
M  V30 4152 H 401.766 -1.21145 -3.03301 0
M  V30 4153 H 400.425 -3.0749 -1.99613 0
M  V30 4154 H 400.073 -2.45117 -4.39234 0
M  V30 4155 H 399.773 -4.18645 -4.12322 0
M  V30 4156 H 401.297 -3.6563 -4.89027 0
M  V30 4157 H 402.711 -4.89414 -2.98575 0
M  V30 4158 H 401.108 -5.47751 -2.45129 0
M  V30 4159 H 402.178 -4.67489 -1.28772 0
M  V30 4160 N 403.521 0.559213 -1.47345 0
M  V30 4161 C 404.937 0.884943 -1.32819 0
M  V30 4162 C 405.137 1.98988 -0.317173 0
M  V30 4163 O 404.193 2.51031 0.272011 0
M  V30 4164 C 405.506 1.28007 -2.72093 0
M  V30 4165 C 407.054 1.39161 -2.80363 0
M  V30 4166 C 407.529 1.82031 -4.20272 0
M  V30 4167 N 409.02 1.89185 -4.22804 0
M  V30 4168 C 409.755 2.2368 -5.27973 0
M  V30 4169 N 409.251 2.56802 -6.43447 0
M  V30 4170 N 411.044 2.24436 -5.15349 0
M  V30 4171 H 403.195 -0.170304 -2.11716 0
M  V30 4172 H 405.458 -0.0135247 -0.947904 0
M  V30 4173 H 405.164 0.542027 -3.47498 0
M  V30 4174 H 405.038 2.23665 -3.03733 0
M  V30 4175 H 407.425 2.12048 -2.05231 0
M  V30 4176 H 407.506 0.41696 -2.52379 0
M  V30 4177 H 407.15 1.09715 -4.95908 0
M  V30 4178 H 407.08 2.80495 -4.45679 0
M  V30 4179 H 409.571 1.65982 -3.39497 0
M  V30 4180 H 409.884 2.82144 -7.19454 0
M  V30 4181 H 408.229 2.54387 -6.46771 0
M  V30 4182 H 411.42 1.97998 -4.24163 0
M  V30 4183 H 411.593 2.50989 -5.97418 0
M  V30 4184 N 404.999 1.35443 0.805782 0
M  V30 4185 C 406.245 1.2996 1.56467 0
M  V30 4186 C 406.6 -0.124742 1.91995 0
M  V30 4187 O 405.893 -1.07533 1.58579 0
M  V30 4188 C 406.087 2.14045 2.86216 0
M  V30 4189 C 405.916 3.64512 2.63365 0
M  V30 4190 C 404.686 4.33744 2.59219 0
M  V30 4191 C 406.884 4.58142 2.33688 0
M  V30 4192 N 404.866 5.69953 2.28094 0
M  V30 4193 C 406.237 5.8248 2.12408 0
M  V30 4194 C 408.292 4.46877 2.19558 0
M  V30 4195 C 406.995 6.96818 1.78429 0
M  V30 4196 C 409.021 5.61065 1.86976 0
M  V30 4197 C 408.383 6.84431 1.66532 0
M  V30 4198 H 404.482 0.530817 0.574245 0
M  V30 4199 H 407.066 1.70333 0.943126 0
M  V30 4200 H 405.237 1.75942 3.46264 0
M  V30 4201 H 406.969 2.00075 3.51784 0
M  V30 4202 H 403.724 3.86365 2.73896 0
M  V30 4203 H 404.148 6.41845 2.15323 0
M  V30 4204 H 408.79 3.52102 2.34061 0
M  V30 4205 H 406.508 7.91559 1.62664 0
M  V30 4206 H 410.094 5.54302 1.7675 0
M  V30 4207 H 408.974 7.71294 1.41688 0
M  V30 4208 N 406.477 -1.02803 1.19454 0
M  V30 4209 C 407.725 -1.75869 0.995722 0
M  V30 4210 C 408.046 -1.89138 -0.474543 0
M  V30 4211 O 407.316 -1.42558 -1.34366 0
M  V30 4212 H 405.896 -0.651511 0.365435 0
M  V30 4213 H 408.558 -1.24004 1.50363 0
M  V30 4214 H 407.654 -2.76661 1.44447 0
M  V30 4215 N 407.956 -0.998596 -1.21925 0
M  V30 4216 C 408.888 -0.511879 -2.23411 0
M  V30 4217 C 409.901 0.396094 -1.57908 0
M  V30 4218 O 411.09 0.197316 -1.77406 0
M  V30 4219 C 408.19 0.276802 -3.37768 0
M  V30 4220 C 407.363 -0.628687 -4.32858 0
M  V30 4221 C 406.422 0.109272 -5.26087 0
M  V30 4222 O 405.448 -0.507237 -5.66935 0
M  V30 4223 N 406.65 1.38983 -5.63617 0
M  V30 4224 H 409.415 -1.38457 -2.658 0
M  V30 4225 H 406.976 -0.873981 -1.36283 0
M  V30 4226 H 408.968 0.77928 -3.97126 0
M  V30 4227 H 407.538 1.05063 -2.94415 0
M  V30 4228 H 406.758 -1.31175 -3.71735 0
M  V30 4229 H 408.046 -1.24514 -4.93329 0
M  V30 4230 H 407.444 1.91194 -5.32411 0
M  V30 4231 H 406.001 1.83739 -6.25367 0
M  V30 4232 N 409.434 1.37368 -0.772513 0
M  V30 4233 C 410.845 1.8231 -0.402493 0
M  V30 4234 C 411.196 1.6436 1.07146 0
M  V30 4235 O 410.321 1.15514 1.82991 0
M  V30 4236 C 410.916 3.30979 -0.723776 0
M  V30 4237 C 409.475 3.74195 -0.406802 0
M  V30 4238 C 408.622 2.59885 -0.967218 0
M  V30 4239 H 411.573 1.25829 -0.967099 0
M  V30 4240 H 411.594 3.80499 -0.00870832 0
M  V30 4241 H 411.106 3.44011 -1.7966 0
M  V30 4242 H 409.207 3.66732 0.658673 0
M  V30 4243 H 409.32 4.7027 -0.915588 0
M  V30 4244 H 407.684 2.51674 -0.391416 0
M  V30 4245 H 408.467 2.7571 -2.04546 0
M  V30 4246 N 410.912 0.523116 1.48665 0
M  V30 4247 C 411.842 -0.23231 2.32342 0
M  V30 4248 C 412.823 -0.941637 1.41659 0
M  V30 4249 O 414.008 -0.928751 1.70552 0
M  V30 4250 C 411.138 -1.28387 3.22698 0
M  V30 4251 C 410.092 -0.693098 4.22351 0
M  V30 4252 C 409.418 -1.8468 5.01794 0
M  V30 4253 C 410.718 0.33063 5.21252 0
M  V30 4254 H 412.412 0.466192 2.95748 0
M  V30 4255 H 409.958 0.225643 1.42221 0
M  V30 4256 H 411.911 -1.82024 3.80059 0
M  V30 4257 H 410.635 -2.01186 2.57278 0
M  V30 4258 H 409.294 -0.178299 3.66166 0
M  V30 4259 H 408.942 -2.56301 4.32804 0
M  V30 4260 H 408.642 -1.45747 5.69238 0
M  V30 4261 H 410.166 -2.38709 5.62006 0
M  V30 4262 H 411.58 -0.118407 5.73178 0
M  V30 4263 H 409.977 0.636974 5.9671 0
M  V30 4264 H 411.047 1.23883 4.68808 0
M  V30 4265 N 412.39 -1.55475 0.257931 0
M  V30 4266 C 413.806 -1.59307 -0.0966563 0
M  V30 4267 C 414.006 -1.27514 -1.5602 0
M  V30 4268 O 413.062 -1.02774 -2.30637 0
M  V30 4269 C 414.375 -2.99552 0.262481 0
M  V30 4270 C 415.923 -3.1231 0.207683 0
M  V30 4271 C 416.398 -4.54793 0.541012 0
M  V30 4272 N 417.889 -4.6058 0.491921 0
M  V30 4273 C 418.624 -5.68825 0.722857 0
M  V30 4274 N 418.12 -6.85287 1.0175 0
M  V30 4275 N 419.913 -5.58296 0.652815 0
M  V30 4276 H 412.064 -1.74409 1.21224 0
M  V30 4277 H 414.327 -0.812424 0.48854 0
M  V30 4278 H 414.033 -3.27593 1.27967 0
M  V30 4279 H 413.907 -3.75019 -0.40508 0
M  V30 4280 H 416.294 -2.84044 -0.800195 0
M  V30 4281 H 416.375 -2.39095 0.909255 0
M  V30 4282 H 416.019 -4.83783 1.5465 0
M  V30 4283 H 415.949 -5.26285 -0.18216 0
M  V30 4284 H 418.44 -3.7691 0.273366 0
M  V30 4285 H 418.753 -7.63725 1.18084 0
M  V30 4286 H 417.098 -6.86945 1.05509 0
M  V30 4287 H 420.289 -4.66189 0.422592 0
M  V30 4288 H 420.462 -6.42582 0.836182 0
M  V30 4289 N 413.868 0.0150385 -1.57593 0
M  V30 4290 C 415.114 0.704043 -1.90187 0
M  V30 4291 C 415.447 1.74249 -0.857366 0
M  V30 4292 O 414.722 1.94092 0.125843 0
M  V30 4293 C 415.005 1.36087 -3.33395 0
M  V30 4294 C 414.858 0.334981 -4.48551 0
M  V30 4295 C 416.177 2.29112 -3.7576 0
M  V30 4296 H 413.296 0.254475 -0.691673 0
M  V30 4297 H 415.938 -0.0331678 -1.89971 0
M  V30 4298 H 414.088 1.98922 -3.3371 0
M  V30 4299 H 415.76 -0.292534 -4.60372 0
M  V30 4300 H 414.003 -0.344325 -4.32431 0
M  V30 4301 H 414.674 0.833316 -5.45674 0
M  V30 4302 H 417.15 1.76308 -3.76902 0
M  V30 4303 H 416.026 2.72043 -4.76743 0
M  V30 4304 H 416.287 3.16385 -3.08793 0
M  V30 4305 N 415.346 1.54954 0.287554 0
M  V30 4306 C 416.762 1.46469 0.633964 0
M  V30 4307 C 416.962 0.666865 1.90145 0
M  V30 4308 O 416.018 0.179906 2.51858 0
M  V30 4309 C 417.331 2.90556 0.774454 0
M  V30 4310 C 418.879 3.00681 0.869462 0
M  V30 4311 C 419.354 4.45993 1.04184 0
M  V30 4312 N 420.845 4.4976 1.10772 0
M  V30 4313 C 421.58 5.59393 1.25964 0
M  V30 4314 N 421.076 6.78923 1.37968 0
M  V30 4315 N 422.869 5.47107 1.28959 0
M  V30 4316 H 415.02 2.05288 -0.545041 0
M  V30 4317 H 417.283 0.930305 -0.182308 0
M  V30 4318 H 416.989 3.51594 -0.086207 0
M  V30 4319 H 416.863 3.38743 1.6593 0
M  V30 4320 H 419.25 2.39749 1.7206 0
M  V30 4321 H 419.331 2.55769 -0.0396831 0
M  V30 4322 H 418.975 5.07524 0.195422 0
M  V30 4323 H 418.905 4.88548 1.96542 0
M  V30 4324 H 421.396 3.63651 1.02794 0
M  V30 4325 H 421.709 7.58231 1.49353 0
M  V30 4326 H 420.054 6.81763 1.34999 0
M  V30 4327 H 423.245 4.52668 1.19202 0
M  V30 4328 H 423.418 6.32595 1.40455 0
M  V30 4329 N 416.824 -0.551391 1.4764 0
M  V30 4330 C 417.774 -1.65362 1.56969 0
M  V30 4331 C 418.758 -1.55098 0.428189 0
M  V30 4332 O 419.95 -1.63481 0.678441 0
M  V30 4333 C 417.079 -3.04129 1.59249 0
M  V30 4334 C 416.165 -3.19576 2.78804 0
M  V30 4335 N 416.556 -3.05067 4.03445 0
M  V30 4336 C 414.854 -3.50588 2.75688 0
M  V30 4337 C 415.555 -3.2336 4.83543 0
M  V30 4338 N 414.531 -3.4996 4.15968 0
M  V30 4339 H 418.333 -1.52722 2.51104 0
M  V30 4340 H 415.847 -0.756303 1.43714 0
M  V30 4341 H 417.844 -3.83278 1.64024 0
M  V30 4342 H 416.504 -3.17877 0.662148 0
M  V30 4343 H 417.515 -2.82273 4.34215 0
M  V30 4344 H 414.192 -3.70827 1.91817 0
M  V30 4345 H 415.582 -3.17061 5.92387 0
M  V30 4346 N 418.302 -1.35869 -0.798587 0
M  V30 4347 C 419.548 -1.2978 -1.55836 0
M  V30 4348 C 419.881 0.125322 -1.93795 0
M  V30 4349 O 419.156 1.07658 -1.61987 0
M  V30 4350 C 419.439 -2.21188 -2.84162 0
M  V30 4351 C 419.292 -3.72155 -2.52628 0
M  V30 4352 C 420.611 -2.11545 -3.85923 0
M  V30 4353 H 417.73 -0.472769 -0.565383 0
M  V30 4354 H 420.372 -1.66341 -0.918192 0
M  V30 4355 H 418.522 -1.90139 -3.38791 0
M  V30 4356 H 420.194 -4.13682 -2.04121 0
M  V30 4357 H 418.437 -3.92042 -1.85704 0
M  V30 4358 H 419.108 -4.31511 -3.44242 0
M  V30 4359 H 421.584 -2.38855 -3.40716 0
M  V30 4360 H 420.46 -2.77688 -4.73477 0
M  V30 4361 H 420.721 -1.09987 -4.282 0
M  V30 4362 N 419.78 1.02168 -1.19998 0
M  V30 4363 C 421.008 1.79296 -1.03249 0
M  V30 4364 C 421.423 1.84103 0.418502 0
M  V30 4365 O 420.78 1.29031 1.29063 0
M  V30 4366 C 420.831 3.24007 -1.60319 0
M  V30 4367 O 420.552 3.19512 -2.99739 0
M  V30 4368 C 422.053 4.17704 -1.48453 0
M  V30 4369 H 419.273 0.564016 -0.363493 0
M  V30 4370 H 421.817 1.28639 -1.58973 0
M  V30 4371 H 419.972 3.7183 -1.08727 0
M  V30 4372 H 420.386 4.10306 -3.26725 0
M  V30 4373 H 421.86 5.17104 -1.93153 0
M  V30 4374 H 422.337 4.37029 -0.436193 0
M  V30 4375 H 422.943 3.7576 -1.99211 0
M  V30 4376 N 421.258 1.00505 1.21394 0
M  V30 4377 C 422.486 0.706609 1.9446 0
M  V30 4378 C 422.901 -0.73081 1.74082 0
M  V30 4379 O 422.258 -1.49446 1.04747 0
M  V30 4380 C 422.309 1.01824 3.46863 0
M  V30 4381 O 422.03 2.39919 3.66566 0
M  V30 4382 C 423.531 0.739216 4.37093 0
M  V30 4383 H 420.751 0.260394 0.618414 0
M  V30 4384 H 423.295 1.34311 1.54211 0
M  V30 4385 H 421.45 0.427343 3.85036 0
M  V30 4386 H 421.864 2.50784 4.6066 0
M  V30 4387 H 423.338 1.00744 5.42729 0
M  V30 4388 H 423.815 -0.326746 4.37983 0
M  V30 4389 H 424.421 1.31173 4.04566 0
M  V30 4390 N 422.737 -1.36956 0.779787 0
M  V30 4391 C 423.985 -1.99097 0.347079 0
M  V30 4392 C 424.306 -1.62206 -1.08232 0
M  V30 4393 O 423.576 -0.891373 -1.74446 0
M  V30 4394 H 422.156 -0.736409 0.125342 0
M  V30 4395 H 424.818 -1.67308 0.999696 0
M  V30 4396 H 423.914 -3.09107 0.431162 0
M  V30 4397 N 424.215 -0.530993 -1.48385 0
M  V30 4398 C 425.147 0.268353 -2.27624 0
M  V30 4399 C 426.16 0.903525 -1.35426 0
M  V30 4400 O 427.349 0.781796 -1.60469 0
M  V30 4401 C 424.449 1.39535 -3.08842 0
M  V30 4402 C 423.622 0.861913 -4.28824 0
M  V30 4403 C 422.681 1.87016 -4.91845 0
M  V30 4404 O 421.707 1.4267 -5.5103 0
M  V30 4405 N 422.909 3.20238 -4.84178 0
M  V30 4406 H 425.674 -0.41123 -2.96865 0
M  V30 4407 H 423.235 -0.365387 -1.57723 0
M  V30 4408 H 425.227 2.06803 -3.47871 0
M  V30 4409 H 423.797 1.97859 -2.42014 0
M  V30 4410 H 423.017 0.0132126 -3.94198 0
M  V30 4411 H 424.305 0.484415 -5.06489 0
M  V30 4412 H 423.703 3.58932 -4.37246 0
M  V30 4413 H 422.26 3.83136 -5.27305 0
M  V30 4414 N 425.693 1.55336 -0.266172 0
M  V30 4415 C 426.923 2.03506 0.356239 0
M  V30 4416 C 427.331 1.14426 1.50676 0
M  V30 4417 O 426.674 0.155043 1.83045 0
M  V30 4418 C 426.736 3.47848 0.90785 0
M  V30 4419 C 426.4 4.56861 -0.112888 0
M  V30 4420 C 427.397 5.11528 -0.929264 0
M  V30 4421 C 425.082 5.01704 -0.244546 0
M  V30 4422 C 427.076 6.09549 -1.86357 0
M  V30 4423 C 424.763 5.99553 -1.18234 0
M  V30 4424 C 425.761 6.53356 -1.99036 0
M  V30 4425 O 425.449 7.49293 -2.91231 0
M  V30 4426 H 425.181 0.670444 0.08649 0
M  V30 4427 H 427.735 2.01598 -0.39337 0
M  V30 4428 H 425.965 3.46967 1.70737 0
M  V30 4429 H 427.654 3.79407 1.44239 0
M  V30 4430 H 428.42 4.77701 -0.838237 0
M  V30 4431 H 424.299 4.59477 0.374359 0
M  V30 4432 H 427.843 6.51469 -2.49467 0
M  V30 4433 H 423.74 6.32799 -1.27421 0
M  V30 4434 H 424.508 7.66978 -2.8581 0
M  V30 4435 N 427.171 -0.0066808 1.57599 0
M  V30 4436 C 428.101 -0.999296 2.11036 0
M  V30 4437 C 429.082 -1.36278 1.01795 0
M  V30 4438 O 430.267 -1.4477 1.29442 0
M  V30 4439 C 427.397 -2.29328 2.60818 0
M  V30 4440 C 426.351 -2.07159 3.74525 0
M  V30 4441 C 425.677 -3.42512 4.10596 0
M  V30 4442 C 426.977 -1.43959 5.02069 0
M  V30 4443 H 428.671 -0.554382 2.94223 0
M  V30 4444 H 426.217 -0.265221 1.41536 0
M  V30 4445 H 428.17 -2.99117 2.96828 0
M  V30 4446 H 426.894 -2.7592 1.74745 0
M  V30 4447 H 425.553 -1.39797 3.38899 0
M  V30 4448 H 425.201 -3.86795 3.21556 0
M  V30 4449 H 424.901 -3.28498 4.87199 0
M  V30 4450 H 426.425 -4.13628 4.4916 0
M  V30 4451 H 427.839 -2.03696 5.35893 0
M  V30 4452 H 426.236 -1.40452 5.83432 0
M  V30 4453 H 427.306 -0.407992 4.83181 0
M  V30 4454 N 428.649 -1.55105 -0.279332 0
M  V30 4455 C 429.612 -1.86783 -1.32834 0
M  V30 4456 C 430.612 -0.74199 -1.42657 0
M  V30 4457 O 431.802 -1.0102 -1.41918 0
M  V30 4458 C 428.934 -2.06746 -2.71052 0
M  V30 4459 H 430.127 -2.8055 -1.05979 0
M  V30 4460 H 427.68 -1.47499 -0.517087 0
M  V30 4461 H 428.415 -1.15339 -3.03097 0
M  V30 4462 H 428.2 -2.88711 -2.65309 0
M  V30 4463 H 429.69 -2.32549 -3.46858 0
M  V30 4464 N 430.127 0.543554 -1.4793 0
M  V30 4465 C 431.057 1.65888 -1.64327 0
M  V30 4466 C 432.038 1.62818 -0.492383 0
M  V30 4467 O 433.223 1.80226 -0.723338 0
M  V30 4468 C 430.353 3.04506 -1.67013 0
M  V30 4469 C 429.307 3.2243 -2.81466 0
M  V30 4470 C 428.633 4.61972 -2.69233 0
M  V30 4471 C 429.933 3.06496 -4.22915 0
M  V30 4472 H 431.627 1.52421 -2.57698 0
M  V30 4473 H 429.173 0.731849 -1.24016 0
M  V30 4474 H 431.126 3.82391 -1.77074 0
M  V30 4475 H 429.85 3.18964 -0.70212 0
M  V30 4476 H 428.509 2.46957 -2.70938 0
M  V30 4477 H 428.157 4.73247 -1.7043 0
M  V30 4478 H 427.857 4.74911 -3.46025 0
M  V30 4479 H 429.381 5.41974 -2.81242 0
M  V30 4480 H 430.795 3.74186 -4.34348 0
M  V30 4481 H 429.192 3.30938 -5.006 0
M  V30 4482 H 430.262 2.03077 -4.40327 0
M  V30 4483 N 431.605 1.3629 0.791371 0
M  V30 4484 C 432.833 1.33562 1.58016 0
M  V30 4485 C 433.248 -0.0835616 1.88615 0
M  V30 4486 O 432.605 -1.0399 1.49974 0
M  V30 4487 C 432.656 2.15517 2.90232 0
M  V30 4488 O 432.377 3.51902 2.60953 0
M  V30 4489 C 433.878 2.20546 3.84544 0
M  V30 4490 H 431.098 0.458226 0.490173 0
M  V30 4491 H 433.642 1.79361 0.982345 0
M  V30 4492 H 431.797 1.73278 3.46487 0
M  V30 4493 H 432.211 3.94644 3.4548 0
M  V30 4494 H 433.685 2.82252 4.74382 0
M  V30 4495 H 434.162 1.20838 4.2225 0
M  V30 4496 H 434.768 2.63013 3.34222 0
M  V30 4497 N 433.083 -1.0153 1.20538 0
M  V30 4498 C 433.993 -2.13557 0.971113 0
M  V30 4499 C 435.009 -1.73845 -0.0734366 0
M  V30 4500 O 436.185 -2.01075 0.114299 0
M  V30 4501 C 433.25 -3.42661 0.527639 0
M  V30 4502 C 432.311 -3.96608 1.64319 0
M  V30 4503 C 431.544 -5.1955 1.22078 0
M  V30 4504 O 431.767 -5.70329 0.0900198 0
M  V30 4505 O 430.701 -5.66681 2.02871 0
M  V30 4506 H 434.527 -2.3619 1.90913 0
M  V30 4507 H 432.112 -1.11946 0.989362 0
M  V30 4508 H 433.994 -4.20404 0.289621 0
M  V30 4509 H 432.669 -3.21441 -0.381779 0
M  V30 4510 H 431.576 -3.20139 1.93551 0
M  V30 4511 H 432.909 -4.22219 2.52966 0
M  V30 4512 N 434.561 -1.01147 -1.20859 0
M  V30 4513 C 435.838 -0.613136 -1.85742 0
M  V30 4514 C 436.218 0.909004 -1.90526 0
M  V30 4515 O 435.566 1.79862 -1.40932 0
M  V30 4516 C 435.776 -1.255 -3.25654 0
M  V30 4517 C 437.124 -1.3672 -4.01986 0
M  V30 4518 O 438.148 -1.21082 -3.34989 0
M  V30 4519 O 437.007 -1.6194 -5.21956 0
M  V30 4520 H 434.101 -0.210878 -0.799662 0
M  V30 4521 H 436.647 -1.10853 -1.2849 0
M  V30 4522 H 435.419 -2.29532 -3.16908 0
M  V30 4523 H 435.042 -0.746369 -3.90532 0
M  V30 4524 N 436.039 1.36541 -0.78704 0
M  V30 4525 C 436.971 2.28761 -0.141773 0
M  V30 4526 C 437.984 1.49365 0.647599 0
M  V30 4527 O 439.173 1.71836 0.483173 0
M  V30 4528 C 436.273 3.28771 0.822368 0
M  V30 4529 C 435.446 4.3732 0.0835594 0
M  V30 4530 C 434.505 5.17307 0.963296 0
M  V30 4531 O 433.531 5.67638 0.421419 0
M  V30 4532 N 434.733 5.33515 2.28784 0
M  V30 4533 H 437.498 2.84777 -0.933919 0
M  V30 4534 H 435.059 1.48682 -0.640735 0
M  V30 4535 H 437.051 3.79169 1.41468 0
M  V30 4536 H 435.621 2.73412 1.5154 0
M  V30 4537 H 434.841 3.88118 -0.689809 0
M  V30 4538 H 436.129 5.0701 -0.426358 0
M  V30 4539 H 435.527 4.94234 2.75226 0
M  V30 4540 H 434.084 5.87165 2.82985 0
M  V30 4541 N 437.518 0.538854 1.48102 0
M  V30 4542 C 438.766 0.00798599 2.02098 0
M  V30 4543 C 439.087 -1.33922 1.41739 0
M  V30 4544 O 438.357 -1.86932 0.585934 0
M  V30 4545 H 436.937 -3.62179e-05 0.747 0
M  V30 4546 H 439.599 0.7047 1.81714 0
M  V30 4547 H 438.695 -0.0937672 3.11959 0
M  V30 4548 N 438.996 -1.55193 0.274407 0
M  V30 4549 C 439.926 -2.25471 -0.607032 0
M  V30 4550 C 440.907 -1.24461 -1.15946 0
M  V30 4551 O 442.092 -1.53179 -1.19373 0
M  V30 4552 C 439.222 -2.97526 -1.79153 0
M  V30 4553 C 438.176 -4.05459 -1.37067 0
M  V30 4554 C 437.502 -4.65084 -2.6382 0
M  V30 4555 C 438.802 -5.19691 -0.521389 0
M  V30 4556 H 440.496 -2.99393 -0.0209343 0
M  V30 4557 H 438.042 -1.43997 -0.00862866 0
M  V30 4558 H 439.995 -3.45402 -2.41404 0
M  V30 4559 H 438.719 -2.21138 -2.40344 0
M  V30 4560 H 437.378 -3.58393 -0.771355 0
M  V30 4561 H 437.026 -3.85365 -3.23268 0
M  V30 4562 H 436.726 -5.37961 -2.36372 0
M  V30 4563 H 438.25 -5.15708 -3.26921 0
M  V30 4564 H 439.664 -5.63623 -1.04889 0
M  V30 4565 H 438.061 -5.99126 -0.341825 0
M  V30 4566 H 439.131 -4.82713 0.46 0
M  V30 4567 N 440.474 -0.00167713 -1.576 0
M  V30 4568 C 441.72 0.683832 -1.90923 0
M  V30 4569 C 442.053 1.7333 -0.875799 0
M  V30 4570 O 441.328 1.94215 0.10525 0
M  V30 4571 C 441.611 1.32543 -3.3482 0
M  V30 4572 C 441.464 0.287387 -4.48881 0
M  V30 4573 C 442.783 2.25114 -3.78169 0
M  V30 4574 H 439.902 0.247125 -0.694333 0
M  V30 4575 H 442.544 -0.0533149 -1.89925 0
M  V30 4576 H 440.694 1.95372 -3.35801 0
M  V30 4577 H 442.366 -0.341346 -4.60035 0
M  V30 4578 H 440.609 -0.39017 -4.32042 0
M  V30 4579 H 441.28 0.775393 -5.46527 0
M  V30 4580 H 443.756 1.723 -3.7875 0
M  V30 4581 H 442.632 2.66971 -4.79602 0
M  V30 4582 H 442.893 3.13092 -3.12131 0
M  V30 4583 N 441.952 1.55251 0.271103 0
M  V30 4584 C 443.198 1.76207 1.00394 0
M  V30 4585 C 443.531 0.562604 1.85872 0
M  V30 4586 O 442.806 -0.439785 1.89463 0
M  V30 4587 C 443.089 3.06828 1.8849 0
M  V30 4588 C 442.942 4.37134 1.05992 0
M  V30 4589 C 444.261 3.33503 2.87165 0
M  V30 4590 H 441.38 0.641086 0.363562 0
M  V30 4591 H 444.022 1.87982 0.276189 0
M  V30 4592 H 442.172 2.96921 2.5054 0
M  V30 4593 H 443.844 4.59001 0.459978 0
M  V30 4594 H 442.087 4.32275 0.363443 0
M  V30 4595 H 442.758 5.2486 1.70955 0
M  V30 4596 H 445.234 3.43215 2.3525 0
M  V30 4597 H 444.11 4.2616 3.45946 0
M  V30 4598 H 444.371 2.53235 3.62387 0
M  V30 4599 N 443.43 -0.535701 1.48216 0
M  V30 4600 C 444.676 -1.29375 1.56173 0
M  V30 4601 C 445.009 -1.92804 0.232429 0
M  V30 4602 O 444.284 -1.78992 -0.761048 0
M  V30 4603 C 444.567 -2.38747 2.69577 0
M  V30 4604 C 444.42 -1.80046 4.12193 0
M  V30 4605 C 445.739 -3.40551 2.78771 0
M  V30 4606 H 442.858 -0.469027 0.568491 0
M  V30 4607 H 445.5 -0.597358 1.80365 0
M  V30 4608 H 443.65 -2.98147 2.4908 0
M  V30 4609 H 445.322 -1.24742 4.44114 0
M  V30 4610 H 443.565 -1.10609 4.19462 0
M  V30 4611 H 444.236 -2.59212 4.87353 0
M  V30 4612 H 446.712 -2.91099 2.97322 0
M  V30 4613 H 445.588 -4.1448 3.59857 0
M  V30 4614 H 445.849 -4.00746 1.86696 0
M  V30 4615 N 444.908 -1.36708 -0.784132 0
M  V30 4616 C 446.185 -1.21776 -1.53069 0
M  V30 4617 C 446.565 0.193876 -2.10208 0
M  V30 4618 O 445.913 1.20012 -1.94446 0
M  V30 4619 C 446.123 -2.30395 -2.62143 0
M  V30 4620 C 447.471 -2.67325 -3.29882 0
M  V30 4621 O 448.495 -2.29478 -2.7243 0
M  V30 4622 O 447.354 -3.32485 -4.33724 0
M  V30 4623 H 444.448 -0.474459 -0.677361 0
M  V30 4624 H 446.994 -1.48454 -0.82216 0
M  V30 4625 H 445.766 -3.2498 -2.17953 0
M  V30 4626 H 445.389 -2.05112 -3.40609 0
M  V30 4627 N 446.386 1.0089 -1.21074 0
M  V30 4628 C 447.349 2.0775 -0.968129 0
M  V30 4629 C 448.349 1.6069 0.0593445 0
M  V30 4630 O 449.539 1.73293 -0.177525 0
M  V30 4631 C 446.671 3.37794 -0.459108 0
M  V30 4632 H 447.864 2.30707 -1.9161 0
M  V30 4633 H 445.417 1.17807 -1.02719 0
M  V30 4634 H 446.152 3.20516 0.49397 0
M  V30 4635 H 445.937 3.7328 -1.20019 0
M  V30 4636 H 447.427 4.16454 -0.309099 0
M  V30 4637 N 447.864 1.01787 1.20321 0
M  V30 4638 C 449.089 0.727009 1.9424 0
M  V30 4639 C 449.514 -0.706179 1.74341 0
M  V30 4640 O 448.872 -1.48609 1.03852 0
M  V30 4641 C 448.92 1.06958 3.44372 0
M  V30 4642 O 448.024 0.181983 4.11998 0
M  V30 4643 H 447.365 0.269626 0.606793 0
M  V30 4644 H 449.895 1.36158 1.52716 0
M  V30 4645 H 449.905 1.02182 3.94997 0
M  V30 4646 H 448.58 2.11378 3.58179 0
M  V30 4647 H 447.157 0.287378 3.71791 0
M  V30 4648 N 449.342 -1.36122 0.79427 0
M  V30 4649 C 450.289 -2.29982 0.194101 0
M  V30 4650 C 451.259 -1.52214 -0.664833 0
M  V30 4651 O 452.444 -1.80702 -0.612498 0
M  V30 4652 C 449.584 -3.38706 -0.661244 0
M  V30 4653 C 448.697 -4.31456 0.216766 0
M  V30 4654 C 447.832 -5.27265 -0.645411 0
M  V30 4655 C 446.871 -6.11653 0.233756 0
M  V30 4656 N 446.008 -6.99636 -0.587682 0
M  V30 4657 H 450.848 -2.80722 0.999965 0
M  V30 4658 H 448.385 -1.38172 0.504677 0
M  V30 4659 H 450.343 -4.00394 -1.17219 0
M  V30 4660 H 448.973 -2.89274 -1.43249 0
M  V30 4661 H 448.025 -3.7088 0.845724 0
M  V30 4662 H 449.337 -4.90724 0.893973 0
M  V30 4663 H 448.491 -5.94266 -1.22198 0
M  V30 4664 H 447.23 -4.68463 -1.35623 0
M  V30 4665 H 446.235 -5.4361 0.82269 0
M  V30 4666 H 447.46 -6.72531 0.942247 0
M  V30 4667 H 445.406 -6.43337 -1.2827 0
M  V30 4668 H 445.323 -7.55993 0.0317402 0
M  V30 4669 H 446.591 -7.71001 -1.14792 0
M  V30 4670 N 450.82 -0.546701 -1.47814 0
M  V30 4671 C 451.783 0.196287 -2.28358 0
M  V30 4672 C 452.783 0.852437 -1.36346 0
M  V30 4673 O 453.973 0.709913 -1.59078 0
M  V30 4674 C 451.105 1.28579 -3.15722 0
M  V30 4675 H 452.298 -0.511086 -2.95513 0
M  V30 4676 H 449.851 -0.303248 -1.5333 0
M  V30 4677 H 450.586 2.0259 -2.53235 0
M  V30 4678 H 450.371 0.820229 -3.83425 0
M  V30 4679 H 451.861 1.80793 -3.76435 0
M  V30 4680 N 452.299 1.55045 -0.282633 0
M  V30 4681 C 453.249 2.19514 0.616249 0
M  V30 4682 C 454.233 1.16216 1.11277 0
M  V30 4683 O 455.425 1.42004 1.05659 0
M  V30 4684 C 452.554 2.92548 1.7964 0
M  V30 4685 C 451.64 4.03142 1.31671 0
M  V30 4686 N 452.031 5.0276 0.553695 0
M  V30 4687 C 450.329 4.1635 1.59903 0
M  V30 4688 C 451.03 5.80923 0.30054 0
M  V30 4689 N 450.006 5.3651 0.875116 0
M  V30 4690 H 453.808 2.93889 0.0255363 0
M  V30 4691 H 451.322 1.62169 -0.0865362 0
M  V30 4692 H 453.319 3.37188 2.45173 0
M  V30 4693 H 451.979 2.19685 2.39099 0
M  V30 4694 H 452.99 5.17512 0.20032 0
M  V30 4695 H 449.667 3.54682 2.20243 0
M  V30 4696 H 451.057 6.7118 -0.311053 0
M  V30 4697 N 453.777 0.010035 1.57597 0
M  V30 4698 C 455.005 -0.683413 1.95287 0
M  V30 4699 C 455.42 -1.66747 0.885481 0
M  V30 4700 O 454.777 -1.82003 -0.134629 0
M  V30 4701 C 454.828 -1.40652 3.33015 0
M  V30 4702 O 454.549 -0.461916 4.35658 0
M  V30 4703 C 456.05 -2.19356 3.85225 0
M  V30 4704 H 453.27 -0.189708 0.643624 0
M  V30 4705 H 455.814 0.0641359 2.04399 0
M  V30 4706 H 453.969 -2.10562 3.2518 0
M  V30 4707 H 454.383 -0.973215 5.15392 0
M  V30 4708 H 455.857 -2.65433 4.83993 0
M  V30 4709 H 456.334 -3.02457 3.18459 0
M  V30 4710 H 456.94 -1.54442 3.96267 0
M  V30 4711 N 455.255 -1.55392 -0.262866 0
M  V30 4712 C 456.202 -1.88966 -1.32516 0
M  V30 4713 C 457.172 -0.742187 -1.48596 0
M  V30 4714 O 458.357 -0.99439 -1.62839 0
M  V30 4715 C 455.497 -2.17592 -2.67858 0
M  V30 4716 C 454.61 -3.45061 -2.59917 0
M  V30 4717 C 453.745 -3.63336 -3.87505 0
M  V30 4718 C 452.784 -4.84462 -3.74116 0
M  V30 4719 N 451.921 -4.99342 -4.93561 0
M  V30 4720 H 456.761 -2.79566 -1.03184 0
M  V30 4721 H 454.298 -1.38404 -0.498285 0
M  V30 4722 H 456.256 -2.3219 -3.46617 0
M  V30 4723 H 454.886 -1.30215 -2.95371 0
M  V30 4724 H 453.938 -3.38881 -1.72812 0
M  V30 4725 H 455.25 -4.3396 -2.45926 0
M  V30 4726 H 454.404 -3.77807 -4.74707 0
M  V30 4727 H 453.143 -2.72641 -4.04374 0
M  V30 4728 H 452.148 -4.69985 -2.85297 0
M  V30 4729 H 453.373 -5.76603 -3.58757 0
M  V30 4730 H 451.319 -4.1158 -5.10821 0
M  V30 4731 H 451.236 -5.82303 -4.82141 0
M  V30 4732 H 452.504 -5.18208 -5.82306 0
M  V30 4733 N 456.733 0.527833 -1.48498 0
M  V30 4734 C 457.696 1.61439 -1.62696 0
M  V30 4735 C 458.696 1.52824 -0.500136 0
M  V30 4736 O 459.886 1.56456 -0.765976 0
M  V30 4737 C 457.018 3.01063 -1.59918 0
M  V30 4738 H 458.211 1.50189 -2.59583 0
M  V30 4739 H 455.764 0.750055 -1.37127 0
M  V30 4740 H 456.499 3.17818 -0.645163 0
M  V30 4741 H 456.284 3.08725 -2.41726 0
M  V30 4742 H 457.774 3.80057 -1.73051 0
M  V30 4743 N 458.211 1.37122 0.776871 0
M  V30 4744 C 459.439 1.3523 1.5659 0
M  V30 4745 C 459.854 -0.0635518 1.88693 0
M  V30 4746 O 459.211 -1.02394 1.51069 0
M  V30 4747 C 459.262 2.18583 2.8793 0
M  V30 4748 O 458.983 3.5465 2.57206 0
M  V30 4749 C 460.484 2.24612 3.82183 0
M  V30 4750 H 457.704 0.4634 0.485285 0
M  V30 4751 H 460.248 1.80392 0.963266 0
M  V30 4752 H 458.403 1.76943 3.4463 0
M  V30 4753 H 458.817 3.98286 3.41275 0
M  V30 4754 H 460.291 2.87267 4.71361 0
M  V30 4755 H 460.768 1.25309 4.20944 0
M  V30 4756 H 461.374 2.66543 3.31414 0
M  V30 4757 N 459.689 -1.00246 1.21608 0
M  V30 4758 C 460.914 -1.78167 1.06167 0
M  V30 4759 C 461.339 -1.84138 -0.384035 0
M  V30 4760 O 460.697 -1.28683 -1.27712 0
M  V30 4761 C 460.745 -3.19786 1.66642 0
M  V30 4762 O 459.849 -4.02153 0.913613 0
M  V30 4763 H 459.19 -0.549 0.37349 0
M  V30 4764 H 461.72 -1.25994 1.61204 0
M  V30 4765 H 461.73 -3.70451 1.70969 0
M  V30 4766 H 460.405 -3.14754 2.7185 0
M  V30 4767 H 458.982 -3.60711 0.945635 0
M  V30 4768 N 461.167 -1.02423 -1.1978 0
M  V30 4769 C 462.414 -0.717988 -1.89344 0
M  V30 4770 C 462.742 0.753036 -1.79331 0
M  V30 4771 O 461.997 1.56355 -1.17692 0
M  V30 4772 C 462.296 -1.1088 -3.39765 0
M  V30 4773 C 461.962 -2.57731 -3.6998 0
M  V30 4774 C 460.624 -2.97854 -3.77937 0
M  V30 4775 C 462.976 -3.52763 -3.83677 0
M  V30 4776 C 460.304 -4.31931 -3.97054 0
M  V30 4777 C 462.656 -4.86538 -4.04306 0
M  V30 4778 C 461.32 -5.26356 -4.10494 0
M  V30 4779 H 460.59 -0.26273 -0.692859 0
M  V30 4780 H 463.237 -1.28623 -1.41875 0
M  V30 4781 H 461.542 -0.459094 -3.89101 0
M  V30 4782 H 463.239 -0.849432 -3.919 0
M  V30 4783 H 459.829 -2.25646 -3.64393 0
M  V30 4784 H 464.013 -3.2292 -3.76877 0
M  V30 4785 H 459.269 -4.62324 -4.00083 0
M  V30 4786 H 463.443 -5.60093 -4.13846 0
M  V30 4787 H 461.07 -6.3026 -4.2506 0
M  V30 4788 N 462.645 1.35699 -0.801477 0
M  V30 4789 C 463.885 2.00741 -0.385027 0
M  V30 4790 C 464.249 1.62213 1.02718 0
M  V30 4791 O 465.45 2.19936 1.54537 0
M  V30 4792 C 463.721 3.53032 -0.557057 0
M  V30 4793 S 465.28 4.38195 -0.230272 0
M  V30 4794 H 462.098 0.695748 -0.146477 0
M  V30 4795 H 464.7 1.65378 -1.04261 0
M  V30 4796 H 463.404 3.7856 -1.58494 0
M  V30 4797 H 462.935 3.93229 0.116029 0
M  V30 4798 H 464.95 4.86748 0.963895 0
M  V30 4799 N 464.123 0.554532 1.47522 0
M  V30 4800 C 465.37 0.029479 2.02479 0
M  V30 4801 C 465.698 -1.31929 1.42916 0
M  V30 4802 O 464.953 -1.87112 0.573385 0
M  V30 4803 C 465.252 -0.115927 3.57212 0
M  V30 4804 C 464.918 1.16161 4.3568 0
M  V30 4805 C 463.58 1.51168 4.56839 0
M  V30 4806 C 465.932 2.0083 4.80954 0
M  V30 4807 C 463.26 2.70696 5.2052 0
M  V30 4808 C 465.612 3.19559 5.45953 0
M  V30 4809 C 464.276 3.54882 5.65345 0
M  V30 4810 H 463.546 0.0107871 0.740921 0
M  V30 4811 H 466.193 0.725506 1.77225 0
M  V30 4812 H 464.498 -0.894902 3.81443 0
M  V30 4813 H 466.195 -0.53749 3.97381 0
M  V30 4814 H 462.785 0.879026 4.19489 0
M  V30 4815 H 466.969 1.75093 4.64388 0
M  V30 4816 H 462.225 2.98236 5.33728 0
M  V30 4817 H 466.399 3.85456 5.79997 0
M  V30 4818 H 464.026 4.47596 6.1446 0
M  V30 4819 N 465.601 -1.54893 0.290851 0
M  V30 4820 C 467.017 -1.59476 -0.0628432 0
M  V30 4821 C 467.217 -1.30795 -1.5328 0
M  V30 4822 O 466.273 -1.07644 -2.28406 0
M  V30 4823 C 467.586 -2.98928 0.325962 0
M  V30 4824 C 469.134 -3.11799 0.273882 0
M  V30 4825 C 469.609 -4.53544 0.637359 0
M  V30 4826 N 471.1 -4.59433 0.589507 0
M  V30 4827 C 471.835 -5.67164 0.84335 0
M  V30 4828 N 471.331 -6.82975 1.16263 0
M  V30 4829 N 473.124 -5.56786 0.771091 0
M  V30 4830 H 465.275 -1.71798 1.24896 0
M  V30 4831 H 467.538 -0.801879 0.505663 0
M  V30 4832 H 467.244 -3.24805 1.34887 0
M  V30 4833 H 467.118 -3.75793 -0.325441 0
M  V30 4834 H 469.505 -2.85677 -0.739765 0
M  V30 4835 H 469.586 -2.37112 0.959766 0
M  V30 4836 H 469.23 -4.80394 1.64877 0
M  V30 4837 H 469.16 -5.26553 -0.0704866 0
M  V30 4838 H 471.651 -3.76245 0.353252 0
M  V30 4839 H 471.964 -7.61048 1.34257 0
M  V30 4840 H 470.309 -6.84552 1.20057 0
M  V30 4841 H 473.5 -4.65187 0.521383 0
M  V30 4842 H 473.673 -6.40664 0.972295 0
M  V30 4843 N 467.08 -0.0183926 -1.57589 0
M  V30 4844 C 468.329 0.66185 -1.90532 0
M  V30 4845 C 468.642 1.73904 -0.895366 0
M  V30 4846 O 469.848 2.47518 -1.11566 0
M  V30 4847 C 468.304 1.22844 -3.38286 0
M  V30 4848 C 467.912 0.185103 -4.47617 0
M  V30 4849 C 469.656 1.88581 -3.80312 0
M  V30 4850 C 467.563 0.762723 -5.86461 0
M  V30 4851 H 466.493 0.250972 -0.711006 0
M  V30 4852 H 469.144 -0.0819435 -1.83317 0
M  V30 4853 H 467.526 2.0235 -3.40398 0
M  V30 4854 H 468.7 -0.58671 -4.5705 0
M  V30 4855 H 467.015 -0.372889 -4.14727 0
M  V30 4856 H 469.612 2.32735 -4.81392 0
M  V30 4857 H 469.955 2.72408 -3.14801 0
M  V30 4858 H 470.488 1.15782 -3.80578 0
M  V30 4859 H 467.227 -0.0371713 -6.55489 0
M  V30 4860 H 466.747 1.50327 -5.80656 0
M  V30 4861 H 468.426 1.25576 -6.34697 0
M  V30 4862 N 468.558 1.5553 0.254621 0
M  V30 4863 C 469.783 1.81383 1.00573 0
M  V30 4864 C 470.208 0.594419 1.78461 0
M  V30 4865 O 469.566 -0.456403 1.75461 0
M  V30 4866 C 469.614 3.04892 1.92545 0
M  V30 4867 O 468.718 2.81266 3.01601 0
M  V30 4868 H 468.059 0.598969 0.286587 0
M  V30 4869 H 470.589 2.02703 0.277952 0
M  V30 4870 H 470.599 3.34119 2.34155 0
M  V30 4871 H 469.274 3.93287 1.3527 0
M  V30 4872 H 467.851 2.63185 2.64174 0
M  V30 4873 N 470.036 -0.519951 1.48776 0
M  V30 4874 C 470.983 -1.62352 1.64044 0
M  V30 4875 C 471.953 -1.58945 0.482251 0
M  V30 4876 O 473.138 -1.77219 0.706971 0
M  V30 4877 C 470.278 -3.00579 1.69547 0
M  V30 4878 C 469.391 -3.14145 2.96541 0
M  V30 4879 C 468.526 -4.42991 2.93142 0
M  V30 4880 C 467.565 -4.50122 4.14797 0
M  V30 4881 N 466.702 -5.7037 4.09418 0
M  V30 4882 H 471.542 -1.48643 2.58281 0
M  V30 4883 H 469.079 -0.723516 1.28077 0
M  V30 4884 H 471.037 -3.80671 1.70719 0
M  V30 4885 H 469.667 -3.13036 0.787918 0
M  V30 4886 H 468.719 -2.27239 3.05068 0
M  V30 4887 H 470.031 -3.15275 3.86527 0
M  V30 4888 H 469.185 -5.31385 2.92772 0
M  V30 4889 H 467.924 -4.44398 2.00902 0
M  V30 4890 H 466.929 -3.60133 4.15433 0
M  V30 4891 H 468.154 -4.50445 5.08208 0
M  V30 4892 H 466.1 -5.72655 3.20004 0
M  V30 4893 H 466.017 -5.73036 4.93119 0
M  V30 4894 H 467.285 -6.61023 4.13121 0
M  V30 4895 N 471.514 -1.37532 -0.769588 0
M  V30 4896 C 472.424 -1.35668 -1.91393 0
M  V30 4897 C 473.44 -0.255954 -1.72107 0
M  V30 4898 O 474.616 -0.491704 -1.95305 0
M  V30 4899 C 471.681 -1.16481 -3.26547 0
M  V30 4900 C 470.742 -2.36212 -3.58472 0
M  V30 4901 C 469.975 -2.17932 -4.87177 0
M  V30 4902 O 470.198 -1.1647 -5.58382 0
M  V30 4903 O 469.132 -3.06167 -5.18214 0
M  V30 4904 H 472.958 -2.32055 -1.95918 0
M  V30 4905 H 470.543 -1.18284 -0.912641 0
M  V30 4906 H 472.425 -1.07778 -4.07384 0
M  V30 4907 H 471.1 -0.231687 -3.2287 0
M  V30 4908 H 470.007 -2.50488 -2.77861 0
M  V30 4909 H 471.34 -3.281 -3.66894 0
M  V30 4910 N 472.992 0.995999 -1.22138 0
M  V30 4911 C 473.939 2.08551 -0.988687 0
M  V30 4912 C 474.909 1.65864 0.0885021 0
M  V30 4913 O 476.094 1.90704 -0.0604589 0
M  V30 4914 C 473.234 3.40374 -0.569191 0
M  V30 4915 C 472.347 3.96421 -1.71681 0
M  V30 4916 C 471.482 5.1639 -1.2456 0
M  V30 4917 C 470.521 5.64567 -2.36497 0
M  V30 4918 N 469.658 6.75777 -1.90445 0
M  V30 4919 H 474.498 2.2779 -1.92135 0
M  V30 4920 H 472.035 1.1168 -0.957388 0
M  V30 4921 H 473.993 4.16068 -0.307166 0
M  V30 4922 H 472.623 3.21145 0.326462 0
M  V30 4923 H 471.675 3.17628 -2.09324 0
M  V30 4924 H 472.987 4.2816 -2.55891 0
M  V30 4925 H 472.141 5.99362 -0.940774 0
M  V30 4926 H 470.88 4.86266 -0.373662 0
M  V30 4927 H 469.885 4.80185 -2.67772 0
M  V30 4928 H 471.11 5.96716 -3.24202 0
M  V30 4929 H 469.056 6.47443 -1.05609 0
M  V30 4930 H 468.973 7.06818 -2.68223 0
M  V30 4931 H 470.241 7.62262 -1.63022 0
M  V30 4932 N 474.47 1.03057 1.19235 0
M  V30 4933 C 475.4 0.633497 2.24742 0
M  V30 4934 C 476.381 -0.358335 1.66283 0
M  V30 4935 O 477.566 -0.240676 1.92703 0
M  V30 4936 C 474.696 -0.0147648 3.47297 0
M  V30 4937 C 473.65 0.899527 4.18441 0
M  V30 4938 C 472.976 0.116281 5.34574 0
M  V30 4939 C 474.276 2.21404 4.73051 0
M  V30 4940 H 475.97 1.5155 2.58211 0
M  V30 4941 H 473.516 0.73014 1.24117 0
M  V30 4942 H 475.469 -0.304202 4.20301 0
M  V30 4943 H 474.193 -0.931577 3.13032 0
M  V30 4944 H 472.852 1.17319 3.47321 0
M  V30 4945 H 472.5 -0.802619 4.96555 0
M  V30 4946 H 472.2 0.725293 5.83107 0
M  V30 4947 H 473.724 -0.166376 6.10373 0
M  V30 4948 H 475.138 1.98601 5.37802 0
M  V30 4949 H 473.535 2.77512 5.32078 0
M  V30 4950 H 474.605 2.86752 3.91026 0
M  V30 4951 N 475.948 -1.35272 0.808662 0
M  V30 4952 C 477.225 -1.93077 0.313181 0
M  V30 4953 C 477.605 -1.73847 -1.19752 0
M  V30 4954 O 476.953 -1.1087 -1.998 0
M  V30 4955 C 477.163 -3.41347 0.726859 0
M  V30 4956 C 478.511 -4.18493 0.717532 0
M  V30 4957 O 479.535 -3.4987 0.668535 0
M  V30 4958 O 478.394 -5.40937 0.777779 0
M  V30 4959 H 475.488 -0.822885 0.0824018 0
M  V30 4960 H 478.034 -1.44335 0.892499 0
M  V30 4961 H 476.806 -3.49082 1.76797 0
M  V30 4962 H 476.429 -3.97411 0.122461 0
M  V30 4963 N 477.426 -0.562348 -1.47226 0
M  V30 4964 C 478.672 -0.0402761 -2.0276 0
M  V30 4965 C 479.005 1.30823 -1.43523 0
M  V30 4966 O 478.28 1.85249 -0.592705 0
M  V30 4967 C 478.563 0.047311 -3.60069 0
M  V30 4968 C 478.416 -1.32865 -4.29729 0
M  V30 4969 C 479.735 0.758182 -4.3352 0
M  V30 4970 H 476.854 -0.0161105 -0.736824 0
M  V30 4971 H 479.496 -0.725628 -1.75598 0
M  V30 4972 H 477.646 0.630986 -3.83342 0
M  V30 4973 H 479.318 -1.95593 -4.17781 0
M  V30 4974 H 477.561 -1.90195 -3.89882 0
M  V30 4975 H 478.232 -1.22004 -5.38349 0
M  V30 4976 H 480.708 0.262546 -4.15271 0
M  V30 4977 H 479.584 0.78844 -5.43208 0
M  V30 4978 H 479.845 1.81537 -4.03109 0
M  V30 4979 N 478.904 1.54736 -0.299062 0
M  V30 4980 C 479.867 2.22127 0.565012 0
M  V30 4981 C 480.867 1.20669 1.06281 0
M  V30 4982 O 482.057 1.45417 0.959145 0
M  V30 4983 C 479.189 2.90611 1.78208 0
M  V30 4984 H 480.382 2.99891 -0.0237448 0
M  V30 4985 H 477.935 1.5622 -0.0498788 0
M  V30 4986 H 478.67 2.16921 2.41072 0
M  V30 4987 H 478.455 3.64984 1.43281 0
M  V30 4988 H 479.945 3.42026 2.396 0
M  V30 4989 N 480.382 0.0267497 1.57577 0
M  V30 4990 C 481.793 -0.512413 1.79531 0
M  V30 4991 C 482.144 -1.72391 0.936791 0
M  V30 4992 O 481.269 -2.15903 0.146543 0
M  V30 4993 C 481.864 -0.936378 3.25603 0
M  V30 4994 C 480.423 -1.42067 3.4856 0
M  V30 4995 C 479.57 -0.384278 2.74624 0
M  V30 4996 H 482.521 0.252797 1.56674 0
M  V30 4997 H 482.542 -1.80088 3.35184 0
M  V30 4998 H 482.054 -0.0544332 3.88062 0
M  V30 4999 H 480.155 -2.32262 2.9135 0
M  V30 5000 H 480.268 -1.42968 4.57271 0
M  V30 5001 H 478.632 -0.851855 2.40032 0
M  V30 5002 H 479.415 0.489159 3.39797 0
M  V30 5003 N 481.861 -1.55662 -0.24637 0
M  V30 5004 C 482.808 -1.90361 -1.30504 0
M  V30 5005 C 483.778 -0.757905 -1.47801 0
M  V30 5006 O 484.963 -1.01161 -1.61775 0
M  V30 5007 C 482.103 -2.2042 -2.65535 0
M  V30 5008 C 481.216 -3.47799 -2.56242 0
M  V30 5009 C 480.351 -3.67426 -3.8363 0
M  V30 5010 C 479.39 -4.88403 -3.68956 0
M  V30 5011 N 478.527 -5.04548 -4.88237 0
M  V30 5012 H 483.367 -2.80645 -1.00213 0
M  V30 5013 H 480.904 -1.38924 -0.483577 0
M  V30 5014 H 482.862 -2.35853 -3.44135 0
M  V30 5015 H 481.492 -1.3334 -2.93973 0
M  V30 5016 H 480.544 -3.40694 -1.69208 0
M  V30 5017 H 481.856 -4.36544 -2.4131 0
M  V30 5018 H 481.01 -3.82821 -4.70673 0
M  V30 5019 H 479.749 -2.76914 -4.01459 0
M  V30 5020 H 478.754 -4.72984 -2.80296 0
M  V30 5021 H 479.979 -5.80375 -3.52621 0
M  V30 5022 H 477.925 -4.16974 -5.06427 0
M  V30 5023 H 477.842 -5.87384 -4.75937 0
M  V30 5024 H 479.11 -5.24355 -5.76777 0
M  V30 5025 N 483.339 0.512053 -1.4905 0
M  V30 5026 C 484.755 0.84224 -1.35567 0
M  V30 5027 C 484.955 1.97878 -0.380319 0
M  V30 5028 O 484.011 2.51769 0.19201 0
M  V30 5029 C 485.324 1.19286 -2.76028 0
M  V30 5030 C 486.872 1.30171 -2.84648 0
M  V30 5031 C 487.347 1.68568 -4.25851 0
M  V30 5032 N 488.838 1.75638 -4.28609 0
M  V30 5033 C 489.573 2.06769 -5.34821 0
M  V30 5034 N 489.069 2.36201 -6.51292 0
M  V30 5035 N 490.862 2.07927 -5.22229 0
M  V30 5036 H 483.013 -0.237574 -2.11067 0
M  V30 5037 H 485.276 -0.0436747 -0.946993 0
M  V30 5038 H 484.982 0.431199 -3.49047 0
M  V30 5039 H 484.856 2.13889 -3.10695 0
M  V30 5040 H 487.243 2.05411 -2.11873 0
M  V30 5041 H 487.324 0.336457 -2.53578 0
M  V30 5042 H 486.968 0.938824 -4.99148 0
M  V30 5043 H 486.898 2.66174 -4.54377 0
M  V30 5044 H 489.389 1.55097 -3.44606 0
M  V30 5045 H 489.702 2.59112 -7.28066 0
M  V30 5046 H 488.047 2.33681 -6.54536 0
M  V30 5047 H 491.238 1.84403 -4.30248 0
M  V30 5048 H 491.411 2.31856 -6.05101 0
M  V30 5049 N 484.817 1.37938 0.762283 0
M  V30 5050 C 486.094 1.24196 1.51112 0
M  V30 5051 C 486.474 -0.160409 2.1049 0
M  V30 5052 O 485.822 -1.16904 1.96331 0
M  V30 5053 C 486.032 2.34537 2.58445 0
M  V30 5054 C 487.38 2.7254 3.25588 0
M  V30 5055 O 488.404 2.33783 2.68745 0
M  V30 5056 O 487.263 3.39343 4.28379 0
M  V30 5057 H 484.357 0.485175 0.669727 0
M  V30 5058 H 486.903 1.49743 0.798438 0
M  V30 5059 H 485.675 3.28406 2.12756 0
M  V30 5060 H 485.298 2.10505 3.37303 0
M  V30 5061 N 486.295 -0.989507 1.22664 0
M  V30 5062 C 487.541 -1.7321 1.05481 0
M  V30 5063 C 487.874 -1.89852 -0.408635 0
M  V30 5064 O 487.149 -1.44416 -1.30285 0
M  V30 5065 C 487.432 -3.1357 1.77047 0
M  V30 5066 C 487.285 -3.04555 3.31008 0
M  V30 5067 C 488.604 -4.12812 1.5256 0
M  V30 5068 H 485.723 -0.628697 0.384589 0
M  V30 5069 H 488.365 -1.15258 1.51049 0
M  V30 5070 H 486.515 -3.63046 1.3831 0
M  V30 5071 H 488.187 -2.62674 3.7921 0
M  V30 5072 H 486.43 -2.41278 3.6051 0
M  V30 5073 H 487.101 -4.03894 3.76263 0
M  V30 5074 H 489.577 -3.72106 1.86215 0
M  V30 5075 H 488.453 -5.09132 2.05124 0
M  V30 5076 H 488.714 -4.39711 0.458936 0
M  V30 5077 N 487.773 -1.03688 -1.18687 0
M  V30 5078 C 488.683 -0.634908 -2.25845 0
M  V30 5079 C 489.699 0.337065 -1.70704 0
M  V30 5080 O 490.875 0.192943 -2.00474 0
M  V30 5081 C 487.94 -0.000180054 -3.467 0
M  V30 5082 C 487.001 -1.02067 -4.1699 0
M  V30 5083 C 486.234 -0.41614 -5.32075 0
M  V30 5084 O 486.457 0.778712 -5.65059 0
M  V30 5085 O 485.391 -1.14296 -5.90948 0
M  V30 5086 H 489.217 -1.52757 -2.62486 0
M  V30 5087 H 486.802 -0.807533 -1.25695 0
M  V30 5088 H 488.684 0.353342 -4.19916 0
M  V30 5089 H 487.359 0.866367 -3.11891 0
M  V30 5090 H 486.266 -1.42592 -3.45859 0
M  V30 5091 H 487.599 -1.85786 -4.5579 0
M  V30 5092 N 489.251 1.34841 -0.815825 0
M  V30 5093 C 490.499 1.98107 -0.399744 0
M  V30 5094 C 490.82 1.65019 1.03894 0
M  V30 5095 O 490.09 0.937311 1.72021 0
M  V30 5096 H 488.67 0.732827 -0.144823 0
M  V30 5097 H 491.332 1.64599 -1.0437 0
M  V30 5098 H 490.428 3.07856 -0.512965 0
M  V30 5099 N 490.729 0.570148 1.46925 0
M  V30 5100 C 491.662 -0.218362 2.27153 0
M  V30 5101 C 492.64 -0.90847 1.34854 0
M  V30 5102 O 493.824 -0.924875 1.64251 0
M  V30 5103 C 490.951 -1.3122 3.12248 0
M  V30 5104 C 489.997 -0.729277 4.20219 0
M  V30 5105 S 490.83 0.434159 5.33737 0
M  V30 5106 C 491.986 -0.661188 6.22398 0
M  V30 5107 H 492.219 0.462393 2.93682 0
M  V30 5108 H 489.752 0.356753 1.50222 0
M  V30 5109 H 491.71 -1.93856 3.61842 0
M  V30 5110 H 490.371 -1.96485 2.45056 0
M  V30 5111 H 489.564 -1.5511 4.79538 0
M  V30 5112 H 489.166 -0.178836 3.73572 0
M  V30 5113 H 491.458 -1.55006 6.5953 0
M  V30 5114 H 492.401 -0.105046 7.08022 0
M  V30 5115 H 492.809 -0.959682 5.56283 0
M  V30 5116 N 492.207 -1.54576 0.307264 0
M  V30 5117 C 493.455 -1.99867 -0.299574 0
M  V30 5118 C 493.776 -1.19714 -1.53927 0
M  V30 5119 O 493.046 -0.29472 -1.9367 0
M  V30 5120 H 491.626 -0.738299 -0.113683 0
M  V30 5121 H 494.288 -1.9032 0.420042 0
M  V30 5122 H 493.384 -3.06901 -0.567283 0
M  V30 5123 N 493.685 -0.035106 -1.57561 0
M  V30 5124 C 495.096 0.502885 -1.798 0
M  V30 5125 C 495.447 1.71892 -0.945921 0
M  V30 5126 O 494.572 2.15822 -0.157991 0
M  V30 5127 C 495.167 0.919097 -3.26095 0
M  V30 5128 C 493.726 1.40216 -3.49308 0
M  V30 5129 C 492.873 0.369709 -2.74824 0
M  V30 5130 H 495.824 -0.261102 -1.56537 0
M  V30 5131 H 495.845 1.78308 -3.36135 0
M  V30 5132 H 495.357 0.0338526 -3.88085 0
M  V30 5133 H 493.458 2.30714 -2.92578 0
M  V30 5134 H 493.571 1.40541 -4.58023 0
M  V30 5135 H 491.935 0.839113 -2.40481 0
M  V30 5136 H 492.718 -0.507173 -3.39533 0
M  V30 5137 N 495.163 1.55791 0.238111 0
M  V30 5138 C 496.574 1.68383 0.806472 0
M  V30 5139 C 496.925 0.634157 1.85669 0
M  V30 5140 O 496.05 -0.217913 2.153 0
M  V30 5141 C 496.645 3.05268 1.46959 0
M  V30 5142 C 495.204 3.1977 1.98555 0
M  V30 5143 C 494.351 2.64279 0.839763 0
M  V30 5144 H 497.302 1.58694 0.0137535 0
M  V30 5145 H 497.323 3.00203 2.33792 0
M  V30 5146 H 496.835 3.81643 0.704993 0
M  V30 5147 H 494.936 2.48234 2.77868 0
M  V30 5148 H 495.049 4.26788 2.17689 0
M  V30 5149 H 493.413 2.22329 1.24265 0
M  V30 5150 H 494.196 3.43187 0.0881032 0
M  V30 5151 N 496.642 -0.504142 1.49319 0
M  V30 5152 C 497.552 -1.63248 1.68486 0
M  V30 5153 C 498.568 -1.64488 0.567432 0
M  V30 5154 O 499.744 -1.82966 0.841749 0
M  V30 5155 C 496.809 -2.99627 1.74426 0
M  V30 5156 C 495.87 -3.09039 2.97982 0
M  V30 5157 C 495.103 -4.38913 3.0363 0
M  V30 5158 O 495.326 -5.27528 2.16958 0
M  V30 5159 O 494.26 -4.53231 3.96062 0
M  V30 5160 H 498.086 -1.50008 2.64067 0
M  V30 5161 H 495.671 -0.680086 1.33023 0
M  V30 5162 H 497.553 -3.80689 1.80705 0
M  V30 5163 H 496.228 -3.13136 0.820233 0
M  V30 5164 H 495.135 -2.27177 2.97223 0
M  V30 5165 H 496.468 -3.00456 3.89855 0
M  V30 5166 N 498.12 -1.38341 -0.754957 0
M  V30 5167 C 499.369 -1.33791 -1.5094 0
M  V30 5168 C 499.682 0.0699267 -1.95475 0
M  V30 5169 O 500.888 0.237956 -2.70455 0
M  V30 5170 C 499.344 -2.34934 -2.72643 0
M  V30 5171 C 498.952 -3.81332 -2.35138 0
M  V30 5172 C 500.696 -2.39425 -3.50536 0
M  V30 5173 C 498.603 -4.74164 -3.53444 0
M  V30 5174 H 497.533 -0.497314 -0.566741 0
M  V30 5175 H 500.184 -1.63888 -0.825403 0
M  V30 5176 H 498.566 -1.97878 -3.43017 0
M  V30 5177 H 499.74 -4.27319 -1.7244 0
M  V30 5178 H 498.055 -3.79946 -1.70382 0
M  V30 5179 H 500.652 -3.0598 -4.38498 0
M  V30 5180 H 500.995 -1.41278 -3.91594 0
M  V30 5181 H 501.528 -2.75274 -2.87174 0
M  V30 5182 H 498.267 -5.73501 -3.17453 0
M  V30 5183 H 497.787 -4.3287 -4.15191 0
M  V30 5184 H 499.466 -4.92111 -4.20043 0
M  V30 5185 N 499.598 0.982988 -1.23187 0
M  V30 5186 C 500.545 2.07491 -1.01075 0
M  V30 5187 C 501.515 1.65949 0.070905 0
M  V30 5188 O 502.7 1.90629 -0.0806822 0
M  V30 5189 C 499.84 3.39751 -0.605261 0
M  V30 5190 C 498.953 3.94578 -1.75876 0
M  V30 5191 C 498.088 5.15039 -1.3003 0
M  V30 5192 C 497.127 5.62027 -2.42472 0
M  V30 5193 N 496.264 6.73719 -1.97602 0
M  V30 5194 H 501.104 2.25739 -1.9454 0
M  V30 5195 H 498.641 1.10659 -0.969179 0
M  V30 5196 H 500.599 4.15719 -0.351279 0
M  V30 5197 H 499.229 3.21473 0.292382 0
M  V30 5198 H 498.281 3.1539 -2.12681 0
M  V30 5199 H 499.593 4.25422 -2.60418 0
M  V30 5200 H 498.747 5.9833 -1.00429 0
M  V30 5201 H 497.486 4.85843 -0.425216 0
M  V30 5202 H 496.491 4.77318 -2.7285 0
M  V30 5203 H 497.716 5.93244 -3.30512 0
M  V30 5204 H 495.662 6.46287 -1.1247 0
M  V30 5205 H 495.579 7.03934 -2.75705 0
M  V30 5206 H 496.847 7.6049 -1.71098 0
M  V30 5207 N 501.076 1.04316 1.18135 0
M  V30 5208 C 502.306 0.767003 1.91835 0
M  V30 5209 C 502.714 -0.68002 1.76557 0
M  V30 5210 O 502.057 -1.47548 1.09432 0
M  V30 5211 C 502.119 1.05674 3.43618 0
M  V30 5212 C 501.783 2.49818 3.82675 0
M  V30 5213 C 502.78 3.48003 3.86251 0
M  V30 5214 C 500.465 2.84596 4.13897 0
M  V30 5215 C 502.459 4.79016 4.20503 0
M  V30 5216 C 500.146 4.15813 4.4782 0
M  V30 5217 C 501.144 5.12834 4.51099 0
M  V30 5218 O 500.832 6.41699 4.84229 0
M  V30 5219 H 500.564 0.278948 0.615763 0
M  V30 5220 H 503.118 1.3946 1.50798 0
M  V30 5221 H 501.348 0.372029 3.84906 0
M  V30 5222 H 503.037 0.767994 3.98568 0
M  V30 5223 H 503.803 3.22475 3.62264 0
M  V30 5224 H 499.682 2.09748 4.1052 0
M  V30 5225 H 503.226 5.54739 4.22978 0
M  V30 5226 H 499.123 4.41109 4.71268 0
M  V30 5227 H 499.891 6.46387 5.02121 0
M  V30 5228 N 502.554 -1.34406 0.822964 0
M  V30 5229 C 503.802 -1.97892 0.410245 0
M  V30 5230 C 504.123 -1.65567 -1.03017 0
M  V30 5231 O 503.393 -0.94642 -1.71522 0
M  V30 5232 H 501.973 -0.732049 0.148707 0
M  V30 5233 H 504.635 -1.64043 1.05242 0
M  V30 5234 H 503.731 -3.07579 0.529284 0
M  V30 5235 N 504.032 -0.577932 -1.46621 0
M  V30 5236 C 504.942 0.160651 -2.34049 0
M  V30 5237 C 505.958 0.890911 -1.49462 0
M  V30 5238 O 507.134 0.855166 -1.82343 0
M  V30 5239 C 504.199 1.16447 -3.26559 0
M  V30 5240 C 503.26 0.4394 -4.27045 0
M  V30 5241 C 502.493 1.3954 -5.15135 0
M  V30 5242 O 502.716 2.63162 -5.06065 0
M  V30 5243 O 501.65 0.908585 -5.95003 0
M  V30 5244 H 505.476 -0.557057 -2.98547 0
M  V30 5245 H 503.061 -0.338369 -1.45518 0
M  V30 5246 H 504.943 1.7434 -3.83645 0
M  V30 5247 H 503.618 1.86373 -2.64663 0
M  V30 5248 H 502.525 -0.181247 -3.73661 0
M  V30 5249 H 503.858 -0.218799 -4.91713 0
M  V30 5250 N 505.51 1.54411 -0.315457 0
M  V30 5251 C 506.735 2.05299 0.294496 0
M  V30 5252 C 507.16 1.19052 1.4563 0
M  V30 5253 O 506.518 0.197804 1.80218 0
M  V30 5254 C 506.566 3.5345 0.714549 0
M  V30 5255 O 505.67 3.70175 1.81781 0
M  V30 5256 H 505.011 0.661743 0.0547019 0
M  V30 5257 H 507.541 1.99327 -0.461508 0
M  V30 5258 H 507.551 3.9557 0.999426 0
M  V30 5259 H 506.226 4.1568 -0.135244 0
M  V30 5260 H 504.803 3.3996 1.53236 0
M  V30 5261 N 506.988 0.0434614 1.5754 0
M  V30 5262 C 507.918 -0.931651 2.14109 0
M  V30 5263 C 508.899 -1.32971 1.06079 0
M  V30 5264 O 510.084 -1.40579 1.33982 0
M  V30 5265 C 507.214 -2.20914 2.67982 0
M  V30 5266 C 506.168 -1.95139 3.80926 0
M  V30 5267 C 505.494 -3.29276 4.21285 0
M  V30 5268 C 506.794 -1.27913 5.06395 0
M  V30 5269 H 508.488 -0.460497 2.95837 0
M  V30 5270 H 506.034 -0.220058 1.42309 0
M  V30 5271 H 507.987 -2.89522 3.06194 0
M  V30 5272 H 506.711 -2.70221 1.83434 0
M  V30 5273 H 505.37 -1.28945 3.43175 0
M  V30 5274 H 505.018 -3.76369 3.33699 0
M  V30 5275 H 504.718 -3.12831 4.97404 0
M  V30 5276 H 506.242 -3.99129 4.62091 0
M  V30 5277 H 507.656 -1.86544 5.42102 0
M  V30 5278 H 506.053 -1.2182 5.87605 0
M  V30 5279 H 507.123 -0.254066 4.84234 0
M  V30 5280 N 508.466 -1.55915 -0.229846 0
M  V30 5281 C 509.706 -1.80314 -0.962614 0
M  V30 5282 C 510.07 -0.61568 -1.81861 0
M  V30 5283 O 511.271 -0.738795 -2.58448 0
M  V30 5284 C 509.542 -3.0956 -1.78627 0
M  V30 5285 S 511.101 -3.55243 -2.57581 0
M  V30 5286 H 507.919 -0.633142 -0.323499 0
M  V30 5287 H 510.521 -1.94155 -0.228919 0
M  V30 5288 H 509.225 -3.94033 -1.14742 0
M  V30 5289 H 508.756 -2.98503 -2.56241 0
M  V30 5290 H 510.771 -3.17924 -3.80971 0
M  V30 5291 N 509.944 0.496216 -1.49584 0
M  V30 5292 C 511.191 1.25003 -1.59312 0
M  V30 5293 C 511.519 1.92445 -0.28198 0
M  V30 5294 O 510.774 1.81557 0.730452 0
M  V30 5295 C 511.073 2.3359 -2.705 0
M  V30 5296 C 510.739 1.83574 -4.11839 0
M  V30 5297 C 509.401 1.69653 -4.50302 0
M  V30 5298 C 511.753 1.46193 -5.00277 0
M  V30 5299 C 509.081 1.16736 -5.74969 0
M  V30 5300 C 511.433 0.947265 -6.25468 0
M  V30 5301 C 510.097 0.794485 -6.62755 0
M  V30 5302 H 509.367 0.45742 -0.582965 0
M  V30 5303 H 512.014 0.549996 -1.83432 0
M  V30 5304 H 510.319 3.09401 -2.40371 0
M  V30 5305 H 512.016 2.91627 -2.75235 0
M  V30 5306 H 508.606 1.9537 -3.81482 0
M  V30 5307 H 512.79 1.55793 -4.71214 0
M  V30 5308 H 508.046 1.03623 -6.02555 0
M  V30 5309 H 512.22 0.648846 -6.93371 0
M  V30 5310 H 509.847 0.382271 -7.59238 0
M  V30 5311 N 511.423 1.38739 0.74761 0
M  V30 5312 C 512.669 1.35475 1.50912 0
M  V30 5313 C 513.002 -0.0533093 1.94127 0
M  V30 5314 O 512.277 -1.01572 1.65871 0
M  V30 5315 C 512.56 2.31582 2.75757 0
M  V30 5316 C 512.413 3.81274 2.38642 0
M  V30 5317 C 513.732 2.25722 3.77806 0
M  V30 5318 H 510.851 0.493427 0.547447 0
M  V30 5319 H 513.493 1.69634 0.855823 0
M  V30 5320 H 511.643 2.02582 3.31501 0
M  V30 5321 H 513.315 4.20972 1.88626 0
M  V30 5322 H 511.558 3.98664 1.71025 0
M  V30 5323 H 512.229 4.4399 3.27989 0
M  V30 5324 H 514.705 2.51336 3.31616 0
M  V30 5325 H 513.581 2.95069 4.62845 0
M  V30 5326 H 513.842 1.25803 4.23823 0
M  V30 5327 N 512.901 -0.976442 1.23707 0
M  V30 5328 C 513.833 -2.07212 0.979574 0
M  V30 5329 C 514.846 -1.6273 -0.0478528 0
M  V30 5330 O 516.035 -1.77506 0.18815 0
M  V30 5331 C 513.135 -3.35835 0.45479 0
M  V30 5332 C 512.308 -4.09268 1.54331 0
M  V30 5333 C 511.367 -5.16166 1.02271 0
M  V30 5334 O 510.393 -5.42827 1.71254 0
M  V30 5335 N 511.595 -5.80313 -0.147419 0
M  V30 5336 H 514.36 -2.29878 1.92292 0
M  V30 5337 H 511.921 -1.14343 1.14618 0
M  V30 5338 H 513.913 -4.04597 0.0914631 0
M  V30 5339 H 512.483 -3.10106 -0.394068 0
M  V30 5340 H 511.703 -3.34906 2.07923 0
M  V30 5341 H 512.991 -4.55095 2.27522 0
M  V30 5342 H 512.389 -5.61043 -0.724353 0
M  V30 5343 H 510.946 -6.50231 -0.451972 0
M  V30 5344 N 514.379 -1.04941 -1.1758 0
M  V30 5345 C 515.329 -0.618378 -2.19454 0
M  V30 5346 C 516.313 0.343813 -1.57184 0
M  V30 5347 O 517.505 0.16145 -1.76262 0
M  V30 5348 C 514.634 0.00803847 -3.43299 0
M  V30 5349 C 513.72 -0.977827 -4.12673 0
M  V30 5350 N 514.111 -2.14826 -4.57912 0
M  V30 5351 C 512.409 -0.805748 -4.38661 0
M  V30 5352 C 513.11 -2.77174 -5.11419 0
M  V30 5353 N 512.086 -2.04989 -5.03468 0
M  V30 5354 H 515.888 -1.51018 -2.52132 0
M  V30 5355 H 513.402 -0.919201 -1.33882 0
M  V30 5356 H 515.399 0.334584 -4.15555 0
M  V30 5357 H 514.059 0.895272 -3.12114 0
M  V30 5358 H 515.07 -2.52673 -4.52081 0
M  V30 5359 H 511.747 0.0306506 -4.17489 0
M  V30 5360 H 513.137 -3.76416 -5.56562 0
M  V30 5361 N 515.857 1.33968 -0.830081 0
M  V30 5362 C 517.103 1.98357 -0.422191 0
M  V30 5363 C 517.436 1.65633 1.01387 0
M  V30 5364 O 516.711 0.931648 1.70735 0
M  V30 5365 C 516.994 3.54492 -0.633043 0
M  V30 5366 C 516.847 3.96934 -2.11574 0
M  V30 5367 C 518.166 4.40039 -0.0735584 0
M  V30 5368 H 515.285 0.720544 -0.154871 0
M  V30 5369 H 517.927 1.58749 -1.04397 0
M  V30 5370 H 516.077 3.88361 -0.103775 0
M  V30 5371 H 517.749 3.73363 -2.7092 0
M  V30 5372 H 515.992 3.46984 -2.60354 0
M  V30 5373 H 516.663 5.05651 -2.21406 0
M  V30 5374 H 519.139 4.12764 -0.52585 0
M  V30 5375 H 518.015 5.48327 -0.250841 0
M  V30 5376 H 518.276 4.30124 1.02202 0
M  V30 5377 N 517.335 0.585699 1.46312 0
M  V30 5378 C 518.298 -0.135673 2.28798 0
M  V30 5379 C 519.298 -0.815988 1.38558 0
M  V30 5380 O 520.488 -0.667487 1.60904 0
M  V30 5381 C 517.62 -1.20163 3.1902 0
M  V30 5382 H 518.813 0.589257 2.94054 0
M  V30 5383 H 516.366 0.343794 1.52472 0
M  V30 5384 H 517.101 -1.95804 2.58517 0
M  V30 5385 H 516.886 -0.718282 3.85465 0
M  V30 5386 H 518.376 -1.70749 3.81096 0
M  V30 5387 N 518.813 -1.54241 0.323641 0
M  V30 5388 C 520.038 -2.05452 -0.283605 0
M  V30 5389 C 520.463 -1.19823 -1.44997 0
M  V30 5390 O 519.821 -0.207358 -1.8011 0
M  V30 5391 C 519.869 -3.53823 -0.695795 0
M  V30 5392 O 518.973 -3.71134 -1.79815 0
M  V30 5393 H 518.314 -0.662024 -0.0511917 0
M  V30 5394 H 520.844 -1.99079 0.472073 0
M  V30 5395 H 520.854 -3.96094 -0.978434 0
M  V30 5396 H 519.529 -4.15602 0.157287 0
M  V30 5397 H 518.106 -3.40768 -1.51431 0
M  V30 5398 N 520.291 -0.0518155 -1.57515 0
M  V30 5399 C 521.539 0.620595 -1.92336 0
M  V30 5400 C 521.86 1.71345 -0.930907 0
M  V30 5401 O 521.13 1.95885 0.0241341 0
M  V30 5402 H 519.71 0.232226 -0.709986 0
M  V30 5403 H 522.372 -0.104969 -1.94617 0
M  V30 5404 H 521.468 1.05879 -2.93592 0
M  V30 5405 N 521.769 1.56035 0.221574 0
M  V30 5406 C 522.699 1.95434 1.2778 0
M  V30 5407 C 523.68 0.822564 1.48889 0
M  V30 5408 O 524.865 1.08486 1.61072 0
M  V30 5409 C 521.995 2.27102 2.62759 0
M  V30 5410 C 520.949 3.4277 2.56306 0
M  V30 5411 C 520.275 3.60043 3.95314 0
M  V30 5412 C 521.575 4.77742 2.11093 0
M  V30 5413 H 523.269 2.83912 0.950504 0
M  V30 5414 H 520.815 1.36596 0.455791 0
M  V30 5415 H 522.768 2.53256 3.36807 0
M  V30 5416 H 521.492 1.35478 2.97176 0
M  V30 5417 H 520.151 3.16664 1.84715 0
M  V30 5418 H 519.799 2.65794 4.27039 0
M  V30 5419 H 519.499 4.37841 3.91879 0
M  V30 5420 H 521.023 3.88545 4.71025 0
M  V30 5421 H 522.437 5.03102 2.74885 0
M  V30 5422 H 520.834 5.58823 2.18716 0
M  V30 5423 H 521.904 4.731 1.06321 0
M  V30 5424 N 523.247 -0.488276 1.49845 0
M  V30 5425 C 524.493 -1.24065 1.61182 0
M  V30 5426 C 524.848 -1.9004 0.300435 0
M  V30 5427 O 524.141 -1.78341 -0.700365 0
M  V30 5428 C 524.335 -2.32152 2.71735 0
M  V30 5429 C 524.164 -1.76778 4.13497 0
M  V30 5430 C 522.934 -1.57513 4.80123 0
M  V30 5431 C 525.132 -1.27242 4.98311 0
M  V30 5432 N 523.114 -0.972015 6.06156 0
M  V30 5433 C 524.485 -0.791457 6.14928 0
M  V30 5434 C 526.54 -1.15934 4.84214 0
M  V30 5435 C 525.243 -0.208593 7.18997 0
M  V30 5436 C 527.269 -0.590436 5.88445 0
M  V30 5437 C 526.631 -0.119767 7.04298 0
M  V30 5438 H 522.73 -0.443487 0.644083 0
M  V30 5439 H 525.314 -0.545551 1.86901 0
M  V30 5440 H 523.485 -2.99108 2.47768 0
M  V30 5441 H 525.217 -2.99187 2.72523 0
M  V30 5442 H 521.972 -1.82247 4.37131 0
M  V30 5443 H 522.396 -0.689367 6.73481 0
M  V30 5444 H 527.038 -1.5092 3.94947 0
M  V30 5445 H 524.756 0.153501 8.07954 0
M  V30 5446 H 528.342 -0.505548 5.79599 0
M  V30 5447 H 527.222 0.313568 7.83573 0
M  V30 5448 N 524.725 -1.39134 -0.740242 0
M  V30 5449 C 525.655 -1.40165 -1.86751 0
M  V30 5450 C 526.636 -0.265708 -1.68012 0
M  V30 5451 O 527.821 -0.47076 -1.88408 0
M  V30 5452 C 524.951 -1.2392 -3.2444 0
M  V30 5453 C 523.905 -2.34858 -3.57807 0
M  V30 5454 C 523.231 -2.03707 -4.94376 0
M  V30 5455 C 524.531 -3.77159 -3.61315 0
M  V30 5456 H 526.225 -2.345 -1.86145 0
M  V30 5457 H 523.771 -1.12875 -0.89416 0
M  V30 5458 H 525.724 -1.23263 -4.02969 0
M  V30 5459 H 524.448 -0.26051 -3.25559 0
M  V30 5460 H 523.107 -2.34723 -2.81604 0
M  V30 5461 H 522.755 -1.04289 -4.9207 0
M  V30 5462 H 522.455 -2.78016 -5.17669 0
M  V30 5463 H 523.979 -2.04691 -5.75268 0
M  V30 5464 H 525.393 -3.79252 -4.29931 0
M  V30 5465 H 523.79 -4.50784 -3.96124 0
M  V30 5466 H 524.86 -4.08513 -2.61238 0
M  V30 5467 N 526.204 0.969867 -1.24223 0
M  V30 5468 C 527.432 1.74756 -1.10761 0
M  V30 5469 C 527.847 1.85713 0.340041 0
M  V30 5470 O 527.204 1.34389 1.23474 0
M  V30 5471 C 527.255 3.16915 -1.73917 0
M  V30 5472 O 526.976 3.06511 -3.13021 0
M  V30 5473 C 528.477 4.11032 -1.66036 0
M  V30 5474 H 525.697 0.548092 -0.387087 0
M  V30 5475 H 528.241 1.2178 -1.64286 0
M  V30 5476 H 526.396 3.66884 -1.244 0
M  V30 5477 H 526.81 3.96079 -3.43834 0
M  V30 5478 H 528.284 5.08446 -2.14911 0
M  V30 5479 H 528.761 4.34785 -0.621159 0
M  V30 5480 H 529.367 3.66972 -2.14969 0
M  V30 5481 N 527.682 1.05563 1.17022 0
M  V30 5482 C 528.912 0.787307 1.91011 0
M  V30 5483 C 529.32 -0.661256 1.77268 0
M  V30 5484 O 528.663 -1.46379 1.10991 0
M  V30 5485 C 528.725 1.09313 3.42478 0
M  V30 5486 C 528.389 2.53863 3.80004 0
M  V30 5487 C 529.386 3.52081 3.82538 0
M  V30 5488 C 527.071 2.88969 4.10855 0
M  V30 5489 C 529.065 4.83449 4.15399 0
M  V30 5490 C 526.752 4.2054 4.43384 0
M  V30 5491 C 527.75 5.17589 4.45635 0
M  V30 5492 O 527.438 6.46799 4.77395 0
M  V30 5493 H 527.17 0.285463 0.61277 0
M  V30 5494 H 529.724 1.41051 1.49311 0
M  V30 5495 H 527.954 0.412833 3.8449 0
M  V30 5496 H 529.643 0.810224 3.97731 0
M  V30 5497 H 530.409 3.26299 3.58823 0
M  V30 5498 H 526.288 2.1409 4.08272 0
M  V30 5499 H 529.832 5.59194 4.1707 0
M  V30 5500 H 525.729 4.46083 4.66563 0
M  V30 5501 H 526.497 6.51677 4.95237 0
M  V30 5502 N 529.16 -1.33526 0.837174 0
M  V30 5503 C 530.123 -2.27551 0.274421 0
M  V30 5504 C 531.123 -1.50886 -0.555881 0
M  V30 5505 O 532.313 -1.70227 -0.369918 0
M  V30 5506 C 529.445 -3.35332 -0.613605 0
M  V30 5507 H 530.638 -2.78837 1.10408 0
M  V30 5508 H 528.191 -1.439 0.610126 0
M  V30 5509 H 528.926 -2.89285 -1.46577 0
M  V30 5510 H 528.711 -3.92095 -0.0195341 0
M  V30 5511 H 530.201 -4.05433 -1.00068 0
M  V30 5512 N 530.638 -0.59345 -1.46 0
M  V30 5513 C 531.601 0.123538 -2.28867 0
M  V30 5514 C 532.601 0.808628 -1.38989 0
M  V30 5515 O 533.791 0.658945 -1.61256 0
M  V30 5516 C 530.923 1.1847 -3.19653 0
M  V30 5517 H 532.116 -0.604843 -2.93737 0
M  V30 5518 H 529.669 -0.351875 -1.52288 0
M  V30 5519 H 530.404 1.94431 -2.59552 0
M  V30 5520 H 530.189 0.69783 -3.8584 0
M  V30 5521 H 531.679 1.68726 -3.81997 0
M  V30 5522 N 532.116 1.54067 -0.331816 0
M  V30 5523 C 533.527 1.86059 0.15454 0
M  V30 5524 C 533.878 1.25331 1.50952 0
M  V30 5525 O 533.003 0.562441 2.08963 0
M  V30 5526 C 533.598 3.37581 0.287192 0
M  V30 5527 C 532.157 3.69493 0.717773 0
M  V30 5528 C 531.304 2.76863 -0.155569 0
M  V30 5529 H 534.255 1.48797 -0.55182 0
M  V30 5530 H 534.276 3.63744 1.11671 0
M  V30 5531 H 533.788 3.81751 -0.699131 0
M  V30 5532 H 531.889 3.3086 1.71354 0
M  V30 5533 H 532.002 4.76315 0.5158 0
M  V30 5534 H 530.366 2.51995 0.370213 0
M  V30 5535 H 531.149 3.23861 -1.13881 0
M  V30 5536 N 533.594 0.0601682 1.57485 0
M  V30 5537 C 534.871 -0.651956 1.84415 0
M  V30 5538 C 535.251 -1.88498 0.950361 0
M  V30 5539 O 534.599 -2.28496 0.0136719 0
M  V30 5540 C 534.809 -1.00069 3.34346 0
M  V30 5541 C 536.157 -1.37915 4.01578 0
M  V30 5542 O 537.181 -1.09277 3.39024 0
M  V30 5543 O 536.04 -1.91399 5.11887 0
M  V30 5544 H 533.134 -0.322668 0.761455 0
M  V30 5545 H 535.68 0.0902159 1.6946 0
M  V30 5546 H 534.452 -0.124463 3.91102 0
M  V30 5547 H 534.075 -1.80001 3.54521 0
M  V30 5548 N 535.072 -1.5615 -0.213296 0
M  V30 5549 C 536.483 -1.69645 -0.779582 0
M  V30 5550 C 536.834 -0.663615 -1.84636 0
M  V30 5551 O 535.959 0.183633 -2.15619 0
M  V30 5552 C 536.554 -3.07567 -1.42084 0
M  V30 5553 C 535.113 -3.22889 -1.93442 0
M  V30 5554 C 534.26 -2.65581 -0.797612 0
M  V30 5555 H 537.211 -1.58696 0.0114951 0
M  V30 5556 H 537.232 -3.03884 -2.28986 0
M  V30 5557 H 536.744 -3.82716 -0.644187 0
M  V30 5558 H 534.845 -2.52623 -2.73884 0
M  V30 5559 H 534.958 -4.30197 -2.10872 0
M  V30 5560 H 533.322 -2.24278 -1.20712 0
M  V30 5561 H 534.105 -3.43284 -0.033494 0
M  V30 5562 N 536.55 0.480323 -1.50102 0
M  V30 5563 C 537.497 1.57946 -1.6829 0
M  V30 5564 C 538.467 1.57611 -0.524223 0
M  V30 5565 O 539.652 1.75282 -0.753709 0
M  V30 5566 C 536.792 2.95978 -1.77457 0
M  V30 5567 C 535.905 3.06173 -3.04766 0
M  V30 5568 C 535.04 4.35063 -3.04784 0
M  V30 5569 C 534.079 4.38966 -4.26586 0
M  V30 5570 N 533.216 5.59314 -4.24396 0
M  V30 5571 H 538.056 1.41743 -2.62131 0
M  V30 5572 H 535.593 0.689304 -1.2995 0
M  V30 5573 H 537.551 3.76011 -1.80752 0
M  V30 5574 H 536.181 3.10837 -0.870637 0
M  V30 5575 H 535.233 2.19071 -3.10986 0
M  V30 5576 H 536.545 3.04916 -3.9475 0
M  V30 5577 H 535.699 5.23436 -3.06757 0
M  V30 5578 H 534.438 4.38915 -2.12614 0
M  V30 5579 H 533.443 3.48992 -4.24835 0
M  V30 5580 H 534.668 4.36813 -5.19972 0
M  V30 5581 H 532.614 5.63969 -3.35074 0
M  V30 5582 H 532.531 5.5976 -5.08138 0
M  V30 5583 H 533.799 6.49837 -4.30502 0
M  V30 5584 N 538.028 1.39524 0.732853 0
M  V30 5585 C 538.991 1.38189 1.82857 0
M  V30 5586 C 539.991 0.278624 1.58368 0
M  V30 5587 O 541.181 0.536639 1.65728 0
M  V30 5588 C 538.313 1.15661 3.2068 0
M  V30 5589 H 539.506 2.35692 1.85444 0
M  V30 5590 H 537.059 1.2512 0.936728 0
M  V30 5591 H 537.794 0.188482 3.23752 0
M  V30 5592 H 537.579 1.95559 3.39852 0
M  V30 5593 H 539.069 1.17472 4.00737 0
M  V30 5594 N 539.506 -0.963266 1.24736 0
M  V30 5595 C 540.436 -2.07628 1.06832 0
M  V30 5596 C 541.417 -1.70088 -0.0200566 0
M  V30 5597 O 542.602 -1.93636 0.147854 0
M  V30 5598 C 539.732 -3.40636 0.677069 0
M  V30 5599 C 538.686 -3.9215 1.71471 0
M  V30 5600 C 538.012 -5.21553 1.1784 0
M  V30 5601 C 539.312 -4.19493 3.11164 0
M  V30 5602 H 541.006 -2.22864 1.9993 0
M  V30 5603 H 538.552 -1.07093 0.96266 0
M  V30 5604 H 540.505 -4.17941 0.538792 0
M  V30 5605 H 539.229 -3.25313 -0.289612 0
M  V30 5606 H 537.888 -3.17005 1.84128 0
M  V30 5607 H 537.536 -5.02593 0.202195 0
M  V30 5608 H 537.236 -5.56988 1.87185 0
M  V30 5609 H 538.76 -6.01463 1.05233 0
M  V30 5610 H 540.174 -4.87487 3.01711 0
M  V30 5611 H 538.571 -4.66165 3.77902 0
M  V30 5612 H 539.641 -3.26097 3.58871 0
M  V30 5613 N 540.985 -1.06182 -1.16461 0
M  V30 5614 C 542.401 -0.785065 -1.38956 0
M  V30 5615 C 542.601 0.616103 -1.9185 0
M  V30 5616 O 541.657 1.37686 -2.11657 0
M  V30 5617 C 542.97 -1.84902 -2.37132 0
M  V30 5618 C 544.518 -1.8724 -2.50819 0
M  V30 5619 C 544.993 -2.92686 -3.52277 0
M  V30 5620 N 546.484 -2.91712 -3.59803 0
M  V30 5621 C 547.219 -3.69949 -4.38093 0
M  V30 5622 N 546.715 -4.58 -5.19815 0
M  V30 5623 N 548.508 -3.58346 -4.33064 0
M  V30 5624 H 540.659 -1.96569 -0.804634 0
M  V30 5625 H 542.922 -0.851747 -0.416211 0
M  V30 5626 H 542.628 -2.85518 -2.0536 0
M  V30 5627 H 542.502 -1.69908 -3.36766 0
M  V30 5628 H 544.889 -0.872827 -2.81897 0
M  V30 5629 H 544.97 -2.06311 -1.51226 0
M  V30 5630 H 544.614 -3.92835 -3.21937 0
M  V30 5631 H 544.544 -2.70864 -4.51598 0
M  V30 5632 H 547.035 -2.27876 -3.01464 0
M  V30 5633 H 547.348 -5.14357 -5.76764 0
M  V30 5634 H 545.693 -4.62056 -5.19162 0
M  V30 5635 H 548.884 -2.88943 -3.68279 0
M  V30 5636 H 549.057 -4.19563 -4.93833 0
M  V30 5637 N 542.463 1.3308 -0.844243 0
M  V30 5638 C 543.393 2.3161 -0.296493 0
M  V30 5639 C 544.374 1.59215 0.598707 0
M  V30 5640 O 545.559 1.87077 0.521134 0
M  V30 5641 C 542.689 3.43313 0.524762 0
M  V30 5642 C 541.643 4.27115 -0.275106 0
M  V30 5643 C 540.969 5.30483 0.670236 0
M  V30 5644 C 542.269 5.00443 -1.49514 0
M  V30 5645 H 543.963 2.77672 -1.11976 0
M  V30 5646 H 541.509 1.33496 -0.539899 0
M  V30 5647 H 543.462 4.11273 0.918298 0
M  V30 5648 H 542.186 2.95952 1.3813 0
M  V30 5649 H 540.845 3.60787 -0.650267 0
M  V30 5650 H 540.493 4.79379 1.52332 0
M  V30 5651 H 540.193 5.87435 0.139123 0
M  V30 5652 H 541.717 6.01308 1.06117 0
M  V30 5653 H 543.131 5.61141 -1.17447 0
M  V30 5654 H 541.528 5.67071 -1.96343 0
M  V30 5655 H 542.598 4.28906 -2.26202 0
M  V30 5656 N 543.941 0.601185 1.45683 0
M  V30 5657 C 545.189 0.0936957 2.01883 0
M  V30 5658 C 545.51 -1.2779 1.47291 0
M  V30 5659 O 544.78 -1.84279 0.664691 0
M  V30 5660 H 543.36 0.0316466 0.746329 0
M  V30 5661 H 546.022 0.781137 1.78562 0
M  V30 5662 H 545.118 0.0386297 3.12076 0
M  V30 5663 N 545.419 -1.53889 0.339982 0
M  V30 5664 C 546.665 -2.01152 -0.258003 0
M  V30 5665 C 546.998 -1.22749 -1.50487 0
M  V30 5666 O 546.273 -0.314156 -1.91946 0
M  V30 5667 C 546.556 -3.55468 -0.575717 0
M  V30 5668 C 546.409 -4.44584 0.682996 0
M  V30 5669 C 547.728 -4.1768 -1.38677 0
M  V30 5670 H 544.847 -0.731198 -0.0922992 0
M  V30 5671 H 547.489 -1.84352 0.459814 0
M  V30 5672 H 545.639 -3.69914 -1.18725 0
M  V30 5673 H 547.311 -4.41981 1.32102 0
M  V30 5674 H 545.554 -4.13592 1.3086 0
M  V30 5675 H 546.225 -5.5043 0.416001 0
M  V30 5676 H 548.701 -4.0691 -0.869705 0
M  V30 5677 H 547.577 -5.25734 -1.57783 0
M  V30 5678 H 547.838 -3.72069 -2.38782 0
M  V30 5679 N 546.897 -0.0685191 -1.57451 0
M  V30 5680 C 547.827 0.89747 -2.15564 0
M  V30 5681 C 548.808 1.31266 -1.08181 0
M  V30 5682 O 549.993 1.38429 -1.36202 0
M  V30 5683 C 547.123 2.16623 -2.71463 0
M  V30 5684 C 546.077 1.89054 -3.83982 0
M  V30 5685 C 545.403 3.22532 -4.26471 0
M  V30 5686 C 546.703 1.1984 -5.08366 0
M  V30 5687 H 548.397 0.413373 -2.96533 0
M  V30 5688 H 545.943 0.197391 -1.42641 0
M  V30 5689 H 547.896 2.84614 -3.10761 0
M  V30 5690 H 546.62 2.67269 -1.8771 0
M  V30 5691 H 545.279 1.23469 -3.45183 0
M  V30 5692 H 544.927 3.71013 -3.39644 0
M  V30 5693 H 544.627 3.04879 -5.02317 0
M  V30 5694 H 546.151 3.91727 -4.68383 0
M  V30 5695 H 547.565 1.77896 -5.45001 0
M  V30 5696 H 545.962 1.12456 -5.89469 0
M  V30 5697 H 547.032 0.176996 -4.84577 0
M  V30 5698 N 548.375 1.56261 0.205012 0
M  V30 5699 C 549.322 1.93754 1.25411 0
M  V30 5700 C 550.292 0.796826 1.45739 0
M  V30 5701 O 551.477 1.05414 1.59036 0
M  V30 5702 C 548.617 2.27383 2.59598 0
M  V30 5703 C 547.73 3.5447 2.46931 0
M  V30 5704 C 546.865 3.77468 3.73753 0
M  V30 5705 C 545.904 4.98014 3.55877 0
M  V30 5706 N 545.041 5.17316 4.74688 0
M  V30 5707 H 549.881 2.83203 0.92737 0
M  V30 5708 H 547.418 1.40158 0.446574 0
M  V30 5709 H 549.376 2.44895 3.37761 0
M  V30 5710 H 548.006 1.41088 2.90335 0
M  V30 5711 H 547.058 3.45061 1.60116 0
M  V30 5712 H 548.37 4.42789 2.29651 0
M  V30 5713 H 547.524 3.95165 4.60358 0
M  V30 5714 H 546.263 2.87461 3.93976 0
M  V30 5715 H 545.268 4.80249 2.67657 0
M  V30 5716 H 546.493 5.8952 3.37109 0
M  V30 5717 H 544.439 4.30255 4.95194 0
M  V30 5718 H 544.356 5.99796 4.60197 0
M  V30 5719 H 545.624 5.39463 5.62672 0
M  V30 5720 N 549.853 -0.472356 1.50355 0
M  V30 5721 C 550.8 -1.57051 1.69126 0
M  V30 5722 C 551.77 -1.5733 0.532574 0
M  V30 5723 O 552.955 -1.7488 0.762994 0
M  V30 5724 C 550.095 -2.95033 1.79024 0
M  V30 5725 C 549.208 -3.04552 3.06386 0
M  V30 5726 C 548.343 -4.33441 3.07087 0
M  V30 5727 C 547.382 -4.36697 4.28908 0
M  V30 5728 N 546.519 -5.57056 4.27356 0
M  V30 5729 H 551.359 -1.40351 2.62879 0
M  V30 5730 H 548.896 -0.682403 1.30314 0
M  V30 5731 H 550.854 -3.75048 1.82744 0
M  V30 5732 H 549.484 -3.10371 0.887109 0
M  V30 5733 H 548.536 -2.17419 3.12143 0
M  V30 5734 H 549.848 -3.02818 3.96362 0
M  V30 5735 H 549.002 -5.21801 3.09529 0
M  V30 5736 H 547.741 -4.37782 2.14939 0
M  V30 5737 H 546.746 -3.46734 4.2668 0
M  V30 5738 H 547.971 -4.34049 5.22282 0
M  V30 5739 H 545.917 -5.62184 3.3806 0
M  V30 5740 H 545.834 -5.57058 5.111 0
M  V30 5741 H 547.102 -6.47545 4.33942 0
M  V30 5742 N 551.331 -1.39911 -0.725443 0
M  V30 5743 C 552.278 -1.39393 -1.83952 0
M  V30 5744 C 553.248 -0.252249 -1.64173 0
M  V30 5745 O 554.433 -0.44882 -1.85446 0
M  V30 5746 C 551.573 -1.25262 -3.21564 0
M  V30 5747 C 550.686 -2.49054 -3.52982 0
M  V30 5748 C 549.821 -2.27439 -4.80047 0
M  V30 5749 C 548.86 -3.46857 -5.04338 0
M  V30 5750 N 547.997 -3.24499 -6.22611 0
M  V30 5751 H 552.837 -2.34622 -1.83729 0
M  V30 5752 H 550.374 -1.16537 -0.897636 0
M  V30 5753 H 552.332 -1.15077 -4.01015 0
M  V30 5754 H 550.962 -0.33657 -3.21041 0
M  V30 5755 H 550.014 -2.69805 -2.6816 0
M  V30 5756 H 551.326 -3.37973 -3.66846 0
M  V30 5757 H 550.48 -2.14551 -5.67497 0
M  V30 5758 H 549.219 -1.35929 -4.68374 0
M  V30 5759 H 548.224 -3.60232 -4.15346 0
M  V30 5760 H 549.449 -4.3928 -5.17889 0
M  V30 5761 H 547.395 -2.35663 -6.12208 0
M  V30 5762 H 547.312 -4.06978 -6.37106 0
M  V30 5763 H 548.58 -3.15325 -7.12875 0
M  V30 5764 N 552.809 0.956637 -1.25245 0
M  V30 5765 C 553.772 2.03457 -1.05537 0
M  V30 5766 C 554.772 1.60798 -0.00886317 0
M  V30 5767 O 555.962 1.72384 -0.250865 0
M  V30 5768 C 553.094 3.35543 -0.601965 0
M  V30 5769 H 554.287 2.22372 -2.01223 0
M  V30 5770 H 551.84 1.13344 -1.07623 0
M  V30 5771 H 552.575 3.22323 0.357584 0
M  V30 5772 H 552.36 3.67854 -1.35743 0
M  V30 5773 H 553.85 4.14769 -0.485454 0
M  V30 5774 N 554.287 1.06798 1.15896 0
M  V30 5775 C 555.22 0.627503 2.19403 0
M  V30 5776 C 556.198 -0.352352 1.58736 0
M  V30 5777 O 557.382 -0.260111 1.86697 0
M  V30 5778 C 554.509 -0.079356 3.38607 0
M  V30 5779 C 553.555 0.858057 4.17779 0
M  V30 5780 S 554.388 2.35605 4.80885 0
M  V30 5781 C 555.544 1.66083 6.03463 0
M  V30 5782 H 555.777 1.50441 2.56427 0
M  V30 5783 H 553.31 0.881427 1.26768 0
M  V30 5784 H 555.268 -0.48095 4.07673 0
M  V30 5785 H 553.929 -0.932524 2.99938 0
M  V30 5786 H 553.122 0.310108 5.03045 0
M  V30 5787 H 552.724 1.19977 3.54234 0
M  V30 5788 H 555.016 0.969337 6.7053 0
M  V30 5789 H 555.959 2.49159 6.62816 0
M  V30 5790 H 556.367 1.14122 5.52844 0
M  V30 5791 N 555.766 -1.3263 0.851289 0
M  V30 5792 C 556.696 -2.31449 0.308771 0
M  V30 5793 C 557.677 -1.59531 -0.590255 0
M  V30 5794 O 558.862 -1.87351 -0.511205 0
M  V30 5795 C 555.992 -3.43586 -0.506548 0
M  V30 5796 C 554.946 -4.26963 0.297753 0
M  V30 5797 C 554.272 -5.30831 -0.642094 0
M  V30 5798 C 555.572 -4.99643 1.52166 0
M  V30 5799 H 557.266 -2.77074 1.13447 0
M  V30 5800 H 554.812 -1.33207 0.546971 0
M  V30 5801 H 556.765 -4.11754 -0.896474 0
M  V30 5802 H 555.489 -2.96681 -1.36558 0
M  V30 5803 H 554.148 -3.60437 0.669391 0
M  V30 5804 H 553.796 -4.8018 -1.49788 0
M  V30 5805 H 553.496 -5.87501 -0.107968 0
M  V30 5806 H 555.02 -6.01862 -1.02927 0
M  V30 5807 H 556.434 -5.6051 1.20421 0
M  V30 5808 H 554.831 -5.66022 1.99347 0
M  V30 5809 H 555.901 -4.27701 2.28474 0
M  V30 5810 N 557.244 -0.608902 -1.45362 0
M  V30 5811 C 558.194 0.130616 -2.27626 0
M  V30 5812 C 559.178 0.837323 -1.37396 0
M  V30 5813 O 560.37 0.727096 -1.61376 0
M  V30 5814 C 557.499 1.12646 -3.24293 0
M  V30 5815 C 556.585 0.42052 -4.2201 0
M  V30 5816 N 556.976 -0.538569 -5.02925 0
M  V30 5817 C 555.274 0.667901 -4.40971 0
M  V30 5818 C 555.975 -0.953625 -5.7383 0
M  V30 5819 N 554.951 -0.297097 -5.42788 0
M  V30 5820 H 558.753 -0.605996 -2.87585 0
M  V30 5821 H 556.267 -0.432672 -1.5653 0
M  V30 5822 H 558.264 1.67066 -3.81961 0
M  V30 5823 H 556.924 1.86361 -2.65894 0
M  V30 5824 H 557.935 -0.915375 -5.09746 0
M  V30 5825 H 554.612 1.38963 -3.93695 0
M  V30 5826 H 556.002 -1.74473 -6.48852 0
M  V30 5827 N 558.722 1.53707 -0.348139 0
M  V30 5828 C 559.654 2.22725 0.540946 0
M  V30 5829 C 560.667 1.2354 1.06027 0
M  V30 5830 O 561.856 1.49867 0.96964 0
M  V30 5831 C 558.956 2.89756 1.75768 0
M  V30 5832 C 558.129 4.15297 1.37285 0
M  V30 5833 C 557.188 4.65697 2.44976 0
M  V30 5834 O 556.214 5.29798 2.08092 0
M  V30 5835 N 557.416 4.42017 3.763 0
M  V30 5836 H 560.181 2.99658 -0.0501592 0
M  V30 5837 H 557.742 1.60979 -0.17248 0
M  V30 5838 H 559.734 3.20388 2.47252 0
M  V30 5839 H 558.304 2.16382 2.25605 0
M  V30 5840 H 557.524 3.9116 0.488584 0
M  V30 5841 H 558.812 4.96948 1.09179 0
M  V30 5842 H 558.21 3.9076 4.09051 0
M  V30 5843 H 556.767 4.77242 4.4394 0
M  V30 5844 N 560.2 0.0768682 1.57412 0
M  V30 5845 C 561.11 -0.903207 2.16516 0
M  V30 5846 C 562.126 -1.32341 1.12968 0
M  V30 5847 O 563.302 -1.39507 1.45258 0
M  V30 5848 C 560.367 -2.1508 2.71922 0
M  V30 5849 C 559.428 -1.78653 3.90361 0
M  V30 5850 C 558.661 -2.97465 4.43114 0
M  V30 5851 O 558.884 -4.11638 3.94854 0
M  V30 5852 O 557.818 -2.76987 5.3438 0
M  V30 5853 H 561.644 -0.430427 3.00634 0
M  V30 5854 H 559.229 -0.146485 1.4868 0
M  V30 5855 H 561.111 -2.8823 3.07411 0
M  V30 5856 H 559.786 -2.61446 1.9086 0
M  V30 5857 H 558.693 -1.0274 3.59716 0
M  V30 5858 H 560.026 -1.37066 4.7273 0
M  V30 5859 N 561.678 -1.56367 -0.196722 0
M  V30 5860 C 562.926 -1.80172 -0.915554 0
M  V30 5861 C 563.247 -0.649649 -1.8386 0
M  V30 5862 O 562.517 0.332111 -1.93064 0
M  V30 5863 H 561.097 -0.664592 -0.341067 0
M  V30 5864 H 563.759 -1.93844 -0.202622 0
M  V30 5865 H 562.855 -2.7327 -1.50764 0
M  V30 5866 N 563.156 0.464375 -1.50603 0
M  V30 5867 C 564.106 1.55929 -1.66343 0
M  V30 5868 C 565.09 1.52338 -0.517887 0
M  V30 5869 O 566.282 1.59248 -0.772601 0
M  V30 5870 C 563.411 2.94327 -1.7671 0
M  V30 5871 C 562.497 3.02777 -2.96962 0
M  V30 5872 N 562.888 2.81026 -4.20545 0
M  V30 5873 C 561.186 3.33919 -2.95659 0
M  V30 5874 C 561.887 2.94618 -5.01573 0
M  V30 5875 N 560.863 3.25112 -4.35664 0
M  V30 5876 H 564.665 1.37822 -2.59581 0
M  V30 5877 H 562.179 0.671227 -1.47879 0
M  V30 5878 H 564.176 3.73063 -1.86091 0
M  V30 5879 H 562.836 3.13476 -0.846353 0
M  V30 5880 H 563.847 2.56477 -4.49933 0
M  V30 5881 H 560.524 3.59013 -2.13111 0
M  V30 5882 H 561.914 2.81984 -6.09865 0
M  V30 5883 N 564.634 1.40294 0.718013 0
M  V30 5884 C 565.567 1.34767 1.84155 0
M  V30 5885 C 566.545 0.218455 1.61126 0
M  V30 5886 O 567.729 0.401716 1.8417 0
M  V30 5887 C 564.856 1.09676 3.20451 0
M  V30 5888 C 563.902 2.25016 3.62312 0
M  V30 5889 S 564.735 3.87397 3.69707 0
M  V30 5890 C 565.891 3.64565 5.08766 0
M  V30 5891 H 566.124 2.29851 1.88562 0
M  V30 5892 H 563.657 1.2655 0.884555 0
M  V30 5893 H 565.615 0.95885 3.99144 0
M  V30 5894 H 564.276 0.162502 3.13679 0
M  V30 5895 H 563.469 2.03097 4.61268 0
M  V30 5896 H 563.071 2.35098 2.90869 0
M  V30 5897 H 565.363 3.22882 5.95612 0
M  V30 5898 H 566.306 4.63043 5.35721 0
M  V30 5899 H 566.714 2.98303 4.79245 0
M  V30 5900 N 566.112 -0.949982 1.2575 0
M  V30 5901 C 567.389 -1.6718 1.01539 0
M  V30 5902 C 567.769 -2.06095 -0.456942 0
M  V30 5903 O 567.117 -1.77792 -1.43534 0
M  V30 5904 C 567.327 -2.8906 1.95564 0
M  V30 5905 C 568.675 -3.60909 2.23673 0
M  V30 5906 O 569.699 -2.9915 1.9336 0
M  V30 5907 O 568.558 -4.72127 2.75243 0
M  V30 5908 H 565.652 -0.731697 0.385419 0
M  V30 5909 H 568.198 -1.00249 1.36924 0
M  V30 5910 H 566.97 -2.57128 2.94959 0
M  V30 5911 H 566.593 -3.63719 1.60605 0
M  V30 5912 N 567.59 -1.07411 -1.15328 0
M  V30 5913 C 568.867 -0.710732 -1.82231 0
M  V30 5914 C 569.247 0.806732 -1.95077 0
M  V30 5915 O 568.595 1.72139 -1.50268 0
M  V30 5916 C 568.805 -1.42586 -3.18544 0
M  V30 5917 C 570.153 -1.57836 -3.94174 0
M  V30 5918 O 571.177 -1.38669 -3.281 0
M  V30 5919 O 570.036 -1.8938 -5.12638 0
M  V30 5920 H 567.13 -0.25297 -0.78736 0
M  V30 5921 H 569.676 -1.17508 -1.22434 0
M  V30 5922 H 568.448 -2.46008 -3.04296 0
M  V30 5923 H 568.071 -0.952332 -3.86026 0
M  V30 5924 N 569.068 1.32177 -0.85831 0
M  V30 5925 C 570.031 2.27086 -0.310588 0
M  V30 5926 C 571.031 1.51751 0.531806 0
M  V30 5927 O 572.221 1.70794 0.34279 0
M  V30 5928 C 569.353 3.36266 0.560179 0
M  V30 5929 H 570.546 2.77045 -1.1483 0
M  V30 5930 H 568.099 1.42911 -0.632942 0
M  V30 5931 H 568.834 2.9158 1.41956 0
M  V30 5932 H 568.619 3.92077 -0.0428473 0
M  V30 5933 H 570.109 4.06974 0.936056 0
M  V30 5934 N 570.547 0.616602 1.45037 0
M  V30 5935 C 571.477 -0.0840787 2.33349 0
M  V30 5936 C 572.458 -0.849641 1.4736 0
M  V30 5937 O 573.643 -0.818407 1.76113 0
M  V30 5938 C 570.773 -1.07604 3.3021 0
M  V30 5939 C 569.727 -0.423096 4.25904 0
M  V30 5940 C 569.053 -1.52394 5.12523 0
M  V30 5941 C 570.353 0.661457 5.18095 0
M  V30 5942 H 572.047 0.653333 2.92185 0
M  V30 5943 H 569.593 0.315634 1.40498 0
M  V30 5944 H 571.546 -1.57485 3.90866 0
M  V30 5945 H 570.27 -1.84416 2.69552 0
M  V30 5946 H 568.929 0.05493 3.66559 0
M  V30 5947 H 568.577 -2.28257 4.48227 0
M  V30 5948 H 568.277 -1.09251 5.77354 0
M  V30 5949 H 569.801 -2.02485 5.76049 0
M  V30 5950 H 571.215 0.246353 5.7277 0
M  V30 5951 H 569.612 1.01517 5.91451 0
M  V30 5952 H 570.682 1.53446 4.59981 0
M  V30 5953 N 572.025 -1.5352 0.356285 0
M  V30 5954 C 573.25 -2.06007 -0.239961 0
M  V30 5955 C 573.675 -1.22872 -1.42422 0
M  V30 5956 O 573.033 -0.245516 -1.7963 0
M  V30 5957 C 573.081 -3.5522 -0.620587 0
M  V30 5958 O 572.185 -3.74864 -1.71902 0
M  V30 5959 H 571.526 -0.662961 -0.0371377 0
M  V30 5960 H 574.056 -1.98033 0.514194 0
M  V30 5961 H 574.066 -3.98081 -0.894197 0
M  V30 5962 H 572.741 -4.15175 0.245407 0
M  V30 5963 H 571.318 -3.43904 -1.44169 0
M  V30 5964 N 573.503 -0.0852151 -1.57369 0
M  V30 5965 C 574.433 0.874556 -2.16503 0
M  V30 5966 C 575.414 1.30111 -1.09568 0
M  V30 5967 O 576.599 1.36977 -1.37662 0
M  V30 5968 C 573.729 2.13731 -2.73745 0
M  V30 5969 C 572.683 1.84971 -3.85966 0
M  V30 5970 C 572.009 3.17991 -4.29867 0
M  V30 5971 C 573.309 1.14442 -5.09608 0
M  V30 5972 H 575.003 0.381899 -2.96954 0
M  V30 5973 H 572.549 0.18225 -1.42842 0
M  V30 5974 H 574.502 2.81302 -3.13763 0
M  V30 5975 H 573.226 2.65263 -1.90534 0
M  V30 5976 H 571.885 1.19801 -3.46473 0
M  V30 5977 H 571.533 3.6739 -3.4356 0
M  V30 5978 H 571.233 2.99534 -5.05523 0
M  V30 5979 H 572.757 3.86737 -4.72511 0
M  V30 5980 H 574.171 1.72105 -5.46857 0
M  V30 5981 H 572.568 1.06197 -5.90629 0
M  V30 5982 H 573.638 0.12559 -4.84737 0
M  V30 5983 N 574.981 1.5647 0.188427 0
M  V30 5984 C 576.209 1.85131 0.923803 0
M  V30 5985 C 576.624 0.668537 1.76567 0
M  V30 5986 O 575.981 -0.362662 1.7886 0
M  V30 5987 C 576.032 3.12661 1.81453 0
M  V30 5988 O 575.753 4.26378 1.00665 0
M  V30 5989 C 577.254 3.54548 2.66103 0
M  V30 5990 H 574.474 0.614624 0.269218 0
M  V30 5991 H 577.018 2.03581 0.193671 0
M  V30 5992 H 575.173 2.96088 2.49821 0
M  V30 5993 H 575.587 4.99041 1.61425 0
M  V30 5994 H 577.061 4.4673 3.24247 0
M  V30 5995 H 577.538 2.77853 3.40139 0
M  V30 5996 H 578.144 3.73674 2.03096 0
M  V30 5997 N 576.459 -0.456382 1.50847 0
M  V30 5998 C 577.875 -0.791345 1.386 0
M  V30 5999 C 578.075 -1.9633 0.453498 0
M  V30 6000 O 577.131 -2.52308 -0.0984353 0
M  V30 6001 C 578.444 -1.08959 2.80265 0
M  V30 6002 C 579.992 -1.19517 2.89283 0
M  V30 6003 C 580.467 -1.52647 4.31814 0
M  V30 6004 N 581.958 -1.59609 4.34832 0
M  V30 6005 C 582.693 -1.86777 5.42127 0
M  V30 6006 N 582.189 -2.11866 6.59609 0
M  V30 6007 N 583.982 -1.88402 5.29586 0
M  V30 6008 H 576.133 0.315746 2.1004 0
M  V30 6009 H 578.396 0.0787916 0.94472 0
M  V30 6010 H 578.102 -0.301355 3.50407 0
M  V30 6011 H 577.976 -2.02211 3.18419 0
M  V30 6012 H 580.363 -1.97406 2.19351 0
M  V30 6013 H 580.444 -0.242111 2.54652 0
M  V30 6014 H 580.088 -0.752922 5.02288 0
M  V30 6015 H 580.018 -2.49127 4.63943 0
M  V30 6016 H 582.509 -1.42201 3.50125 0
M  V30 6017 H 582.822 -2.31912 7.37182 0
M  V30 6018 H 581.167 -2.09228 6.62758 0
M  V30 6019 H 584.358 -1.68307 4.36795 0
M  V30 6020 H 584.531 -2.09238 6.13289 0
M  V30 6021 N 577.937 -1.40673 -0.710563 0
M  V30 6022 C 579.177 -1.40677 -1.48288 0
M  V30 6023 C 579.541 -0.0097193 -1.91998 0
M  V30 6024 O 580.742 0.115381 -2.68552 0
M  V30 6025 C 579.013 -2.37289 -2.67262 0
M  V30 6026 S 580.572 -2.55694 -3.56603 0
M  V30 6027 H 577.39 -0.498545 -0.506926 0
M  V30 6028 H 579.992 -1.76984 -0.830472 0
M  V30 6029 H 578.696 -3.37617 -2.3333 0
M  V30 6030 H 578.227 -2.02282 -3.3741 0
M  V30 6031 H 580.242 -1.81311 -4.61888 0
M  V30 6032 N 579.415 0.9433 -1.26252 0
M  V30 6033 C 580.347 2.04542 -1.03417 0
M  V30 6034 C 581.36 1.62799 0.0046911 0
M  V30 6035 O 582.549 1.76944 -0.235146 0
M  V30 6036 C 579.649 3.34511 -0.543671 0
M  V30 6037 C 578.822 4.05033 -1.65128 0
M  V30 6038 C 577.881 5.13273 -1.1592 0
M  V30 6039 O 576.907 5.38095 -1.85586 0
M  V30 6040 N 578.109 5.805 -0.00649279 0
M  V30 6041 H 580.874 2.24699 -1.98319 0
M  V30 6042 H 578.435 1.11264 -1.1761 0
M  V30 6043 H 580.427 4.04212 -0.198703 0
M  V30 6044 H 578.997 3.11042 0.311711 0
M  V30 6045 H 578.217 3.29275 -2.16729 0
M  V30 6046 H 579.505 4.48903 -2.39508 0
M  V30 6047 H 578.903 5.62767 0.575347 0
M  V30 6048 H 577.46 6.51201 0.279416 0
M  V30 6049 N 580.893 1.08022 1.14757 0
M  V30 6050 C 581.825 0.664566 2.19354 0
M  V30 6051 C 582.838 -0.286374 1.60261 0
M  V30 6052 O 584.027 -0.0746362 1.78344 0
M  V30 6053 C 581.127 -0.0434634 3.38872 0
M  V30 6054 C 580.3 0.925381 4.27499 0
M  V30 6055 C 579.359 0.253398 5.2559 0
M  V30 6056 O 578.385 0.896581 5.62094 0
M  V30 6057 N 579.587 -0.998263 5.71852 0
M  V30 6058 H 582.352 1.56438 2.55631 0
M  V30 6059 H 579.913 0.965788 1.29939 0
M  V30 6060 H 581.905 -0.503857 4.01551 0
M  V30 6061 H 580.475 -0.845321 3.00954 0
M  V30 6062 H 579.695 1.56472 3.61815 0
M  V30 6063 H 580.983 1.58203 4.8358 0
M  V30 6064 H 580.381 -1.54063 5.44317 0
M  V30 6065 H 578.938 -1.40222 6.36538 0
M  V30 6066 N 582.371 -1.3172 0.865308 0
M  V30 6067 C 583.281 -2.32394 0.320935 0
M  V30 6068 C 584.297 -1.64511 -0.566746 0
M  V30 6069 O 585.473 -1.95969 -0.464575 0
M  V30 6070 C 582.538 -3.43462 -0.472701 0
M  V30 6071 C 581.599 -4.27015 0.442385 0
M  V30 6072 C 580.832 -5.32779 -0.313469 0
M  V30 6073 O 581.055 -5.49158 -1.54214 0
M  V30 6074 O 579.989 -6.01015 0.326257 0
M  V30 6075 H 583.815 -2.80868 1.15528 0
M  V30 6076 H 581.4 -1.35535 0.628545 0
M  V30 6077 H 583.282 -4.11172 -0.922781 0
M  V30 6078 H 581.957 -2.97159 -1.28367 0
M  V30 6079 H 580.864 -3.62075 0.940866 0
M  V30 6080 H 582.197 -4.76871 1.21882 0
M  V30 6081 N 583.85 -0.624285 -1.44708 0
M  V30 6082 C 584.76 0.0861083 -2.34442 0
M  V30 6083 C 585.776 0.84291 -1.5222 0
M  V30 6084 O 586.952 0.796723 -1.84971 0
M  V30 6085 C 584.017 1.05999 -3.30099 0
M  V30 6086 C 583.077 0.303316 -4.28227 0
M  V30 6087 C 582.311 1.23081 -5.19314 0
M  V30 6088 O 582.534 2.46929 -5.14181 0
M  V30 6089 O 581.468 0.71883 -5.97592 0
M  V30 6090 H 585.293 -0.651756 -2.96624 0
M  V30 6091 H 582.879 -0.384493 -1.44368 0
M  V30 6092 H 584.76 1.62046 -3.88997 0
M  V30 6093 H 583.436 1.77859 -2.70459 0
M  V30 6094 H 582.343 -0.300033 -3.72895 0
M  V30 6095 H 583.676 -0.375123 -4.90768 0
M  V30 6096 N 585.328 1.53329 -0.364422 0
M  V30 6097 C 586.553 2.06132 0.229033 0
M  V30 6098 C 586.978 1.23625 1.41769 0
M  V30 6099 O 586.336 0.255038 1.79497 0
M  V30 6100 C 586.384 3.55544 0.60174 0
M  V30 6101 O 585.488 3.75771 1.69912 0
M  V30 6102 H 584.829 0.663148 0.0336213 0
M  V30 6103 H 587.359 1.97758 -0.524689 0
M  V30 6104 H 587.369 3.98549 0.873073 0
M  V30 6105 H 586.044 4.15039 -0.267421 0
M  V30 6106 H 584.621 3.44663 1.42343 0
M  V30 6107 N 586.806 0.0935595 1.57322 0
M  V30 6108 C 587.738 -0.895923 2.10964 0
M  V30 6109 C 588.751 -1.24705 1.04654 0
M  V30 6110 O 589.94 -1.20044 1.32105 0
M  V30 6111 C 587.04 -2.20546 2.57318 0
M  V30 6112 C 586.213 -2.0299 3.87445 0
M  V30 6113 C 585.272 -3.17443 4.19662 0
M  V30 6114 O 584.298 -2.91474 4.88909 0
M  V30 6115 N 585.5 -4.43168 3.74943 0
M  V30 6116 H 588.265 -0.437788 2.96485 0
M  V30 6117 H 585.826 -0.0915863 1.61641 0
M  V30 6118 H 587.818 -2.9606 2.75917 0
M  V30 6119 H 586.388 -2.57789 1.76816 0
M  V30 6120 H 585.608 -1.11815 3.78009 0
M  V30 6121 H 586.896 -1.88535 4.7258 0
M  V30 6122 H 586.294 -4.67149 3.19043 0
M  V30 6123 H 584.851 -5.15637 3.987 0
M  V30 6124 N 588.284 -1.56567 -0.180126 0
M  V30 6125 C 589.247 -1.94852 -1.20686 0
M  V30 6126 C 590.247 -0.831212 -1.3765 0
M  V30 6127 O 591.437 -1.09841 -1.35206 0
M  V30 6128 C 588.569 -2.23565 -2.57355 0
M  V30 6129 H 589.762 -2.86722 -0.879225 0
M  V30 6130 H 587.315 -1.50489 -0.422237 0
M  V30 6131 H 588.05 -1.34381 -2.95148 0
M  V30 6132 H 587.835 -3.04999 -2.46411 0
M  V30 6133 H 589.325 -2.54137 -3.31367 0
M  V30 6134 N 589.762 0.448376 -1.51087 0
M  V30 6135 C 590.725 1.52588 -1.71025 0
M  V30 6136 C 591.725 1.49958 -0.580442 0
M  V30 6137 O 592.915 1.52176 -0.847833 0
M  V30 6138 C 590.047 2.92163 -1.75652 0
M  V30 6139 H 591.24 1.36218 -2.67179 0
M  V30 6140 H 588.793 0.676313 -1.4091 0
M  V30 6141 H 589.528 3.13951 -0.812724 0
M  V30 6142 H 589.313 2.95478 -2.57751 0
M  V30 6143 H 590.803 3.70349 -1.92953 0
M  V30 6144 N 591.24 1.41047 0.703093 0
M  V30 6145 C 592.656 1.23351 1.01275 0
M  V30 6146 C 592.856 0.11754 2.01157 0
M  V30 6147 O 591.912 -0.520518 2.47077 0
M  V30 6148 C 593.225 2.58001 1.54454 0
M  V30 6149 C 594.773 2.65119 1.66376 0
M  V30 6150 C 595.248 4.00067 2.22958 0
M  V30 6151 N 596.739 4.01875 2.30328 0
M  V30 6152 C 597.474 5.03087 2.75119 0
M  V30 6153 N 596.97 6.14692 3.19571 0
M  V30 6154 N 598.763 4.90451 2.74616 0
M  V30 6155 H 590.914 2.1236 0.0412686 0
M  V30 6156 H 593.177 0.944543 0.08089 0
M  V30 6157 H 592.883 3.40378 0.88521 0
M  V30 6158 H 592.757 2.79962 2.52786 0
M  V30 6159 H 595.144 1.83106 2.31422 0
M  V30 6160 H 595.225 2.46975 0.666089 0
M  V30 6161 H 594.869 4.82526 1.58529 0
M  V30 6162 H 594.799 4.15547 3.23462 0
M  V30 6163 H 597.29 3.21291 1.98949 0
M  V30 6164 H 597.603 6.87799 3.52352 0
M  V30 6165 H 595.948 6.18239 3.17498 0
M  V30 6166 H 599.139 4.0235 2.39233 0
M  V30 6167 H 599.312 5.6947 3.09206 0
M  V30 6168 N 592.718 -0.936591 1.26751 0
M  V30 6169 C 593.651 -2.03619 1.03027 0
M  V30 6170 C 594.629 -1.62534 -0.0464619 0
M  V30 6171 O 595.813 -1.88251 0.0968873 0
M  V30 6172 C 592.94 -3.3402 0.561072 0
M  V30 6173 C 591.986 -3.9408 1.63105 0
M  V30 6174 S 592.819 -4.27782 3.22122 0
M  V30 6175 C 593.975 -5.61277 2.76982 0
M  V30 6176 H 594.208 -2.23429 1.96129 0
M  V30 6177 H 591.741 -1.07857 1.10482 0
M  V30 6178 H 593.699 -4.09424 0.297031 0
M  V30 6179 H 592.36 -3.12147 -0.349741 0
M  V30 6180 H 591.553 -4.88154 1.25386 0
M  V30 6181 H 591.155 -3.25227 1.84671 0
M  V30 6182 H 593.447 -6.40189 2.21731 0
M  V30 6183 H 594.39 -6.03887 3.69766 0
M  V30 6184 H 594.798 -5.21374 2.16402 0
M  V30 6185 N 594.196 -1.08629 -1.14182 0
M  V30 6186 C 595.445 -0.812271 -1.84621 0
M  V30 6187 C 595.758 0.664313 -1.83973 0
M  V30 6188 O 596.964 1.05357 -2.50224 0
M  V30 6189 C 595.42 -1.4031 -3.31423 0
M  V30 6190 C 595.028 -2.91164 -3.40481 0
M  V30 6191 C 596.772 -1.20767 -4.06959 0
M  V30 6192 C 594.679 -3.43373 -4.81507 0
M  V30 6193 H 593.609 -0.30019 -0.691666 0
M  V30 6194 H 596.26 -1.30798 -1.28701 0
M  V30 6195 H 594.642 -0.835096 -3.87094 0
M  V30 6196 H 595.816 -3.5412 -2.94848 0
M  V30 6197 H 594.131 -3.09646 -2.78403 0
M  V30 6198 H 596.728 -1.57237 -5.11058 0
M  V30 6199 H 597.071 -0.147664 -4.16038 0
M  V30 6200 H 597.604 -1.74274 -3.57594 0
M  V30 6201 H 594.343 -4.48958 -4.77616 0
M  V30 6202 H 593.863 -2.85176 -5.27669 0
M  V30 6203 H 595.542 -3.40095 -5.50404 0
M  V30 6204 N 595.674 1.31259 -0.872281 0
M  V30 6205 C 596.624 2.26 -0.301295 0
M  V30 6206 C 597.608 1.50729 0.562991 0
M  V30 6207 O 598.8 1.72198 0.40949 0
M  V30 6208 C 595.929 3.39724 0.494227 0
M  V30 6209 C 595.015 4.22363 -0.383432 0
M  V30 6210 N 595.406 4.83724 -1.47799 0
M  V30 6211 C 593.704 4.45652 -0.176278 0
M  V30 6212 C 594.405 5.45523 -2.01939 0
M  V30 6213 N 593.381 5.27428 -1.31608 0
M  V30 6214 H 597.183 2.70981 -1.13782 0
M  V30 6215 H 594.697 1.45552 -0.720294 0
M  V30 6216 H 596.694 4.06626 0.919828 0
M  V30 6217 H 595.354 2.96286 1.32834 0
M  V30 6218 H 596.365 4.83313 -1.8609 0
M  V30 6219 H 593.042 4.12845 0.621698 0
M  V30 6220 H 594.432 6.04268 -2.93786 0
M  V30 6221 N 597.152 0.631951 1.44375 0
M  V30 6222 C 598.377 0.142146 2.06912 0
M  V30 6223 C 598.802 -1.17456 1.4692 0
M  V30 6224 O 598.16 -1.72074 0.570975 0
M  V30 6225 C 598.208 0.0417952 3.60576 0
M  V30 6226 O 597.312 -1.00194 4.00044 0
M  V30 6227 H 596.653 0.0851491 0.658518 0
M  V30 6228 H 599.183 0.868863 1.85235 0
M  V30 6229 H 599.193 -0.148517 4.0773 0
M  V30 6230 H 597.868 1.0031 4.03622 0
M  V30 6231 H 596.445 -0.786131 3.64519 0
M  V30 6232 N 598.631 -1.53133 0.372548 0
M  V30 6233 C 599.859 -2.05774 -0.215515 0
M  V30 6234 C 600.274 -1.24555 -1.41886 0
M  V30 6235 O 599.631 -0.287951 -1.80214 0
M  V30 6236 C 599.682 -3.5645 -0.602161 0
M  V30 6237 O 599.403 -4.34591 0.553359 0
M  V30 6238 C 600.904 -4.25374 -1.24787 0
M  V30 6239 H 598.124 -0.670009 -0.0364529 0
M  V30 6240 H 600.668 -1.97434 0.532934 0
M  V30 6241 H 598.823 -3.64918 -1.30052 0
M  V30 6242 H 599.237 -5.23954 0.239336 0
M  V30 6243 H 600.711 -5.32097 -1.46891 0
M  V30 6244 H 601.188 -3.79531 -2.21026 0
M  V30 6245 H 601.794 -4.21177 -0.590752 0
M  V30 6246 N 600.109 -0.101901 -1.5727 0
M  V30 6247 C 601.057 0.872034 -2.15635 0
M  V30 6248 C 602.051 1.28742 -1.10099 0
M  V30 6249 O 603.257 1.26116 -1.28432 0
M  V30 6250 H 599.632 0.299269 -0.689886 0
M  V30 6251 H 601.603 0.355137 -2.96279 0
M  V30 6252 C 600.352 2.11886 -2.7568 0
M  V30 6253 H 599.675 1.80813 -3.56576 0
M  V30 6254 H 601.115 2.78077 -3.20077 0
M  V30 6255 C 599.574 2.89739 -1.7191 0
M  V30 6256 O 600.104 3.84522 -1.16213 0
M  V30 6257 N 598.31 2.53407 -1.42245 0
M  V30 6258 H 597.857 1.76398 -1.87727 0
M  V30 6259 H 597.815 3.05795 -0.730529 0
M  V30 6260 N 601.587 1.56661 0.17182 0
M  V30 6261 C 602.835 1.81606 0.886774 0
M  V30 6262 C 603.156 0.678818 1.82803 0
M  V30 6263 O 602.426 -0.301354 1.93568 0
M  V30 6264 H 601.006 0.669934 0.330451 0
M  V30 6265 H 603.668 1.94142 0.171757 0
M  V30 6266 H 602.764 2.75634 1.46398 0
M  V30 6267 N 603.065 -0.440357 1.51323 0
M  V30 6268 C 603.995 -1.54174 1.75364 0
M  V30 6269 C 604.976 -1.59039 0.603375 0
M  V30 6270 O 606.161 -1.74815 0.845774 0
M  V30 6271 C 603.291 -2.92277 1.87593 0
M  V30 6272 C 602.245 -3.02274 3.03009 0
M  V30 6273 C 601.571 -4.42327 3.00418 0
M  V30 6274 C 602.871 -2.76634 4.43024 0
M  V30 6275 H 604.565 -1.34307 2.67585 0
M  V30 6276 H 602.111 -0.644678 1.28763 0
M  V30 6277 H 604.064 -3.69284 2.02995 0
M  V30 6278 H 602.788 -3.13369 0.920179 0
M  V30 6279 H 601.447 -2.27706 2.87307 0
M  V30 6280 H 601.095 -4.60382 2.02626 0
M  V30 6281 H 600.795 -4.49946 3.77918 0
M  V30 6282 H 602.319 -5.21312 3.17909 0
M  V30 6283 H 603.733 -3.43376 4.59093 0
M  V30 6284 H 602.13 -2.95666 5.22208 0
M  V30 6285 H 603.2 -1.72262 4.5327 0
M  V30 6286 N 604.543 -1.41418 -0.695603 0
M  V30 6287 C 605.773 -1.43921 -1.48224 0
M  V30 6288 C 606.181 -0.0428855 -1.89151 0
M  V30 6289 O 605.524 0.948138 -1.5734 0
M  V30 6290 C 605.586 -2.28466 -2.77567 0
M  V30 6291 C 605.25 -3.76629 -2.58844 0
M  V30 6292 C 606.247 -4.6879 -2.24793 0
M  V30 6293 C 603.932 -4.2067 -2.74485 0
M  V30 6294 C 605.926 -6.02981 -2.06622 0
M  V30 6295 C 603.613 -5.54926 -2.55931 0
M  V30 6296 C 604.611 -6.45897 -2.2205 0
M  V30 6297 O 604.299 -7.77675 -2.03657 0
M  V30 6298 H 604.031 -0.492252 -0.463318 0
M  V30 6299 H 606.585 -1.86347 -0.863952 0
M  V30 6300 H 604.815 -1.80853 -3.41802 0
M  V30 6301 H 606.504 -2.2267 -3.39371 0
M  V30 6302 H 607.27 -4.36055 -2.12323 0
M  V30 6303 H 603.149 -3.50167 -2.9984 0
M  V30 6304 H 606.693 -6.73951 -1.80099 0
M  V30 6305 H 602.59 -5.8724 -2.67991 0
M  V30 6306 H 603.358 -7.88819 -2.1842 0
M  V30 6307 N 606.021 0.929856 -1.27246 0
M  V30 6308 C 606.969 2.05151 -1.09616 0
M  V30 6309 C 607.963 1.69388 -0.0198617 0
M  V30 6310 O 609.169 1.79124 -0.177417 0
M  V30 6311 H 605.544 0.671909 -0.337701 0
M  V30 6312 H 607.515 2.17168 -2.04648 0
M  V30 6313 C 606.264 3.3934 -0.757851 0
M  V30 6314 H 605.587 3.67343 -1.57795 0
M  V30 6315 H 607.027 4.18603 -0.674358 0
M  V30 6316 C 605.486 3.32582 0.537658 0
M  V30 6317 O 606.016 3.69633 1.57271 0
M  V30 6318 N 604.222 2.8568 0.532478 0
M  V30 6319 H 603.769 2.55725 -0.310233 0
M  V30 6320 H 603.727 2.81541 1.39936 0
M  V30 6321 N 607.499 1.09233 1.13605 0
M  V30 6322 C 608.431 0.687794 2.18637 0
M  V30 6323 C 609.444 -0.26936 1.60556 0
M  V30 6324 O 610.633 -0.0557162 1.78413 0
M  V30 6325 C 607.733 -0.00751901 3.38899 0
M  V30 6326 C 606.906 0.97067 4.26494 0
M  V30 6327 C 605.965 0.309129 5.25291 0
M  V30 6328 O 604.991 0.956149 5.61112 0
M  V30 6329 N 606.193 -0.937555 5.72879 0
M  V30 6330 H 608.958 1.59141 2.53957 0
M  V30 6331 H 606.519 0.979515 1.28907 0
M  V30 6332 H 608.511 -0.461238 4.02063 0
M  V30 6333 H 607.081 -0.813353 3.01833 0
M  V30 6334 H 606.301 1.603 3.60135 0
M  V30 6335 H 607.589 1.63323 4.81875 0
M  V30 6336 H 606.987 -1.48281 5.4592 0
M  V30 6337 H 605.544 -1.33463 6.3799 0
M  V30 6338 N 608.977 -1.30795 0.87923 0
M  V30 6339 C 610.224 -1.96362 0.494786 0
M  V30 6340 C 610.552 -1.69448 -0.954868 0
M  V30 6341 O 609.807 -0.988711 -1.68888 0
M  V30 6342 C 610.106 -3.50287 0.709476 0
M  V30 6343 C 609.772 -3.9724 2.13333 0
M  V30 6344 C 608.434 -4.09772 2.52271 0
M  V30 6345 C 610.786 -4.21807 3.06151 0
M  V30 6346 C 608.114 -4.44227 3.83248 0
M  V30 6347 C 610.466 -4.5773 4.36654 0
M  V30 6348 C 609.13 -4.68469 4.75492 0
M  V30 6349 H 608.4 -0.71854 0.181055 0
M  V30 6350 H 611.047 -1.55764 1.11399 0
M  V30 6351 H 609.352 -3.91799 0.0072 0
M  V30 6352 H 611.049 -3.99082 0.391703 0
M  V30 6353 H 607.639 -3.87988 1.82107 0
M  V30 6354 H 611.823 -4.11611 2.77291 0
M  V30 6355 H 607.079 -4.50741 4.13089 0
M  V30 6356 H 611.253 -4.7569 5.08617 0
M  V30 6357 H 608.88 -4.94923 5.77022 0
M  V30 6358 N 610.455 -0.639598 -1.44038 0
M  V30 6359 C 611.704 -0.144885 -2.01179 0
M  V30 6360 C 612.017 1.24372 -1.50967 0
M  V30 6361 O 613.223 1.83291 -2.00292 0
M  V30 6362 C 611.679 -0.208244 -3.59297 0
M  V30 6363 C 611.287 -1.59869 -4.18504 0
M  V30 6364 C 613.031 0.229568 -4.23879 0
M  V30 6365 C 610.938 -1.61671 -5.68873 0
M  V30 6366 H 609.868 -0.0504005 -0.752314 0
M  V30 6367 H 612.519 -0.799639 -1.65161 0
M  V30 6368 H 610.901 0.513767 -3.92653 0
M  V30 6369 H 612.075 -2.34496 -3.96671 0
M  V30 6370 H 610.39 -1.98131 -3.66242 0
M  V30 6371 H 612.987 0.235758 -5.3418 0
M  V30 6372 H 613.33 1.25848 -3.96822 0
M  V30 6373 H 613.863 -0.440233 -3.95357 0
M  V30 6374 H 610.602 -2.62427 -6.00677 0
M  V30 6375 H 610.122 -0.913489 -5.92803 0
M  V30 6376 H 611.801 -1.35439 -6.32665 0
M  V30 6377 N 611.933 1.52934 -0.380664 0
M  V30 6378 C 612.88 2.26197 0.458641 0
M  V30 6379 C 613.85 1.27462 1.06502 0
M  V30 6380 O 615.035 1.56274 1.09467 0
M  V30 6381 C 612.175 3.06571 1.58456 0
M  V30 6382 C 611.288 4.20222 1.00189 0
M  V30 6383 C 610.423 4.88007 2.09815 0
M  V30 6384 C 609.462 5.93665 1.49092 0
M  V30 6385 N 608.599 6.55081 2.52613 0
M  V30 6386 H 613.439 2.975 -0.172595 0
M  V30 6387 H 610.976 1.4678 -0.0969426 0
M  V30 6388 H 612.934 3.51455 2.24801 0
M  V30 6389 H 611.564 2.37494 2.18624 0
M  V30 6390 H 610.616 3.79714 0.228292 0
M  V30 6391 H 611.928 4.96102 0.518064 0
M  V30 6392 H 611.082 5.36151 2.83948 0
M  V30 6393 H 609.821 4.11632 2.61555 0
M  V30 6394 H 608.826 5.44868 0.7348 0
M  V30 6395 H 610.051 6.71969 0.981582 0
M  V30 6396 H 607.997 5.8155 3.03538 0
M  V30 6397 H 607.914 7.26548 2.08961 0
M  V30 6398 H 609.182 7.07871 3.26402 0
M  V30 6399 N 613.412 0.11024 1.57214 0
M  V30 6400 C 614.637 -0.561179 1.99664 0
M  V30 6401 C 615.062 -1.59985 0.989266 0
M  V30 6402 O 614.42 -1.81255 -0.0402399 0
M  V30 6403 C 614.468 -1.17189 3.41027 0
M  V30 6404 O 613.572 -2.28755 3.4314 0
M  V30 6405 H 612.913 -0.14101 0.648855 0
M  V30 6406 H 615.443 0.196128 2.03658 0
M  V30 6407 H 615.453 -1.50954 3.79047 0
M  V30 6408 H 614.128 -0.411041 4.13864 0
M  V30 6409 H 612.705 -1.96495 3.16929 0
M  V30 6410 N 614.89 -1.56749 -0.16351 0
M  V30 6411 C 615.82 -2.00042 -1.20438 0
M  V30 6412 C 616.801 -0.877256 -1.45733 0
M  V30 6413 O 617.986 -1.1439 -1.56935 0
M  V30 6414 C 615.116 -2.36697 -2.54149 0
M  V30 6415 C 614.07 -3.52046 -2.43408 0
M  V30 6416 C 613.396 -3.74466 -3.81679 0
M  V30 6417 C 614.696 -4.85247 -1.93216 0
M  V30 6418 H 616.39 -2.87244 -0.844477 0
M  V30 6419 H 613.936 -1.38194 -0.40478 0
M  V30 6420 H 615.889 -2.65582 -3.27176 0
M  V30 6421 H 614.613 -1.46414 -2.91943 0
M  V30 6422 H 613.272 -3.23301 -1.72834 0
M  V30 6423 H 612.92 -2.81461 -4.1688 0
M  V30 6424 H 612.62 -4.52084 -3.75359 0
M  V30 6425 H 614.144 -4.0576 -4.5628 0
M  V30 6426 H 615.558 -5.12957 -2.56023 0
M  V30 6427 H 613.955 -5.66556 -1.97825 0
M  V30 6428 H 615.025 -4.7672 -0.88689 0
M  V30 6429 N 616.368 0.432326 -1.51554 0
M  V30 6430 C 617.645 1.19288 -1.55015 0
M  V30 6431 C 618.025 2.08701 -0.317375 0
M  V30 6432 O 617.373 2.17602 0.697243 0
M  V30 6433 C 617.583 1.99037 -2.86679 0
M  V30 6434 C 618.931 2.55907 -3.38817 0
M  V30 6435 O 619.955 2.09243 -2.88263 0
M  V30 6436 O 618.814 3.41029 -4.27038 0
M  V30 6437 H 615.908 0.543369 -0.623441 0
M  V30 6438 H 618.454 0.440988 -1.6387 0
M  V30 6439 H 617.226 1.33397 -3.6786 0
M  V30 6440 H 616.849 2.81281 -2.8101 0
M  V30 6441 N 617.846 1.41785 0.688094 0
M  V30 6442 C 619.071 1.45117 1.48175 0
M  V30 6443 C 619.496 0.060129 1.88004 0
M  V30 6444 O 618.854 -0.938385 1.55126 0
M  V30 6445 C 618.902 2.37224 2.71583 0
M  V30 6446 O 618.006 1.83443 3.69354 0
M  V30 6447 H 617.347 0.492208 0.445676 0
M  V30 6448 H 619.877 1.86329 0.845145 0
M  V30 6449 H 619.887 2.53353 3.19806 0
M  V30 6450 H 618.562 3.38293 2.41931 0
M  V30 6451 H 617.139 1.76802 3.28322 0
M  V30 6452 N 619.324 -0.923095 1.27737 0
M  V30 6453 C 620.571 -1.67127 1.14345 0
M  V30 6454 C 620.899 -1.92017 -0.30982 0
M  V30 6455 O 620.154 -1.51185 -1.24264 0
M  V30 6456 C 620.453 -3.04125 1.8773 0
M  V30 6457 C 620.119 -2.98929 3.37568 0
M  V30 6458 C 618.781 -2.9722 3.78436 0
M  V30 6459 C 621.133 -2.89875 4.33154 0
M  V30 6460 C 618.461 -2.84244 5.13247 0
M  V30 6461 C 620.813 -2.7844 5.68026 0
M  V30 6462 C 619.477 -2.75083 6.08182 0
M  V30 6463 H 618.747 -0.611562 0.418417 0
M  V30 6464 H 621.394 -1.07618 1.584 0
M  V30 6465 H 619.699 -3.67366 1.36196 0
M  V30 6466 H 621.396 -3.609 1.74792 0
M  V30 6467 H 617.986 -3.0105 3.05069 0
M  V30 6468 H 622.17 -2.9029 4.02548 0
M  V30 6469 H 617.426 -2.80034 5.43499 0
M  V30 6470 H 621.6 -2.70401 6.4176 0
M  V30 6471 H 619.227 -2.64786 7.12596 0
M  V30 6472 N 620.802 -1.09834 -1.13024 0
M  V30 6473 C 622.027 -0.85909 -1.88771 0
M  V30 6474 C 622.452 0.584402 -1.78791 0
M  V30 6475 O 621.81 1.41101 -1.13842 0
M  V30 6476 C 621.858 -1.30427 -3.36186 0
M  V30 6477 O 620.962 -0.465368 -4.09766 0
M  V30 6478 H 620.303 -0.310786 -0.586778 0
M  V30 6479 H 622.833 -1.46355 -1.42973 0
M  V30 6480 H 622.843 -1.2915 -3.8702 0
M  V30 6481 H 621.518 -2.3555 -3.42767 0
M  V30 6482 H 620.095 -0.542814 -3.68928 0
M  V30 6483 N 622.28 1.30327 -0.886154 0
M  V30 6484 C 623.528 1.9571 -0.504195 0
M  V30 6485 C 623.849 1.70294 0.950003 0
M  V30 6486 O 623.119 1.02718 1.66811 0
M  V30 6487 H 621.699 0.72412 -0.183465 0
M  V30 6488 H 624.361 1.58835 -1.12949 0
M  V30 6489 H 623.457 3.04704 -0.675431 0
M  V30 6490 N 623.758 0.647228 1.43697 0
M  V30 6491 C 624.705 -0.0480092 2.3075 0
M  V30 6492 C 625.675 -0.820705 1.44408 0
M  V30 6493 O 626.86 -0.798515 1.73287 0
M  V30 6494 C 624 -1.01259 3.2991 0
M  V30 6495 C 623.113 -0.236629 4.31351 0
M  V30 6496 C 622.248 -1.19447 5.17596 0
M  V30 6497 C 621.287 -0.408595 6.10735 0
M  V30 6498 N 620.424 -1.31772 6.89623 0
M  V30 6499 H 625.264 0.700238 2.89656 0
M  V30 6500 H 622.801 0.357082 1.427 0
M  V30 6501 H 624.759 -1.58538 3.85903 0
M  V30 6502 H 623.389 -1.72778 2.72667 0
M  V30 6503 H 622.441 0.452353 3.77701 0
M  V30 6504 H 623.753 0.374731 4.9739 0
M  V30 6505 H 622.907 -1.83809 5.78186 0
M  V30 6506 H 621.646 -1.83975 4.51669 0
M  V30 6507 H 620.651 0.24841 5.49239 0
M  V30 6508 H 621.876 0.232188 6.78703 0
M  V30 6509 H 619.822 -1.94991 6.2635 0
M  V30 6510 H 619.739 -0.760779 7.52162 0
M  V30 6511 H 621.007 -1.94967 7.54724 0
M  V30 6512 N 625.236 -1.5273 0.388769 0
M  V30 6513 C 626.647 -1.86505 -0.0853788 0
M  V30 6514 C 626.998 -1.30847 -1.46197 0
M  V30 6515 O 626.123 -0.639609 -2.06732 0
M  V30 6516 C 626.718 -3.38414 -0.161703 0
M  V30 6517 C 625.277 -3.71902 -0.580144 0
M  V30 6518 C 624.424 -2.76095 0.258218 0
M  V30 6519 H 627.375 -1.46647 0.606665 0
M  V30 6520 H 627.396 -3.67638 -0.980936 0
M  V30 6521 H 626.908 -3.78893 0.840333 0
M  V30 6522 H 625.009 -3.36992 -1.58957 0
M  V30 6523 H 625.122 -4.77902 -0.338663 0
M  V30 6524 H 623.486 -2.53195 -0.276432 0
M  V30 6525 H 624.269 -3.19411 1.25822 0
M  V30 6526 N 626.714 -0.118576 -1.57153 0
M  V30 6527 C 628.13 0.238014 -1.57815 0
M  V30 6528 C 628.33 1.66747 -1.13127 0
M  V30 6529 O 627.386 2.38867 -0.818462 0
M  V30 6530 C 628.699 0.00508207 -3.007 0
M  V30 6531 C 630.247 0.0710139 -3.12919 0
M  V30 6532 C 630.722 -0.13422 -4.57803 0
M  V30 6533 N 632.213 -0.0801755 -4.63131 0
M  V30 6534 C 632.948 -0.213885 -5.73001 0
M  V30 6535 N 632.444 -0.403742 -6.91623 0
M  V30 6536 N 634.237 -0.15349 -5.6189 0
M  V30 6537 H 626.388 -1.05226 -1.84503 0
M  V30 6538 H 628.651 -0.414318 -0.852669 0
M  V30 6539 H 628.357 -0.983125 -3.3768 0
M  V30 6540 H 628.231 0.73714 -3.69927 0
M  V30 6541 H 630.618 1.04975 -2.75798 0
M  V30 6542 H 630.699 -0.692918 -2.46236 0
M  V30 6543 H 630.343 -1.10992 -4.95624 0
M  V30 6544 H 630.273 0.649692 -5.22577 0
M  V30 6545 H 632.764 0.0630689 -3.77847 0
M  V30 6546 H 633.077 -0.496645 -7.71202 0
M  V30 6547 H 631.422 -0.43971 -6.93608 0
M  V30 6548 H 634.613 -0.00613174 -4.681 0
M  V30 6549 H 634.786 -0.261138 -6.47474 0
M  V30 6550 N 628.193 1.56834 0.155195 0
M  V30 6551 C 629.441 1.82536 0.867462 0
M  V30 6552 C 629.762 0.698168 1.82073 0
M  V30 6553 O 629.032 -0.280807 1.93877 0
M  V30 6554 H 627.612 0.673401 0.323327 0
M  V30 6555 H 630.274 1.94313 0.151156 0
M  V30 6556 H 629.37 2.77171 1.43466 0
M  V30 6557 N 629.671 -0.424282 1.51781 0
M  V30 6558 C 630.896 -1.19928 1.6921 0
M  V30 6559 C 631.321 -1.8392 0.394355 0
M  V30 6560 O 630.679 -1.69371 -0.646778 0
M  V30 6561 C 630.727 -2.24937 2.81843 0
M  V30 6562 O 629.831 -3.3073 2.46356 0
M  V30 6563 H 629.172 -0.35078 0.563781 0
M  V30 6564 H 631.702 -0.499401 1.98412 0
M  V30 6565 H 631.712 -2.69512 3.06312 0
M  V30 6566 H 630.387 -1.77742 3.76006 0
M  V30 6567 H 628.964 -2.9154 2.32505 0
M  V30 6568 N 631.149 -1.42148 -0.680565 0
M  V30 6569 C 632.397 -1.42029 -1.43779 0
M  V30 6570 C 632.718 -0.0356347 -1.94967 0
M  V30 6571 O 631.988 0.924936 -1.7269 0
M  V30 6572 H 630.568 -0.522835 -0.533529 0
M  V30 6573 H 633.23 -1.7752 -0.804538 0
M  V30 6574 H 632.326 -2.11658 -2.29363 0
M  V30 6575 N 632.627 0.916307 -1.28225 0
M  V30 6576 C 634.038 1.48024 -1.13779 0
M  V30 6577 C 634.389 1.94289 0.273139 0
M  V30 6578 O 633.514 1.82226 1.16716 0
M  V30 6579 C 634.109 2.69029 -2.05935 0
M  V30 6580 C 632.668 3.2161 -1.95561 0
M  V30 6581 C 631.815 1.94321 -1.97825 0
M  V30 6582 H 634.766 0.729272 -1.40951 0
M  V30 6583 H 634.787 3.44204 -1.62184 0
M  V30 6584 H 634.299 2.35325 -3.08616 0
M  V30 6585 H 632.4 3.60045 -0.959076 0
M  V30 6586 H 632.513 3.87032 -2.82388 0
M  V30 6587 H 630.877 2.1131 -1.42198 0
M  V30 6588 H 631.66 1.62917 -3.0218 0
M  V30 6589 N 634.105 1.10431 1.1244 0
M  V30 6590 C 635.516 0.864439 1.65482 0
M  V30 6591 C 635.867 -0.60527 1.8663 0
M  V30 6592 O 634.992 -1.46492 1.59276 0
M  V30 6593 C 635.587 1.56267 3.0061 0
M  V30 6594 C 634.146 1.3695 3.50602 0
M  V30 6595 C 633.293 1.61209 2.25626 0
M  V30 6596 H 636.244 1.26203 0.962209 0
M  V30 6597 H 636.265 1.00166 3.67079 0
M  V30 6598 H 635.777 2.63231 2.85186 0
M  V30 6599 H 633.878 0.321481 3.71211 0
M  V30 6600 H 633.991 2.11143 4.30064 0
M  V30 6601 H 632.355 1.03482 2.32731 0
M  V30 6602 H 633.138 2.69425 2.12756 0
M  V30 6603 N 635.583 -1.29855 0.893053 0
M  V30 6604 C 636.546 -2.26183 0.370687 0
M  V30 6605 C 637.546 -1.53108 -0.491385 0
M  V30 6606 O 638.736 -1.71643 -0.297386 0
M  V30 6607 C 635.868 -3.37633 -0.470827 0
M  V30 6608 H 637.061 -2.73903 1.22135 0
M  V30 6609 H 634.614 -1.41183 0.67061 0
M  V30 6610 H 635.349 -2.95241 -1.34175 0
M  V30 6611 H 635.134 -3.91825 0.146784 0
M  V30 6612 H 636.624 -4.09313 -0.827825 0
M  V30 6613 N 637.061 -0.65484 -1.43351 0
M  V30 6614 C 638.309 -0.168559 -2.01396 0
M  V30 6615 C 638.63 1.22235 -1.51933 0
M  V30 6616 O 637.9 1.81685 -0.732627 0
M  V30 6617 H 636.48 -0.0593244 -0.744641 0
M  V30 6618 H 639.142 -0.846871 -1.75539 0
M  V30 6619 H 638.238 -0.154428 -3.11718 0
M  V30 6620 N 638.539 1.52521 -0.396863 0
M  V30 6621 C 639.767 2.06091 0.18275 0
M  V30 6622 C 640.182 1.26796 1.39886 0
M  V30 6623 O 639.539 0.316585 1.79733 0
M  V30 6624 C 639.59 3.57362 0.545377 0
M  V30 6625 O 639.311 4.33656 -0.622428 0
M  V30 6626 C 640.812 4.27305 1.18004 0
M  V30 6627 H 638.032 0.670504 0.025789 0
M  V30 6628 H 640.576 1.96561 -0.564276 0
M  V30 6629 H 638.731 3.66941 1.2423 0
M  V30 6630 H 639.145 5.23507 -0.322662 0
M  V30 6631 H 640.619 5.34366 1.38408 0
M  V30 6632 H 641.096 3.83 2.1496 0
M  V30 6633 H 641.702 4.22064 0.523671 0
M  V30 6634 N 640.017 0.126909 1.57088 0
M  V30 6635 C 640.98 -0.806097 2.14557 0
M  V30 6636 C 641.98 -1.18918 1.08236 0
M  V30 6637 O 643.17 -1.11339 1.33975 0
M  V30 6638 C 640.302 -2.09116 2.69227 0
M  V30 6639 H 641.495 -0.306522 2.98329 0
M  V30 6640 H 639.048 -0.122393 1.5582 0
M  V30 6641 H 639.783 -2.63486 1.89065 0
M  V30 6642 H 639.568 -1.82588 3.46993 0
M  V30 6643 H 641.058 -2.75794 3.13572 0
M  V30 6644 N 641.495 -1.56914 -0.146875 0
M  V30 6645 C 642.425 -2.01308 -1.1831 0
M  V30 6646 C 643.406 -0.892664 -1.44795 0
M  V30 6647 O 644.591 -1.16048 -1.55713 0
M  V30 6648 C 641.721 -2.3938 -2.51624 0
M  V30 6649 C 640.675 -3.54608 -2.3966 0
M  V30 6650 C 640.001 -3.78493 -3.77686 0
M  V30 6651 C 641.301 -4.87269 -1.88058 0
M  V30 6652 H 642.995 -2.88123 -0.813964 0
M  V30 6653 H 640.541 -1.38615 -0.3901 0
M  V30 6654 H 642.494 -2.69037 -3.24341 0
M  V30 6655 H 641.218 -1.49502 -2.90373 0
M  V30 6656 H 639.877 -3.25116 -1.69396 0
M  V30 6657 H 639.525 -2.85866 -4.13871 0
M  V30 6658 H 639.225 -4.56039 -3.70543 0
M  V30 6659 H 640.749 -4.10576 -4.51951 0
M  V30 6660 H 642.163 -5.15644 -2.50568 0
M  V30 6661 H 640.56 -5.68622 -1.91805 0
M  V30 6662 H 641.63 -4.77634 -0.836277 0
M  V30 6663 N 642.974 0.416227 -1.52004 0
M  V30 6664 C 644.385 0.995319 -1.57957 0
M  V30 6665 C 644.736 1.91744 -0.415754 0
M  V30 6666 O 643.861 2.11349 0.464808 0
M  V30 6667 C 644.456 1.81191 -2.86278 0
M  V30 6668 C 643.015 2.34115 -2.94732 0
M  V30 6669 C 642.162 1.139 -2.52828 0
M  V30 6670 H 645.113 0.196716 -1.57476 0
M  V30 6671 H 645.134 2.66859 -2.71231 0
M  V30 6672 H 644.646 1.14051 -3.70963 0
M  V30 6673 H 642.747 3.04647 -2.14525 0
M  V30 6674 H 642.86 2.65466 -3.98829 0
M  V30 6675 H 641.224 1.49081 -2.06511 0
M  V30 6676 H 642.007 0.483383 -3.3988 0
M  V30 6677 N 644.452 1.42507 0.673017 0
M  V30 6678 C 645.701 1.42364 1.42883 0
M  V30 6679 C 646.014 0.0441598 1.9555 0
M  V30 6680 O 647.22 -0.0798679 2.71382 0
M  V30 6681 C 645.676 2.5043 2.58482 0
M  V30 6682 C 645.284 3.94392 2.12506 0
M  V30 6683 C 647.028 2.59455 3.35981 0
M  V30 6684 C 644.935 4.93964 3.25198 0
M  V30 6685 H 643.865 0.52951 0.536782 0
M  V30 6686 H 646.516 1.68422 0.728448 0
M  V30 6687 H 644.898 2.1754 3.30896 0
M  V30 6688 H 646.072 4.36645 1.47233 0
M  V30 6689 H 644.387 3.89233 1.4794 0
M  V30 6690 H 646.984 3.31025 4.19912 0
M  V30 6691 H 647.327 1.63869 3.82691 0
M  V30 6692 H 647.86 2.91549 2.70637 0
M  V30 6693 H 644.599 5.91034 2.83477 0
M  V30 6694 H 644.119 4.56341 3.89247 0
M  V30 6695 H 645.798 5.15763 3.90637 0
M  V30 6696 N 645.93 -0.909495 1.28709 0
M  V30 6697 C 646.84 -2.04558 1.14861 0
M  V30 6698 C 647.856 -1.73842 0.0741621 0
M  V30 6699 O 649.032 -1.99383 0.2843 0
M  V30 6700 C 646.097 -3.36957 0.816148 0
M  V30 6701 C 645.158 -3.81255 1.97341 0
M  V30 6702 C 644.391 -5.07335 1.65671 0
M  V30 6703 O 644.614 -5.67514 0.573053 0
M  V30 6704 O 643.548 -5.47449 2.50167 0
M  V30 6705 H 647.374 -2.19161 2.10243 0
M  V30 6706 H 644.959 -1.03159 1.08068 0
M  V30 6707 H 646.841 -4.16436 0.644873 0
M  V30 6708 H 645.516 -3.2352 -0.107983 0
M  V30 6709 H 644.423 -3.02584 2.19986 0
M  V30 6710 H 645.756 -3.99261 2.87839 0
M  V30 6711 N 647.408 -1.11026 -1.11852 0
M  V30 6712 C 648.656 -0.854769 -1.83134 0
M  V30 6713 C 648.977 0.621375 -1.84835 0
M  V30 6714 O 648.247 1.45129 -1.31584 0
M  V30 6715 H 646.827 -0.313229 -0.678157 0
M  V30 6716 H 649.489 -1.40178 -1.35411 0
M  V30 6717 H 648.585 -1.22311 -2.87135 0
M  V30 6718 N 648.886 1.2938 -0.899927 0
M  V30 6719 C 650.132 1.9584 -0.526742 0
M  V30 6720 C 650.465 1.70774 0.924651 0
M  V30 6721 O 649.74 1.02084 1.65557 0
M  V30 6722 C 650.023 3.50638 -0.820062 0
M  V30 6723 C 649.876 3.85161 -2.32317 0
M  V30 6724 C 651.195 4.3903 -0.30671 0
M  V30 6725 H 648.314 0.711322 -0.192848 0
M  V30 6726 H 650.956 1.52992 -1.12665 0
M  V30 6727 H 649.106 3.87265 -0.309491 0
M  V30 6728 H 650.778 3.58477 -2.9033 0
M  V30 6729 H 649.021 3.32696 -2.78381 0
M  V30 6730 H 649.692 4.93204 -2.47898 0
M  V30 6731 H 652.168 4.09396 -0.743908 0
M  V30 6732 H 651.044 5.46226 -0.541144 0
M  V30 6733 H 651.305 4.34937 0.792588 0
M  V30 6734 N 650.364 0.662433 1.43002 0
M  V30 6735 C 651.613 0.176873 2.00923 0
M  V30 6736 C 651.926 -1.21954 1.52927 0
M  V30 6737 O 653.132 -1.80081 2.03182 0
M  V30 6738 C 651.588 0.265379 3.5892 0
M  V30 6739 C 651.196 1.66507 4.15908 0
M  V30 6740 C 652.94 -0.162103 4.2419 0
M  V30 6741 C 650.847 1.707 5.66229 0
M  V30 6742 H 649.777 0.0623627 0.751417 0
M  V30 6743 H 652.428 0.825813 1.63868 0
M  V30 6744 H 650.81 -0.451235 3.93421 0
M  V30 6745 H 651.984 2.40777 3.92891 0
M  V30 6746 H 650.299 2.03932 3.63044 0
M  V30 6747 H 652.896 -0.150745 5.34487 0
M  V30 6748 H 653.239 -1.19519 3.98774 0
M  V30 6749 H 653.772 0.503075 3.94606 0
M  V30 6750 H 650.511 2.7195 5.96426 0
M  V30 6751 H 650.031 1.00768 5.91275 0
M  V30 6752 H 651.71 1.45487 6.3043 0
M  V30 6753 N 651.842 -1.52309 0.404946 0
M  V30 6754 C 652.772 -2.29805 -0.41376 0
M  V30 6755 C 653.753 -1.3384 -1.0498 0
M  V30 6756 O 654.938 -1.62745 -1.05961 0
M  V30 6757 C 652.068 -3.11639 -1.53292 0
M  V30 6758 C 651.022 -4.15616 -1.02211 0
M  V30 6759 C 650.348 -4.8577 -2.23455 0
M  V30 6760 C 651.648 -5.2224 -0.0790725 0
M  V30 6761 H 653.342 -2.98493 0.232878 0
M  V30 6762 H 650.888 -1.43552 0.113441 0
M  V30 6763 H 652.841 -3.64618 -2.11262 0
M  V30 6764 H 651.565 -2.40712 -2.20738 0
M  V30 6765 H 650.224 -3.63641 -0.46484 0
M  V30 6766 H 649.872 -4.11376 -2.89445 0
M  V30 6767 H 649.572 -5.56058 -1.89929 0
M  V30 6768 H 651.096 -5.4156 -2.82038 0
M  V30 6769 H 652.51 -5.70485 -0.567438 0
M  V30 6770 H 650.907 -5.99867 0.167167 0
M  V30 6771 H 651.977 -4.77078 0.867447 0
M  V30 6772 N 653.32 -0.135238 -1.57019 0
M  V30 6773 C 654.545 0.529343 -2.00531 0
M  V30 6774 C 654.97 1.58391 -1.01459 0
M  V30 6775 O 654.328 1.81296 0.0113986 0
M  V30 6776 C 654.376 1.11748 -3.42848 0
M  V30 6777 O 653.48 2.23267 -3.46736 0
M  V30 6778 H 652.821 0.130669 -0.651016 0
M  V30 6779 H 655.351 -0.228503 -2.0332 0
M  V30 6780 H 655.361 1.44905 -3.81401 0
M  V30 6781 H 654.036 0.345147 -4.14465 0
M  V30 6782 H 652.613 1.91428 -3.20015 0
M  V30 6783 N 654.798 1.5699 0.138552 0
M  V30 6784 C 655.728 2.01933 1.17241 0
M  V30 6785 C 656.709 0.90033 1.44319 0
M  V30 6786 O 657.894 1.16872 1.55095 0
M  V30 6787 C 655.024 2.40711 2.50351 0
M  V30 6788 C 653.978 3.55874 2.37776 0
M  V30 6789 C 653.304 3.80491 3.75674 0
M  V30 6790 C 654.604 4.8826 1.85472 0
M  V30 6791 H 656.298 2.88551 0.798672 0
M  V30 6792 H 653.844 1.3882 0.382743 0
M  V30 6793 H 655.797 2.70754 3.22909 0
M  V30 6794 H 654.521 1.5104 2.89576 0
M  V30 6795 H 653.18 3.2601 1.67669 0
M  V30 6796 H 652.828 2.88057 4.12349 0
M  V30 6797 H 652.528 4.57998 3.68119 0
M  V30 6798 H 654.052 4.12967 4.49767 0
M  V30 6799 H 655.466 5.16965 2.4783 0
M  V30 6800 H 653.863 5.69631 1.88787 0
M  V30 6801 H 654.933 4.78071 0.810935 0
M  V30 6802 N 656.276 -0.40816 1.52223 0
M  V30 6803 C 657.208 -1.51642 1.71864 0
M  V30 6804 C 658.221 -1.51378 0.599056 0
M  V30 6805 O 659.41 -1.55626 0.874239 0
M  V30 6806 C 656.51 -2.90534 1.74481 0
M  V30 6807 C 655.683 -3.14979 3.03491 0
M  V30 6808 C 654.742 -4.33749 2.97907 0
M  V30 6809 O 653.768 -4.30982 3.71811 0
M  V30 6810 N 654.97 -5.38912 2.15764 0
M  V30 6811 H 657.735 -1.35188 2.67478 0
M  V30 6812 H 655.296 -0.597468 1.50472 0
M  V30 6813 H 657.288 -3.68056 1.68275 0
M  V30 6814 H 655.858 -3.00441 0.863363 0
M  V30 6815 H 655.078 -2.25492 3.23337 0
M  V30 6816 H 656.366 -3.28156 3.88833 0
M  V30 6817 H 655.764 -5.44008 1.55152 0
M  V30 6818 H 654.321 -6.15174 2.15415 0
M  V30 6819 N 657.755 -1.42862 -0.66545 0
M  V30 6820 C 659.032 -1.3431 -1.42197 0
M  V30 6821 C 659.412 0.0150265 -2.11095 0
M  V30 6822 O 658.76 1.03101 -2.03918 0
M  V30 6823 C 658.97 -2.51783 -2.41674 0
M  V30 6824 C 660.318 -2.94321 -3.0604 0
M  V30 6825 O 661.342 -2.51741 -2.52001 0
M  V30 6826 O 660.201 -3.68047 -4.03985 0
M  V30 6827 H 657.295 -0.530159 -0.634713 0
M  V30 6828 H 659.841 -1.54888 -0.693386 0
M  V30 6829 H 658.613 -3.42282 -1.89627 0
M  V30 6830 H 658.236 -2.33241 -3.22001 0
M  V30 6831 N 659.233 0.902656 -1.29189 0
M  V30 6832 C 660.163 2.02294 -1.16616 0
M  V30 6833 C 661.144 1.6999 -0.0611175 0
M  V30 6834 O 662.329 1.9271 -0.240072 0
M  V30 6835 C 659.459 3.37018 -0.83882 0
M  V30 6836 C 658.413 3.83522 -1.89986 0
M  V30 6837 C 657.739 5.15337 -1.42589 0
M  V30 6838 C 659.039 4.04169 -3.30824 0
M  V30 6839 H 660.733 2.13071 -2.10336 0
M  V30 6840 H 658.279 1.02378 -1.01266 0
M  V30 6841 H 660.232 4.14895 -0.737584 0
M  V30 6842 H 658.956 3.26325 0.134071 0
M  V30 6843 H 657.615 3.07859 -1.99043 0
M  V30 6844 H 657.263 5.01056 -0.441759 0
M  V30 6845 H 656.963 5.47423 -2.13547 0
M  V30 6846 H 658.487 5.95758 -1.3381 0
M  V30 6847 H 659.901 4.72537 -3.24626 0
M  V30 6848 H 658.298 4.47604 -3.99713 0
M  V30 6849 H 659.368 3.08604 -3.74021 0
M  V30 6850 N 660.711 1.11618 1.11262 0
M  V30 6851 C 661.96 0.860934 1.82403 0
M  V30 6852 C 662.273 -0.615303 1.8567 0
M  V30 6853 O 663.479 -0.986861 2.52929 0
M  V30 6854 C 661.935 1.49048 3.27586 0
M  V30 6855 C 661.543 3.00089 3.32642 0
M  V30 6856 C 663.287 1.31515 4.03614 0
M  V30 6857 C 661.194 3.56019 4.72234 0
M  V30 6858 H 660.124 0.318423 0.683464 0
M  V30 6859 H 662.775 1.34165 1.25188 0
M  V30 6860 H 661.157 0.937434 3.84744 0
M  V30 6861 H 662.331 3.61813 2.85356 0
M  V30 6862 H 660.646 3.16919 2.70096 0
M  V30 6863 H 663.243 1.70732 5.0671 0
M  V30 6864 H 663.586 0.257917 4.155 0
M  V30 6865 H 664.119 1.83694 3.52848 0
M  V30 6866 H 660.858 4.61463 4.65545 0
M  V30 6867 H 660.378 2.99066 5.19923 0
M  V30 6868 H 662.057 3.54568 5.41193 0
M  V30 6869 N 662.189 -1.289 0.906776 0
M  V30 6870 C 663.438 -1.9455 0.532262 0
M  V30 6871 C 663.751 -1.72219 -0.927353 0
M  V30 6872 O 664.957 -2.32033 -1.40971 0
M  V30 6873 C 663.413 -3.48438 0.901041 0
M  V30 6874 C 663.021 -3.79558 2.37991 0
M  V30 6875 C 664.765 -4.20284 0.596777 0
M  V30 6876 C 662.672 -5.26723 2.68918 0
M  V30 6877 H 661.602 -0.728259 0.195333 0
M  V30 6878 H 664.253 -1.46519 1.10474 0
M  V30 6879 H 662.635 -3.95162 0.257419 0
M  V30 6880 H 663.809 -3.43668 3.06967 0
M  V30 6881 H 662.124 -3.20868 2.65391 0
M  V30 6882 H 664.721 -5.28612 0.8046 0
M  V30 6883 H 665.064 -4.13694 -0.465072 0
M  V30 6884 H 665.597 -3.79315 1.19855 0
M  V30 6885 H 662.336 -5.38384 3.73928 0
M  V30 6886 H 661.856 -5.63836 2.04571 0
M  V30 6887 H 663.535 -5.94391 2.55555 0
M  V30 6888 N 663.667 -0.670007 -1.42649 0
M  V30 6889 C 664.897 -0.198252 -2.05647 0
M  V30 6890 C 665.305 1.14786 -1.50402 0
M  V30 6891 O 664.648 1.72316 -0.636634 0
M  V30 6892 C 664.71 -0.0507132 -3.59464 0
M  V30 6893 C 664.374 -1.32478 -4.37377 0
M  V30 6894 C 665.371 -2.2572 -4.68344 0
M  V30 6895 C 663.056 -1.57104 -4.77099 0
M  V30 6896 C 665.05 -3.4187 -5.37963 0
M  V30 6897 C 662.737 -2.73543 -5.46459 0
M  V30 6898 C 663.735 -3.65751 -5.76815 0
M  V30 6899 O 663.423 -4.80154 -6.44753 0
M  V30 6900 H 663.155 -0.0950721 -0.669281 0
M  V30 6901 H 665.709 -0.915745 -1.83857 0
M  V30 6902 H 663.939 0.722314 -3.79894 0
M  V30 6903 H 665.628 0.380552 -4.04112 0
M  V30 6904 H 666.394 -2.07943 -4.38161 0
M  V30 6905 H 662.273 -0.862069 -4.52868 0
M  V30 6906 H 665.817 -4.13861 -5.61574 0
M  V30 6907 H 661.714 -2.91248 -5.7606 0
M  V30 6908 H 662.482 -4.79637 -6.63243 0
M  V30 6909 N 665.145 1.52092 -0.413018 0
M  V30 6910 C 666.392 2.01855 0.161497 0
M  V30 6911 C 666.72 1.29845 1.44812 0
M  V30 6912 O 665.975 0.394471 1.91683 0
M  V30 6913 C 666.274 3.54529 0.4521 0
M  V30 6914 C 665.94 4.4469 -0.745788 0
M  V30 6915 C 664.602 4.69053 -1.07435 0
M  V30 6916 C 666.954 4.97742 -1.54604 0
M  V30 6917 C 664.282 5.43717 -2.20429 0
M  V30 6918 C 666.634 5.73642 -2.66678 0
M  V30 6919 C 665.298 5.96277 -3.00016 0
M  V30 6920 H 664.568 0.73864 0.0590961 0
M  V30 6921 H 667.215 1.83274 -0.555234 0
M  V30 6922 H 665.52 3.7131 1.25045 0
M  V30 6923 H 667.217 3.90546 0.909647 0
M  V30 6924 H 663.807 4.25907 -0.479725 0
M  V30 6925 H 667.991 4.78824 -1.30543 0
M  V30 6926 H 663.247 5.59462 -2.46602 0
M  V30 6927 H 667.421 6.13746 -3.29072 0
M  V30 6928 H 665.048 6.53913 -3.87688 0
M  V30 6929 N 666.623 0.143563 1.56945 0
M  V30 6930 C 667.533 -0.810562 2.20152 0
M  V30 6931 C 668.549 -1.27431 1.1848 0
M  V30 6932 O 669.725 -1.33221 1.51044 0
M  V30 6933 C 666.79 -2.03353 2.80799 0
M  V30 6934 C 665.851 -1.61936 3.97587 0
M  V30 6935 C 665.084 -2.78403 4.55332 0
M  V30 6936 O 665.307 -3.94521 4.11958 0
M  V30 6937 O 664.241 -2.54073 5.45647 0
M  V30 6938 H 668.067 -0.30253 3.02189 0
M  V30 6939 H 665.652 -0.0832925 1.49168 0
M  V30 6940 H 667.534 -2.74932 3.19359 0
M  V30 6941 H 666.209 -2.53116 2.01777 0
M  V30 6942 H 665.116 -0.873904 3.6375 0
M  V30 6943 H 666.449 -1.16892 4.78118 0
M  V30 6944 N 668.101 -1.57061 -0.130224 0
M  V30 6945 C 669.512 -1.73539 -0.68856 0
M  V30 6946 C 669.863 -0.760554 -1.80859 0
M  V30 6947 O 668.988 0.0690796 -2.1629 0
M  V30 6948 C 669.583 -3.14666 -1.25581 0
M  V30 6949 C 668.142 -3.32689 -1.76055 0
M  V30 6950 C 667.289 -2.69436 -0.655712 0
M  V30 6951 H 670.24 -1.58412 0.0956002 0
M  V30 6952 H 670.261 -3.15595 -2.12556 0
M  V30 6953 H 669.773 -3.85593 -0.440412 0
M  V30 6954 H 667.874 -2.66786 -2.60108 0
M  V30 6955 H 667.987 -4.4077 -1.87772 0
M  V30 6956 H 666.351 -2.30362 -1.08654 0
M  V30 6957 H 667.134 -3.42979 0.14852 0
M  V30 6958 N 669.579 0.400081 -1.52437 0
M  V30 6959 C 670.99 0.97851 -1.59003 0
M  V30 6960 C 671.341 1.91293 -0.436068 0
M  V30 6961 O 670.466 2.1183 0.442365 0
M  V30 6962 C 671.061 1.78145 -2.88184 0
M  V30 6963 C 669.62 2.30976 -2.97199 0
M  V30 6964 C 668.767 1.11212 -2.54022 0
M  V30 6965 H 671.718 0.180002 -1.57676 0
M  V30 6966 H 671.739 2.63968 -2.74046 0
M  V30 6967 H 671.251 1.1011 -3.72152 0
M  V30 6968 H 669.352 3.02355 -2.17744 0
M  V30 6969 H 669.465 2.61221 -4.01622 0
M  V30 6970 H 667.829 1.46882 -2.08081 0
M  V30 6971 H 668.612 0.447307 -3.40373 0
M  V30 6972 N 671.057 1.43213 0.657864 0
M  V30 6973 C 672.282 1.48227 1.45064 0
M  V30 6974 C 672.707 0.0999939 1.87834 0
M  V30 6975 O 672.065 -0.905269 1.57081 0
M  V30 6976 C 672.113 2.42931 2.6649 0
M  V30 6977 O 671.217 1.91237 3.6538 0
M  V30 6978 H 670.558 0.501551 0.435135 0
M  V30 6979 H 673.088 1.8808 0.805431 0
M  V30 6980 H 673.098 2.6008 3.1436 0
M  V30 6981 H 671.773 3.43348 2.34701 0
M  V30 6982 H 670.35 1.83726 3.24498 0
M  V30 6983 N 672.536 -0.895792 1.29666 0
M  V30 6984 C 673.446 -2.03329 1.17024 0
M  V30 6985 C 674.462 -1.73753 0.0925962 0
M  V30 6986 O 675.638 -1.99071 0.305431 0
M  V30 6987 C 672.703 -3.36072 0.851841 0
M  V30 6988 C 671.764 -3.7914 2.01373 0
M  V30 6989 C 670.997 -5.05549 1.71043 0
M  V30 6990 O 671.22 -5.66874 0.633213 0
M  V30 6991 O 670.154 -5.44764 2.5596 0
M  V30 6992 H 673.98 -2.16918 2.12556 0
M  V30 6993 H 671.565 -1.02007 1.09156 0
M  V30 6994 H 673.447 -4.15729 0.689006 0
M  V30 6995 H 672.122 -3.23616 -0.0736634 0
M  V30 6996 H 671.029 -3.00233 2.23183 0
M  V30 6997 H 672.362 -3.96186 2.92058 0
M  V30 6998 N 674.014 -1.12206 -1.10668 0
M  V30 6999 C 675.291 -0.787382 -1.79052 0
M  V30 7000 C 675.671 0.723267 -1.98323 0
M  V30 7001 O 675.019 1.6561 -1.57434 0
M  V30 7002 C 675.229 -1.55968 -3.1221 0
M  V30 7003 C 676.577 -1.74413 -3.87125 0
M  V30 7004 O 677.601 -1.5246 -3.21923 0
M  V30 7005 O 676.46 -2.10952 -5.04144 0
M  V30 7006 H 673.554 -0.286137 -0.775922 0
M  V30 7007 H 676.1 -1.22595 -1.1734 0
M  V30 7008 H 674.872 -2.58692 -2.93588 0
M  V30 7009 H 674.495 -1.1152 -3.8164 0
M  V30 7010 N 675.492 1.28418 -0.913599 0
M  V30 7011 C 676.422 2.29713 -0.418847 0
M  V30 7012 C 677.403 1.62165 0.513469 0
M  V30 7013 O 678.588 1.89576 0.421235 0
M  V30 7014 C 675.718 3.45612 0.342042 0
M  V30 7015 C 674.672 4.25056 -0.501123 0
M  V30 7016 C 673.998 5.3329 0.388097 0
M  V30 7017 C 675.298 4.91814 -1.75831 0
M  V30 7018 H 676.992 2.71346 -1.26538 0
M  V30 7019 H 674.538 1.30446 -0.609903 0
M  V30 7020 H 676.491 4.15562 0.699 0
M  V30 7021 H 675.215 3.02858 1.22248 0
M  V30 7022 H 673.874 3.56833 -0.840598 0
M  V30 7023 H 673.522 4.8678 1.26707 0
M  V30 7024 H 673.222 5.87347 -0.172459 0
M  V30 7025 H 674.746 6.06088 0.74094 0
M  V30 7026 H 676.16 5.54126 -1.47026 0
M  V30 7027 H 674.557 5.55866 -2.26126 0
M  V30 7028 H 675.627 4.16313 -2.4862 0
M  V30 7029 N 676.97 0.677563 1.42291 0
M  V30 7030 C 677.902 -0.0380218 2.29168 0
M  V30 7031 C 678.915 -0.762714 1.43828 0
M  V30 7032 O 680.104 -0.616413 1.67519 0
M  V30 7033 C 677.204 -1.07761 3.21311 0
M  V30 7034 C 676.377 -0.42618 4.35319 0
M  V30 7035 C 675.436 -1.36592 5.08162 0
M  V30 7036 O 674.462 -0.865174 5.62586 0
M  V30 7037 N 675.664 -2.69909 5.13935 0
M  V30 7038 H 678.429 0.707766 2.91223 0
M  V30 7039 H 675.99 0.52219 1.53247 0
M  V30 7040 H 677.982 -1.70761 3.6691 0
M  V30 7041 H 676.552 -1.72511 2.60689 0
M  V30 7042 H 675.772 0.383385 3.92331 0
M  V30 7043 H 677.06 0.0275277 5.08793 0
M  V30 7044 H 676.458 -3.13129 4.71134 0
M  V30 7045 H 675.015 -3.2815 5.6317 0
M  V30 7046 N 678.448 -1.51871 0.421078 0
M  V30 7047 C 679.398 -2.24171 -0.416111 0
M  V30 7048 C 680.382 -1.25763 -1.00362 0
M  V30 7049 O 681.574 -1.5094 -0.924452 0
M  V30 7050 C 678.703 -3.07533 -1.52571 0
M  V30 7051 C 677.789 -4.1336 -0.948399 0
M  V30 7052 N 678.18 -5.05704 -0.0987933 0
M  V30 7053 C 676.478 -4.29055 -1.21768 0
M  V30 7054 C 677.179 -5.8127 0.223705 0
M  V30 7055 N 676.155 -5.4221 -0.388524 0
M  V30 7056 H 679.957 -2.92925 0.239166 0
M  V30 7057 H 677.471 -1.60732 0.232191 0
M  V30 7058 H 679.468 -3.57893 -2.13819 0
M  V30 7059 H 678.128 -2.4032 -2.18349 0
M  V30 7060 H 679.139 -5.17214 0.266428 0
M  V30 7061 H 675.816 -3.73071 -1.87416 0
M  V30 7062 H 677.206 -6.65653 0.914076 0
M  V30 7063 N 679.926 -0.151884 -1.56866 0
M  V30 7064 C 680.836 0.798876 -2.20579 0
M  V30 7065 C 681.852 1.268 -1.19154 0
M  V30 7066 O 683.028 1.32418 -1.51748 0
M  V30 7067 C 680.093 2.01861 -2.81874 0
M  V30 7068 C 679.154 1.59825 -3.9844 0
M  V30 7069 C 678.387 2.75984 -4.56802 0
M  V30 7070 O 678.61 3.92331 -4.14044 0
M  V30 7071 O 677.544 2.51175 -5.46987 0
M  V30 7072 H 681.37 0.2865 -3.02346 0
M  V30 7073 H 678.955 0.0753806 -1.4921 0
M  V30 7074 H 680.837 2.73235 -3.20813 0
M  V30 7075 H 679.512 2.52042 -2.03117 0
M  V30 7076 H 678.419 0.854601 -3.64208 0
M  V30 7077 H 679.752 1.14355 -4.78731 0
M  V30 7078 N 681.404 1.57128 0.121893 0
M  V30 7079 C 682.314 2.03425 1.16857 0
M  V30 7080 C 683.33 0.954108 1.45509 0
M  V30 7081 O 684.506 1.26541 1.56682 0
M  V30 7082 C 681.571 2.42685 2.47599 0
M  V30 7083 C 680.632 3.64767 2.2637 0
M  V30 7084 C 679.865 4.02145 3.50878 0
M  V30 7085 O 680.088 3.39897 4.58068 0
M  V30 7086 O 679.022 4.95262 3.42051 0
M  V30 7087 H 682.848 2.92825 0.80544 0
M  V30 7088 H 680.433 1.45654 0.332477 0
M  V30 7089 H 682.315 2.68684 3.24634 0
M  V30 7090 H 680.99 1.56432 2.83392 0
M  V30 7091 H 679.897 3.43922 1.47203 0
M  V30 7092 H 681.23 4.51716 1.95482 0
M  V30 7093 N 682.882 -0.391992 1.52647 0
M  V30 7094 C 683.829 -1.47866 1.77213 0
M  V30 7095 C 684.799 -1.54286 0.615223 0
M  V30 7096 O 685.984 -1.7059 0.854622 0
M  V30 7097 C 683.124 -2.85129 1.94411 0
M  V30 7098 C 682.237 -2.87883 3.22098 0
M  V30 7099 C 681.372 -4.16553 3.29631 0
M  V30 7100 C 680.411 -4.13348 4.51453 0
M  V30 7101 N 679.548 -5.33619 4.56284 0
M  V30 7102 H 684.388 -1.26219 2.6995 0
M  V30 7103 H 681.925 -0.612367 1.33748 0
M  V30 7104 H 683.883 -3.64833 2.02367 0
M  V30 7105 H 682.513 -3.05232 1.05038 0
M  V30 7106 H 681.565 -2.00567 3.23229 0
M  V30 7107 H 682.877 -2.81382 4.11856 0
M  V30 7108 H 682.031 -5.0466 3.36753 0
M  V30 7109 H 680.77 -4.25773 2.37842 0
M  V30 7110 H 679.775 -3.23629 4.44459 0
M  V30 7111 H 681 -4.05754 5.44555 0
M  V30 7112 H 678.946 -5.43474 3.67385 0
M  V30 7113 H 678.863 -5.29182 5.3991 0
M  V30 7114 H 680.131 -6.23632 4.67657 0
M  V30 7115 N 684.36 -1.4356 -0.65026 0
M  V30 7116 C 685.292 -1.44918 -1.77571 0
M  V30 7117 C 686.305 -0.344925 -1.59104 0
M  V30 7118 O 687.494 -0.609537 -1.6777 0
M  V30 7119 C 684.594 -1.24914 -3.15039 0
M  V30 7120 C 683.767 -2.48232 -3.60138 0
M  V30 7121 C 682.826 -2.23409 -4.76419 0
M  V30 7122 O 681.852 -2.9678 -4.85706 0
M  V30 7123 N 683.054 -1.25259 -5.66825 0
M  V30 7124 H 685.819 -2.41935 -1.76883 0
M  V30 7125 H 683.38 -1.38754 -0.834202 0
M  V30 7126 H 685.372 -1.06185 -3.90521 0
M  V30 7127 H 683.942 -0.363319 -3.10481 0
M  V30 7128 H 683.162 -2.82366 -2.75069 0
M  V30 7129 H 684.45 -3.30296 -3.87017 0
M  V30 7130 H 683.848 -0.646246 -5.61997 0
M  V30 7131 H 682.405 -1.12513 -6.42016 0
M  V30 7132 N 685.838 0.888903 -1.30139 0
M  V30 7133 C 687.063 1.67884 -1.21777 0
M  V30 7134 C 687.488 1.86848 0.216689 0
M  V30 7135 O 686.846 1.39659 1.15608 0
M  V30 7136 C 686.894 3.03483 -1.94757 0
M  V30 7137 O 685.998 3.92294 -1.27198 0
M  V30 7138 H 685.339 0.513144 -0.421402 0
M  V30 7139 H 687.869 1.10968 -1.71893 0
M  V30 7140 H 687.879 3.53553 -2.03627 0
M  V30 7141 H 686.554 2.89 -2.99085 0
M  V30 7142 H 685.131 3.50732 -1.26655 0
M  V30 7143 N 687.317 1.12792 1.10072 0
M  V30 7144 C 688.264 0.79921 2.16521 0
M  V30 7145 C 689.234 -0.235726 1.64419 0
M  V30 7146 O 690.419 -0.109457 1.90486 0
M  V30 7147 C 687.559 0.264091 3.44088 0
M  V30 7148 C 686.672 1.35729 4.10124 0
M  V30 7149 C 685.807 0.781212 5.25424 0
M  V30 7150 C 684.846 1.85327 5.8337 0
M  V30 7151 N 683.983 1.29564 6.90042 0
M  V30 7152 H 688.823 1.71105 2.43981 0
M  V30 7153 H 686.36 0.854225 1.19756 0
M  V30 7154 H 688.318 -0.0642423 4.17151 0
M  V30 7155 H 686.948 -0.610901 3.16967 0
M  V30 7156 H 686 1.80234 3.34993 0
M  V30 7157 H 687.312 2.16782 4.4923 0
M  V30 7158 H 686.466 0.403769 6.05355 0
M  V30 7159 H 685.205 -0.0604686 4.87663 0
M  V30 7160 H 684.21 2.23986 5.02106 0
M  V30 7161 H 685.435 2.69824 6.23195 0
M  V30 7162 H 683.381 0.475844 6.54272 0
M  V30 7163 H 683.298 2.04271 7.2788 0
M  V30 7164 H 684.566 0.945545 7.73744 0
M  V30 7165 N 688.795 -1.27931 0.920396 0
M  V30 7166 C 689.725 -2.29487 0.431024 0
M  V30 7167 C 690.706 -1.62435 -0.504861 0
M  V30 7168 O 691.891 -1.89797 -0.411176 0
M  V30 7169 C 689.021 -3.45788 -0.323709 0
M  V30 7170 C 687.975 -4.24784 0.523658 0
M  V30 7171 C 687.301 -5.33488 -0.359809 0
M  V30 7172 C 688.601 -4.90874 1.78437 0
M  V30 7173 H 690.295 -2.70671 1.27975 0
M  V30 7174 H 687.841 -1.30121 0.616813 0
M  V30 7175 H 689.794 -4.15927 -0.676952 0
M  V30 7176 H 688.518 -3.03502 -1.2064 0
M  V30 7177 H 687.177 -3.56382 0.85951 0
M  V30 7178 H 686.825 -4.87445 -1.24124 0
M  V30 7179 H 686.525 -5.87247 0.203605 0
M  V30 7180 H 688.049 -6.06472 -0.708787 0
M  V30 7181 H 689.463 -5.53339 1.49963 0
M  V30 7182 H 687.86 -5.54659 2.29071 0
M  V30 7183 H 688.93 -4.14988 2.50824 0
M  V30 7184 N 690.273 -0.685099 -1.4193 0
M  V30 7185 C 691.689 -0.355632 -1.55587 0
M  V30 7186 C 691.889 1.13823 -1.66273 0
M  V30 7187 O 690.945 1.92387 -1.63534 0
M  V30 7188 C 692.258 -1.09498 -2.80055 0
M  V30 7189 C 693.806 -1.07831 -2.93839 0
M  V30 7190 C 694.281 -1.79919 -4.21181 0
M  V30 7191 N 695.772 -1.76837 -4.28115 0
M  V30 7192 C 696.507 -2.29463 -5.25485 0
M  V30 7193 N 696.003 -2.90516 -6.28945 0
M  V30 7194 N 697.796 -2.19779 -5.17353 0
M  V30 7195 H 689.947 -1.65412 -1.33239 0
M  V30 7196 H 692.21 -0.697453 -0.642078 0
M  V30 7197 H 691.916 -2.14997 -2.78333 0
M  V30 7198 H 691.79 -0.666813 -3.71259 0
M  V30 7199 H 694.177 -0.0316152 -2.95083 0
M  V30 7200 H 694.258 -1.54545 -2.03837 0
M  V30 7201 H 693.902 -2.84562 -4.20698 0
M  V30 7202 H 693.832 -1.30647 -5.10136 0
M  V30 7203 H 696.323 -1.32315 -3.53979 0
M  V30 7204 H 696.636 -3.28266 -6.99615 0
M  V30 7205 H 694.981 -2.94589 -6.29478 0
M  V30 7206 H 698.172 -1.71763 -4.35448 0
M  V30 7207 H 698.345 -2.61097 -5.9307 0
M  V30 7208 N 691.751 1.51645 -0.429126 0
M  V30 7209 C 692.976 2.06917 0.141399 0
M  V30 7210 C 693.401 1.29527 1.36398 0
M  V30 7211 O 692.759 0.33094 1.78254 0
M  V30 7212 C 692.807 3.57776 0.4504 0
M  V30 7213 O 691.911 3.82639 1.53821 0
M  V30 7214 H 691.252 0.663978 0.0054647 0
M  V30 7215 H 693.782 1.95355 -0.608093 0
M  V30 7216 H 693.792 4.01894 0.703249 0
M  V30 7217 H 692.467 4.13532 -0.443213 0
M  V30 7218 H 691.044 3.5039 1.27597 0
M  V30 7219 N 693.229 0.160201 1.56784 0
M  V30 7220 C 694.159 -0.770264 2.2043 0
M  V30 7221 C 695.14 -1.24736 1.15651 0
M  V30 7222 O 696.325 -1.30253 1.44041 0
M  V30 7223 C 693.455 -2.00427 2.83631 0
M  V30 7224 C 692.409 -1.66345 3.94352 0
M  V30 7225 C 691.735 -2.97119 4.4455 0
M  V30 7226 C 693.035 -0.899972 5.14488 0
M  V30 7227 H 694.729 -0.239783 2.98438 0
M  V30 7228 H 692.275 -0.113891 1.43549 0
M  V30 7229 H 694.228 -2.66012 3.26827 0
M  V30 7230 H 692.952 -2.5587 2.02973 0
M  V30 7231 H 691.611 -1.03133 3.51794 0
M  V30 7232 H 691.259 -3.5058 3.60698 0
M  V30 7233 H 690.959 -2.75073 5.19238 0
M  V30 7234 H 692.483 -3.63753 4.90425 0
M  V30 7235 H 693.897 -1.45818 5.54446 0
M  V30 7236 H 692.294 -0.778968 5.95023 0
M  V30 7237 H 693.364 0.105827 4.84785 0
M  V30 7238 N 694.707 -1.5719 -0.113559 0
M  V30 7239 C 696.123 -1.52607 -0.467253 0
M  V30 7240 C 696.323 -0.874058 -1.81556 0
M  V30 7241 O 695.379 -0.458703 -2.48299 0
M  V30 7242 C 696.692 -2.97363 -0.446736 0
M  V30 7243 C 698.24 -3.08482 -0.529903 0
M  V30 7244 C 698.715 -4.54809 -0.539721 0
M  V30 7245 N 700.206 -4.59284 -0.601005 0
M  V30 7246 C 700.941 -5.69927 -0.630138 0
M  V30 7247 N 700.437 -6.90051 -0.616589 0
M  V30 7248 N 702.23 -5.5805 -0.673558 0
M  V30 7249 H 694.381 -1.97958 0.769819 0
M  V30 7250 H 696.644 -0.90428 0.284572 0
M  V30 7251 H 696.35 -3.48458 0.47643 0
M  V30 7252 H 696.224 -3.55086 -1.27254 0
M  V30 7253 H 698.611 -2.57386 -1.44349 0
M  V30 7254 H 698.692 -2.53744 0.323695 0
M  V30 7255 H 698.336 -5.06552 0.369843 0
M  V30 7256 H 698.266 -5.07364 -1.41028 0
M  V30 7257 H 700.757 -3.72822 -0.617419 0
M  V30 7258 H 701.07 -7.70132 -0.641592 0
M  V30 7259 H 699.415 -6.92543 -0.583927 0
M  V30 7260 H 702.606 -4.63112 -0.681544 0
M  V30 7261 H 702.779 -6.44286 -0.692794 0
M  V30 7262 N 696.185 0.383891 -1.52853 0
M  V30 7263 C 697.133 1.48965 -1.7864 0
M  V30 7264 C 698.127 1.56242 -0.654577 0
M  V30 7265 O 699.333 1.59347 -0.83716 0
M  V30 7266 H 695.708 0.495892 -0.565328 0
M  V30 7267 H 697.679 1.24411 -2.71228 0
M  V30 7268 C 696.428 2.86036 -1.97683 0
M  V30 7269 H 695.751 2.81188 -2.84206 0
M  V30 7270 H 697.191 3.62632 -2.19713 0
M  V30 7271 C 695.65 3.28428 -0.750776 0
M  V30 7272 O 696.18 4.0164 0.0693491 0
M  V30 7273 N 694.386 2.84765 -0.579427 0
M  V30 7274 H 693.933 2.25353 -1.24795 0
M  V30 7275 H 693.891 3.13486 0.239544 0
M  V30 7276 N 697.663 1.43903 0.642637 0
M  V30 7277 C 699.079 1.27536 0.959519 0
M  V30 7278 C 699.279 0.202751 2.00477 0
M  V30 7279 O 698.335 -0.415256 2.49062 0
M  V30 7280 C 699.648 2.6432 1.43372 0
M  V30 7281 C 701.196 2.71937 1.54981 0
M  V30 7282 C 701.671 4.09164 2.05789 0
M  V30 7283 N 703.162 4.11282 2.13076 0
M  V30 7284 C 703.897 5.14303 2.53534 0
M  V30 7285 N 703.393 6.27693 2.93212 0
M  V30 7286 N 705.186 5.01657 2.53567 0
M  V30 7287 H 697.337 2.12344 -0.0488376 0
M  V30 7288 H 699.6 0.947124 0.0407559 0
M  V30 7289 H 699.306 3.43826 0.740048 0
M  V30 7290 H 699.18 2.90432 2.40685 0
M  V30 7291 H 701.567 1.92757 2.23448 0
M  V30 7292 H 701.648 2.49578 0.560739 0
M  V30 7293 H 701.292 4.88815 1.37921 0
M  V30 7294 H 701.222 4.28893 3.05546 0
M  V30 7295 H 703.713 3.2944 1.85143 0
M  V30 7296 H 704.026 7.02125 3.22863 0
M  V30 7297 H 702.371 6.31149 2.90991 0
M  V30 7298 H 705.562 4.12134 2.21952 0
M  V30 7299 H 705.735 5.82072 2.84774 0
M  V30 7300 N 699.141 -0.881989 1.30609 0
M  V30 7301 C 700.073 -1.99375 1.13058 0
M  V30 7302 C 701.086 -1.62636 0.0729879 0
M  V30 7303 O 702.275 -1.75621 0.319301 0
M  V30 7304 C 699.375 -3.31536 0.702651 0
M  V30 7305 C 698.548 -3.96693 1.84265 0
M  V30 7306 C 697.607 -5.07158 1.40277 0
M  V30 7307 O 696.633 -5.28628 2.11048 0
M  V30 7308 N 697.835 -5.79808 0.283449 0
M  V30 7309 H 700.6 -2.14981 2.08814 0
M  V30 7310 H 698.161 -1.05526 1.22784 0
M  V30 7311 H 700.153 -4.02804 0.391331 0
M  V30 7312 H 698.723 -3.12175 -0.162954 0
M  V30 7313 H 697.943 -3.1856 2.32192 0
M  V30 7314 H 699.231 -4.36964 2.60653 0
M  V30 7315 H 698.629 -5.64871 -0.306189 0
M  V30 7316 H 697.186 -6.51792 0.0315985 0
M  V30 7317 N 700.619 -1.13374 -1.09472 0
M  V30 7318 C 701.844 -0.918711 -1.85942 0
M  V30 7319 C 702.269 0.527225 -1.8056 0
M  V30 7320 O 701.627 1.37408 -1.18274 0
M  V30 7321 C 701.675 -1.41056 -3.31867 0
M  V30 7322 O 700.779 -0.595496 -4.08078 0
M  V30 7323 H 700.12 -0.329297 -0.576593 0
M  V30 7324 H 702.65 -1.50829 -1.38245 0
M  V30 7325 H 702.66 -1.41398 -3.82715 0
M  V30 7326 H 701.335 -2.46335 -3.35099 0
M  V30 7327 H 699.912 -0.659911 -3.67014 0
M  V30 7328 N 702.098 1.27442 -0.927168 0
M  V30 7329 C 703.028 2.29256 -0.443188 0
M  V30 7330 C 704.009 1.62701 0.49624 0
M  V30 7331 O 705.194 1.90013 0.401105 0
M  V30 7332 C 702.324 3.45955 0.305366 0
M  V30 7333 C 701.278 4.24501 -0.546178 0
M  V30 7334 C 700.604 5.33671 0.331512 0
M  V30 7335 C 701.904 4.89921 -1.81037 0
M  V30 7336 H 703.598 2.69988 -1.29409 0
M  V30 7337 H 701.144 1.29792 -0.623705 0
M  V30 7338 H 703.097 4.1628 0.654885 0
M  V30 7339 H 701.821 3.04138 1.19029 0
M  V30 7340 H 700.48 3.55921 -0.878398 0
M  V30 7341 H 700.128 4.88096 1.21537 0
M  V30 7342 H 699.828 5.87131 -0.234746 0
M  V30 7343 H 701.352 6.0684 0.676614 0
M  V30 7344 H 702.766 5.52536 -1.52895 0
M  V30 7345 H 701.163 5.53436 -2.32009 0
M  V30 7346 H 702.233 4.13652 -2.53021 0
M  V30 7347 N 703.576 0.692616 1.41565 0
M  V30 7348 C 704.823 0.222335 2.01276 0
M  V30 7349 C 705.151 -1.17706 1.5484 0
M  V30 7350 O 704.406 -1.80795 0.749118 0
M  V30 7351 C 704.705 0.225073 3.56691 0
M  V30 7352 C 704.371 1.57158 4.22625 0
M  V30 7353 C 703.033 1.94022 4.40351 0
M  V30 7354 C 705.385 2.45758 4.59622 0
M  V30 7355 C 702.713 3.19076 4.92349 0
M  V30 7356 C 705.065 3.70141 5.13009 0
M  V30 7357 C 703.729 4.07152 5.28946 0
M  V30 7358 H 702.999 0.0813581 0.73652 0
M  V30 7359 H 705.646 0.891123 1.69503 0
M  V30 7360 H 703.951 -0.527259 3.88236 0
M  V30 7361 H 705.648 -0.156283 4.00695 0
M  V30 7362 H 702.238 1.27486 4.09201 0
M  V30 7363 H 706.422 2.18558 4.45585 0
M  V30 7364 H 701.678 3.4775 5.02872 0
M  V30 7365 H 705.852 4.38983 5.40617 0
M  V30 7366 H 703.479 5.04125 5.69001 0
M  V30 7367 N 705.054 -1.51416 0.437162 0
M  V30 7368 C 705.986 -2.255 -0.410171 0
M  V30 7369 C 706.999 -1.29511 -0.986444 0
M  V30 7370 O 708.188 -1.55266 -0.880614 0
M  V30 7371 C 705.288 -2.99511 -1.58575 0
M  V30 7372 C 704.461 -4.22595 -1.12839 0
M  V30 7373 C 703.52 -4.79187 -2.17407 0
M  V30 7374 O 702.546 -5.4103 -1.76849 0
M  V30 7375 N 703.748 -4.63204 -3.49889 0
M  V30 7376 H 706.513 -2.98856 0.224783 0
M  V30 7377 H 704.074 -1.59699 0.266041 0
M  V30 7378 H 706.066 -3.34258 -2.28152 0
M  V30 7379 H 704.636 -2.29167 -2.12606 0
M  V30 7380 H 703.856 -3.93344 -0.259695 0
M  V30 7381 H 705.144 -5.02468 -0.800196 0
M  V30 7382 H 704.542 -4.13945 -3.85573 0
M  V30 7383 H 703.099 -5.02313 -4.15361 0
M  V30 7384 N 706.532 -0.168513 -1.56696 0
M  V30 7385 C 707.442 0.775435 -2.21414 0
M  V30 7386 C 708.458 1.25529 -1.20492 0
M  V30 7387 O 709.634 1.30801 -1.53144 0
M  V30 7388 C 706.699 1.9886 -2.83999 0
M  V30 7389 C 705.76 1.5559 -4.00113 0
M  V30 7390 C 704.993 2.71124 -4.59704 0
M  V30 7391 O 705.216 3.87917 -4.18182 0
M  V30 7392 O 704.15 2.4536 -5.4962 0
M  V30 7393 H 707.976 0.254416 -3.02632 0
M  V30 7394 H 705.561 0.0595507 -1.49281 0
M  V30 7395 H 707.443 2.69816 -3.23693 0
M  V30 7396 H 706.118 2.49874 -2.05779 0
M  V30 7397 H 705.025 0.815924 -3.65094 0
M  V30 7398 H 706.358 1.09271 -4.79917 0
M  V30 7399 N 708.01 1.57248 0.105221 0
M  V30 7400 C 708.92 2.04653 1.14693 0
M  V30 7401 C 709.936 0.969488 1.44489 0
M  V30 7402 O 711.112 1.28196 1.55331 0
M  V30 7403 C 708.177 2.45297 2.45011 0
M  V30 7404 C 707.238 3.67148 2.22489 0
M  V30 7405 C 706.471 4.05844 3.46592 0
M  V30 7406 O 706.694 3.44736 4.54437 0
M  V30 7407 O 705.628 4.98862 3.36779 0
M  V30 7408 H 709.454 2.93663 0.774336 0
M  V30 7409 H 707.039 1.45998 0.31701 0
M  V30 7410 H 708.921 2.72112 3.21766 0
M  V30 7411 H 707.596 1.59429 2.81717 0
M  V30 7412 H 706.503 3.45463 1.43547 0
M  V30 7413 H 707.836 4.53764 1.9068 0
M  V30 7414 N 709.488 -0.375779 1.53054 0
M  V30 7415 C 710.736 -1.11727 1.68409 0
M  V30 7416 C 711.057 -1.90127 0.43323 0
M  V30 7417 O 710.327 -1.87945 -0.552595 0
M  V30 7418 H 708.907 -0.415451 0.620813 0
M  V30 7419 H 711.569 -0.424869 1.90213 0
M  V30 7420 H 710.665 -1.8128 2.54055 0
M  V30 7421 N 710.966 -1.44241 -0.634997 0
M  V30 7422 C 711.899 -1.45274 -1.75985 0
M  V30 7423 C 712.877 -0.312025 -1.59578 0
M  V30 7424 O 714.061 -0.508409 -1.81514 0
M  V30 7425 C 711.188 -1.28173 -3.13511 0
M  V30 7426 C 710.234 -2.45757 -3.48576 0
M  V30 7427 S 711.067 -4.08293 -3.46492 0
M  V30 7428 C 712.223 -3.93608 -4.86645 0
M  V30 7429 H 712.456 -2.40454 -1.74841 0
M  V30 7430 H 709.989 -1.31492 -0.809268 0
M  V30 7431 H 711.947 -1.18993 -3.92875 0
M  V30 7432 H 710.608 -0.34511 -3.12198 0
M  V30 7433 H 709.801 -2.29644 -4.48642 0
M  V30 7434 H 709.403 -2.51657 -2.76667 0
M  V30 7435 H 711.695 -3.57059 -5.75774 0
M  V30 7436 H 712.638 -4.9349 -5.07813 0
M  V30 7437 H 713.046 -3.25737 -4.61038 0
M  V30 7438 N 712.444 0.87505 -1.31075 0
M  V30 7439 C 713.374 1.99775 -1.20881 0
M  V30 7440 C 714.355 1.69822 -0.0971612 0
M  V30 7441 O 715.54 1.92158 -0.280895 0
M  V30 7442 C 712.67 3.35163 -0.910118 0
M  V30 7443 C 711.624 3.79406 -1.98078 0
M  V30 7444 C 710.95 5.12197 -1.53488 0
M  V30 7445 C 712.25 3.97061 -3.39323 0
M  V30 7446 H 713.944 2.08562 -2.14808 0
M  V30 7447 H 711.49 1.00207 -1.03415 0
M  V30 7448 H 713.443 4.13237 -0.825423 0
M  V30 7449 H 712.167 3.26536 0.064822 0
M  V30 7450 H 710.826 3.03568 -2.05528 0
M  V30 7451 H 710.474 5.00007 -0.547941 0
M  V30 7452 H 710.174 5.4277 -2.2511 0
M  V30 7453 H 711.698 5.92785 -1.46417 0
M  V30 7454 H 713.112 4.65545 -3.34576 0
M  V30 7455 H 711.509 4.39025 -4.09118 0
M  V30 7456 H 712.579 3.00601 -3.80483 0
M  V30 7457 N 713.922 1.13953 1.08869 0
M  V30 7458 C 715.147 0.928559 1.85452 0
M  V30 7459 C 715.572 -0.517642 1.80837 0
M  V30 7460 O 714.93 -1.36779 1.19001 0
M  V30 7461 C 714.978 1.42814 3.31114 0
M  V30 7462 O 714.082 0.617129 4.07756 0
M  V30 7463 H 713.423 0.33235 0.574839 0
M  V30 7464 H 715.953 1.5156 1.37443 0
M  V30 7465 H 715.963 1.43425 3.8196 0
M  V30 7466 H 714.638 2.48109 3.33788 0
M  V30 7467 H 713.215 0.679365 3.66659 0
M  V30 7468 N 715.4 -1.26948 0.933913 0
M  V30 7469 C 716.333 -2.24977 0.382169 0
M  V30 7470 C 717.311 -1.53893 -0.524949 0
M  V30 7471 O 718.495 -1.82699 -0.464048 0
M  V30 7472 C 715.622 -3.35676 -0.451615 0
M  V30 7473 C 714.668 -4.24686 0.392947 0
M  V30 7474 S 715.501 -5.03898 1.81237 0
M  V30 7475 C 716.657 -6.18078 0.986443 0
M  V30 7476 H 716.89 -2.71429 1.21299 0
M  V30 7477 H 714.423 -1.35701 0.736523 0
M  V30 7478 H 716.381 -3.99901 -0.926797 0
M  V30 7479 H 715.042 -2.8785 -1.25703 0
M  V30 7480 H 714.235 -5.03402 -0.245533 0
M  V30 7481 H 713.837 -3.65288 0.802537 0
M  V30 7482 H 716.129 -6.77125 0.225321 0
M  V30 7483 H 717.072 -6.86216 1.74682 0
M  V30 7484 H 717.48 -5.62047 0.525711 0
M  V30 7485 N 716.879 -0.700114 -1.41195 0
M  V30 7486 C 718.125 -0.233351 -2.01453 0
M  V30 7487 C 718.458 1.16548 -1.55339 0
M  V30 7488 O 717.733 1.78756 -0.766575 0
M  V30 7489 C 718.016 -0.2961 -3.58881 0
M  V30 7490 C 717.869 -1.7322 -4.15108 0
M  V30 7491 C 719.188 0.341525 -4.38773 0
M  V30 7492 H 716.307 -0.0862667 -0.731934 0
M  V30 7493 H 718.949 -0.889693 -1.67882 0
M  V30 7494 H 717.099 0.262736 -3.87611 0
M  V30 7495 H 718.771 -2.34523 -3.97236 0
M  V30 7496 H 717.014 -2.2649 -3.69979 0
M  V30 7497 H 717.685 -1.7276 -5.24269 0
M  V30 7498 H 720.161 -0.134461 -4.15883 0
M  V30 7499 H 719.037 0.267098 -5.4825 0
M  V30 7500 H 719.298 1.42289 -4.18577 0
M  V30 7501 N 718.357 1.51182 -0.445186 0
M  V30 7502 C 719.287 2.30821 0.352686 0
M  V30 7503 C 720.268 1.36576 1.01395 0
M  V30 7504 O 721.453 1.65497 1.01609 0
M  V30 7505 C 718.583 3.15593 1.44976 0
M  V30 7506 C 717.537 4.1818 0.911553 0
M  V30 7507 C 716.863 4.91523 2.10497 0
M  V30 7508 C 718.163 5.22266 -0.059418 0
M  V30 7509 H 719.857 2.97771 -0.311936 0
M  V30 7510 H 717.403 1.43201 -0.151461 0
M  V30 7511 H 719.356 3.70091 2.01521 0
M  V30 7512 H 718.08 2.4648 2.14278 0
M  V30 7513 H 716.739 3.64746 0.368264 0
M  V30 7514 H 716.387 4.18906 2.78437 0
M  V30 7515 H 716.087 5.60898 1.7512 0
M  V30 7516 H 717.611 5.48847 2.6758 0
M  V30 7517 H 719.025 5.71789 0.415985 0
M  V30 7518 H 717.422 5.99213 -0.326152 0
M  V30 7519 H 718.492 4.7461 -0.993631 0
M  V30 7520 N 719.835 0.176821 1.56605 0
M  V30 7521 C 720.783 -0.768159 2.1955 0
M  V30 7522 C 721.777 -1.23343 1.16116 0
M  V30 7523 O 722.983 -1.19844 1.34303 0
M  V30 7524 H 719.358 -0.266013 0.703378 0
M  V30 7525 H 721.329 -0.213374 2.97636 0
M  V30 7526 C 720.078 -1.98492 2.85475 0
M  V30 7527 H 719.401 -1.63595 3.64797 0
M  V30 7528 H 720.841 -2.62489 3.3298 0
M  V30 7529 C 719.3 -2.81207 1.85538 0
M  V30 7530 O 719.83 -3.7854 1.34427 0
M  V30 7531 N 718.036 -2.46331 1.54173 0
M  V30 7532 H 717.583 -1.67241 1.95929 0
M  V30 7533 H 717.541 -3.01961 0.875595 0
M  V30 7534 N 721.313 -1.57302 -0.09688 0
M  V30 7535 C 722.553 -1.87823 -0.806334 0
M  V30 7536 C 722.917 -0.767593 -1.75989 0
M  V30 7537 O 724.118 -0.955173 -2.51257 0
M  V30 7538 C 722.389 -3.23585 -1.51749 0
M  V30 7539 S 723.948 -3.75795 -2.26547 0
M  V30 7540 H 720.766 -0.658281 -0.268676 0
M  V30 7541 H 723.368 -1.95397 -0.0635476 0
M  V30 7542 H 722.072 -4.0234 -0.809348 0
M  V30 7543 H 721.603 -3.19145 -2.30021 0
M  V30 7544 H 723.618 -3.49068 -3.52656 0
M  V30 7545 N 722.791 0.367657 -1.53252 0
M  V30 7546 C 724.04 1.10782 -1.68554 0
M  V30 7547 C 724.353 1.90523 -0.442765 0
M  V30 7548 O 725.559 2.6729 -0.47629 0
M  V30 7549 C 724.015 2.01863 -2.97959 0
M  V30 7550 C 723.623 1.27443 -4.29491 0
M  V30 7551 C 725.367 2.75883 -3.22628 0
M  V30 7552 C 723.274 2.17414 -5.49987 0
M  V30 7553 H 722.204 0.417272 -0.628013 0
M  V30 7554 H 724.855 0.368971 -1.79752 0
M  V30 7555 H 723.237 2.7947 -2.80558 0
M  V30 7556 H 724.411 0.549138 -4.57516 0
M  V30 7557 H 722.726 0.652935 -4.11249 0
M  V30 7558 H 725.323 3.43421 -4.09837 0
M  V30 7559 H 725.666 3.41138 -2.38601 0
M  V30 7560 H 726.199 2.0536 -3.40693 0
M  V30 7561 H 722.938 1.5674 -6.36485 0
M  V30 7562 H 722.458 2.87799 -5.26243 0
M  V30 7563 H 724.137 2.77019 -5.84696 0
M  V30 7564 N 724.269 1.44576 0.627338 0
M  V30 7565 C 725.546 1.38033 1.38586 0
M  V30 7566 C 725.926 0.0409468 2.1106 0
M  V30 7567 O 725.274 -0.976582 2.0658 0
M  V30 7568 C 725.484 2.58102 2.34913 0
M  V30 7569 C 726.832 3.02332 2.98129 0
M  V30 7570 O 727.856 2.58334 2.45238 0
M  V30 7571 O 726.715 3.78628 3.94085 0
M  V30 7572 H 723.809 0.546801 0.620434 0
M  V30 7573 H 726.355 1.56672 0.652077 0
M  V30 7574 H 725.127 3.4719 1.80485 0
M  V30 7575 H 724.75 2.41696 3.15703 0
M  V30 7576 N 725.747 -0.868086 1.31537 0
M  V30 7577 C 727.163 -1.15414 1.10235 0
M  V30 7578 C 727.363 -2.01106 -0.125947 0
M  V30 7579 O 726.419 -2.38994 -0.814734 0
M  V30 7580 C 727.732 -1.84445 2.37488 0
M  V30 7581 C 729.28 -1.97139 2.43116 0
M  V30 7582 C 729.755 -2.69585 3.70254 0
M  V30 7583 N 731.246 -2.77119 3.71159 0
M  V30 7584 C 731.981 -3.33791 4.6623 0
M  V30 7585 N 731.477 -3.9138 5.71659 0
M  V30 7586 N 733.27 -3.31767 4.53747 0
M  V30 7587 H 725.421 -0.297109 2.10312 0
M  V30 7588 H 727.684 -0.194227 0.92789 0
M  V30 7589 H 727.39 -1.2893 3.27215 0
M  V30 7590 H 727.264 -2.84709 2.47428 0
M  V30 7591 H 729.651 -2.51818 1.53856 0
M  V30 7592 H 729.732 -0.95912 2.37138 0
M  V30 7593 H 729.376 -2.15572 4.59881 0
M  V30 7594 H 729.306 -3.71223 3.73499 0
M  V30 7595 H 731.797 -2.3625 2.94948 0
M  V30 7596 H 732.11 -4.3274 6.40278 0
M  V30 7597 H 730.455 -3.8975 5.7543 0
M  V30 7598 H 733.646 -2.86016 3.70557 0
M  V30 7599 H 733.819 -3.75636 5.28017 0
M  V30 7600 N 727.225 -1.14528 -1.08264 0
M  V30 7601 C 728.155 -0.856356 -2.1723 0
M  V30 7602 C 729.136 0.189251 -1.69044 0
M  V30 7603 O 730.321 0.0456119 -1.94146 0
M  V30 7604 C 727.451 -0.334662 -3.45684 0
M  V30 7605 C 726.405 -1.31588 -4.0727 0
M  V30 7606 C 725.731 -0.653428 -5.30692 0
M  V30 7607 C 727.031 -2.67866 -4.48381 0
M  V30 7608 H 728.725 -1.76755 -2.41657 0
M  V30 7609 H 726.271 -0.851287 -1.16143 0
M  V30 7610 H 728.224 -0.120128 -4.21229 0
M  V30 7611 H 726.948 0.611967 -3.20815 0
M  V30 7612 H 725.607 -1.51661 -3.33758 0
M  V30 7613 H 725.255 0.299054 -5.0211 0
M  V30 7614 H 724.955 -1.30817 -5.72853 0
M  V30 7615 H 726.479 -0.448453 -6.08951 0
M  V30 7616 H 727.893 -2.51692 -5.15096 0
M  V30 7617 H 726.29 -3.29627 -5.01464 0
M  V30 7618 H 727.36 -3.24632 -3.60198 0
M  V30 7619 N 728.703 1.26451 -0.940633 0
M  V30 7620 C 729.651 2.28389 -0.440581 0
M  V30 7621 C 730.645 1.62402 0.481859 0
M  V30 7622 O 731.851 1.76361 0.360132 0
M  V30 7623 H 728.226 0.741716 -0.123938 0
M  V30 7624 H 730.197 2.67967 -1.31288 0
M  V30 7625 C 728.946 3.46576 0.279364 0
M  V30 7626 H 728.269 3.97574 -0.421274 0
M  V30 7627 H 729.709 4.19826 0.59348 0
M  V30 7628 C 728.168 3.01815 1.49697 0
M  V30 7629 O 728.698 3.06607 2.59529 0
M  V30 7630 N 726.904 2.57163 1.35334 0
M  V30 7631 H 726.451 2.53464 0.459743 0
M  V30 7632 H 726.409 2.27578 2.16923 0
M  V30 7633 N 730.181 0.707592 1.40822 0
M  V30 7634 C 731.427 0.244031 2.01326 0
M  V30 7635 C 731.76 -1.15722 1.55955 0
M  V30 7636 O 731.035 -1.78347 0.776044 0
M  V30 7637 C 731.318 0.315128 3.58718 0
M  V30 7638 C 731.171 1.75419 4.14184 0
M  V30 7639 C 732.49 -0.318251 4.38948 0
M  V30 7640 H 729.609 0.0901471 0.731466 0
M  V30 7641 H 732.251 0.898584 1.67408 0
M  V30 7642 H 730.401 -0.242176 3.87744 0
M  V30 7643 H 732.073 2.36626 3.95987 0
M  V30 7644 H 730.316 2.28449 3.68773 0
M  V30 7645 H 730.987 1.75538 5.23345 0
M  V30 7646 H 733.463 0.156514 4.15806 0
M  V30 7647 H 732.339 -0.238019 5.48384 0
M  V30 7648 H 732.6 -1.40067 4.19325 0
M  V30 7649 N 731.66 -1.50943 0.453197 0
M  V30 7650 C 732.89 -2.06328 -0.105981 0
M  V30 7651 C 733.298 -1.31909 -1.35634 0
M  V30 7652 O 732.641 -0.376607 -1.79798 0
M  V30 7653 C 732.703 -3.5631 -0.477868 0
M  V30 7654 C 732.367 -4.52093 0.667925 0
M  V30 7655 C 733.364 -4.96421 1.54475 0
M  V30 7656 C 731.049 -4.95001 0.853168 0
M  V30 7657 C 733.043 -5.82346 2.59138 0
M  V30 7658 C 730.73 -5.80713 1.90305 0
M  V30 7659 C 731.728 -6.24284 2.77053 0
M  V30 7660 O 731.416 -7.08291 3.80236 0
M  V30 7661 H 731.148 -0.675986 -0.00427247 0
M  V30 7662 H 733.702 -1.95314 0.635738 0
M  V30 7663 H 731.932 -3.65163 -1.27252 0
M  V30 7664 H 733.621 -3.94138 -0.970039 0
M  V30 7665 H 734.387 -4.63953 1.41324 0
M  V30 7666 H 730.266 -4.60619 0.187482 0
M  V30 7667 H 733.81 -6.16276 3.2688 0
M  V30 7668 H 729.707 -6.12593 2.03469 0
M  V30 7669 H 730.475 -7.26504 3.77007 0
M  V30 7670 N 733.138 -0.185124 -1.56509 0
M  V30 7671 C 734.366 0.462139 -2.01673 0
M  V30 7672 C 734.781 1.55873 -1.06532 0
M  V30 7673 O 734.138 1.82371 -0.0684805 0
M  V30 7674 C 734.189 1.0277 -3.46584 0
M  V30 7675 O 733.91 -0.0251296 -4.38093 0
M  V30 7676 C 735.411 1.75183 -4.07217 0
M  V30 7677 H 732.631 0.117001 -0.660721 0
M  V30 7678 H 735.175 -0.290905 -2.0242 0
M  V30 7679 H 733.33 1.73118 -3.46568 0
M  V30 7680 H 733.744 0.394387 -5.23015 0
M  V30 7681 H 735.218 2.09999 -5.10494 0
M  V30 7682 H 735.695 2.6519 -3.50101 0
M  V30 7683 H 736.301 1.09445 -4.10977 0
M  V30 7684 N 734.616 1.57351 0.0885366 0
M  V30 7685 C 735.844 1.90631 0.804196 0
M  V30 7686 C 736.259 0.779474 1.71958 0
M  V30 7687 O 735.616 -0.248179 1.80805 0
M  V30 7688 C 735.667 3.23568 1.61202 0
M  V30 7689 O 735.388 4.31917 0.733447 0
M  V30 7690 C 736.889 3.70753 2.43016 0
M  V30 7691 H 734.109 0.630501 0.229585 0
M  V30 7692 H 736.653 2.044 0.0638092 0
M  V30 7693 H 734.808 3.11377 2.30485 0
M  V30 7694 H 735.222 5.08297 1.29361 0
M  V30 7695 H 736.696 4.66447 2.9518 0
M  V30 7696 H 737.173 2.98922 3.2178 0
M  V30 7697 H 737.779 3.85834 1.7892 0
M  V30 7698 N 736.094 -0.359525 1.53444 0
M  V30 7699 C 737.057 -1.42357 1.7963 0
M  V30 7700 C 738.057 -1.46319 0.666884 0
M  V30 7701 O 739.247 -1.46974 0.935113 0
M  V30 7702 C 736.379 -2.81425 1.92387 0
M  V30 7703 H 737.572 -1.20409 2.74666 0
M  V30 7704 H 735.125 -0.593007 1.44614 0
M  V30 7705 H 735.86 -3.08679 0.994384 0
M  V30 7706 H 735.645 -2.79947 2.74539 0
M  V30 7707 H 737.135 -3.5847 2.14218 0
M  V30 7708 N 737.572 -1.44907 -0.619662 0
M  V30 7709 C 738.535 -1.52282 -1.71297 0
M  V30 7710 C 739.535 -0.40359 -1.55653 0
M  V30 7711 O 740.725 -0.666638 -1.6094 0
M  V30 7712 C 737.857 -1.40778 -3.10474 0
M  V30 7713 H 739.05 -2.49683 -1.66128 0
M  V30 7714 H 736.603 -1.32168 -0.834339 0
M  V30 7715 H 737.338 -0.445156 -3.2123 0
M  V30 7716 H 737.123 -2.21947 -3.23237 0
M  V30 7717 H 738.613 -1.48946 -3.90135 0
M  V30 7718 N 739.05 0.861098 -1.31996 0
M  V30 7719 C 740 1.95703 -1.1698 0
M  V30 7720 C 740.984 1.60709 -0.0784201 0
M  V30 7721 O 742.176 1.74365 -0.304262 0
M  V30 7722 C 739.305 3.31606 -0.888388 0
M  V30 7723 C 738.391 3.7284 -2.02117 0
M  V30 7724 N 738.782 3.85957 -3.26911 0
M  V30 7725 C 737.08 4.02419 -1.92289 0
M  V30 7726 C 737.781 4.21333 -4.01065 0
M  V30 7727 N 736.757 4.32502 -3.29307 0
M  V30 7728 H 740.559 2.03968 -2.11599 0
M  V30 7729 H 738.073 1.05245 -1.23682 0
M  V30 7730 H 740.07 4.09881 -0.761782 0
M  V30 7731 H 738.73 3.24662 0.0494898 0
M  V30 7732 H 739.741 3.70449 -3.61923 0
M  V30 7733 H 736.418 4.03814 -1.06022 0
M  V30 7734 H 737.808 4.39005 -5.08649 0
M  V30 7735 N 740.528 1.15101 1.07655 0
M  V30 7736 C 741.775 0.923974 1.80191 0
M  V30 7737 C 742.103 -0.549065 1.86589 0
M  V30 7738 O 741.358 -1.42307 1.3434 0
M  V30 7739 C 741.657 1.47954 3.25337 0
M  V30 7740 C 741.323 2.97253 3.39044 0
M  V30 7741 C 739.985 3.38012 3.42493 0
M  V30 7742 C 742.337 3.93219 3.42094 0
M  V30 7743 C 739.665 4.73384 3.4659 0
M  V30 7744 C 742.017 5.28458 3.47728 0
M  V30 7745 C 740.681 5.68717 3.49453 0
M  V30 7746 H 739.951 0.338106 0.659367 0
M  V30 7747 H 742.598 1.43594 1.26701 0
M  V30 7748 H 740.903 0.888691 3.81588 0
M  V30 7749 H 742.6 1.27972 3.80032 0
M  V30 7750 H 739.19 2.64746 3.37057 0
M  V30 7751 H 743.374 3.62805 3.38654 0
M  V30 7752 H 738.63 5.03925 3.46222 0
M  V30 7753 H 742.804 6.02618 3.49034 0
M  V30 7754 H 740.431 6.73596 3.5238 0
M  V30 7755 N 742.006 -1.2595 0.947325 0
M  V30 7756 C 742.969 -2.24407 0.466285 0
M  V30 7757 C 743.969 -1.55054 -0.426005 0
M  V30 7758 O 745.159 -1.7275 -0.224319 0
M  V30 7759 C 742.291 -3.39326 -0.327201 0
M  V30 7760 H 743.484 -2.68477 1.33642 0
M  V30 7761 H 741.037 -1.38211 0.729887 0
M  V30 7762 H 741.772 -3.00667 -1.21532 0
M  V30 7763 H 741.557 -3.9085 0.312839 0
M  V30 7764 H 743.047 -4.12455 -0.653477 0
M  V30 7765 N 743.484 -0.715051 -1.40445 0
M  V30 7766 C 744.394 -0.0631624 -2.34515 0
M  V30 7767 C 745.41 0.744397 -1.57273 0
M  V30 7768 O 746.586 0.677475 -1.89663 0
M  V30 7769 C 743.651 0.847915 -3.36172 0
M  V30 7770 C 742.712 0.0303655 -4.29289 0
M  V30 7771 C 741.945 0.898051 -5.2609 0
M  V30 7772 O 742.168 2.13729 -5.28844 0
M  V30 7773 O 741.102 0.337328 -6.00954 0
M  V30 7774 H 744.928 -0.839078 -2.91879 0
M  V30 7775 H 742.513 -0.475527 -1.4163 0
M  V30 7776 H 744.395 1.3698 -3.98515 0
M  V30 7777 H 743.07 1.60299 -2.81222 0
M  V30 7778 H 741.977 -0.536573 -3.70232 0
M  V30 7779 H 743.31 -0.686474 -4.87389 0
M  V30 7780 N 744.962 1.50701 -0.461195 0
M  V30 7781 C 746.209 2.02267 0.0971971 0
M  V30 7782 C 746.537 1.34387 1.40608 0
M  V30 7783 O 745.792 0.455254 1.90331 0
M  V30 7784 C 746.091 3.55788 0.33908 0
M  V30 7785 C 745.757 4.42092 -0.886885 0
M  V30 7786 C 744.419 4.65398 -1.22304 0
M  V30 7787 C 746.771 4.92571 -1.70361 0
M  V30 7788 C 744.099 5.36429 -2.37616 0
M  V30 7789 C 746.451 5.64868 -2.84793 0
M  V30 7790 C 745.115 5.86431 -3.18834 0
M  V30 7791 H 744.385 0.740146 0.0355669 0
M  V30 7792 H 747.032 1.81415 -0.61326 0
M  V30 7793 H 745.337 3.751 1.13168 0
M  V30 7794 H 747.034 3.93243 0.784937 0
M  V30 7795 H 743.624 4.24165 -0.614981 0
M  V30 7796 H 747.808 4.74428 -1.4571 0
M  V30 7797 H 743.064 5.51333 -2.64276 0
M  V30 7798 H 747.238 6.02966 -3.48432 0
M  V30 7799 H 744.865 6.41248 -4.08296 0
M  V30 7800 N 746.441 0.193421 1.56409 0
M  V30 7801 C 747.404 -0.714371 2.17783 0
M  V30 7802 C 748.404 -1.1422 1.13183 0
M  V30 7803 O 749.594 -1.05557 1.38576 0
M  V30 7804 C 746.726 -1.97509 2.77855 0
M  V30 7805 H 747.919 -0.179714 2.99361 0
M  V30 7806 H 745.472 -0.0561944 1.56199 0
M  V30 7807 H 746.207 -2.5523 2.0007 0
M  V30 7808 H 745.992 -1.67706 3.54425 0
M  V30 7809 H 747.482 -2.62246 3.24987 0
M  V30 7810 N 747.919 -1.57396 -0.0801906 0
M  V30 7811 C 749.167 -1.86467 -0.779384 0
M  V30 7812 C 749.488 -0.784243 -1.78535 0
M  V30 7813 O 748.758 0.187986 -1.94996 0
M  V30 7814 H 747.338 -0.68806 -0.29083 0
M  V30 7815 H 750 -1.94813 -0.0582749 0
M  V30 7816 H 749.096 -2.83701 -1.30078 0
M  V30 7817 N 749.397 0.351382 -1.53633 0
M  V30 7818 C 750.307 1.45471 -1.84052 0
M  V30 7819 C 751.323 1.57945 -0.730015 0
M  V30 7820 O 752.499 1.73571 -1.02153 0
M  V30 7821 C 749.564 2.80562 -2.03681 0
M  V30 7822 C 748.625 2.77497 -3.27558 0
M  V30 7823 C 747.858 4.06144 -3.46241 0
M  V30 7824 O 748.081 5.03028 -2.68922 0
M  V30 7825 O 747.015 4.11092 -4.39645 0
M  V30 7826 H 750.841 1.22684 -2.77817 0
M  V30 7827 H 748.426 0.542827 -1.3919 0
M  V30 7828 H 750.308 3.6058 -2.18082 0
M  V30 7829 H 748.983 3.03296 -1.13106 0
M  V30 7830 H 747.89 1.96126 -3.18568 0
M  V30 7831 H 749.223 2.59716 -4.18101 0
M  V30 7832 N 750.875 1.45233 0.611969 0
M  V30 7833 C 751.785 1.56098 1.7513 0
M  V30 7834 C 752.801 0.445646 1.68196 0
M  V30 7835 O 753.977 0.705718 1.88631 0
M  V30 7836 C 751.042 1.52052 3.11579 0
M  V30 7837 C 750.103 2.74589 3.29999 0
M  V30 7838 C 749.336 2.70726 4.59938 0
M  V30 7839 O 749.559 1.77806 5.41979 0
M  V30 7840 O 748.493 3.61864 4.80976 0
M  V30 7841 H 752.319 2.52392 1.68914 0
M  V30 7842 H 749.904 1.27695 0.775528 0
M  V30 7843 H 751.786 1.52387 3.92882 0
M  V30 7844 H 750.461 0.589085 3.18295 0
M  V30 7845 H 749.368 2.79817 2.48301 0
M  V30 7846 H 750.701 3.66843 3.28157 0
M  V30 7847 N 752.353 -0.854086 1.3245 0
M  V30 7848 C 753.316 -1.94427 1.21371 0
M  V30 7849 C 754.316 -1.60219 0.136613 0
M  V30 7850 O 755.506 -1.69846 0.387057 0
M  V30 7851 C 752.638 -3.29698 0.866701 0
M  V30 7852 H 753.831 -2.05679 2.18257 0
M  V30 7853 H 751.384 -1.04434 1.1629 0
M  V30 7854 H 752.119 -3.24145 -0.100319 0
M  V30 7855 H 751.904 -3.55903 1.64545 0
M  V30 7856 H 753.394 -4.09599 0.813515 0
M  V30 7857 N 753.831 -1.1567 -1.07043 0
M  V30 7858 C 754.794 -0.858906 -2.12498 0
M  V30 7859 C 755.794 0.142735 -1.60165 0
M  V30 7860 O 756.984 -0.0872678 -1.73981 0
M  V30 7861 C 754.116 -0.283021 -3.39723 0
M  V30 7862 H 755.309 -1.79368 -2.40348 0
M  V30 7863 H 752.862 -0.964608 -1.22984 0
M  V30 7864 H 753.597 0.659796 -3.17517 0
M  V30 7865 H 753.382 -1.00467 -3.7901 0
M  V30 7866 H 754.872 -0.0923543 -4.17498 0
M  V30 7867 N 755.309 1.25446 -0.953992 0
M  V30 7868 C 756.219 2.29632 -0.480264 0
M  V30 7869 C 757.235 1.68025 0.452071 0
M  V30 7870 O 758.411 1.98703 0.328472 0
M  V30 7871 C 755.476 3.45903 0.234974 0
M  V30 7872 C 754.537 4.22953 -0.735495 0
M  V30 7873 C 753.77 5.33672 -0.0542957 0
M  V30 7874 O 753.993 5.58477 1.16018 0
M  V30 7875 O 752.927 5.9734 -0.739509 0
M  V30 7876 H 756.753 2.72242 -1.34602 0
M  V30 7877 H 754.338 1.30883 -0.720419 0
M  V30 7878 H 756.22 4.16552 0.637341 0
M  V30 7879 H 754.895 3.05296 1.07592 0
M  V30 7880 H 753.802 3.54734 -1.18806 0
M  V30 7881 H 755.135 4.67341 -1.54444 0
M  V30 7882 N 756.787 0.722489 1.40064 0
M  V30 7883 C 758.012 0.273446 2.05589 0
M  V30 7884 C 758.437 -1.07875 1.54093 0
M  V30 7885 O 757.795 -1.68095 0.679252 0
M  V30 7886 C 757.843 0.271023 3.5958 0
M  V30 7887 O 756.947 -0.745499 4.05606 0
M  V30 7888 H 756.288 0.126856 0.65177 0
M  V30 7889 H 758.818 0.984906 1.79334 0
M  V30 7890 H 758.828 0.111084 4.07849 0
M  V30 7891 H 757.503 1.25776 3.96425 0
M  V30 7892 H 756.08 -0.552719 3.68781 0
M  V30 7893 N 758.265 -1.50454 0.469181 0
M  V30 7894 C 759.511 -2.03248 -0.0787241 0
M  V30 7895 C 759.866 -1.34499 -1.37578 0
M  V30 7896 O 759.159 -0.461173 -1.85967 0
M  V30 7897 C 759.353 -3.55963 -0.320207 0
M  V30 7898 C 759.182 -4.3951 0.951893 0
M  V30 7899 C 757.952 -4.82689 1.49465 0
M  V30 7900 C 760.15 -4.79999 1.84677 0
M  V30 7901 N 758.132 -5.50553 2.71597 0
M  V30 7902 C 759.503 -5.47254 2.91398 0
M  V30 7903 C 761.558 -4.61959 1.85738 0
M  V30 7904 C 760.261 -5.98381 3.99166 0
M  V30 7905 C 762.287 -5.14024 2.92461 0
M  V30 7906 C 761.649 -5.81253 3.97901 0
M  V30 7907 H 757.748 -0.78192 0.0111715 0
M  V30 7908 H 760.332 -1.83986 0.636961 0
M  V30 7909 H 758.503 -3.75174 -1.00493 0
M  V30 7910 H 760.235 -3.95407 -0.862285 0
M  V30 7911 H 756.99 -4.61948 1.0441 0
M  V30 7912 H 757.414 -5.89093 3.33615 0
M  V30 7913 H 762.056 -4.09416 1.05539 0
M  V30 7914 H 759.774 -6.49961 4.80183 0
M  V30 7915 H 763.36 -5.01897 2.94263 0
M  V30 7916 H 762.24 -6.20814 4.79123 0
M  V30 7917 N 759.743 -0.201713 -1.56304 0
M  V30 7918 C 760.69 0.716499 -2.19397 0
M  V30 7919 C 761.66 1.20494 -1.14326 0
M  V30 7920 O 762.845 1.26763 -1.42604 0
M  V30 7921 C 759.985 1.92762 -2.86246 0
M  V30 7922 C 759.098 1.47993 -4.0586 0
M  V30 7923 C 758.233 2.64706 -4.60547 0
M  V30 7924 C 757.272 2.16576 -5.72504 0
M  V30 7925 N 756.409 3.26491 -6.21569 0
M  V30 7926 H 761.249 0.171724 -2.97505 0
M  V30 7927 H 758.786 0.073016 -1.46919 0
M  V30 7928 H 760.744 2.6384 -3.23178 0
M  V30 7929 H 759.374 2.44559 -2.10691 0
M  V30 7930 H 758.426 0.66477 -3.74546 0
M  V30 7931 H 759.738 1.08686 -4.86815 0
M  V30 7932 H 758.892 3.43898 -4.99819 0
M  V30 7933 H 757.631 3.0729 -3.78713 0
M  V30 7934 H 756.636 1.3584 -5.32755 0
M  V30 7935 H 757.861 1.75015 -6.56161 0
M  V30 7936 H 755.807 3.68594 -5.42655 0
M  V30 7937 H 755.724 2.91374 -6.97594 0
M  V30 7938 H 756.992 4.05877 -6.65495 0
M  V30 7939 N 761.222 1.57436 0.0718424 0
M  V30 7940 C 762.132 2.07039 1.10326 0
M  V30 7941 C 763.148 0.999918 1.424 0
M  V30 7942 O 764.324 1.31462 1.52577 0
M  V30 7943 C 761.389 2.50439 2.39752 0
M  V30 7944 C 760.45 3.71784 2.14651 0
M  V30 7945 C 759.683 4.13104 3.37906 0
M  V30 7946 O 759.906 3.54298 4.47023 0
M  V30 7947 O 758.84 5.05894 3.26121 0
M  V30 7948 H 762.666 2.95239 0.711872 0
M  V30 7949 H 760.251 1.46638 0.28597 0
M  V30 7950 H 762.133 2.78876 3.15921 0
M  V30 7951 H 760.808 1.65368 2.78271 0
M  V30 7952 H 759.715 3.48431 1.36187 0
M  V30 7953 H 761.048 4.57707 1.81012 0
M  V30 7954 N 762.7 -0.34323 1.53817 0
M  V30 7955 C 763.949 -1.08086 1.70295 0
M  V30 7956 C 764.262 -1.89794 0.47302 0
M  V30 7957 O 765.468 -2.66498 0.518754 0
M  V30 7958 C 763.924 -1.97097 3.01133 0
M  V30 7959 C 763.532 -1.20594 4.31464 0
M  V30 7960 C 765.276 -2.70715 3.26976 0
M  V30 7961 C 763.183 -2.08636 5.53376 0
M  V30 7962 H 762.113 -0.407228 0.634572 0
M  V30 7963 H 764.764 -0.340328 1.80316 0
M  V30 7964 H 763.146 -2.74971 2.84969 0
M  V30 7965 H 764.32 -0.476282 4.58332 0
M  V30 7966 H 762.635 -0.587426 4.12236 0
M  V30 7967 H 765.232 -3.36857 4.15248 0
M  V30 7968 H 765.575 -3.37299 2.43998 0
M  V30 7969 H 766.108 -1.99914 3.43917 0
M  V30 7970 H 762.847 -1.46594 6.38898 0
M  V30 7971 H 762.367 -2.7939 5.30755 0
M  V30 7972 H 764.046 -2.67682 5.89029 0
M  V30 7973 N 764.178 -1.45556 -0.604258 0
M  V30 7974 C 765.424 -1.49968 -1.36519 0
M  V30 7975 C 765.757 -0.142236 -1.93678 0
M  V30 7976 O 765.032 0.843717 -1.75247 0
M  V30 7977 C 765.315 -2.58146 -2.51063 0
M  V30 7978 C 765.168 -4.03346 -1.99078 0
M  V30 7979 C 766.487 -2.62581 -3.53184 0
M  V30 7980 H 763.606 -0.545993 -0.495036 0
M  V30 7981 H 766.248 -1.77382 -0.680845 0
M  V30 7982 H 764.398 -2.34901 -3.09441 0
M  V30 7983 H 766.07 -4.37811 -1.45323 0
M  V30 7984 H 764.313 -4.13845 -1.30055 0
M  V30 7985 H 764.984 -4.74731 -2.81664 0
M  V30 7986 H 767.46 -2.83419 -3.04652 0
M  V30 7987 H 766.336 -3.40131 -4.30816 0
M  V30 7988 H 766.597 -1.67798 -4.09019 0
M  V30 7989 N 765.656 0.84705 -1.32902 0
M  V30 7990 C 766.604 1.97765 -1.22441 0
M  V30 7991 C 767.598 1.68919 -0.127546 0
M  V30 7992 O 768.804 1.77633 -0.290973 0
M  V30 7993 H 765.179 0.649072 -0.379748 0
M  V30 7994 H 767.15 2.03713 -2.18044 0
M  V30 7995 C 765.899 3.33834 -0.972125 0
M  V30 7996 H 765.222 3.56564 -1.80837 0
M  V30 7997 H 766.662 4.13467 -0.939209 0
M  V30 7998 C 765.121 3.35328 0.325059 0
M  V30 7999 O 765.651 3.78887 1.33445 0
M  V30 8000 N 763.857 2.88488 0.349718 0
M  V30 8001 H 763.404 2.53234 -0.472236 0
M  V30 8002 H 763.362 2.8987 1.21748 0
M  V30 8003 N 767.134 1.16236 1.06428 0
M  V30 8004 C 768.064 0.890807 2.1584 0
M  V30 8005 C 769.045 -0.162333 1.69324 0
M  V30 8006 O 770.23 -0.0147191 1.94194 0
M  V30 8007 C 767.36 0.389615 3.45108 0
M  V30 8008 C 766.314 1.38051 4.05125 0
M  V30 8009 C 765.64 0.737773 5.29586 0
M  V30 8010 C 766.94 2.74965 4.44062 0
M  V30 8011 H 768.634 1.80577 2.38814 0
M  V30 8012 H 766.18 0.869657 1.14774 0
M  V30 8013 H 768.133 0.187127 4.20984 0
M  V30 8014 H 766.857 -0.560851 3.21748 0
M  V30 8015 H 765.516 1.56952 3.31303 0
M  V30 8016 H 765.164 -0.219135 5.02522 0
M  V30 8017 H 764.864 1.39914 5.70699 0
M  V30 8018 H 766.388 0.545275 6.0816 0
M  V30 8019 H 767.802 2.59855 5.11027 0
M  V30 8020 H 766.199 3.37563 4.96156 0
M  V30 8021 H 767.269 3.30321 3.54987 0
M  V30 8022 N 768.612 -1.24939 0.960631 0
M  V30 8023 C 769.542 -2.28 0.503815 0
M  V30 8024 C 770.523 -1.63959 -0.452928 0
M  V30 8025 O 771.708 -1.91009 -0.350585 0
M  V30 8026 C 768.838 -3.46643 -0.213535 0
M  V30 8027 C 767.792 -4.22903 0.658535 0
M  V30 8028 C 767.118 -5.34363 -0.189902 0
M  V30 8029 C 768.418 -4.84949 1.93963 0
M  V30 8030 H 770.112 -2.66462 1.36521 0
M  V30 8031 H 767.658 -1.28093 0.657897 0
M  V30 8032 H 769.611 -4.1787 -0.544286 0
M  V30 8033 H 768.335 -3.07187 -1.10923 0
M  V30 8034 H 766.994 -3.53467 0.972455 0
M  V30 8035 H 766.642 -4.91147 -1.08553 0
M  V30 8036 H 766.342 -5.86302 0.390331 0
M  V30 8037 H 767.866 -6.0842 -0.515484 0
M  V30 8038 H 769.28 -5.48288 1.67491 0
M  V30 8039 H 767.677 -5.47091 2.46601 0
M  V30 8040 H 768.747 -4.06799 2.639 0
M  V30 8041 N 770.09 -0.729906 -1.39679 0
M  V30 8042 C 771.32 -0.285295 -2.04621 0
M  V30 8043 C 771.728 1.08304 -1.55135 0
M  V30 8044 O 771.071 1.6946 -0.709146 0
M  V30 8045 C 771.133 -0.203129 -3.58926 0
M  V30 8046 C 770.797 -1.50909 -4.31365 0
M  V30 8047 C 771.794 -2.45381 -4.58349 0
M  V30 8048 C 769.479 -1.77198 -4.70007 0
M  V30 8049 C 771.473 -3.64379 -5.22979 0
M  V30 8050 C 769.16 -2.96474 -5.34365 0
M  V30 8051 C 770.158 -3.89886 -5.60783 0
M  V30 8052 O 769.846 -5.07069 -6.23808 0
M  V30 8053 H 769.578 -0.123373 -0.664647 0
M  V30 8054 H 772.132 -0.992901 -1.79807 0
M  V30 8055 H 770.362 0.560538 -3.82616 0
M  V30 8056 H 772.051 0.208811 -4.05363 0
M  V30 8057 H 772.817 -2.2634 -4.28947 0
M  V30 8058 H 768.696 -1.05337 -4.48804 0
M  V30 8059 H 772.24 -4.37307 -5.43515 0
M  V30 8060 H 768.137 -3.15419 -5.63188 0
M  V30 8061 H 768.905 -5.07335 -6.42303 0
M  V30 8062 N 771.568 1.50203 -0.477153 0
M  V30 8063 C 772.478 2.32421 0.319027 0
M  V30 8064 C 773.494 1.43075 0.990233 0
M  V30 8065 O 774.67 1.76123 0.976873 0
M  V30 8066 C 771.735 3.17909 1.38328 0
M  V30 8067 C 770.796 4.23082 0.728036 0
M  V30 8068 C 770.029 5.04484 1.74158 0
M  V30 8069 O 770.252 4.8705 2.96881 0
M  V30 8070 O 769.186 5.8747 1.31006 0
M  V30 8071 H 773.012 3.01638 -0.353281 0
M  V30 8072 H 770.597 1.47478 -0.238891 0
M  V30 8073 H 772.479 3.70937 1.9996 0
M  V30 8074 H 771.154 2.51413 2.03895 0
M  V30 8075 H 770.061 3.7403 0.07261 0
M  V30 8076 H 771.394 4.92065 0.115216 0
M  V30 8077 N 773.046 0.209999 1.56195 0
M  V30 8078 C 773.976 -0.699746 2.22769 0
M  V30 8079 C 774.957 -1.20993 1.1956 0
M  V30 8080 O 776.142 -1.25605 1.48112 0
M  V30 8081 C 773.272 -1.91302 2.89863 0
M  V30 8082 C 772.226 -1.53715 3.99444 0
M  V30 8083 C 771.552 -2.82826 4.53777 0
M  V30 8084 C 772.852 -0.735836 5.17091 0
M  V30 8085 H 774.546 -0.144716 2.9905 0
M  V30 8086 H 772.092 -0.0681645 1.43839 0
M  V30 8087 H 774.045 -2.5548 3.35124 0
M  V30 8088 H 772.769 -2.49283 2.11011 0
M  V30 8089 H 771.428 -0.918892 3.54897 0
M  V30 8090 H 771.076 -3.38927 3.71669 0
M  V30 8091 H 770.776 -2.58415 5.27727 0
M  V30 8092 H 772.3 -3.47966 5.01749 0
M  V30 8093 H 773.714 -1.28105 5.58804 0
M  V30 8094 H 772.111 -0.589272 5.972 0
M  V30 8095 H 773.181 0.260004 4.84202 0
M  V30 8096 N 774.524 -1.57472 -0.0634922 0
M  V30 8097 C 775.454 -2.07297 -1.07473 0
M  V30 8098 C 776.435 -0.968162 -1.39859 0
M  V30 8099 O 777.62 -1.24139 -1.49343 0
M  V30 8100 C 774.75 -2.52381 -2.38581 0
M  V30 8101 C 773.704 -3.66813 -2.20526 0
M  V30 8102 C 773.03 -3.97982 -3.57092 0
M  V30 8103 C 774.33 -4.96553 -1.61965 0
M  V30 8104 H 776.024 -2.92033 -0.660092 0
M  V30 8105 H 773.57 -1.40488 -0.316074 0
M  V30 8106 H 775.523 -2.85852 -3.09624 0
M  V30 8107 H 774.247 -1.64684 -2.8204 0
M  V30 8108 H 772.906 -3.33639 -1.51924 0
M  V30 8109 H 772.554 -3.07403 -3.98136 0
M  V30 8110 H 772.254 -4.7504 -3.45848 0
M  V30 8111 H 773.778 -4.33956 -4.29552 0
M  V30 8112 H 775.192 -5.28201 -2.22883 0
M  V30 8113 H 773.589 -5.7799 -1.61394 0
M  V30 8114 H 774.659 -4.81396 -0.581918 0
M  V30 8115 N 776.003 0.335068 -1.53997 0
M  V30 8116 C 776.966 1.39481 -1.81872 0
M  V30 8117 C 777.966 1.4524 -0.690078 0
M  V30 8118 O 779.156 1.45467 -0.958377 0
M  V30 8119 C 776.288 2.78329 -1.9684 0
M  V30 8120 H 777.481 1.16024 -2.76547 0
M  V30 8121 H 775.034 0.569926 -1.45539 0
M  V30 8122 H 775.769 3.07058 -1.04337 0
M  V30 8123 H 775.554 2.75544 -2.78958 0
M  V30 8124 H 777.044 3.55016 -2.19894 0
M  V30 8125 N 777.481 1.45874 0.596531 0
M  V30 8126 C 778.706 1.54247 1.38646 0
M  V30 8127 C 779.131 0.179571 1.87241 0
M  V30 8128 O 778.489 -0.837831 1.6078 0
M  V30 8129 C 778.537 2.54015 2.55946 0
M  V30 8130 O 777.641 2.06561 3.5694 0
M  V30 8131 H 776.982 0.519555 0.413471 0
M  V30 8132 H 779.512 1.91327 0.724936 0
M  V30 8133 H 779.522 2.73179 3.03047 0
M  V30 8134 H 778.197 3.52994 2.19928 0
M  V30 8135 H 776.774 1.97324 3.16414 0
M  V30 8136 N 778.959 -0.83999 1.33349 0
M  V30 8137 C 779.889 -1.965 1.26135 0
M  V30 8138 C 780.87 -1.69505 0.142152 0
M  V30 8139 O 782.055 -1.91346 0.331743 0
M  V30 8140 C 779.185 -3.32632 0.99866 0
M  V30 8141 C 778.139 -3.74021 2.08068 0
M  V30 8142 C 777.465 -5.07947 1.67014 0
M  V30 8143 C 778.765 -3.87925 3.49731 0
M  V30 8144 H 780.459 -2.02793 2.20262 0
M  V30 8145 H 778.005 -0.974297 1.06035 0
M  V30 8146 H 779.958 -4.10903 0.934696 0
M  V30 8147 H 778.682 -3.26593 0.0217759 0
M  V30 8148 H 777.341 -2.98012 2.13505 0
M  V30 8149 H 776.989 -4.98378 0.680316 0
M  V30 8150 H 776.689 -5.36611 2.39422 0
M  V30 8151 H 778.213 -5.88695 1.62082 0
M  V30 8152 H 779.627 -4.5651 3.46802 0
M  V30 8153 H 778.024 -4.28023 4.20614 0
M  V30 8154 H 779.094 -2.90407 3.88319 0
M  V30 8155 N 780.437 -1.16799 -1.0581 0
M  V30 8156 C 781.686 -0.94698 -1.78088 0
M  V30 8157 C 781.999 0.526016 -1.88394 0
M  V30 8158 O 783.205 0.865061 -2.5735 0
M  V30 8159 C 781.661 -1.64508 -3.20102 0
M  V30 8160 C 781.269 -3.15618 -3.17946 0
M  V30 8161 C 783.013 -1.50622 -3.96879 0
M  V30 8162 C 780.92 -3.78144 -4.5471 0
M  V30 8163 H 779.85 -0.35067 -0.667493 0
M  V30 8164 H 782.501 -1.39985 -1.18645 0
M  V30 8165 H 780.883 -1.11993 -3.79834 0
M  V30 8166 H 782.057 -3.75016 -2.67768 0
M  V30 8167 H 780.372 -3.29444 -2.54667 0
M  V30 8168 H 782.969 -1.94713 -4.97987 0
M  V30 8169 H 783.312 -0.455864 -4.13797 0
M  V30 8170 H 783.845 -2.00319 -3.43682 0
M  V30 8171 H 780.584 -4.83149 -4.42998 0
M  V30 8172 H 780.104 -3.23532 -5.05062 0
M  V30 8173 H 781.783 -3.79986 -5.2366 0
M  V30 8174 N 781.915 1.24427 -0.967243 0
M  V30 8175 C 783.331 1.44684 -0.6737 0
M  V30 8176 C 783.531 1.86429 0.764625 0
M  V30 8177 O 782.587 2.00211 1.53857 0
M  V30 8178 C 783.9 2.509 -1.6574 0
M  V30 8179 C 785.448 2.64728 -1.66998 0
M  V30 8180 C 785.923 3.7414 -2.64165 0
M  V30 8181 N 787.414 3.81567 -2.62604 0
M  V30 8182 C 788.149 4.6575 -3.34462 0
M  V30 8183 N 787.645 5.54124 -4.15835 0
M  V30 8184 N 789.438 4.59827 -3.23288 0
M  V30 8185 H 781.589 0.956276 -1.89655 0
M  V30 8186 H 783.852 0.48171 -0.816492 0
M  V30 8187 H 783.558 2.27113 -2.68538 0
M  V30 8188 H 783.432 3.4905 -1.42981 0
M  V30 8189 H 785.819 2.87872 -0.649121 0
M  V30 8190 H 785.9 1.66936 -1.93819 0
M  V30 8191 H 785.544 3.51745 -3.66384 0
M  V30 8192 H 785.474 4.71444 -2.34623 0
M  V30 8193 H 787.965 3.18403 -2.03539 0
M  V30 8194 H 788.278 6.15316 -4.67553 0
M  V30 8195 H 786.623 5.53791 -4.19929 0
M  V30 8196 H 789.814 3.898 -2.59179 0
M  V30 8197 H 789.987 5.25208 -3.79553 0
M  V30 8198 N 783.393 0.737304 1.3929 0
M  V30 8199 C 784.641 0.285691 2.00071 0
M  V30 8200 C 784.962 -1.13169 1.58801 0
M  V30 8201 O 784.232 -1.77104 0.837308 0
M  V30 8202 H 782.812 0.102638 0.739915 0
M  V30 8203 H 785.474 0.947775 1.70303 0
M  V30 8204 H 784.57 0.335906 3.10287 0
M  V30 8205 N 784.871 -1.49948 0.485112 0
M  V30 8206 C 785.819 -2.30449 -0.315609 0
M  V30 8207 C 786.813 -1.38351 -0.977516 0
M  V30 8208 O 788.019 -1.55477 -0.907019 0
M  V30 8209 H 784.394 -0.742262 -0.120629 0
M  V30 8210 H 786.365 -2.95925 0.383552 0
M  V30 8211 C 785.114 -3.19283 -1.37673 0
M  V30 8212 H 784.437 -3.90067 -0.876801 0
M  V30 8213 H 785.877 -3.78579 -1.90929 0
M  V30 8214 C 784.336 -2.37817 -2.38631 0
M  V30 8215 O 784.866 -2.0711 -3.44192 0
M  V30 8216 N 783.072 -2.00135 -2.107 0
M  V30 8217 H 782.619 -2.25307 -1.24878 0
M  V30 8218 H 782.577 -1.45933 -2.7848 0
M  V30 8219 N 786.349 -0.21828 -1.56081 0
M  V30 8220 C 787.765 0.137168 -1.59009 0
M  V30 8221 C 787.965 1.59215 -1.23503 0
M  V30 8222 O 787.021 2.33178 -0.968716 0
M  V30 8223 C 788.334 -0.186162 -3.00123 0
M  V30 8224 C 789.882 -0.128135 -3.12738 0
M  V30 8225 C 790.357 -0.425094 -4.56023 0
M  V30 8226 N 791.848 -0.374547 -4.61683 0
M  V30 8227 C 792.583 -0.57786 -5.70481 0
M  V30 8228 N 792.079 -0.842771 -6.87655 0
M  V30 8229 N 793.872 -0.510521 -5.59777 0
M  V30 8230 H 786.023 -1.16746 -1.77437 0
M  V30 8231 H 788.286 -0.467706 -0.824594 0
M  V30 8232 H 787.992 -1.19589 -3.30744 0
M  V30 8233 H 787.866 0.500388 -3.73866 0
M  V30 8234 H 790.253 0.872224 -2.81915 0
M  V30 8235 H 790.334 -0.848112 -2.41331 0
M  V30 8236 H 789.978 -1.42288 -4.87562 0
M  V30 8237 H 789.908 0.316038 -5.25651 0
M  V30 8238 H 792.399 -0.177356 -3.77484 0
M  V30 8239 H 792.712 -0.986095 -7.66483 0
M  V30 8240 H 791.057 -0.879929 -6.89407 0
M  V30 8241 H 794.248 -0.303813 -4.67113 0
M  V30 8242 H 794.421 -0.672378 -6.44502 0
M  V30 8243 N 787.827 1.57504 0.0551401 0
M  V30 8244 C 789.052 1.92682 0.767352 0
M  V30 8245 C 789.477 0.81614 1.69472 0
M  V30 8246 O 788.835 -0.229989 1.79835 0
M  V30 8247 C 788.883 3.26866 1.52286 0
M  V30 8248 O 787.987 3.17274 2.63459 0
M  V30 8249 H 787.328 0.630502 0.208238 0
M  V30 8250 H 789.858 2.04592 0.0184026 0
M  V30 8251 H 789.868 3.61138 1.8985 0
M  V30 8252 H 788.543 4.07276 0.842541 0
M  V30 8253 H 787.12 2.94589 2.2863 0
M  V30 8254 N 789.305 -0.326896 1.54172 0
M  V30 8255 C 790.253 -1.42232 1.84046 0
M  V30 8256 C 791.247 -1.53705 0.712115 0
M  V30 8257 O 792.453 -1.56131 0.895724 0
M  V30 8258 H 788.828 -0.474568 0.583343 0
M  V30 8259 H 790.799 -1.14259 2.75658 0
M  V30 8260 C 789.548 -2.78502 2.08163 0
M  V30 8261 H 788.871 -2.70447 2.94446 0
M  V30 8262 H 790.311 -3.54228 2.33021 0
M  V30 8263 C 788.77 -3.25415 0.872152 0
M  V30 8264 O 789.3 -4.01621 0.0797648 0
M  V30 8265 N 787.506 -2.82418 0.684716 0
M  V30 8266 H 787.053 -2.20566 1.33072 0
M  V30 8267 H 787.011 -3.14159 -0.123031 0
M  V30 8268 N 790.784 -1.46188 -0.588786 0
M  V30 8269 C 792.024 -1.52738 -1.35833 0
M  V30 8270 C 792.388 -0.172403 -1.91224 0
M  V30 8271 O 793.589 -0.112633 -2.68564 0
M  V30 8272 C 791.86 -2.59085 -2.4619 0
M  V30 8273 S 793.419 -2.84997 -3.3365 0
M  V30 8274 H 790.237 -0.539713 -0.462851 0
M  V30 8275 H 792.839 -1.83386 -0.677489 0
M  V30 8276 H 791.543 -3.56177 -2.03878 0
M  V30 8277 H 791.074 -2.3015 -3.19053 0
M  V30 8278 H 793.089 -2.19804 -4.4486 0
M  V30 8279 N 792.262 0.832906 -1.33792 0
M  V30 8280 C 793.225 1.92471 -1.24449 0
M  V30 8281 C 794.225 1.59981 -0.162085 0
M  V30 8282 O 795.415 1.69208 -0.414029 0
M  V30 8283 C 792.547 3.28278 -0.919044 0
M  V30 8284 H 793.74 2.0218 -2.21502 0
M  V30 8285 H 791.293 1.0257 -1.17936 0
M  V30 8286 H 792.028 3.24263 0.048738 0
M  V30 8287 H 791.813 3.53241 -1.70187 0
M  V30 8288 H 793.303 4.08253 -0.878576 0
M  V30 8289 N 793.74 1.17359 1.05189 0
M  V30 8290 C 794.67 0.91365 2.14883 0
M  V30 8291 C 795.651 -0.144365 1.69486 0
M  V30 8292 O 796.836 0.00587861 1.94199 0
M  V30 8293 C 793.966 0.426196 3.44675 0
M  V30 8294 C 792.92 1.4234 4.03638 0
M  V30 8295 C 792.246 0.793902 5.28773 0
M  V30 8296 C 793.546 2.7966 4.41121 0
M  V30 8297 H 795.24 1.831 2.36885 0
M  V30 8298 H 792.786 0.881781 1.13845 0
M  V30 8299 H 794.739 0.231767 4.20762 0
M  V30 8300 H 793.463 -0.526693 3.22325 0
M  V30 8301 H 792.122 1.60457 3.2962 0
M  V30 8302 H 791.77 -0.165824 5.02727 0
M  V30 8303 H 791.47 1.45959 5.69183 0
M  V30 8304 H 792.994 0.609747 6.07548 0
M  V30 8305 H 794.408 2.6526 5.08242 0
M  V30 8306 H 792.805 3.42807 4.92548 0
M  V30 8307 H 793.875 3.34068 3.51464 0
M  V30 8308 N 795.218 -1.23913 0.973828 0
M  V30 8309 C 796.465 -1.92151 0.639079 0
M  V30 8310 C 796.793 -1.76064 -0.826545 0
M  V30 8311 O 796.048 -1.11126 -1.61088 0
M  V30 8312 C 796.347 -3.4406 0.967356 0
M  V30 8313 C 796.013 -3.80321 2.42212 0
M  V30 8314 C 794.675 -3.8993 2.81971 0
M  V30 8315 C 797.027 -3.97935 3.36596 0
M  V30 8316 C 794.355 -4.14575 4.15144 0
M  V30 8317 C 796.707 -4.24079 4.69404 0
M  V30 8318 C 795.371 -4.31908 5.08932 0
M  V30 8319 H 794.641 -0.70313 0.233856 0
M  V30 8320 H 797.288 -1.47072 1.22646 0
M  V30 8321 H 795.593 -3.90667 0.297807 0
M  V30 8322 H 797.29 -3.95077 0.686654 0
M  V30 8323 H 793.88 -3.73411 2.10385 0
M  V30 8324 H 798.064 -3.89908 3.07059 0
M  V30 8325 H 793.32 -4.18858 4.45385 0
M  V30 8326 H 797.494 -4.36652 5.42502 0
M  V30 8327 H 795.121 -4.50758 6.12145 0
M  V30 8328 N 796.696 -0.74468 -1.38897 0
M  V30 8329 C 797.921 -0.306119 -2.05128 0
M  V30 8330 C 798.346 1.0541 -1.55789 0
M  V30 8331 O 797.704 1.66993 -0.705909 0
M  V30 8332 C 797.752 -0.328195 -3.59103 0
M  V30 8333 O 796.856 0.680876 -4.06741 0
M  V30 8334 H 796.197 -0.137209 -0.649669 0
M  V30 8335 H 798.727 -1.01331 -1.77745 0
M  V30 8336 H 798.737 -0.175956 -4.0762 0
M  V30 8337 H 797.412 -1.32067 -3.94374 0
M  V30 8338 H 795.989 0.49398 -3.69614 0
M  V30 8339 N 798.174 1.49689 -0.493057 0
M  V30 8340 C 799.402 2.06836 0.0513141 0
M  V30 8341 C 799.817 1.35436 1.31539 0
M  V30 8342 O 799.174 0.430248 1.77356 0
M  V30 8343 C 799.225 3.60107 0.317003 0
M  V30 8344 O 798.946 4.2882 -0.896957 0
M  V30 8345 C 800.447 4.33945 0.905902 0
M  V30 8346 H 797.667 0.670787 -0.0169048 0
M  V30 8347 H 800.211 1.92574 -0.688139 0
M  V30 8348 H 798.366 3.74099 1.00642 0
M  V30 8349 H 798.78 5.20395 -0.654939 0
M  V30 8350 H 800.254 5.42087 1.04144 0
M  V30 8351 H 800.731 3.95895 1.90168 0
M  V30 8352 H 801.337 4.2454 0.254195 0
M  V30 8353 N 799.652 0.226554 1.55963 0
M  V30 8354 C 800.6 -0.697922 2.21882 0
M  V30 8355 C 801.594 -1.19586 1.19981 0
M  V30 8356 O 802.8 -1.15511 1.38048 0
M  V30 8357 H 799.175 -0.243501 0.711485 0
M  V30 8358 H 801.146 -0.118576 2.98164 0
M  V30 8359 C 799.895 -1.89309 2.91646 0
M  V30 8360 H 799.218 -1.51906 3.69817 0
M  V30 8361 H 800.658 -2.51762 3.41162 0
M  V30 8362 C 799.117 -2.75162 1.94391 0
M  V30 8363 O 799.647 -3.74071 1.46402 0
M  V30 8364 N 797.853 -2.41302 1.61932 0
M  V30 8365 H 797.4 -1.60923 2.01151 0
M  V30 8366 H 797.358 -2.99023 0.971219 0
M  V30 8367 N 801.13 -1.57531 -0.0467866 0
M  V30 8368 C 802.06 -2.08425 -1.05268 0
M  V30 8369 C 803.041 -0.982941 -1.38825 0
M  V30 8370 O 804.226 -1.25716 -1.48018 0
M  V30 8371 C 801.356 -2.54897 -2.35891 0
M  V30 8372 C 800.31 -3.69132 -2.16623 0
M  V30 8373 C 799.636 -4.01747 -3.52851 0
M  V30 8374 C 800.936 -4.98243 -1.56689 0
M  V30 8375 H 802.63 -2.92716 -0.62908 0
M  V30 8376 H 800.176 -1.40816 -0.301156 0
M  V30 8377 H 802.129 -2.8912 -3.06574 0
M  V30 8378 H 800.853 -1.67666 -2.80278 0
M  V30 8379 H 799.512 -3.35231 -1.48377 0
M  V30 8380 H 799.16 -3.11608 -3.94853 0
M  V30 8381 H 798.86 -4.78681 -3.4079 0
M  V30 8382 H 800.384 -4.38487 -4.24925 0
M  V30 8383 H 801.798 -5.30535 -2.17268 0
M  V30 8384 H 800.195 -5.79669 -1.55255 0
M  V30 8385 H 801.265 -4.81986 -0.530827 0
M  V30 8386 N 802.608 0.318715 -1.54344 0
M  V30 8387 C 803.885 1.07461 -1.63437 0
M  V30 8388 C 804.265 2.05771 -0.47131 0
M  V30 8389 O 803.613 2.22175 0.53391 0
M  V30 8390 C 803.823 1.77224 -3.00654 0
M  V30 8391 C 805.171 2.30069 -3.56866 0
M  V30 8392 O 806.195 1.87284 -3.0299 0
M  V30 8393 O 805.054 3.08412 -4.51159 0
M  V30 8394 H 802.148 0.495627 -0.66203 0
M  V30 8395 H 804.694 0.318218 -1.6669 0
M  V30 8396 H 803.466 1.05742 -3.76742 0
M  V30 8397 H 803.089 2.59662 -3.01101 0
M  V30 8398 N 804.086 1.46499 0.581025 0
M  V30 8399 C 805.332 1.53108 1.33901 0
M  V30 8400 C 805.687 0.181007 1.91547 0
M  V30 8401 O 804.98 -0.810518 1.73612 0
M  V30 8402 C 805.174 2.56686 2.48691 0
M  V30 8403 C 805.003 4.01633 2.0229 0
M  V30 8404 C 803.773 4.69333 1.87228 0
M  V30 8405 C 805.971 4.89379 1.58154 0
M  V30 8406 N 803.953 5.98891 1.34917 0
M  V30 8407 C 805.324 6.08775 1.17445 0
M  V30 8408 C 807.379 4.76017 1.45987 0
M  V30 8409 C 806.082 7.16286 0.657805 0
M  V30 8410 C 808.108 5.83601 0.95726 0
M  V30 8411 C 807.47 7.02171 0.55996 0
M  V30 8412 H 803.569 0.61509 0.482896 0
M  V30 8413 H 806.153 1.83123 0.661361 0
M  V30 8414 H 804.324 2.28578 3.14017 0
M  V30 8415 H 806.056 2.5328 3.15644 0
M  V30 8416 H 802.811 4.24878 2.09226 0
M  V30 8417 H 803.235 6.67852 1.10917 0
M  V30 8418 H 807.877 3.84736 1.75322 0
M  V30 8419 H 805.595 8.07333 0.352047 0
M  V30 8420 H 809.181 5.75304 0.867007 0
M  V30 8421 H 808.061 7.84 0.177046 0
M  V30 8422 N 805.565 -0.825799 1.34232 0
M  V30 8423 C 806.495 -1.95151 1.28212 0
M  V30 8424 C 807.476 -1.69345 0.160123 0
M  V30 8425 O 808.661 -1.90983 0.352019 0
M  V30 8426 C 805.791 -3.31554 1.03388 0
M  V30 8427 C 804.745 -3.71793 2.12023 0
M  V30 8428 C 804.071 -5.06147 1.72392 0
M  V30 8429 C 805.371 -3.84193 3.53826 0
M  V30 8430 H 807.065 -2.00445 2.22401 0
M  V30 8431 H 804.611 -0.962996 1.07063 0
M  V30 8432 H 806.564 -4.09889 0.978225 0
M  V30 8433 H 805.288 -3.26551 0.0564142 0
M  V30 8434 H 803.947 -2.95731 2.16654 0
M  V30 8435 H 803.595 -4.97628 0.733137 0
M  V30 8436 H 803.295 -5.34041 2.451 0
M  V30 8437 H 804.819 -5.86943 1.68317 0
M  V30 8438 H 806.233 -4.52806 3.51624 0
M  V30 8439 H 804.63 -4.23538 4.2513 0
M  V30 8440 H 805.7 -2.86272 3.91377 0
M  V30 8441 N 807.043 -1.17915 -1.04565 0
M  V30 8442 C 808.289 -0.972863 -1.77942 0
M  V30 8443 C 808.622 0.496753 -1.87739 0
M  V30 8444 O 807.897 1.3688 -1.38181 0
M  V30 8445 C 808.18 -1.62227 -3.21488 0
M  V30 8446 C 808.033 -3.16441 -3.19664 0
M  V30 8447 C 809.352 -1.33137 -4.19479 0
M  V30 8448 H 806.471 -0.354843 -0.645953 0
M  V30 8449 H 809.113 -1.45508 -1.22178 0
M  V30 8450 H 807.263 -1.21224 -3.69103 0
M  V30 8451 H 808.935 -3.66544 -2.80077 0
M  V30 8452 H 807.178 -3.48863 -2.57832 0
M  V30 8453 H 807.849 -3.57012 -4.21006 0
M  V30 8454 H 810.325 -1.68654 -3.80388 0
M  V30 8455 H 809.201 -1.81151 -5.18146 0
M  V30 8456 H 809.462 -0.253319 -4.41374 0
M  V30 8457 N 808.521 1.23394 -0.980386 0
M  V30 8458 C 809.746 1.96384 -0.666935 0
M  V30 8459 C 810.171 1.72087 0.759456 0
M  V30 8460 O 809.529 0.992328 1.51732 0
M  V30 8461 C 809.577 3.47499 -0.963177 0
M  V30 8462 O 808.681 4.12363 -0.0552051 0
M  V30 8463 H 808.022 0.614797 -0.250839 0
M  V30 8464 H 810.552 1.56831 -1.31398 0
M  V30 8465 H 810.562 3.97953 -0.899877 0
M  V30 8466 H 809.237 3.6451 -2.00264 0
M  V30 8467 H 807.814 3.72499 -0.172914 0
M  V30 8468 N 809.999 0.752036 1.385 0
M  V30 8469 C 810.946 0.123288 2.3047 0
M  V30 8470 C 811.916 -0.711326 1.50098 0
M  V30 8471 O 813.101 -0.667775 1.78733 0
M  V30 8472 C 810.241 -0.765085 3.36512 0
M  V30 8473 C 809.354 0.0839885 4.31918 0
M  V30 8474 C 808.489 -0.807243 5.25031 0
M  V30 8475 C 807.528 0.0455583 6.12083 0
M  V30 8476 N 806.665 -0.802547 6.97498 0
M  V30 8477 H 811.505 0.913169 2.83664 0
M  V30 8478 H 809.042 0.46195 1.39658 0
M  V30 8479 H 811 -1.29476 3.966 0
M  V30 8480 H 809.63 -1.52077 2.84732 0
M  V30 8481 H 808.682 0.731276 3.73305 0
M  V30 8482 H 809.994 0.74265 4.9324 0
M  V30 8483 H 809.148 -1.40414 5.90228 0
M  V30 8484 H 807.887 -1.49964 4.64071 0
M  V30 8485 H 806.892 0.655137 5.45883 0
M  V30 8486 H 808.117 0.734994 6.75111 0
M  V30 8487 H 806.063 -1.47992 6.39089 0
M  V30 8488 H 805.98 -0.200747 7.55733 0
M  V30 8489 H 807.248 -1.38447 7.67107 0
M  V30 8490 N 811.477 -1.49425 0.500989 0
M  V30 8491 C 812.407 -2.31971 -0.266775 0
M  V30 8492 C 813.388 -1.40245 -0.962563 0
M  V30 8493 O 814.573 -1.69154 -0.953968 0
M  V30 8494 C 811.703 -3.20757 -1.33163 0
M  V30 8495 C 810.657 -4.21275 -0.75572 0
M  V30 8496 C 809.983 -4.98997 -1.92109 0
M  V30 8497 C 811.283 -5.21686 0.253213 0
M  V30 8498 H 812.977 -2.96408 0.422237 0
M  V30 8499 H 810.523 -1.4254 0.204505 0
M  V30 8500 H 812.476 -3.77315 -1.87646 0
M  V30 8501 H 811.2 -2.54263 -2.04983 0
M  V30 8502 H 809.859 -3.65861 -0.232637 0
M  V30 8503 H 809.507 -4.28951 -2.62698 0
M  V30 8504 H 809.207 -5.67011 -1.54182 0
M  V30 8505 H 810.731 -5.584 -2.47026 0
M  V30 8506 H 812.145 -5.72939 -0.203483 0
M  V30 8507 H 810.542 -5.9759 0.548322 0
M  V30 8508 H 811.612 -4.70596 1.16909 0
M  V30 8509 N 812.955 -0.234822 -1.55841 0
M  V30 8510 C 814.232 0.442961 -1.90518 0
M  V30 8511 C 814.612 1.76768 -1.15397 0
M  V30 8512 O 813.96 2.26928 -0.267534 0
M  V30 8513 C 814.17 0.622905 -3.43396 0
M  V30 8514 C 815.518 0.9243 -4.14417 0
M  V30 8515 O 816.542 0.709211 -3.49068 0
M  V30 8516 O 815.401 1.33323 -5.29988 0
M  V30 8517 H 812.495 0.236042 -0.792599 0
M  V30 8518 H 815.041 -0.277992 -1.67408 0
M  V30 8519 H 813.813 -0.310973 -3.90062 0
M  V30 8520 H 813.436 1.39485 -3.7233 0
M  V30 8521 N 814.433 1.57553 0.0384317 0
M  V30 8522 C 815.849 1.54663 0.39391 0
M  V30 8523 C 816.049 0.959685 1.77179 0
M  V30 8524 O 815.105 0.576647 2.45827 0
M  V30 8525 C 816.418 2.99156 0.304352 0
M  V30 8526 C 817.966 3.10659 0.382119 0
M  V30 8527 C 818.441 4.56866 0.322111 0
M  V30 8528 N 819.932 4.61629 0.38119 0
M  V30 8529 C 820.667 5.72284 0.357501 0
M  V30 8530 N 820.163 6.92207 0.286654 0
M  V30 8531 N 821.956 5.60628 0.406538 0
M  V30 8532 H 814.107 1.9406 -0.86339 0
M  V30 8533 H 816.37 0.889673 -0.327392 0
M  V30 8534 H 816.076 3.45788 -0.642141 0
M  V30 8535 H 815.95 3.60753 1.10168 0
M  V30 8536 H 818.337 2.6398 1.31904 0
M  V30 8537 H 818.418 2.5191 -0.444391 0
M  V30 8538 H 818.062 5.0421 -0.611104 0
M  V30 8539 H 817.992 5.13515 1.1666 0
M  V30 8540 H 820.483 3.75343 0.438838 0
M  V30 8541 H 820.796 7.72316 0.273421 0
M  V30 8542 H 819.141 6.9454 0.252841 0
M  V30 8543 H 822.332 4.65836 0.459812 0
M  V30 8544 H 822.505 6.46858 0.384608 0
M  V30 8545 N 815.911 -0.310526 1.54511 0
M  V30 8546 C 816.841 -1.38757 1.878 0
M  V30 8547 C 817.822 -1.53353 0.735991 0
M  V30 8548 O 819.007 -1.67018 0.990887 0
M  V30 8549 C 816.137 -2.75327 2.11689 0
M  V30 8550 C 815.091 -2.75506 3.27537 0
M  V30 8551 C 814.417 -4.15275 3.36824 0
M  V30 8552 C 815.717 -2.38093 4.64875 0
M  V30 8553 H 817.411 -1.11146 2.78005 0
M  V30 8554 H 814.957 -0.533232 1.33763 0
M  V30 8555 H 816.91 -3.50752 2.33562 0
M  V30 8556 H 815.634 -3.04443 1.18245 0
M  V30 8557 H 814.293 -2.02538 3.05572 0
M  V30 8558 H 813.941 -4.41553 2.40915 0
M  V30 8559 H 813.641 -4.16299 4.14692 0
M  V30 8560 H 815.165 -4.92493 3.60947 0
M  V30 8561 H 816.579 -3.03232 4.86542 0
M  V30 8562 H 814.976 -2.50345 5.45387 0
M  V30 8563 H 816.046 -1.33227 4.66239 0
M  V30 8564 N 817.389 -1.46805 -0.573248 0
M  V30 8565 C 818.299 -1.60687 -1.70929 0
M  V30 8566 C 819.315 -0.490084 -1.66956 0
M  V30 8567 O 820.491 -0.755482 -1.86693 0
M  V30 8568 C 817.556 -1.60259 -3.07438 0
M  V30 8569 C 816.617 -2.83242 -3.22603 0
M  V30 8570 C 815.85 -2.82825 -4.52599 0
M  V30 8571 O 816.073 -1.92113 -5.37074 0
M  V30 8572 O 815.007 -3.74489 -4.71213 0
M  V30 8573 H 818.833 -2.56782 -1.62163 0
M  V30 8574 H 816.418 -1.29706 -0.741399 0
M  V30 8575 H 818.3 -1.6275 -3.88704 0
M  V30 8576 H 816.975 -0.673268 -3.16621 0
M  V30 8577 H 815.882 -2.86302 -2.40794 0
M  V30 8578 H 817.215 -3.75415 -3.18315 0
M  V30 8579 N 818.867 0.818669 -1.34668 0
M  V30 8580 C 819.83 1.9114 -1.26483 0
M  V30 8581 C 820.83 1.598 -0.179044 0
M  V30 8582 O 822.02 1.6876 -0.431952 0
M  V30 8583 C 819.152 3.27285 -0.95381 0
M  V30 8584 H 820.345 1.9982 -2.23634 0
M  V30 8585 H 817.898 1.01314 -1.19018 0
M  V30 8586 H 818.633 3.24297 0.0143428 0
M  V30 8587 H 818.418 3.51416 -1.73924 0
M  V30 8588 H 819.908 4.07299 -0.921827 0
M  V30 8589 N 820.346 1.18468 1.03938 0
M  V30 8590 C 821.571 1.00638 1.81347 0
M  V30 8591 C 821.996 -0.440477 1.8287 0
M  V30 8592 O 821.354 -1.31609 1.24695 0
M  V30 8593 C 821.402 1.5673 3.24759 0
M  V30 8594 O 820.506 0.789517 4.04772 0
M  V30 8595 H 819.847 0.356432 0.560225 0
M  V30 8596 H 822.377 1.57253 1.30891 0
M  V30 8597 H 822.387 1.59496 3.75533 0
M  V30 8598 H 821.062 2.62043 3.22965 0
M  V30 8599 H 819.639 0.834267 3.63448 0
M  V30 8600 N 821.824 -1.22873 0.986916 0
M  V30 8601 C 823.049 -1.96028 0.677341 0
M  V30 8602 C 823.474 -1.72487 -0.750319 0
M  V30 8603 O 822.832 -1.00036 -1.51203 0
M  V30 8604 C 822.88 -3.46983 0.981593 0
M  V30 8605 O 821.984 -4.12328 0.0770729 0
M  V30 8606 H 821.325 -0.613458 0.254096 0
M  V30 8607 H 823.855 -1.56132 1.32227 0
M  V30 8608 H 823.865 -3.9747 0.920969 0
M  V30 8609 H 822.54 -3.63442 2.02194 0
M  V30 8610 H 821.117 -3.72402 0.192666 0
M  V30 8611 N 823.302 -0.75937 -1.38099 0
M  V30 8612 C 824.55 -0.317485 -1.99591 0
M  V30 8613 C 824.871 1.10628 -1.60581 0
M  V30 8614 O 824.141 1.7575 -0.865378 0
M  V30 8615 H 822.721 -0.114397 -0.738189 0
M  V30 8616 H 825.383 -0.974749 -1.68774 0
M  V30 8617 H 824.479 -0.385227 -3.09713 0
M  V30 8618 N 824.78 1.49157 -0.508906 0
M  V30 8619 C 826.029 2.0167 0.0346854 0
M  V30 8620 C 826.342 1.39302 1.37311 0
M  V30 8621 O 827.548 1.83189 2.00385 0
M  V30 8622 C 826.004 3.59725 0.112261 0
M  V30 8623 C 825.612 4.31069 -1.21999 0
M  V30 8624 C 827.356 4.20155 0.605798 0
M  V30 8625 C 825.263 5.81001 -1.10415 0
M  V30 8626 H 824.193 0.753814 0.0167355 0
M  V30 8627 H 826.844 1.7162 -0.649518 0
M  V30 8628 H 825.226 3.86525 0.861087 0
M  V30 8629 H 826.4 4.15962 -1.98273 0
M  V30 8630 H 824.715 3.82418 -1.64759 0
M  V30 8631 H 827.312 5.29964 0.710102 0
M  V30 8632 H 827.655 3.84051 1.60656 0
M  V30 8633 H 828.188 3.97705 -0.0867239 0
M  V30 8634 H 824.927 6.21643 -2.07941 0
M  V30 8635 H 824.447 5.9858 -0.382428 0
M  V30 8636 H 826.126 6.42207 -0.786116 0
M  V30 8637 N 826.258 0.243083 1.55714 0
M  V30 8638 C 827.188 -0.652336 2.24203 0
M  V30 8639 C 828.169 -1.1843 1.221 0
M  V30 8640 O 829.354 -1.22435 1.50743 0
M  V30 8641 C 826.484 -1.85111 2.93856 0
M  V30 8642 C 825.438 -1.45208 4.02615 0
M  V30 8643 C 824.764 -2.73137 4.59674 0
M  V30 8644 C 826.064 -0.625988 5.18535 0
M  V30 8645 H 827.758 -0.0812504 2.9929 0
M  V30 8646 H 825.304 -0.0376388 1.43951 0
M  V30 8647 H 827.257 -2.48314 3.40468 0
M  V30 8648 H 825.981 -2.44751 2.16251 0
M  V30 8649 H 824.64 -0.843406 3.56766 0
M  V30 8650 H 824.288 -3.30967 3.78774 0
M  V30 8651 H 823.988 -2.47163 5.33089 0
M  V30 8652 H 825.512 -3.37245 5.09017 0
M  V30 8653 H 826.926 -1.16223 5.61396 0
M  V30 8654 H 825.323 -0.462465 5.98315 0
M  V30 8655 H 826.393 0.362652 4.83542 0
M  V30 8656 N 827.736 -1.57571 -0.0300757 0
M  V30 8657 C 828.646 -2.09892 -1.04798 0
M  V30 8658 C 829.662 -1.03732 -1.39698 0
M  V30 8659 O 830.838 -1.35461 -1.49038 0
M  V30 8660 C 827.903 -2.56707 -2.33028 0
M  V30 8661 C 826.964 -3.77345 -2.04718 0
M  V30 8662 C 826.197 -4.21918 -3.26834 0
M  V30 8663 O 826.42 -3.66025 -4.37472 0
M  V30 8664 O 825.354 -5.14362 -3.12594 0
M  V30 8665 H 829.18 -2.97023 -0.633344 0
M  V30 8666 H 826.765 -1.47344 -0.246991 0
M  V30 8667 H 828.647 -2.87154 -3.08417 0
M  V30 8668 H 827.322 -1.72688 -2.73789 0
M  V30 8669 H 826.229 -3.51919 -1.26901 0
M  V30 8670 H 827.562 -4.62345 -1.68813 0
M  V30 8671 N 829.214 0.302327 -1.54673 0
M  V30 8672 C 830.46 1.03924 -1.74149 0
M  V30 8673 C 830.793 1.86968 -0.525041 0
M  V30 8674 O 830.068 1.88538 0.477868 0
M  V30 8675 C 830.351 1.94633 -3.02969 0
M  V30 8676 C 830.204 1.14778 -4.34909 0
M  V30 8677 C 831.523 2.93826 -3.27649 0
M  V30 8678 H 828.642 0.376405 -0.633631 0
M  V30 8679 H 831.284 0.314007 -1.87387 0
M  V30 8680 H 829.434 2.56471 -2.91813 0
M  V30 8681 H 831.106 0.552363 -4.57981 0
M  V30 8682 H 829.349 0.450462 -4.31455 0
M  V30 8683 H 830.02 1.81495 -5.21309 0
M  V30 8684 H 832.496 2.42117 -3.38406 0
M  V30 8685 H 831.372 3.54462 -4.19104 0
M  V30 8686 H 831.633 3.67416 -2.45882 0
M  V30 8687 N 830.692 1.47107 0.565454 0
M  V30 8688 C 831.622 1.61846 1.68309 0
M  V30 8689 C 832.603 0.468159 1.63531 0
M  V30 8690 O 833.788 0.696504 1.8128 0
M  V30 8691 C 830.918 1.62474 3.06952 0
M  V30 8692 C 829.872 2.76649 3.26572 0
M  V30 8693 C 829.198 2.62345 4.65917 0
M  V30 8694 C 830.498 4.18319 3.12741 0
M  V30 8695 H 832.192 2.55407 1.5623 0
M  V30 8696 H 829.738 1.22916 0.750179 0
M  V30 8697 H 831.691 1.71378 3.84977 0
M  V30 8698 H 830.415 0.654692 3.19971 0
M  V30 8699 H 829.074 2.67242 2.50952 0
M  V30 8700 H 828.722 1.63386 4.75725 0
M  V30 8701 H 828.422 3.38936 4.79996 0
M  V30 8702 H 829.946 2.73165 5.46089 0
M  V30 8703 H 831.36 4.28745 3.80593 0
M  V30 8704 H 829.757 4.95632 3.38333 0
M  V30 8705 H 830.827 4.37263 2.09592 0
M  V30 8706 N 832.17 -0.811516 1.35101 0
M  V30 8707 C 833.4 -1.59749 1.31011 0
M  V30 8708 C 833.808 -1.88847 -0.115566 0
M  V30 8709 O 833.151 -1.48854 -1.07649 0
M  V30 8710 C 833.213 -2.95714 2.04435 0
M  V30 8711 C 832.877 -2.89456 3.53645 0
M  V30 8712 C 833.874 -2.63237 4.48333 0
M  V30 8713 C 831.559 -3.08728 3.96222 0
M  V30 8714 C 833.553 -2.56361 5.83573 0
M  V30 8715 C 831.24 -3.01475 5.3156 0
M  V30 8716 C 832.238 -2.75326 6.25048 0
M  V30 8717 O 831.926 -2.68026 7.57903 0
M  V30 8718 H 831.658 -0.502889 0.45175 0
M  V30 8719 H 834.212 -1.01687 1.78462 0
M  V30 8720 H 832.442 -3.55739 1.51613 0
M  V30 8721 H 834.131 -3.56816 1.93487 0
M  V30 8722 H 834.897 -2.48072 4.16756 0
M  V30 8723 H 830.776 -3.28094 3.23845 0
M  V30 8724 H 834.32 -2.35871 6.56514 0
M  V30 8725 H 830.217 -3.16197 5.62752 0
M  V30 8726 H 830.985 -2.8367 7.67772 0
M  V30 8727 N 833.648 -1.19017 -1.03309 0
M  V30 8728 C 834.888 -1.00129 -1.78195 0
M  V30 8729 C 835.252 0.460236 -1.86402 0
M  V30 8730 O 836.453 0.768802 -2.57571 0
M  V30 8731 C 834.724 -1.64703 -3.17187 0
M  V30 8732 S 836.283 -1.60695 -4.08317 0
M  V30 8733 H 833.101 -0.359395 -0.613479 0
M  V30 8734 H 835.703 -1.51293 -1.23818 0
M  V30 8735 H 834.407 -2.70283 -3.08829 0
M  V30 8736 H 833.938 -1.136 -3.76641 0
M  V30 8737 H 835.953 -0.628171 -4.92208 0
M  V30 8738 N 835.127 1.22348 -0.993418 0
M  V30 8739 C 836.373 1.91393 -0.67056 0
M  V30 8740 C 836.706 1.77163 0.795428 0
M  V30 8741 O 835.981 1.14084 1.57528 0
M  V30 8742 C 836.264 3.43589 -1.0779 0
M  V30 8743 C 836.117 3.66867 -2.60248 0
M  V30 8744 C 837.436 4.35545 -0.631527 0
M  V30 8745 H 834.555 0.695057 -0.24508 0
M  V30 8746 H 837.197 1.44213 -1.23703 0
M  V30 8747 H 835.347 3.83903 -0.595902 0
M  V30 8748 H 837.019 3.35954 -3.16121 0
M  V30 8749 H 835.262 3.1113 -3.02293 0
M  V30 8750 H 835.933 4.73457 -2.838 0
M  V30 8751 H 838.409 4.0275 -1.04554 0
M  V30 8752 H 837.285 5.40707 -0.944831 0
M  V30 8753 H 837.546 4.39618 0.467779 0
M  V30 8754 N 836.605 0.766683 1.37694 0
M  V30 8755 C 837.535 0.163432 2.32927 0
M  V30 8756 C 838.516 -0.688861 1.55527 0
M  V30 8757 O 839.701 -0.627363 1.83787 0
M  V30 8758 C 836.831 -0.720416 3.39746 0
M  V30 8759 C 835.785 0.0301718 4.27989 0
M  V30 8760 C 835.111 -0.972788 5.25776 0
M  V30 8761 C 836.411 1.20623 5.0818 0
M  V30 8762 H 838.105 0.958988 2.83626 0
M  V30 8763 H 835.651 0.462601 1.36367 0
M  V30 8764 H 837.604 -1.15221 4.05342 0
M  V30 8765 H 836.328 -1.54844 2.8756 0
M  V30 8766 H 834.987 0.442685 3.63917 0
M  V30 8767 H 834.635 -1.79522 4.69873 0
M  V30 8768 H 834.335 -0.475145 5.85676 0
M  V30 8769 H 835.859 -1.40362 5.94248 0
M  V30 8770 H 837.273 0.851341 5.66944 0
M  V30 8771 H 835.67 1.63561 5.7738 0
M  V30 8772 H 836.74 2.01281 4.41151 0
M  V30 8773 N 838.083 -1.48885 0.516809 0
M  V30 8774 C 839.332 -2.01686 -0.0239899 0
M  V30 8775 C 839.645 -1.40029 -1.3657 0
M  V30 8776 O 840.851 -1.84249 -1.9941 0
M  V30 8777 C 839.307 -3.59779 -0.0931825 0
M  V30 8778 C 838.915 -4.30416 1.24283 0
M  V30 8779 C 840.659 -4.20471 -0.583507 0
M  V30 8780 C 838.566 -5.80408 1.13494 0
M  V30 8781 H 837.496 -0.753892 -0.0127376 0
M  V30 8782 H 840.147 -1.71273 0.65861 0
M  V30 8783 H 838.529 -3.86976 -0.840577 0
M  V30 8784 H 839.703 -4.14905 2.00476 0
M  V30 8785 H 838.018 -3.81539 1.66785 0
M  V30 8786 H 840.615 -5.30333 -0.681987 0
M  V30 8787 H 840.958 -3.84898 -1.58617 0
M  V30 8788 H 841.491 -3.97654 0.107814 0
M  V30 8789 H 838.23 -6.20532 2.11235 0
M  V30 8790 H 837.75 -5.98368 0.414167 0
M  V30 8791 H 839.429 -6.41781 0.820162 0
M  V30 8792 N 839.561 -0.251338 -1.55583 0
M  V30 8793 C 840.471 0.656978 -2.25213 0
M  V30 8794 C 841.487 1.18966 -1.26977 0
M  V30 8795 O 842.663 1.22499 -1.59862 0
M  V30 8796 C 839.728 1.83527 -2.94141 0
M  V30 8797 C 838.789 1.34162 -4.07798 0
M  V30 8798 C 838.022 2.46375 -4.73429 0
M  V30 8799 O 838.245 3.65205 -4.38157 0
M  V30 8800 O 837.179 2.15881 -5.61853 0
M  V30 8801 H 841.005 0.0936395 -3.03556 0
M  V30 8802 H 838.59 -0.0196638 -1.49387 0
M  V30 8803 H 840.472 2.52279 -3.3754 0
M  V30 8804 H 839.147 2.38614 -2.18735 0
M  V30 8805 H 838.054 0.621249 -3.68906 0
M  V30 8806 H 839.387 0.836779 -4.85035 0
M  V30 8807 N 841.039 1.57585 0.0217189 0
M  V30 8808 C 842.264 1.94267 0.726309 0
M  V30 8809 C 842.689 0.851904 1.67703 0
M  V30 8810 O 842.047 -0.191792 1.80283 0
M  V30 8811 C 842.095 3.30023 1.45318 0
M  V30 8812 O 841.199 3.22791 2.5667 0
M  V30 8813 H 840.54 0.634777 0.194818 0
M  V30 8814 H 843.07 2.04585 -0.0249985 0
M  V30 8815 H 843.08 3.65084 1.82147 0
M  V30 8816 H 841.755 4.08972 0.755962 0
M  V30 8817 H 840.332 2.99373 2.2233 0
M  V30 8818 N 842.517 -0.29412 1.54831 0
M  V30 8819 C 843.928 -0.866651 1.65366 0
M  V30 8820 C 844.279 -1.87834 0.56681 0
M  V30 8821 O 843.404 -2.14374 -0.295389 0
M  V30 8822 C 843.999 -1.57869 2.99771 0
M  V30 8823 C 842.558 -2.09954 3.12404 0
M  V30 8824 C 841.705 -0.934492 2.6108 0
M  V30 8825 H 844.656 -0.0709551 1.58541 0
M  V30 8826 H 844.677 -2.44462 2.91579 0
M  V30 8827 H 844.189 -0.84212 3.78853 0
M  V30 8828 H 842.29 -2.86637 2.38055 0
M  V30 8829 H 842.403 -2.32934 4.18663 0
M  V30 8830 H 840.767 -1.32199 2.17705 0
M  V30 8831 H 841.55 -0.211768 3.42646 0
M  V30 8832 N 843.995 -1.47404 -0.557645 0
M  V30 8833 C 844.905 -1.62491 -1.69216 0
M  V30 8834 C 845.921 -0.507764 -1.66426 0
M  V30 8835 O 847.097 -0.775241 -1.85882 0
M  V30 8836 C 844.162 -1.63511 -3.05721 0
M  V30 8837 C 843.223 -2.86648 -3.1958 0
M  V30 8838 C 842.456 -2.87609 -4.49574 0
M  V30 8839 O 842.679 -1.97799 -5.35006 0
M  V30 8840 O 841.613 -3.79465 -4.67215 0
M  V30 8841 H 845.439 -2.58487 -1.59431 0
M  V30 8842 H 843.024 -1.30485 -0.7276 0
M  V30 8843 H 844.906 -1.66863 -3.86956 0
M  V30 8844 H 843.581 -0.706812 -3.15889 0
M  V30 8845 H 842.488 -2.8884 -2.37744 0
M  V30 8846 H 843.821 -3.7877 -3.14316 0
M  V30 8847 N 845.473 0.80434 -1.35529 0
M  V30 8848 C 846.719 1.56385 -1.29118 0
M  V30 8849 C 847.052 1.9374 0.133536 0
M  V30 8850 O 846.327 1.6153 1.08344 0
M  V30 8851 C 846.61 2.85097 -2.19981 0
M  V30 8852 C 846.463 2.54204 -3.7108 0
M  V30 8853 C 847.782 3.86817 -2.09907 0
M  V30 8854 H 844.901 0.567382 -0.470368 0
M  V30 8855 H 847.543 0.925235 -1.6595 0
M  V30 8856 H 845.693 3.39594 -1.88701 0
M  V30 8857 H 847.365 2.05872 -4.12813 0
M  V30 8858 H 845.608 1.87364 -3.91251 0
M  V30 8859 H 846.279 3.46068 -4.30048 0
M  V30 8860 H 848.755 3.41725 -2.37409 0
M  V30 8861 H 847.631 4.7465 -2.75678 0
M  V30 8862 H 847.892 4.28663 -1.08171 0
M  V30 8863 N 846.951 1.19563 1.02676 0
M  V30 8864 C 847.881 0.959024 2.12897 0
M  V30 8865 C 848.862 -0.108382 1.69754 0
M  V30 8866 O 850.047 0.0470698 1.94143 0
M  V30 8867 C 847.177 0.499211 3.43693 0
M  V30 8868 C 846.131 1.5087 4.00528 0
M  V30 8869 C 845.457 0.905884 5.2697 0
M  V30 8870 C 846.757 2.88954 4.3509 0
M  V30 8871 H 848.451 1.88084 2.32948 0
M  V30 8872 H 845.997 0.905731 1.11949 0
M  V30 8873 H 847.95 0.320965 4.20176 0
M  V30 8874 H 846.674 -0.458205 3.2337 0
M  V30 8875 H 845.333 1.67413 3.26142 0
M  V30 8876 H 844.981 -0.0591506 5.02965 0
M  V30 8877 H 844.681 1.58 5.65959 0
M  V30 8878 H 846.205 0.73848 6.06118 0
M  V30 8879 H 847.619 2.75981 5.02501 0
M  V30 8880 H 846.016 3.53177 4.85166 0
M  V30 8881 H 847.086 3.41447 3.44299 0
M  V30 8882 N 848.429 -1.21819 0.999893 0
M  V30 8883 C 849.377 -2.26027 0.549047 0
M  V30 8884 C 850.371 -1.64516 -0.403826 0
M  V30 8885 O 851.577 -1.77878 -0.275578 0
M  V30 8886 H 847.952 -0.734958 0.159185 0
M  V30 8887 H 849.923 -2.61398 1.43923 0
M  V30 8888 C 848.672 -3.47514 -0.11369 0
M  V30 8889 H 847.995 -3.95112 0.610482 0
M  V30 8890 H 849.435 -4.22179 -0.3925 0
M  V30 8891 C 847.894 -3.08614 -1.35126 0
M  V30 8892 O 848.424 -3.1864 -2.44605 0
M  V30 8893 N 846.63 -2.63327 -1.22911 0
M  V30 8894 H 846.177 -2.55369 -0.338288 0
M  V30 8895 H 846.135 -2.37668 -2.05818 0
M  V30 8896 N 849.908 -0.773975 -1.37286 0
M  V30 8897 C 851.157 -0.335977 -1.98882 0
M  V30 8898 C 851.47 1.09416 -1.62134 0
M  V30 8899 O 852.676 1.63366 -2.1685 0
M  V30 8900 C 851.132 -0.549756 -3.55676 0
M  V30 8901 C 850.74 -1.9903 -4.01361 0
M  V30 8902 C 852.484 -0.175493 -4.24137 0
M  V30 8903 C 850.391 -2.15156 -5.50874 0
M  V30 8904 H 849.321 -0.121877 -0.744085 0
M  V30 8905 H 851.972 -0.953419 -1.56787 0
M  V30 8906 H 850.354 0.137175 -3.95762 0
M  V30 8907 H 851.528 -2.71237 -3.72515 0
M  V30 8908 H 849.843 -2.32137 -3.4569 0
M  V30 8909 H 852.44 -0.274463 -5.33995 0
M  V30 8910 H 852.783 0.874524 -4.07011 0
M  V30 8911 H 853.316 -0.815058 -3.89361 0
M  V30 8912 H 850.055 -3.18485 -5.72929 0
M  V30 8913 H 849.575 -1.47435 -5.81397 0
M  V30 8914 H 851.254 -1.95124 -6.16876 0
M  V30 8915 N 851.386 1.48609 -0.524698 0
M  V30 8916 C 852.635 2.01696 0.0132937 0
M  V30 8917 C 852.948 1.40751 1.35825 0
M  V30 8918 O 854.154 1.85304 1.9843 0
M  V30 8919 C 852.61 3.59824 0.0741012 0
M  V30 8920 C 852.218 4.2975 -1.26564 0
M  V30 8921 C 853.962 4.20774 0.5612 0
M  V30 8922 C 851.869 5.79798 -1.16571 0
M  V30 8923 H 850.799 0.753949 0.00873931 0
M  V30 8924 H 853.45 1.70922 -0.667684 0
M  V30 8925 H 851.832 3.87416 0.820043 0
M  V30 8926 H 853.006 4.13836 -2.02674 0
M  V30 8927 H 851.321 3.80649 -1.68806 0
M  V30 8928 H 853.918 5.30687 0.653853 0
M  V30 8929 H 854.261 3.85734 1.56573 0
M  V30 8930 H 854.794 3.97591 -0.128901 0
M  V30 8931 H 851.533 6.19403 -2.14523 0
M  V30 8932 H 851.053 5.9814 -0.445894 0
M  V30 8933 H 852.732 6.41337 -0.854186 0
M  V30 8934 N 852.864 0.259585 1.55447 0
M  V30 8935 C 853.796 -0.667548 2.19263 0
M  V30 8936 C 854.809 -1.12925 1.17268 0
M  V30 8937 O 855.998 -1.05384 1.44071 0
M  V30 8938 C 853.098 -1.92066 2.7922 0
M  V30 8939 C 852.271 -1.60832 4.06758 0
M  V30 8940 C 851.33 -2.71231 4.50911 0
M  V30 8941 O 850.356 -2.38077 5.17019 0
M  V30 8942 N 851.558 -4.00984 4.19752 0
M  V30 8943 H 854.323 -0.121449 2.99454 0
M  V30 8944 H 851.884 0.0800519 1.61702 0
M  V30 8945 H 853.876 -2.65186 3.0571 0
M  V30 8946 H 852.446 -2.37621 2.03113 0
M  V30 8947 H 851.666 -0.711685 3.87722 0
M  V30 8948 H 852.954 -1.37445 4.89884 0
M  V30 8949 H 852.352 -4.30748 3.66706 0
M  V30 8950 H 850.909 -4.7053 4.51048 0
M  V30 8951 N 854.342 -1.57594 -0.0133615 0
M  V30 8952 C 855.252 -2.10991 -1.02566 0
M  V30 8953 C 856.268 -1.05208 -1.3859 0
M  V30 8954 O 857.444 -1.37034 -1.47593 0
M  V30 8955 C 854.509 -2.59165 -2.30292 0
M  V30 8956 C 853.57 -3.79495 -2.00704 0
M  V30 8957 C 852.803 -4.25361 -3.22341 0
M  V30 8958 O 853.026 -3.70645 -4.33565 0
M  V30 8959 O 851.96 -5.17649 -3.07121 0
M  V30 8960 H 855.786 -2.97678 -0.601806 0
M  V30 8961 H 853.371 -1.47598 -0.23135 0
M  V30 8962 H 855.253 -2.90409 -3.05354 0
M  V30 8963 H 853.928 -1.75582 -2.71942 0
M  V30 8964 H 852.835 -3.53245 -1.23161 0
M  V30 8965 H 854.168 -4.64109 -1.639 0
M  V30 8966 N 855.82 0.285905 -1.54985 0
M  V30 8967 C 856.768 1.37302 -1.87752 0
M  V30 8968 C 857.762 1.51763 -0.752616 0
M  V30 8969 O 858.968 1.53701 -0.936805 0
M  V30 8970 H 855.343 0.458935 -0.59572 0
M  V30 8971 H 857.314 1.0691 -2.78591 0
M  V30 8972 C 856.063 2.72885 -2.15474 0
M  V30 8973 H 855.386 2.62545 -3.01513 0
M  V30 8974 H 856.826 3.47925 -2.42331 0
M  V30 8975 C 855.285 3.22989 -0.958124 0
M  V30 8976 O 855.815 4.01268 -0.186219 0
M  V30 8977 N 854.021 2.80503 -0.759354 0
M  V30 8978 H 853.568 2.16961 -1.38874 0
M  V30 8979 H 853.526 3.14375 0.0396937 0
M  V30 8980 N 857.298 1.47698 0.54982 0
M  V30 8981 C 858.248 1.57145 1.65195 0
M  V30 8982 C 859.232 0.429839 1.55052 0
M  V30 8983 O 860.424 0.68018 1.63409 0
M  V30 8984 C 857.553 1.59573 3.0396 0
M  V30 8985 C 856.639 2.79144 3.19279 0
M  V30 8986 N 857.03 4.03769 3.04638 0
M  V30 8987 C 855.328 2.76061 3.50295 0
M  V30 8988 C 856.029 4.83887 3.22845 0
M  V30 8989 N 855.005 4.1634 3.49517 0
M  V30 8990 H 858.807 2.51266 1.52455 0
M  V30 8991 H 856.321 1.43795 0.754773 0
M  V30 8992 H 858.318 1.64431 3.83103 0
M  V30 8993 H 856.978 0.66553 3.17806 0
M  V30 8994 H 857.989 4.34515 2.81811 0
M  V30 8995 H 854.666 1.92211 3.70622 0
M  V30 8996 H 856.056 5.92724 3.1643 0
M  V30 8997 N 858.776 -0.797141 1.35954 0
M  V30 8998 C 860.025 -1.54983 1.29086 0
M  V30 8999 C 860.338 -1.95167 -0.130003 0
M  V30 9000 O 861.544 -2.69596 -0.32101 0
M  V30 9001 C 860 -2.79738 2.26439 0
M  V30 9002 C 859.608 -2.46753 3.73921 0
M  V30 9003 C 861.352 -3.57733 2.28533 0
M  V30 9004 C 859.259 -3.67858 4.63071 0
M  V30 9005 H 858.189 -0.581766 0.479651 0
M  V30 9006 H 860.84 -0.87541 1.61273 0
M  V30 9007 H 859.222 -3.48939 1.87236 0
M  V30 9008 H 860.396 -1.85499 4.21814 0
M  V30 9009 H 858.711 -1.81985 3.74527 0
M  V30 9010 H 861.308 -4.47699 2.92351 0
M  V30 9011 H 861.651 -3.95754 1.29169 0
M  V30 9012 H 862.184 -2.95504 2.66313 0
M  V30 9013 H 858.923 -3.34939 5.63468 0
M  V30 9014 H 858.443 -4.28305 4.19898 0
M  V30 9015 H 860.122 -4.34977 4.78961 0
M  V30 9016 N 860.254 -1.20106 -1.0204 0
M  V30 9017 C 861.201 -0.946468 -2.10501 0
M  V30 9018 C 862.171 0.121902 -1.65652 0
M  V30 9019 O 863.356 -0.0220244 -1.90787 0
M  V30 9020 C 860.496 -0.500499 -3.41451 0
M  V30 9021 C 859.609 -1.63659 -3.998 0
M  V30 9022 C 858.744 -1.14131 -5.18794 0
M  V30 9023 C 857.783 -2.25074 -5.69217 0
M  V30 9024 N 856.92 -1.76791 -6.79477 0
M  V30 9025 H 861.76 -1.87506 -2.31615 0
M  V30 9026 H 859.297 -0.934693 -1.13587 0
M  V30 9027 H 861.255 -0.223276 -4.16602 0
M  V30 9028 H 859.885 0.391099 -3.20422 0
M  V30 9029 H 858.937 -2.02882 -3.21781 0
M  V30 9030 H 860.249 -2.47213 -4.33229 0
M  V30 9031 H 859.403 -0.819826 -6.01135 0
M  V30 9032 H 858.142 -0.275615 -4.86921 0
M  V30 9033 H 857.147 -2.58043 -4.85483 0
M  V30 9034 H 858.372 -3.12114 -6.03127 0
M  V30 9035 H 856.318 -0.925428 -6.4944 0
M  V30 9036 H 856.235 -2.53928 -7.12079 0
M  V30 9037 H 857.503 -1.47631 -7.65392 0
M  V30 9038 N 861.732 1.21287 -1.00634 0
M  V30 9039 C 862.957 1.94925 -0.708441 0
M  V30 9040 C 863.382 1.73659 0.722783 0
M  V30 9041 O 862.74 1.02429 1.49593 0
M  V30 9042 C 862.788 3.45377 -1.03667 0
M  V30 9043 O 861.892 4.12153 -0.142661 0
M  V30 9044 H 861.233 0.609338 -0.263824 0
M  V30 9045 H 863.763 1.54008 -1.34695 0
M  V30 9046 H 863.773 3.95954 -0.984086 0
M  V30 9047 H 862.448 3.6018 -2.0795 0
M  V30 9048 H 861.025 3.72048 -0.251888 0
M  V30 9049 N 863.21 0.781244 1.36873 0
M  V30 9050 C 864.459 0.34652 1.98701 0
M  V30 9051 C 864.772 -1.08555 1.62712 0
M  V30 9052 O 865.978 -1.62213 2.17713 0
M  V30 9053 C 864.434 0.568611 3.5538 0
M  V30 9054 C 864.042 2.01156 4.003 0
M  V30 9055 C 865.786 0.197983 4.24038 0
M  V30 9056 C 863.693 2.18074 5.49725 0
M  V30 9057 H 862.623 0.125821 0.743428 0
M  V30 9058 H 865.274 0.961721 1.56279 0
M  V30 9059 H 863.656 -0.116185 3.9583 0
M  V30 9060 H 864.83 2.73209 3.71071 0
M  V30 9061 H 863.145 2.33967 3.44454 0
M  V30 9062 H 865.742 0.302778 5.33842 0
M  V30 9063 H 866.085 -0.852927 4.07469 0
M  V30 9064 H 866.618 0.835696 3.88923 0
M  V30 9065 H 863.357 3.21519 5.71232 0
M  V30 9066 H 862.877 1.50517 5.80607 0
M  V30 9067 H 864.556 1.98393 6.15832 0
M  V30 9068 N 864.689 -1.48329 0.532571 0
M  V30 9069 C 865.938 -2.017 -0.00259705 0
M  V30 9070 C 866.251 -1.41469 -1.35077 0
M  V30 9071 O 867.457 -1.86354 -1.97445 0
M  V30 9072 C 865.913 -3.59858 -0.0550179 0
M  V30 9073 C 865.521 -4.29073 1.28842 0
M  V30 9074 C 867.265 -4.21066 -0.538878 0
M  V30 9075 C 865.172 -5.79171 1.19644 0
M  V30 9076 H 864.102 -0.753985 -0.00474081 0
M  V30 9077 H 866.753 -1.70565 0.676739 0
M  V30 9078 H 865.135 -3.87846 -0.799486 0
M  V30 9079 H 866.309 -4.12755 2.04865 0
M  V30 9080 H 864.624 -3.79748 1.70822 0
M  V30 9081 H 867.221 -5.31026 -0.6257 0
M  V30 9082 H 867.564 -3.86559 -1.54525 0
M  V30 9083 H 868.097 -3.97517 0.149984 0
M  V30 9084 H 864.836 -6.18257 2.17805 0
M  V30 9085 H 864.356 -5.97895 0.477609 0
M  V30 9086 H 866.035 -6.40875 0.888186 0
M  V30 9087 N 866.167 -0.267825 -1.55308 0
M  V30 9088 C 867.392 0.357487 -2.04296 0
M  V30 9089 C 867.817 1.49222 -1.14518 0
M  V30 9090 O 867.175 1.80741 -0.142292 0
M  V30 9091 C 867.223 0.822899 -3.51085 0
M  V30 9092 O 866.327 1.93078 -3.6441 0
M  V30 9093 H 865.668 0.075025 -0.659748 0
M  V30 9094 H 868.198 -0.399996 -2.00652 0
M  V30 9095 H 868.208 1.12059 -3.92309 0
M  V30 9096 H 866.883 -0.0073562 -4.15899 0
M  V30 9097 H 865.46 1.63618 -3.35087 0
M  V30 9098 N 867.645 1.57599 0.00500368 0
M  V30 9099 C 868.575 2.11143 0.99705 0
M  V30 9100 C 869.556 1.0194 1.3617 0
M  V30 9101 O 870.741 1.29596 1.44632 0
M  V30 9102 C 867.871 2.61062 2.2905 0
M  V30 9103 C 866.825 3.74745 2.0676 0
M  V30 9104 C 866.151 4.10961 3.42075 0
M  V30 9105 C 867.451 5.02222 1.43424 0
M  V30 9106 H 869.145 2.94281 0.551251 0
M  V30 9107 H 866.691 1.41565 0.263715 0
M  V30 9108 H 868.644 2.97146 2.98801 0
M  V30 9109 H 867.368 1.75038 2.75734 0
M  V30 9110 H 866.027 3.39047 1.39436 0
M  V30 9111 H 865.675 3.21968 3.86453 0
M  V30 9112 H 865.375 4.87549 3.27979 0
M  V30 9113 H 866.899 4.49599 4.1315 0
M  V30 9114 H 868.313 5.36109 2.03125 0
M  V30 9115 H 866.71 5.83581 1.39831 0
M  V30 9116 H 867.78 4.83224 0.40285 0
M  V30 9117 N 869.123 -0.277682 1.55134 0
M  V30 9118 C 870.053 -1.34742 1.90701 0
M  V30 9119 C 871.034 -1.51757 0.768354 0
M  V30 9120 O 872.219 -1.64879 1.02609 0
M  V30 9121 C 869.349 -2.70775 2.17481 0
M  V30 9122 C 868.303 -2.68497 3.33307 0
M  V30 9123 C 867.629 -4.08037 3.45557 0
M  V30 9124 C 868.929 -2.28178 4.69821 0
M  V30 9125 H 870.623 -1.05224 2.803 0
M  V30 9126 H 868.169 -0.504738 1.34864 0
M  V30 9127 H 870.122 -3.45719 2.40949 0
M  V30 9128 H 868.846 -3.01867 1.24676 0
M  V30 9129 H 867.505 -1.9601 3.09799 0
M  V30 9130 H 867.153 -4.36344 2.50226 0
M  V30 9131 H 866.853 -4.07409 4.23429 0
M  V30 9132 H 868.377 -4.84726 3.71312 0
M  V30 9133 H 869.791 -2.92843 4.92865 0
M  V30 9134 H 868.188 -2.3872 5.50575 0
M  V30 9135 H 869.258 -1.23308 4.6896 0
M  V30 9136 N 870.601 -1.47988 -0.541979 0
M  V30 9137 C 871.878 -1.45878 -1.30303 0
M  V30 9138 C 872.258 -0.163931 -2.10463 0
M  V30 9139 O 871.606 0.854479 -2.11922 0
M  V30 9140 C 871.816 -2.71359 -2.19466 0
M  V30 9141 C 873.164 -3.19199 -2.79995 0
M  V30 9142 O 874.188 -2.72193 -2.2976 0
M  V30 9143 O 873.047 -4.00961 -3.71339 0
M  V30 9144 H 870.141 -0.582043 -0.587498 0
M  V30 9145 H 872.687 -1.60207 -0.559623 0
M  V30 9146 H 871.459 -3.57122 -1.59936 0
M  V30 9147 H 871.082 -2.59692 -3.01075 0
M  V30 9148 N 872.079 0.78992 -1.36375 0
M  V30 9149 C 873.026 1.90254 -1.3066 0
M  V30 9150 C 873.996 1.65171 -0.17539 0
M  V30 9151 O 875.181 1.87338 -0.361824 0
M  V30 9152 C 872.321 3.27057 -1.10125 0
M  V30 9153 C 871.434 3.64215 -2.32317 0
M  V30 9154 C 870.569 4.90134 -2.04798 0
M  V30 9155 C 869.608 5.19969 -3.22953 0
M  V30 9156 N 868.745 6.37071 -2.95102 0
M  V30 9157 H 873.585 1.94474 -2.25796 0
M  V30 9158 H 871.122 0.951022 -1.12223 0
M  V30 9159 H 873.08 4.05947 -0.962453 0
M  V30 9160 H 871.71 3.22261 -0.186444 0
M  V30 9161 H 870.762 2.80454 -2.57002 0
M  V30 9162 H 872.074 3.82212 -3.20492 0
M  V30 9163 H 871.228 5.76888 -1.87845 0
M  V30 9164 H 869.967 4.74205 -1.13932 0
M  V30 9165 H 868.972 4.31699 -3.40465 0
M  V30 9166 H 870.197 5.37817 -4.14644 0
M  V30 9167 H 868.143 6.22535 -2.06848 0
M  V30 9168 H 868.06 6.55398 -3.76815 0
M  V30 9169 H 869.328 7.26808 -2.81727 0
M  V30 9170 N 873.557 1.20646 1.01402 0
M  V30 9171 C 874.507 0.925209 2.08384 0
M  V30 9172 C 875.491 -0.115994 1.60481 0
M  V30 9173 O 876.683 0.0917276 1.76762 0
M  V30 9174 C 873.812 0.48193 3.399 0
M  V30 9175 C 872.898 1.5567 3.94497 0
M  V30 9176 N 873.289 2.77971 4.2257 0
M  V30 9177 C 871.587 1.42347 4.22674 0
M  V30 9178 C 872.288 3.47317 4.66632 0
M  V30 9179 N 871.264 2.74736 4.69064 0
M  V30 9180 H 875.066 1.85452 2.28002 0
M  V30 9181 H 872.58 1.10084 1.19395 0
M  V30 9182 H 874.577 0.261835 4.16077 0
M  V30 9183 H 873.237 -0.440725 3.21695 0
M  V30 9184 H 874.248 3.14598 4.11398 0
M  V30 9185 H 870.925 0.565417 4.13654 0
M  V30 9186 H 872.315 4.51985 4.97151 0
M  V30 9187 N 875.035 -1.20752 1.01276 0
M  V30 9188 C 876.283 -1.89645 0.698505 0
M  V30 9189 C 876.604 -1.78986 -0.773883 0
M  V30 9190 O 875.874 -1.18977 -1.55632 0
M  V30 9191 H 874.454 -0.701992 0.255375 0
M  V30 9192 H 877.116 -1.46668 1.28353 0
M  V30 9193 H 876.212 -2.96364 0.978512 0
M  V30 9194 N 876.513 -0.788492 -1.36457 0
M  V30 9195 C 877.929 -0.470063 -1.52521 0
M  V30 9196 C 878.129 1.01176 -1.74258 0
M  V30 9197 O 877.185 1.79726 -1.77355 0
M  V30 9198 C 878.498 -1.2997 -2.71161 0
M  V30 9199 C 880.046 -1.2933 -2.85031 0
M  V30 9200 C 880.521 -2.10665 -4.06674 0
M  V30 9201 N 882.012 -2.08107 -4.13819 0
M  V30 9202 C 882.747 -2.6781 -5.07016 0
M  V30 9203 N 882.243 -3.36369 -6.05663 0
M  V30 9204 N 884.036 -2.57549 -4.99625 0
M  V30 9205 H 876.187 -1.7484 -1.20602 0
M  V30 9206 H 878.45 -0.743159 -0.588574 0
M  V30 9207 H 878.156 -2.35051 -2.61618 0
M  V30 9208 H 878.03 -0.940367 -3.6529 0
M  V30 9209 H 880.417 -0.250414 -2.94036 0
M  V30 9210 H 880.498 -1.69239 -1.91812 0
M  V30 9211 H 880.142 -3.14984 -3.98431 0
M  V30 9212 H 880.072 -1.68128 -4.9904 0
M  V30 9213 H 882.563 -1.58208 -3.43189 0
M  V30 9214 H 882.876 -3.79258 -6.73338 0
M  V30 9215 H 881.221 -3.40471 -6.05891 0
M  V30 9216 H 884.412 -2.0359 -4.21508 0
M  V30 9217 H 884.585 -3.0437 -5.72069 0
M  V30 9218 N 877.991 1.48044 -0.54043 0
M  V30 9219 C 878.939 2.31461 0.229862 0
M  V30 9220 C 879.933 1.41884 0.925495 0
M  V30 9221 O 881.139 1.58736 0.848689 0
M  V30 9222 H 877.514 0.746227 0.0929975 0
M  V30 9223 H 879.485 2.94297 -0.493118 0
M  V30 9224 C 878.234 3.24172 1.25729 0
M  V30 9225 H 877.557 3.93052 0.731426 0
M  V30 9226 H 878.997 3.85404 1.76747 0
M  V30 9227 C 877.456 2.4651 2.2964 0
M  V30 9228 O 877.986 2.19742 3.36268 0
M  V30 9229 N 876.192 2.07817 2.03127 0
M  V30 9230 H 875.739 2.29786 1.1643 0
M  V30 9231 H 875.697 1.56168 2.72872 0
M  V30 9232 N 879.47 0.276058 1.55163 0
M  V30 9233 C 880.42 -0.625549 2.19251 0
M  V30 9234 C 881.404 -1.11769 1.15744 0
M  V30 9235 O 882.596 -1.0626 1.41555 0
M  V30 9236 C 879.725 -1.80879 2.91784 0
M  V30 9237 C 878.811 -1.33379 4.0258 0
M  V30 9238 N 879.202 -0.575002 5.02521 0
M  V30 9239 C 877.5 -1.61666 4.15668 0
M  V30 9240 C 878.201 -0.325164 5.8079 0
M  V30 9241 N 877.177 -0.897851 5.36134 0
M  V30 9242 H 880.979 -0.0379943 2.93875 0
M  V30 9243 H 878.493 0.079661 1.62205 0
M  V30 9244 H 880.49 -2.466 3.36146 0
M  V30 9245 H 879.15 -2.40028 2.1867 0
M  V30 9246 H 880.161 -0.222256 5.17423 0
M  V30 9247 H 876.838 -2.21745 3.53745 0
M  V30 9248 H 878.228 0.282598 6.71305 0
M  V30 9249 N 880.948 -1.576 0.00335426 0
M  V30 9250 C 881.895 -2.08632 -0.986975 0
M  V30 9251 C 882.865 -0.982491 -1.33927 0
M  V30 9252 O 884.05 -1.25513 -1.43705 0
M  V30 9253 C 881.19 -2.59705 -2.27261 0
M  V30 9254 C 880.303 -3.84002 -1.97905 0
M  V30 9255 C 879.438 -4.23563 -3.20574 0
M  V30 9256 C 878.477 -5.40688 -2.8692 0
M  V30 9257 N 877.614 -5.75526 -4.02136 0
M  V30 9258 H 882.454 -2.92977 -0.544855 0
M  V30 9259 H 879.991 -1.44831 -0.257376 0
M  V30 9260 H 881.949 -2.87395 -3.02423 0
M  V30 9261 H 880.579 -1.7823 -2.69136 0
M  V30 9262 H 879.631 -3.63199 -1.13096 0
M  V30 9263 H 880.943 -4.69261 -1.69102 0
M  V30 9264 H 880.097 -4.52554 -4.04079 0
M  V30 9265 H 878.836 -3.37019 -3.52518 0
M  V30 9266 H 877.841 -5.11417 -2.01822 0
M  V30 9267 H 879.066 -6.2891 -2.5622 0
M  V30 9268 H 877.012 -4.9194 -4.33971 0
M  V30 9269 H 876.929 -6.55367 -3.76869 0
M  V30 9270 H 878.197 -6.0911 -4.8642 0
M  V30 9271 N 882.426 0.269451 -1.5528 0
M  V30 9272 C 883.672 1.00206 -1.76314 0
M  V30 9273 C 884.005 1.85812 -0.564581 0
M  V30 9274 O 883.28 1.89509 0.437769 0
M  V30 9275 C 883.563 1.88163 -3.07029 0
M  V30 9276 C 883.416 1.05527 -4.37246 0
M  V30 9277 C 884.735 2.8681 -3.33808 0
M  V30 9278 H 881.854 0.36288 -0.641473 0
M  V30 9279 H 884.496 0.274188 -1.88011 0
M  V30 9280 H 882.646 2.50224 -2.97187 0
M  V30 9281 H 884.318 0.455094 -4.5905 0
M  V30 9282 H 882.561 0.358842 -4.32313 0
M  V30 9283 H 883.232 1.70397 -5.25042 0
M  V30 9284 H 885.708 2.34884 -3.43466 0
M  V30 9285 H 884.584 3.45492 -4.26528 0
M  V30 9286 H 884.845 3.62118 -2.5362 0
M  V30 9287 N 883.904 1.48273 0.534124 0
M  V30 9288 C 884.834 1.6538 1.64839 0
M  V30 9289 C 885.815 0.502741 1.62501 0
M  V30 9290 O 887 0.734799 1.79762 0
M  V30 9291 C 884.13 1.68949 3.03436 0
M  V30 9292 C 883.084 2.83513 3.20631 0
M  V30 9293 C 882.41 2.72169 4.60248 0
M  V30 9294 C 883.71 4.24858 3.03797 0
M  V30 9295 H 885.404 2.58663 1.50777 0
M  V30 9296 H 882.95 1.24479 0.723937 0
M  V30 9297 H 884.903 1.79505 3.81256 0
M  V30 9298 H 883.627 0.722415 3.1851 0
M  V30 9299 H 882.286 2.72505 2.45227 0
M  V30 9300 H 881.934 1.7344 4.72152 0
M  V30 9301 H 881.634 3.49042 4.72698 0
M  V30 9302 H 883.158 2.84687 5.40172 0
M  V30 9303 H 884.572 4.36721 3.71413 0
M  V30 9304 H 882.969 5.02697 3.27743 0
M  V30 9305 H 884.039 4.41611 2.0027 0
M  V30 9306 N 885.382 -0.782676 1.36792 0
M  V30 9307 C 886.659 -1.52939 1.21939 0
M  V30 9308 C 887.039 -2.10228 -0.191639 0
M  V30 9309 O 886.387 -1.94574 -1.19805 0
M  V30 9310 C 886.597 -2.61898 2.30674 0
M  V30 9311 C 887.945 -3.29598 2.67676 0
M  V30 9312 O 888.969 -2.72186 2.29768 0
M  V30 9313 O 887.828 -4.3337 3.32946 0
M  V30 9314 H 884.922 -0.676856 0.47518 0
M  V30 9315 H 887.468 -0.82058 1.48542 0
M  V30 9316 H 886.24 -2.17607 3.25212 0
M  V30 9317 H 885.863 -3.40391 2.05475 0
M  V30 9318 N 886.86 -1.21182 -1.00761 0
M  V30 9319 C 888.106 -1.02898 -1.74756 0
M  V30 9320 C 888.439 0.436774 -1.89225 0
M  V30 9321 O 887.714 1.32415 -1.42466 0
M  V30 9322 C 887.997 -1.72372 -3.16164 0
M  V30 9323 C 887.85 -3.2645 -3.09435 0
M  V30 9324 C 889.169 -1.46415 -4.15031 0
M  V30 9325 H 886.288 -0.375214 -0.634337 0
M  V30 9326 H 888.93 -1.49321 -1.17487 0
M  V30 9327 H 887.08 -1.32906 -3.65059 0
M  V30 9328 H 888.752 -3.75269 -2.68274 0
M  V30 9329 H 886.995 -3.56889 -2.46603 0
M  V30 9330 H 887.666 -3.70226 -4.09435 0
M  V30 9331 H 890.142 -1.80671 -3.7483 0
M  V30 9332 H 889.018 -1.97544 -5.12121 0
M  V30 9333 H 889.279 -0.39361 -4.40344 0
M  V30 9334 N 888.338 1.20213 -1.01915 0
M  V30 9335 C 889.268 2.25336 -0.612023 0
M  V30 9336 C 890.249 1.65933 0.374186 0
M  V30 9337 O 891.434 1.92464 0.259053 0
M  V30 9338 C 888.564 3.47267 0.047904 0
M  V30 9339 C 887.518 4.1928 -0.859557 0
M  V30 9340 C 886.844 5.3466 -0.0652655 0
M  V30 9341 C 888.144 4.75143 -2.1688 0
M  V30 9342 H 889.838 2.59645 -1.49079 0
M  V30 9343 H 887.384 1.24808 -0.718263 0
M  V30 9344 H 889.337 4.19991 0.344294 0
M  V30 9345 H 888.061 3.12129 0.961404 0
M  V30 9346 H 886.72 3.48425 -1.13999 0
M  V30 9347 H 886.368 4.95767 0.849964 0
M  V30 9348 H 886.068 5.83772 -0.669618 0
M  V30 9349 H 887.592 6.10187 0.224612 0
M  V30 9350 H 889.006 5.39672 -1.9346 0
M  V30 9351 H 887.403 5.34702 -2.72422 0
M  V30 9352 H 888.473 3.93744 -2.83008 0
M  V30 9353 N 889.816 0.795718 1.36037 0
M  V30 9354 C 891.056 0.376514 2.00902 0
M  V30 9355 C 891.42 -1.03405 1.61776 0
M  V30 9356 O 892.621 -1.55468 2.19279 0
M  V30 9357 C 890.892 0.542086 3.53265 0
M  V30 9358 S 892.451 0.211694 4.38289 0
M  V30 9359 H 889.269 0.143527 0.696363 0
M  V30 9360 H 891.871 1.03559 1.65819 0
M  V30 9361 H 890.575 1.56888 3.79229 0
M  V30 9362 H 890.106 -0.132698 3.93176 0
M  V30 9363 H 892.121 -0.98452 4.86335 0
M  V30 9364 N 891.294 -1.47756 0.548274 0
M  V30 9365 C 892.519 -2.07387 0.023475 0
M  V30 9366 C 892.944 -1.39956 -1.25674 0
M  V30 9367 O 892.302 -0.471543 -1.7506 0
M  V30 9368 C 892.35 -3.60224 -0.164669 0
M  V30 9369 O 891.454 -3.93653 -1.22928 0
M  V30 9370 H 890.795 -0.662312 0.0473156 0
M  V30 9371 H 893.325 -1.89905 0.761409 0
M  V30 9372 H 893.335 -4.06211 -0.38166 0
M  V30 9373 H 892.01 -4.08702 0.770425 0
M  V30 9374 H 890.587 -3.59422 -0.993495 0
M  V30 9375 N 892.772 -0.284283 -1.55015 0
M  V30 9376 C 893.702 0.592663 -2.25853 0
M  V30 9377 C 894.683 1.15151 -1.25197 0
M  V30 9378 O 895.868 1.18395 -1.53936 0
M  V30 9379 C 892.998 1.77254 -2.98661 0
M  V30 9380 C 891.952 1.34482 -4.06323 0
M  V30 9381 C 891.278 2.60853 -4.66754 0
M  V30 9382 C 892.578 0.488288 -5.20013 0
M  V30 9383 H 894.272 0.00187041 -2.994 0
M  V30 9384 H 891.818 -0.000540402 -1.44 0
M  V30 9385 H 893.771 2.39199 -3.46932 0
M  V30 9386 H 892.495 2.38931 -2.22664 0
M  V30 9387 H 891.154 0.748519 -3.58877 0
M  V30 9388 H 890.802 3.20808 -3.87416 0
M  V30 9389 H 890.502 2.32942 -5.39455 0
M  V30 9390 H 892.026 3.23631 -5.1778 0
M  V30 9391 H 893.44 1.01298 -5.6428 0
M  V30 9392 H 891.837 0.303669 -5.99331 0
M  V30 9393 H 892.907 -0.490727 -4.8241 0
M  V30 9394 N 894.251 1.57596 -0.0117121 0
M  V30 9395 C 895.491 1.92932 0.675031 0
M  V30 9396 C 895.855 0.887004 1.70283 0
M  V30 9397 O 897.056 1.12599 2.4408 0
M  V30 9398 C 895.327 3.3327 1.29098 0
M  V30 9399 S 896.886 3.90509 2.00121 0
M  V30 9400 H 893.704 0.675226 0.22269 0
M  V30 9401 H 896.306 1.9537 -0.071208 0
M  V30 9402 H 895.01 4.0696 0.530262 0
M  V30 9403 H 894.541 3.34233 2.0749 0
M  V30 9404 H 896.556 3.72532 3.27771 0
M  V30 9405 N 895.729 -0.261212 1.5542 0
M  V30 9406 C 896.975 -0.992699 1.76843 0
M  V30 9407 C 897.308 -1.8551 0.574428 0
M  V30 9408 O 896.583 -1.89739 -0.427713 0
M  V30 9409 C 896.866 -1.86532 3.08022 0
M  V30 9410 C 896.719 -1.03206 4.378 0
M  V30 9411 C 898.038 -2.85036 3.35324 0
M  V30 9412 H 895.157 -0.359473 0.643388 0
M  V30 9413 H 897.799 -0.264214 1.88154 0
M  V30 9414 H 895.949 -2.48644 2.9851 0
M  V30 9415 H 897.621 -0.430743 4.59285 0
M  V30 9416 H 895.864 -0.335911 4.32497 0
M  V30 9417 H 896.535 -1.6761 5.25938 0
M  V30 9418 H 899.011 -2.3306 3.44706 0
M  V30 9419 H 897.887 -3.43226 4.28354 0
M  V30 9420 H 898.148 -3.60768 2.55537 0
M  V30 9421 N 897.207 -1.48554 -0.526253 0
M  V30 9422 C 898.447 -1.58362 -1.29232 0
M  V30 9423 C 898.811 -0.253353 -1.90321 0
M  V30 9424 O 900.012 -0.226439 -2.67845 0
M  V30 9425 C 898.283 -2.69294 -2.3498 0
M  V30 9426 S 899.842 -2.98891 -3.21262 0
M  V30 9427 H 896.66 -0.558859 -0.439543 0
M  V30 9428 H 899.262 -1.86094 -0.599099 0
M  V30 9429 H 897.966 -3.64504 -1.88587 0
M  V30 9430 H 897.497 -2.43475 -3.09004 0
M  V30 9431 H 899.512 -2.38475 -4.35137 0
M  V30 9432 N 898.685 0.775411 -1.37205 0
M  V30 9433 C 899.633 1.90996 -1.32752 0
M  V30 9434 C 900.627 1.68006 -0.216907 0
M  V30 9435 O 901.833 1.7584 -0.384723 0
M  V30 9436 H 898.208 0.62803 -0.413621 0
M  V30 9437 H 900.179 1.91869 -2.28536 0
M  V30 9438 C 898.928 3.28211 -1.14772 0
M  V30 9439 H 898.251 3.46477 -1.99484 0
M  V30 9440 H 899.691 4.07907 -1.15706 0
M  V30 9441 C 898.15 3.3658 0.146852 0
M  V30 9442 O 898.68 3.85428 1.13173 0
M  V30 9443 N 896.886 2.89936 0.196305 0
M  V30 9444 H 896.433 2.50375 -0.605807 0
M  V30 9445 H 896.391 2.95916 1.06212 0
M  V30 9446 N 900.163 1.21714 1.00117 0
M  V30 9447 C 901.411 1.03465 1.73607 0
M  V30 9448 C 901.732 -0.432295 1.90148 0
M  V30 9449 O 901.002 -1.31157 1.45515 0
M  V30 9450 H 899.582 0.379857 0.643209 0
M  V30 9451 H 902.244 1.53088 1.20624 0
M  V30 9452 H 901.34 1.50574 2.73375 0
M  V30 9453 N 901.641 -1.19671 1.02551 0
M  V30 9454 C 902.887 -1.89548 0.721069 0
M  V30 9455 C 903.22 -1.79209 -0.748176 0
M  V30 9456 O 902.495 -1.1822 -1.54448 0
M  V30 9457 C 902.778 -3.4061 1.16861 0
M  V30 9458 C 902.631 -3.59838 2.69883 0
M  V30 9459 C 903.95 -4.33718 0.746782 0
M  V30 9460 H 901.069 -0.688315 0.263422 0
M  V30 9461 H 903.711 -1.40883 1.27483 0
M  V30 9462 H 901.861 -3.82188 0.697477 0
M  V30 9463 H 903.533 -3.27454 3.24917 0
M  V30 9464 H 901.776 -3.03005 3.10435 0
M  V30 9465 H 902.447 -4.65766 2.96253 0
M  V30 9466 H 904.923 -3.99837 1.15195 0
M  V30 9467 H 903.799 -5.38012 1.08786 0
M  V30 9468 H 904.06 -4.40704 -0.351057 0
M  V30 9469 N 903.119 -0.802921 -1.35613 0
M  V30 9470 C 904.082 -0.216422 -2.28176 0
M  V30 9471 C 905.082 0.594101 -1.49422 0
M  V30 9472 O 906.272 0.41312 -1.6923 0
M  V30 9473 C 903.404 0.698746 -3.33662 0
M  V30 9474 H 904.597 -1.03276 -2.81557 0
M  V30 9475 H 902.15 -0.573307 -1.45406 0
M  V30 9476 H 902.885 1.53891 -2.85461 0
M  V30 9477 H 902.67 0.119314 -3.91918 0
M  V30 9478 H 904.16 1.10354 -4.02755 0
M  V30 9479 N 904.597 1.47463 -0.556102 0
M  V30 9480 C 905.843 2.02775 -0.0316806 0
M  V30 9481 C 906.176 1.42967 1.3143 0
M  V30 9482 O 905.451 0.584847 1.85499 0
M  V30 9483 C 905.734 3.60046 0.0625742 0
M  V30 9484 C 905.587 4.30288 -1.31043 0
M  V30 9485 C 906.906 4.33195 0.776553 0
M  V30 9486 H 904.025 0.736886 -0.0129869 0
M  V30 9487 H 906.667 1.75904 -0.718177 0
M  V30 9488 H 904.817 3.83071 0.647231 0
M  V30 9489 H 906.489 4.18607 -1.9382 0
M  V30 9490 H 904.732 3.90685 -1.8854 0
M  V30 9491 H 905.403 5.38861 -1.1972 0
M  V30 9492 H 907.879 4.15156 0.280147 0
M  V30 9493 H 906.755 5.42869 0.81146 0
M  V30 9494 H 907.016 4.02336 1.83244 0
M  V30 9495 N 906.075 0.2925 1.54862 0
M  V30 9496 C 907.491 -0.0611461 1.59483 0
M  V30 9497 C 907.691 -1.53141 1.30958 0
M  V30 9498 O 906.747 -2.28291 1.07887 0
M  V30 9499 C 908.06 0.329143 2.98893 0
M  V30 9500 C 909.608 0.2772 3.1177 0
M  V30 9501 C 910.083 0.642185 4.53475 0
M  V30 9502 N 911.574 0.594396 4.5937 0
M  V30 9503 C 912.309 0.849385 5.67074 0
M  V30 9504 N 911.805 1.1699 6.82851 0
M  V30 9505 N 913.598 0.777016 5.56704 0
M  V30 9506 H 905.749 1.25079 1.71665 0
M  V30 9507 H 908.012 0.506516 0.80134 0
M  V30 9508 H 907.718 1.35233 3.24661 0
M  V30 9509 H 907.592 -0.321442 3.75828 0
M  V30 9510 H 909.979 -0.736725 2.85756 0
M  V30 9511 H 910.06 0.962289 2.3701 0
M  V30 9512 H 909.704 1.65388 4.80218 0
M  V30 9513 H 909.634 -0.0648831 5.2656 0
M  V30 9514 H 912.125 0.357256 3.76208 0
M  V30 9515 H 912.438 1.35067 7.60905 0
M  V30 9516 H 910.783 1.20785 6.84424 0
M  V30 9517 H 913.974 0.526333 4.65132 0
M  V30 9518 H 914.147 0.979113 6.4056 0
M  V30 9519 N 907.553 -1.57587 0.0200696 0
M  V30 9520 C 908.778 -1.96124 -0.674547 0
M  V30 9521 C 909.203 -0.896068 -1.65385 0
M  V30 9522 O 908.561 0.143925 -1.80728 0
M  V30 9523 C 908.609 -3.3376 -1.36517 0
M  V30 9524 O 907.713 -3.29483 -2.48022 0
M  V30 9525 H 907.054 -0.639719 -0.177919 0
M  V30 9526 H 909.584 -2.04447 0.0792317 0
M  V30 9527 H 909.594 -3.69785 -1.72403 0
M  V30 9528 H 908.269 -4.10832 -0.647265 0
M  V30 9529 H 906.846 -3.05162 -2.14314 0
M  V30 9530 N 909.032 0.252966 -1.55557 0
M  V30 9531 C 909.98 1.33289 -1.90622 0
M  V30 9532 C 910.974 1.50133 -0.784638 0
M  V30 9533 O 912.18 1.51679 -0.969196 0
M  V30 9534 H 908.555 0.446196 -0.605321 0
M  V30 9535 H 910.526 1.00977 -2.80796 0
M  V30 9536 C 909.275 2.68254 -2.21213 0
M  V30 9537 H 908.598 2.5609 -3.07014 0
M  V30 9538 H 910.038 3.42707 -2.49656 0
M  V30 9539 C 908.497 3.20884 -1.02642 0
M  V30 9540 O 909.027 4.00783 -0.271292 0
M  V30 9541 N 907.233 2.7883 -0.818682 0
M  V30 9542 H 906.78 2.13966 -1.43444 0
M  V30 9543 H 906.738 3.14388 -0.0269989 0
M  V30 9544 N 910.51 1.48831 0.518367 0
M  V30 9545 C 911.442 1.60317 1.63802 0
M  V30 9546 C 912.455 0.486771 1.55352 0
M  V30 9547 O 913.644 0.758111 1.61601 0
M  V30 9548 C 910.744 1.52771 3.02513 0
M  V30 9549 C 909.917 2.79649 3.36326 0
M  V30 9550 C 908.976 2.65396 4.54369 0
M  V30 9551 O 908.002 3.39304 4.57013 0
M  V30 9552 N 909.204 1.75784 5.53245 0
M  V30 9553 H 911.969 2.56878 1.54383 0
M  V30 9554 H 909.53 1.45701 0.705889 0
M  V30 9555 H 911.522 1.40914 3.79375 0
M  V30 9556 H 910.092 0.641381 3.05949 0
M  V30 9557 H 909.312 3.05985 2.48529 0
M  V30 9558 H 910.6 3.63799 3.55707 0
M  V30 9559 H 909.998 1.14961 5.53896 0
M  V30 9560 H 908.555 1.69859 6.29278 0
M  V30 9561 N 911.988 -0.768124 1.37614 0
M  V30 9562 C 913.265 -1.51637 1.23554 0
M  V30 9563 C 913.645 -2.1042 -0.169331 0
M  V30 9564 O 912.993 -1.95834 -1.17735 0
M  V30 9565 C 913.203 -2.59436 2.33439 0
M  V30 9566 C 914.551 -3.2674 2.71157 0
M  V30 9567 O 915.575 -2.69733 2.32642 0
M  V30 9568 O 914.434 -4.29814 3.37524 0
M  V30 9569 H 911.528 -0.671778 0.482332 0
M  V30 9570 H 914.074 -0.804779 1.49403 0
M  V30 9571 H 912.846 -2.14146 3.27502 0
M  V30 9572 H 912.469 -3.38192 2.09073 0
M  V30 9573 N 913.466 -1.22244 -0.994698 0
M  V30 9574 C 914.396 -1.01513 -2.10279 0
M  V30 9575 C 915.377 0.0633365 -1.69982 0
M  V30 9576 O 916.562 -0.0985268 -1.9395 0
M  V30 9577 C 913.692 -0.59016 -3.42249 0
M  V30 9578 C 912.646 -1.61436 -3.96387 0
M  V30 9579 C 911.972 -1.04528 -5.24383 0
M  V30 9580 C 913.272 -3.00388 -4.27276 0
M  V30 9581 H 914.966 -1.94194 -2.2788 0
M  V30 9582 H 912.512 -0.935094 -1.09508 0
M  V30 9583 H 914.465 -0.432254 -4.19177 0
M  V30 9584 H 913.189 0.372308 -3.24471 0
M  V30 9585 H 911.848 -1.76001 -3.21589 0
M  V30 9586 H 911.496 -0.0742225 -5.02945 0
M  V30 9587 H 911.196 -1.72949 -5.61571 0
M  V30 9588 H 912.72 -0.898922 -6.03947 0
M  V30 9589 H 914.134 -2.89207 -4.95007 0
M  V30 9590 H 912.531 -3.65916 -4.75631 0
M  V30 9591 H 913.601 -3.50456 -3.35125 0
M  V30 9592 N 914.944 1.19125 -1.03184 0
M  V30 9593 C 916.193 1.8821 -0.725264 0
M  V30 9594 C 916.506 1.80674 0.749411 0
M  V30 9595 O 917.712 2.45037 1.16915 0
M  V30 9596 C 916.168 3.37607 -1.24697 0
M  V30 9597 C 915.776 3.53693 -2.74964 0
M  V30 9598 C 917.52 4.12149 -1.01652 0
M  V30 9599 C 915.427 4.97001 -3.20538 0
M  V30 9600 H 914.357 0.704916 -0.267599 0
M  V30 9601 H 917.008 1.34663 -1.24652 0
M  V30 9602 H 915.39 3.90569 -0.653614 0
M  V30 9603 H 916.564 3.11046 -3.39981 0
M  V30 9604 H 914.879 2.92544 -2.96322 0
M  V30 9605 H 917.476 5.17837 -1.33226 0
M  V30 9606 H 917.819 4.16274 0.0465712 0
M  V30 9607 H 918.352 3.65334 -1.57403 0
M  V30 9608 H 915.091 4.9804 -4.26189 0
M  V30 9609 H 914.611 5.40398 -2.60251 0
M  V30 9610 H 916.29 5.65669 -3.14049 0
M  V30 9611 N 916.422 0.810101 1.35185 0
M  V30 9612 C 917.65 0.404696 2.02903 0
M  V30 9613 C 918.065 -0.985434 1.61042 0
M  V30 9614 O 917.422 -1.63557 0.809658 0
M  V30 9615 C 917.473 0.482493 3.58266 0
M  V30 9616 O 917.194 1.81782 3.98606 0
M  V30 9617 C 918.695 0.070345 4.43244 0
M  V30 9618 H 915.915 0.163972 0.650657 0
M  V30 9619 H 918.459 1.0947 1.72733 0
M  V30 9620 H 916.614 -0.159296 3.87072 0
M  V30 9621 H 917.028 1.78306 4.93262 0
M  V30 9622 H 918.502 0.175888 5.5172 0
M  V30 9623 H 918.979 -0.984724 4.28018 0
M  V30 9624 H 919.585 0.685427 4.1974 0
M  V30 9625 N 917.9 -1.47166 0.563914 0
M  V30 9626 C 918.81 -2.33885 -0.182977 0
M  V30 9627 C 919.826 -1.48605 -0.905132 0
M  V30 9628 O 921.002 -1.81518 -0.872527 0
M  V30 9629 C 918.067 -3.25433 -1.19558 0
M  V30 9630 C 917.128 -4.26607 -0.480129 0
M  V30 9631 C 916.361 -5.1378 -1.44449 0
M  V30 9632 O 916.584 -5.03531 -2.67979 0
M  V30 9633 O 915.518 -5.94109 -0.965321 0
M  V30 9634 H 919.344 -2.99065 0.528544 0
M  V30 9635 H 916.929 -1.45834 0.324468 0
M  V30 9636 H 918.811 -3.81964 -1.77993 0
M  V30 9637 H 917.486 -2.62873 -1.8889 0
M  V30 9638 H 916.393 -3.73817 0.145583 0
M  V30 9639 H 917.726 -4.919 0.171868 0
M  V30 9640 N 919.378 -0.300708 -1.54705 0
M  V30 9641 C 920.326 0.591264 -2.2496 0
M  V30 9642 C 921.32 1.13725 -1.2555 0
M  V30 9643 O 922.526 1.08793 -1.43402 0
M  V30 9644 H 918.901 0.209278 -0.722293 0
M  V30 9645 H 920.872 -0.0238175 -2.9839 0
M  V30 9646 C 919.621 1.75179 -3.00346 0
M  V30 9647 H 918.944 1.34089 -3.76643 0
M  V30 9648 H 920.384 2.35198 -3.52786 0
M  V30 9649 C 918.843 2.65574 -2.07298 0
M  V30 9650 O 919.373 3.6666 -1.64083 0
M  V30 9651 N 917.579 2.33301 -1.7326 0
M  V30 9652 H 917.126 1.51142 -2.08599 0
M  V30 9653 H 917.084 2.94049 -1.11278 0
M  V30 9654 N 920.856 1.57574 -0.0284266 0
M  V30 9655 C 921.786 2.1321 0.952039 0
M  V30 9656 C 922.767 1.04806 1.33977 0
M  V30 9657 O 923.952 1.32635 1.41851 0
M  V30 9658 C 921.082 2.65862 2.23461 0
M  V30 9659 C 920.036 3.79047 1.98765 0
M  V30 9660 C 919.362 4.18124 3.33281 0
M  V30 9661 C 920.662 5.05151 1.32739 0
M  V30 9662 H 922.356 2.95385 0.488705 0
M  V30 9663 H 919.902 1.42092 0.233628 0
M  V30 9664 H 921.855 3.03417 2.92431 0
M  V30 9665 H 920.579 1.80848 2.71959 0
M  V30 9666 H 919.238 3.41929 1.32213 0
M  V30 9667 H 918.886 3.30092 3.79537 0
M  V30 9668 H 918.586 4.94396 3.17563 0
M  V30 9669 H 920.11 4.58262 4.0352 0
M  V30 9670 H 921.524 5.40297 1.91708 0
M  V30 9671 H 919.921 5.86416 1.27421 0
M  V30 9672 H 920.991 4.83969 0.300261 0
M  V30 9673 N 922.334 -0.244713 1.55689 0
M  V30 9674 C 923.264 -1.30667 1.93516 0
M  V30 9675 C 924.245 -1.50094 0.800371 0
M  V30 9676 O 925.43 -1.62665 1.06083 0
M  V30 9677 C 922.56 -2.66101 2.23176 0
M  V30 9678 C 921.514 -2.61366 3.38927 0
M  V30 9679 C 920.84 -4.00616 3.54134 0
M  V30 9680 C 922.14 -2.18161 4.74555 0
M  V30 9681 H 923.834 -0.992546 2.82469 0
M  V30 9682 H 921.38 -0.476018 1.35905 0
M  V30 9683 H 923.333 -3.4053 2.48228 0
M  V30 9684 H 922.057 -2.99154 1.31051 0
M  V30 9685 H 920.716 -1.89395 3.13887 0
M  V30 9686 H 920.364 -4.30938 2.59426 0
M  V30 9687 H 920.064 -3.98335 4.31975 0
M  V30 9688 H 921.588 -4.76741 3.8151 0
M  V30 9689 H 923.002 -2.82323 4.98965 0
M  V30 9690 H 921.399 -2.26988 5.55515 0
M  V30 9691 H 922.469 -1.13333 4.7147 0
M  V30 9692 N 923.813 -1.49104 -0.510467 0
M  V30 9693 C 925.224 -1.51423 -1.09215 0
M  V30 9694 C 925.575 -0.295035 -1.93969 0
M  V30 9695 O 924.7 0.596064 -2.08029 0
M  V30 9696 C 925.295 -2.74387 -1.98739 0
M  V30 9697 C 923.854 -2.79515 -2.52088 0
M  V30 9698 C 923.001 -2.4521 -1.29488 0
M  V30 9699 H 925.952 -1.55938 -0.294807 0
M  V30 9700 H 925.973 -2.54012 -2.83298 0
M  V30 9701 H 925.485 -3.63105 -1.37026 0
M  V30 9702 H 923.586 -1.95054 -3.17466 0
M  V30 9703 H 923.699 -3.81447 -2.89887 0
M  V30 9704 H 922.063 -1.96785 -1.61703 0
M  V30 9705 H 922.846 -3.36192 -0.694978 0
M  V30 9706 N 925.291 0.760815 -1.38019 0
M  V30 9707 C 926.539 1.51673 -1.33566 0
M  V30 9708 C 926.86 1.94852 0.076024 0
M  V30 9709 O 926.13 1.67112 1.02227 0
M  V30 9710 H 924.71 0.562581 -0.491438 0
M  V30 9711 H 927.372 0.904832 -1.72623 0
M  V30 9712 H 926.468 2.41102 -1.98182 0
M  V30 9713 N 926.769 1.22769 0.988202 0
M  V30 9714 C 928.185 0.988665 1.2529 0
M  V30 9715 C 928.385 -0.314938 1.99024 0
M  V30 9716 O 927.441 -1.03637 2.30251 0
M  V30 9717 C 928.754 2.19046 2.06009 0
M  V30 9718 C 930.302 2.23452 2.19176 0
M  V30 9719 C 930.777 3.43196 3.03283 0
M  V30 9720 N 932.268 3.43387 3.10869 0
M  V30 9721 C 933.003 4.32693 3.7625 0
M  V30 9722 N 932.499 5.32224 4.43519 0
M  V30 9723 N 934.292 4.20457 3.73058 0
M  V30 9724 H 926.443 2.06575 0.494014 0
M  V30 9725 H 928.706 0.905452 0.28082 0
M  V30 9726 H 928.412 3.13607 1.59197 0
M  V30 9727 H 928.286 2.19492 3.06763 0
M  V30 9728 H 930.673 1.29436 2.65199 0
M  V30 9729 H 930.754 2.27042 1.17836 0
M  V30 9730 H 930.398 4.37515 2.57959 0
M  V30 9731 H 930.328 3.36847 4.04774 0
M  V30 9732 H 932.819 2.71368 2.62998 0
M  V30 9733 H 933.132 5.9664 4.91163 0
M  V30 9734 H 931.477 5.36133 4.42252 0
M  V30 9735 H 934.668 3.41949 3.19669 0
M  V30 9736 H 934.841 4.90261 4.23731 0
M  V30 9737 N 928.247 -1.18576 1.03814 0
M  V30 9738 C 929.157 -2.25778 0.637311 0
M  V30 9739 C 930.173 -1.7074 -0.335248 0
M  V30 9740 O 931.349 -2.00494 -0.19081 0
M  V30 9741 C 928.414 -3.467 0.00386953 0
M  V30 9742 C 927.475 -4.16881 1.02511 0
M  V30 9743 C 926.708 -5.32031 0.421802 0
M  V30 9744 O 926.931 -5.65142 -0.772699 0
M  V30 9745 O 925.865 -5.90826 1.14925 0
M  V30 9746 H 929.691 -2.62323 1.53037 0
M  V30 9747 H 927.276 -1.25609 0.80887 0
M  V30 9748 H 929.158 -4.19953 -0.348873 0
M  V30 9749 H 927.833 -3.11983 -0.863047 0
M  V30 9750 H 926.74 -3.45707 1.4296 0
M  V30 9751 H 928.073 -4.55592 1.86271 0
M  V30 9752 N 929.725 -0.817259 -1.34754 0
M  V30 9753 C 930.655 -0.249769 -2.3216 0
M  V30 9754 C 931.636 0.630663 -1.57977 0
M  V30 9755 O 932.821 0.558719 -1.85989 0
M  V30 9756 C 929.951 0.593825 -3.42186 0
M  V30 9757 C 928.905 -0.188997 -4.27583 0
M  V30 9758 C 928.231 0.776979 -5.29025 0
M  V30 9759 C 929.531 -1.39401 -5.03354 0
M  V30 9760 H 931.225 -1.06359 -2.79872 0
M  V30 9761 H 928.771 -0.512894 -1.34556 0
M  V30 9762 H 930.724 1.00097 -4.09339 0
M  V30 9763 H 929.448 1.44064 -2.93109 0
M  V30 9764 H 928.107 -0.577445 -3.62024 0
M  V30 9765 H 927.755 1.61959 -4.76212 0
M  V30 9766 H 927.455 0.257448 -5.87036 0
M  V30 9767 H 928.979 1.18211 -5.99048 0
M  V30 9768 H 930.393 -1.06117 -5.63393 0
M  V30 9769 H 928.79 -1.84878 -5.70912 0
M  V30 9770 H 929.86 -2.17515 -4.33377 0
M  V30 9771 N 931.203 1.46865 -0.571711 0
M  V30 9772 C 932.133 2.3298 0.155795 0
M  V30 9773 C 933.114 1.44678 0.894553 0
M  V30 9774 O 934.299 1.73513 0.872176 0
M  V30 9775 C 931.429 3.26745 1.17708 0
M  V30 9776 C 930.383 4.24401 0.553863 0
M  V30 9777 C 929.709 5.07595 1.68083 0
M  V30 9778 C 931.009 5.19884 -0.501827 0
M  V30 9779 H 932.703 2.94056 -0.563176 0
M  V30 9780 H 930.249 1.41402 -0.27228 0
M  V30 9781 H 932.202 3.85838 1.6943 0
M  V30 9782 H 930.926 2.63753 1.92618 0
M  V30 9783 H 929.585 3.66554 0.057815 0
M  V30 9784 H 929.233 4.40996 2.41933 0
M  V30 9785 H 928.933 5.73722 1.26953 0
M  V30 9786 H 930.457 5.6955 2.20103 0
M  V30 9787 H 931.871 5.73257 -0.0701057 0
M  V30 9788 H 930.268 5.94293 -0.832815 0
M  V30 9789 H 931.338 4.64482 -1.39229 0
M  V30 9790 N 932.681 0.308908 1.54543 0
M  V30 9791 C 933.611 -0.556657 2.26768 0
M  V30 9792 C 934.592 -1.13145 1.27013 0
M  V30 9793 O 935.777 -1.15931 1.558 0
M  V30 9794 C 932.907 -1.72481 3.01443 0
M  V30 9795 C 931.861 -1.28001 4.08411 0
M  V30 9796 C 931.187 -2.53395 4.70845 0
M  V30 9797 C 932.487 -0.405497 5.20724 0
M  V30 9798 H 934.181 0.0457618 2.99365 0
M  V30 9799 H 931.727 0.0234495 1.43981 0
M  V30 9800 H 933.68 -2.3365 3.50693 0
M  V30 9801 H 932.404 -2.35359 2.26437 0
M  V30 9802 H 931.063 -0.69133 3.60022 0
M  V30 9803 H 930.711 -3.14604 3.92471 0
M  V30 9804 H 930.411 -2.2433 5.43093 0
M  V30 9805 H 931.935 -3.15352 5.22863 0
M  V30 9806 H 933.349 -0.923076 5.6582 0
M  V30 9807 H 931.746 -0.208282 5.99738 0
M  V30 9808 H 932.816 0.567412 4.81569 0
M  V30 9809 N 934.159 -1.57557 0.0367827 0
M  V30 9810 C 935.091 -2.07597 -0.971395 0
M  V30 9811 C 936.104 -1.0009 -1.28397 0
M  V30 9812 O 937.293 -1.27692 -1.24728 0
M  V30 9813 C 934.393 -2.492 -2.2968 0
M  V30 9814 C 933.566 -3.79875 -2.16826 0
M  V30 9815 C 932.625 -4.07946 -3.32366 0
M  V30 9816 O 931.651 -4.78083 -3.0891 0
M  V30 9817 N 932.853 -3.58722 -4.56397 0
M  V30 9818 H 935.618 -2.94714 -0.544389 0
M  V30 9819 H 933.179 -1.61205 -0.1498 0
M  V30 9820 H 935.171 -2.65065 -3.05815 0
M  V30 9821 H 933.741 -1.67407 -2.63995 0
M  V30 9822 H 932.961 -3.73732 -1.2537 0
M  V30 9823 H 934.249 -4.65476 -2.0545 0
M  V30 9824 H 933.647 -3.01994 -4.78347 0
M  V30 9825 H 932.204 -3.79852 -5.29675 0
M  V30 9826 N 935.637 0.236453 -1.55816 0
M  V30 9827 C 936.865 0.980295 -1.82203 0
M  V30 9828 C 937.28 1.7854 -0.613926 0
M  V30 9829 O 936.637 1.77661 0.417491 0
M  V30 9830 C 936.688 1.90982 -3.06933 0
M  V30 9831 O 936.409 1.13728 -4.23081 0
M  V30 9832 C 937.91 2.76879 -3.46198 0
M  V30 9833 H 935.13 0.28799 -0.606055 0
M  V30 9834 H 937.674 0.256182 -2.02889 0
M  V30 9835 H 935.829 2.58808 -2.88266 0
M  V30 9836 H 936.243 1.76694 -4.93842 0
M  V30 9837 H 937.717 3.37831 -4.36548 0
M  V30 9838 H 938.194 3.48522 -2.67262 0
M  V30 9839 H 938.8 2.1449 -3.67252 0
M  V30 9840 N 937.115 1.49373 0.502552 0
M  V30 9841 C 938.063 1.66411 1.62512 0
M  V30 9842 C 939.057 0.530062 1.60893 0
M  V30 9843 O 940.263 0.709648 1.65421 0
M  V30 9844 H 936.638 0.524707 0.538689 0
M  V30 9845 H 938.609 2.60639 1.45293 0
M  V30 9846 C 937.358 1.74648 3.00655 0
M  V30 9847 H 936.681 2.61285 3.02606 0
M  V30 9848 H 938.121 1.90605 3.78742 0
M  V30 9849 C 936.58 0.490963 3.33303 0
M  V30 9850 O 937.11 -0.384039 3.9986 0
M  V30 9851 N 935.316 0.354375 2.88431 0
M  V30 9852 H 934.863 1.06742 2.34444 0
M  V30 9853 H 934.821 -0.484593 3.10643 0
M  V30 9854 N 938.594 -0.753485 1.38421 0
M  V30 9855 C 939.524 -1.8808 1.38377 0
M  V30 9856 C 940.505 -1.68258 0.249664 0
M  V30 9857 O 941.69 -1.88848 0.45276 0
M  V30 9858 C 938.82 -3.25608 1.20818 0
M  V30 9859 C 937.774 -3.60032 2.31433 0
M  V30 9860 C 937.1 -4.96297 1.9898 0
M  V30 9861 C 938.4 -3.64898 3.73694 0
M  V30 9862 H 940.094 -1.88375 2.32713 0
M  V30 9863 H 937.64 -0.90489 1.12017 0
M  V30 9864 H 939.593 -4.04127 1.19412 0
M  V30 9865 H 938.317 -3.25793 0.229433 0
M  V30 9866 H 936.976 -2.83831 2.32025 0
M  V30 9867 H 936.624 -4.93043 0.995889 0
M  V30 9868 H 936.324 -5.20298 2.73063 0
M  V30 9869 H 937.848 -5.77196 1.99193 0
M  V30 9870 H 939.262 -4.33531 3.75132 0
M  V30 9871 H 937.659 -4.00407 4.46983 0
M  V30 9872 H 938.729 -2.65124 4.06002 0
M  V30 9873 N 940.072 -1.23292 -0.981677 0
M  V30 9874 C 941.321 -1.05832 -1.71705 0
M  V30 9875 C 941.634 0.40514 -1.91358 0
M  V30 9876 O 942.84 0.699645 -2.6233 0
M  V30 9877 C 941.296 -1.84532 -3.08992 0
M  V30 9878 C 940.904 -3.35199 -2.9723 0
M  V30 9879 C 942.648 -1.75557 -3.86497 0
M  V30 9880 C 940.555 -4.06296 -4.29741 0
M  V30 9881 H 939.485 -0.39241 -0.64384 0
M  V30 9882 H 942.136 -1.47247 -1.09502 0
M  V30 9883 H 940.518 -1.35923 -3.71942 0
M  V30 9884 H 941.692 -3.91286 -2.43377 0
M  V30 9885 H 940.007 -3.44973 -2.332 0
M  V30 9886 H 942.604 -2.25989 -4.84596 0
M  V30 9887 H 942.947 -0.718101 -4.1006 0
M  V30 9888 H 943.48 -2.21771 -3.30246 0
M  V30 9889 H 940.219 -5.10344 -4.11375 0
M  V30 9890 H 939.739 -3.54997 -4.83464 0
M  V30 9891 H 941.418 -4.12519 -4.98434 0
M  V30 9892 N 941.55 1.18024 -1.04442 0
M  V30 9893 C 942.498 2.23834 -0.632557 0
M  V30 9894 C 943.492 1.65902 0.342488 0
M  V30 9895 O 944.698 1.78778 0.20937 0
M  V30 9896 H 941.073 0.728544 -0.186353 0
M  V30 9897 H 943.044 2.55876 -1.53526 0
M  V30 9898 C 941.793 3.47697 -0.0153661 0
M  V30 9899 H 941.116 3.92574 -0.756704 0
M  V30 9900 H 942.556 4.23345 0.235541 0
M  V30 9901 C 941.015 3.13416 1.23579 0
M  V30 9902 O 941.545 3.27499 2.3261 0
M  V30 9903 N 939.751 2.67708 1.13053 0
M  V30 9904 H 939.298 2.56449 0.243277 0
M  V30 9905 H 939.256 2.45143 1.96855 0
M  V30 9906 N 943.028 0.824394 1.34319 0
M  V30 9907 C 944.258 0.425576 2.02169 0
M  V30 9908 C 944.666 -0.973596 1.62227 0
M  V30 9909 O 944.009 -1.64173 0.824199 0
M  V30 9910 C 944.071 0.449902 3.56674 0
M  V30 9911 C 943.735 1.80266 4.19944 0
M  V30 9912 C 944.732 2.76373 4.40357 0
M  V30 9913 C 942.417 2.09155 4.56683 0
M  V30 9914 C 944.411 3.9954 4.96635 0
M  V30 9915 C 942.098 3.32581 5.12672 0
M  V30 9916 C 943.096 4.27591 5.32592 0
M  V30 9917 O 942.784 5.48837 5.87395 0
M  V30 9918 H 942.516 0.168866 0.654569 0
M  V30 9919 H 945.07 1.11441 1.7254 0
M  V30 9920 H 943.3 -0.295631 3.85568 0
M  V30 9921 H 944.989 0.0709302 4.05838 0
M  V30 9922 H 945.755 2.55351 4.12336 0
M  V30 9923 H 941.634 1.36004 4.40481 0
M  V30 9924 H 945.178 4.73709 5.12099 0
M  V30 9925 H 941.075 3.53466 5.40122 0
M  V30 9926 H 941.843 5.50377 6.05828 0
M  V30 9927 N 944.506 -1.46559 0.579492 0
M  V30 9928 C 945.752 -2.02699 0.0639363 0
M  V30 9929 C 946.085 -1.4504 -1.29139 0
M  V30 9930 O 945.36 -0.614284 -1.84545 0
M  V30 9931 C 945.643 -3.601 -0.00528618 0
M  V30 9932 C 945.496 -4.28149 1.37871 0
M  V30 9933 C 946.815 -4.34375 -0.707537 0
M  V30 9934 H 943.934 -0.736586 0.0247085 0
M  V30 9935 H 946.576 -1.74739 0.746071 0
M  V30 9936 H 944.726 -3.84052 -0.586206 0
M  V30 9937 H 946.398 -4.1547 2.00455 0
M  V30 9938 H 944.641 -3.87636 1.94732 0
M  V30 9939 H 945.312 -5.36888 1.28278 0
M  V30 9940 H 947.788 -4.15549 -0.214064 0
M  V30 9941 H 946.664 -5.44091 -0.724992 0
M  V30 9942 H 946.925 -4.052 -1.7682 0
M  V30 9943 N 945.984 -0.3171 -1.54377 0
M  V30 9944 C 947.212 0.289558 -2.04864 0
M  V30 9945 C 947.627 1.46284 -1.19359 0
M  V30 9946 O 946.984 1.81135 -0.222795 0
M  V30 9947 C 947.035 0.730273 -3.54047 0
M  V30 9948 O 946.756 -0.396325 -4.36304 0
M  V30 9949 C 948.257 1.40041 -4.20599 0
M  V30 9950 H 945.477 0.0605836 -0.668259 0
M  V30 9951 H 948.021 -0.461411 -1.99227 0
M  V30 9952 H 946.176 1.43123 -3.59992 0
M  V30 9953 H 946.59 -0.0502901 -5.24476 0
M  V30 9954 H 948.064 1.65979 -5.26455 0
M  V30 9955 H 948.541 2.34565 -3.71316 0
M  V30 9956 H 949.147 0.742206 -4.18774 0
M  V30 9957 N 947.462 1.57535 -0.0451378 0
M  V30 9958 C 948.687 1.97172 0.64326 0
M  V30 9959 C 949.112 0.922266 1.63939 0
M  V30 9960 O 948.47 -0.115155 1.80934 0
M  V30 9961 C 948.518 3.35889 1.3119 0
M  V30 9962 O 947.622 3.33387 2.42748 0
M  V30 9963 H 946.963 0.642469 0.167719 0
M  V30 9964 H 949.493 2.04295 -0.111747 0
M  V30 9965 H 949.503 3.72481 1.66499 0
M  V30 9966 H 948.178 4.1181 0.581823 0
M  V30 9967 H 946.755 3.08533 2.09432 0
M  V30 9968 N 948.94 -0.228186 1.55939 0
M  V30 9969 C 950.189 -0.951563 1.77843 0
M  V30 9970 C 950.502 -1.85763 0.612501 0
M  V30 9971 O 951.708 -2.61916 0.715006 0
M  V30 9972 C 950.164 -1.74216 3.14923 0
M  V30 9973 C 949.772 -0.882569 4.39221 0
M  V30 9974 C 951.516 -2.45715 3.46156 0
M  V30 9975 C 949.423 -1.67014 5.67327 0
M  V30 9976 H 948.353 -0.359035 0.663031 0
M  V30 9977 H 951.004 -0.205636 1.82344 0
M  V30 9978 H 949.386 -2.53075 3.0458 0
M  V30 9979 H 950.56 -0.13499 4.60602 0
M  V30 9980 H 948.875 -0.280022 4.15457 0
M  V30 9981 H 951.472 -3.05127 4.39092 0
M  V30 9982 H 951.815 -3.1827 2.68346 0
M  V30 9983 H 952.348 -1.73852 3.57799 0
M  V30 9984 H 949.087 -0.987985 6.48012 0
M  V30 9985 H 948.607 -2.3925 5.50018 0
M  V30 9986 H 950.286 -2.23252 6.07262 0
M  V30 9987 N 950.418 -1.49637 -0.494624 0
M  V30 9988 C 951.834 -1.36541 -0.826361 0
M  V30 9989 C 952.034 -0.403386 -1.97421 0
M  V30 9990 O 951.09 0.162614 -2.51976 0
M  V30 9991 C 952.403 -2.77401 -1.16057 0
M  V30 9992 C 953.951 -2.86148 -1.26841 0
M  V30 9993 C 954.426 -4.27789 -1.63587 0
M  V30 9994 N 955.917 -4.3063 -1.70624 0
M  V30 9995 C 956.652 -5.37198 -2.00514 0
M  V30 9996 N 956.148 -6.54004 -2.28584 0
M  V30 9997 N 957.941 -5.2462 -2.01818 0
M  V30 9998 H 950.092 -2.10776 0.26219 0
M  V30 9999 H 952.355 -0.946419 0.0547235 0
M  V30 10000 H 952.061 -3.49526 -0.390434 0
M  V30 10001 H 951.935 -3.1317 -2.10249 0
M  V30 10002 H 954.322 -2.14256 -2.02925 0
M  V30 10003 H 954.403 -2.53953 -0.30684 0
M  V30 10004 H 954.047 -5.00209 -0.880507 0
M  V30 10005 H 953.977 -4.57453 -2.60854 0
M  V30 10006 H 956.468 -3.46393 -1.51065 0
M  V30 10007 H 956.781 -7.31041 -2.50598 0
M  V30 10008 H 955.126 -6.57219 -2.26027 0
M  V30 10009 H 958.317 -4.32371 -1.79369 0
M  V30 10010 H 958.49 -6.07765 -2.24778 0
M  V30 10011 N 951.896 0.746133 -1.38819 0
M  V30 10012 C 953.307 1.32384 -1.31648 0
M  V30 10013 C 953.658 1.96185 0.0243086 0
M  V30 10014 O 952.783 1.95567 0.92641 0
M  V30 10015 C 953.378 2.40712 -2.38418 0
M  V30 10016 C 951.937 2.94185 -2.34803 0
M  V30 10017 C 951.084 1.67639 -2.20891 0
M  V30 10018 H 954.035 0.544457 -1.49068 0
M  V30 10019 H 954.056 3.20833 -2.04564 0
M  V30 10020 H 953.568 1.94247 -3.3599 0
M  V30 10021 H 951.669 3.44959 -1.40834 0
M  V30 10022 H 951.782 3.48057 -3.29231 0
M  V30 10023 H 950.146 1.9155 -1.67871 0
M  V30 10024 H 950.929 1.23242 -3.20416 0
M  V30 10025 N 953.375 1.23811 0.975125 0
M  V30 10026 C 954.323 1.02149 2.0897 0
M  V30 10027 C 955.317 -0.0412172 1.6935 0
M  V30 10028 O 956.523 0.112726 1.79647 0
M  V30 10029 H 952.898 0.313259 0.683647 0
M  V30 10030 H 954.869 1.96686 2.24404 0
M  V30 10031 C 953.618 0.635023 3.41852 0
M  V30 10032 H 952.941 1.44449 3.72793 0
M  V30 10033 H 954.381 0.52301 4.20762 0
M  V30 10034 C 952.84 -0.657207 3.30428 0
M  V30 10035 O 953.37 -1.70494 3.63723 0
M  V30 10036 N 951.576 -0.635122 2.83575 0
M  V30 10037 H 951.123 0.21784 2.56677 0
M  V30 10038 H 951.081 -1.49995 2.76313 0
M  V30 10039 N 954.853 -1.17469 1.05066 0
M  V30 10040 C 956.102 -1.87032 0.755114 0
M  V30 10041 C 956.415 -1.81844 -0.720572 0
M  V30 10042 O 957.621 -2.46866 -1.13002 0
M  V30 10043 C 956.077 -3.35581 1.30052 0
M  V30 10044 C 955.685 -3.49274 2.80556 0
M  V30 10045 C 957.429 -4.1048 1.08196 0
M  V30 10046 C 955.336 -4.91838 3.28404 0
M  V30 10047 H 954.266 -0.70057 0.278779 0
M  V30 10048 H 956.917 -1.32663 1.26779 0
M  V30 10049 H 955.299 -3.89479 0.715667 0
M  V30 10050 H 956.473 -3.05598 3.44886 0
M  V30 10051 H 954.788 -2.87793 3.00939 0
M  V30 10052 H 957.385 -5.15652 1.41447 0
M  V30 10053 H 957.728 -4.16295 0.0196603 0
M  V30 10054 H 958.261 -3.62784 1.63195 0
M  V30 10055 H 955 -4.91196 4.34058 0
M  V30 10056 H 954.52 -5.36189 2.68815 0
M  V30 10057 H 956.199 -5.60602 3.23009 0
M  V30 10058 N 956.331 -0.831506 -1.3388 0
M  V30 10059 C 957.578 -0.423674 -1.98018 0
M  V30 10060 C 957.906 1.01533 -1.65895 0
M  V30 10061 O 957.161 1.72342 -0.927183 0
M  V30 10062 C 957.46 -0.582733 -3.52617 0
M  V30 10063 C 957.126 -1.98874 -4.04673 0
M  V30 10064 C 955.788 -2.37334 -4.186 0
M  V30 10065 C 958.14 -2.90745 -4.3257 0
M  V30 10066 C 955.468 -3.66984 -4.57755 0
M  V30 10067 C 957.82 -4.19868 -4.73174 0
M  V30 10068 C 956.484 -4.58294 -4.85307 0
M  V30 10069 H 955.754 -0.155033 -0.7246 0
M  V30 10070 H 958.401 -1.05711 -1.59679 0
M  V30 10071 H 956.706 0.134052 -3.91571 0
M  V30 10072 H 958.403 -0.247576 -4.00235 0
M  V30 10073 H 954.993 -1.68001 -3.94301 0
M  V30 10074 H 959.177 -2.62272 -4.2134 0
M  V30 10075 H 954.433 -3.9657 -4.65341 0
M  V30 10076 H 958.607 -4.91138 -4.93717 0
M  V30 10077 H 956.234 -5.58805 -5.15404 0
M  V30 10078 N 957.809 1.4625 -0.587256 0
M  V30 10079 C 959.055 2.02662 -0.0746851 0
M  V30 10080 C 959.388 1.45723 1.28368 0
M  V30 10081 O 958.663 0.624062 1.84216 0
M  V30 10082 C 958.946 3.60097 -0.0138109 0
M  V30 10083 C 958.799 4.27412 -1.4014 0
M  V30 10084 C 960.118 4.34744 0.684491 0
M  V30 10085 H 957.237 0.736444 -0.0286144 0
M  V30 10086 H 959.879 1.74341 -0.755328 0
M  V30 10087 H 958.029 3.84357 0.56583 0
M  V30 10088 H 959.701 4.14401 -2.02656 0
M  V30 10089 H 957.944 3.86598 -1.96785 0
M  V30 10090 H 958.615 5.362 -1.31124 0
M  V30 10091 H 961.091 4.15657 0.192023 0
M  V30 10092 H 959.967 5.44468 0.696127 0
M  V30 10093 H 960.228 4.06132 1.74669 0
M  V30 10094 N 959.287 0.325282 1.54207 0
M  V30 10095 C 960.535 -0.276229 2.00203 0
M  V30 10096 C 960.856 -1.52519 1.21503 0
M  V30 10097 O 960.126 -1.93313 0.317302 0
M  V30 10098 H 958.706 -0.105059 0.739575 0
M  V30 10099 H 961.368 0.442225 1.89817 0
M  V30 10100 H 960.464 -0.531427 3.07542 0
M  V30 10101 N 960.765 -1.57509 0.0534917 0
M  V30 10102 C 962.181 -1.56696 -0.303067 0
M  V30 10103 C 962.381 -1.06135 -1.71282 0
M  V30 10104 O 961.437 -0.71899 -2.42047 0
M  V30 10105 C 962.75 -3.00421 -0.129418 0
M  V30 10106 C 964.298 -3.12358 -0.200346 0
M  V30 10107 C 964.773 -4.57967 -0.0551971 0
M  V30 10108 N 966.264 -4.63066 -0.111398 0
M  V30 10109 C 966.999 -5.73395 -0.0232344 0
M  V30 10110 N 966.495 -6.92701 0.11741 0
M  V30 10111 N 968.288 -5.62045 -0.078984 0
M  V30 10112 H 960.439 -1.88696 0.975064 0
M  V30 10113 H 962.702 -0.869072 0.378706 0
M  V30 10114 H 962.408 -3.41456 0.842653 0
M  V30 10115 H 962.282 -3.66563 -0.889476 0
M  V30 10116 H 964.669 -2.71221 -1.16289 0
M  V30 10117 H 964.75 -2.48891 0.590506 0
M  V30 10118 H 964.394 -4.9979 0.904034 0
M  V30 10119 H 964.324 -5.19443 -0.865223 0
M  V30 10120 H 966.815 -3.77263 -0.219256 0
M  V30 10121 H 967.128 -7.72597 0.177326 0
M  V30 10122 H 965.473 -6.94833 0.152526 0
M  V30 10123 H 968.664 -4.67725 -0.187434 0
M  V30 10124 H 968.837 -6.48 -0.00681731 0
M  V30 10125 N 962.243 0.219913 -1.56058 0
M  V30 10126 C 963.206 1.25606 -1.91718 0
M  V30 10127 C 964.206 1.39721 -0.795912 0
M  V30 10128 O 965.396 1.37958 -1.06364 0
M  V30 10129 C 962.528 2.62961 -2.16943 0
M  V30 10130 H 963.721 0.951909 -2.84392 0
M  V30 10131 H 961.274 0.460398 -1.49365 0
M  V30 10132 H 962.009 2.98472 -1.26826 0
M  V30 10133 H 961.794 2.54093 -2.98629 0
M  V30 10134 H 963.284 3.37727 -2.45622 0
M  V30 10135 N 963.721 1.49897 0.486681 0
M  V30 10136 C 964.631 1.70379 1.6127 0
M  V30 10137 C 965.647 0.58659 1.63814 0
M  V30 10138 O 966.823 0.863044 1.81971 0
M  V30 10139 C 963.888 1.77911 2.97571 0
M  V30 10140 C 962.949 3.01569 3.0554 0
M  V30 10141 C 962.182 3.08732 4.35339 0
M  V30 10142 O 962.405 2.23099 5.2496 0
M  V30 10143 O 961.339 4.01325 4.48578 0
M  V30 10144 H 965.165 2.65799 1.46916 0
M  V30 10145 H 962.75 1.33808 0.664516 0
M  V30 10146 H 964.632 1.85135 3.78554 0
M  V30 10147 H 963.307 0.856722 3.12157 0
M  V30 10148 H 962.214 2.99854 2.23693 0
M  V30 10149 H 963.547 3.93335 2.95886 0
M  V30 10150 N 965.199 -0.738761 1.39212 0
M  V30 10151 C 966.447 -1.49529 1.35962 0
M  V30 10152 C 966.768 -1.94948 -0.0450152 0
M  V30 10153 O 966.038 -1.68717 -0.995552 0
M  V30 10154 H 964.618 -0.554692 0.500326 0
M  V30 10155 H 967.28 -0.877255 1.74041 0
M  V30 10156 H 966.376 -2.37919 2.01993 0
M  V30 10157 N 966.677 -1.24326 -0.968545 0
M  V30 10158 C 967.905 -1.10947 -1.74638 0
M  V30 10159 C 968.32 0.338064 -1.85749 0
M  V30 10160 O 967.677 1.23331 -1.3452 0
M  V30 10161 C 967.728 -1.74254 -3.1673 0
M  V30 10162 O 967.449 -3.13347 -3.06178 0
M  V30 10163 C 968.95 -1.66473 -4.10855 0
M  V30 10164 H 966.17 -0.38767 -0.547679 0
M  V30 10165 H 968.714 -1.64415 -1.21605 0
M  V30 10166 H 966.869 -1.2479 -3.66751 0
M  V30 10167 H 967.283 -3.44255 -3.95713 0
M  V30 10168 H 968.757 -2.15452 -5.08217 0
M  V30 10169 H 969.234 -0.625785 -4.34719 0
M  V30 10170 H 969.84 -2.15359 -3.66743 0
M  V30 10171 N 968.156 1.1691 -1.05688 0
M  V30 10172 C 969.384 1.91204 -0.790485 0
M  V30 10173 C 969.799 1.77095 0.654434 0
M  V30 10174 O 969.156 1.11146 1.44751 0
M  V30 10175 C 969.207 3.42108 -1.16808 0
M  V30 10176 O 968.928 3.55788 -2.55629 0
M  V30 10177 C 970.429 4.33466 -0.92855 0
M  V30 10178 H 967.649 0.606508 -0.287035 0
M  V30 10179 H 970.193 1.48225 -1.40888 0
M  V30 10180 H 968.348 3.82814 -0.59434 0
M  V30 10181 H 968.762 4.49321 -2.70575 0
M  V30 10182 H 970.236 5.37836 -1.24245 0
M  V30 10183 H 970.713 4.38989 0.136016 0
M  V30 10184 H 971.319 3.98481 -1.48638 0
M  V30 10185 N 969.634 0.838594 1.33437 0
M  V30 10186 C 970.566 0.229006 2.28053 0
M  V30 10187 C 971.579 -0.590103 1.51729 0
M  V30 10188 O 972.768 -0.417218 1.73556 0
M  V30 10189 C 969.868 -0.696251 3.31671 0
M  V30 10190 C 969.041 0.0834606 4.3732 0
M  V30 10191 C 968.1 -0.765097 5.20608 0
M  V30 10192 O 967.126 -0.2044 5.68833 0
M  V30 10193 N 968.328 -2.08249 5.4186 0
M  V30 10194 H 971.093 1.04196 2.81004 0
M  V30 10195 H 968.654 0.697031 1.46127 0
M  V30 10196 H 970.646 -1.26889 3.84293 0
M  V30 10197 H 969.216 -1.40992 2.78998 0
M  V30 10198 H 968.436 0.837481 3.85201 0
M  V30 10199 H 969.724 0.619613 5.05013 0
M  V30 10200 H 969.122 -2.56156 5.04381 0
M  V30 10201 H 967.679 -2.60362 5.97541 0
M  V30 10202 N 971.112 -1.45937 0.595003 0
M  V30 10203 C 972.342 -2.06399 0.0911607 0
M  V30 10204 C 972.75 -1.44236 -1.22444 0
M  V30 10205 O 972.093 -0.546265 -1.7539 0
M  V30 10206 C 972.155 -3.59242 -0.136079 0
M  V30 10207 C 971.819 -4.43668 1.09579 0
M  V30 10208 C 972.816 -4.79437 2.01088 0
M  V30 10209 C 970.501 -4.84616 1.32109 0
M  V30 10210 C 972.495 -5.54995 3.13464 0
M  V30 10211 C 970.182 -5.5993 2.44788 0
M  V30 10212 C 971.18 -5.95035 3.35294 0
M  V30 10213 O 970.868 -6.68825 4.46014 0
M  V30 10214 H 970.6 -0.673316 0.0601779 0
M  V30 10215 H 973.154 -1.88365 0.819005 0
M  V30 10216 H 971.384 -3.75629 -0.918676 0
M  V30 10217 H 973.073 -4.0159 -0.589954 0
M  V30 10218 H 973.839 -4.48371 1.84902 0
M  V30 10219 H 969.718 -4.56735 0.625662 0
M  V30 10220 H 973.262 -5.82314 3.84131 0
M  V30 10221 H 969.159 -5.90411 2.60931 0
M  V30 10222 H 969.927 -6.87262 4.44537 0
M  V30 10223 N 972.59 -0.333456 -1.54032 0
M  V30 10224 C 973.815 0.270517 -2.05628 0
M  V30 10225 C 974.24 1.44231 -1.20744 0
M  V30 10226 O 973.598 1.79975 -0.218822 0
M  V30 10227 C 973.646 0.673251 -3.54259 0
M  V30 10228 O 972.75 1.77448 -3.72271 0
M  V30 10229 H 972.091 0.0469753 -0.662336 0
M  V30 10230 H 974.621 -0.484739 -1.98775 0
M  V30 10231 H 974.631 0.953194 -3.96709 0
M  V30 10232 H 973.306 -0.183747 -4.15494 0
M  V30 10233 H 971.883 1.49259 -3.41725 0
M  V30 10234 N 974.068 1.57479 -0.061844 0
M  V30 10235 C 975.015 2.12152 0.908862 0
M  V30 10236 C 975.985 1.03152 1.30188 0
M  V30 10237 O 977.17 1.3076 1.38948 0
M  V30 10238 C 974.31 2.6796 2.17465 0
M  V30 10239 C 973.423 3.91083 1.83517 0
M  V30 10240 C 972.558 4.35169 3.04633 0
M  V30 10241 C 971.597 5.50964 2.66655 0
M  V30 10242 N 970.734 5.90055 3.80499 0
M  V30 10243 H 975.574 2.94797 0.435743 0
M  V30 10244 H 973.111 1.45686 0.203445 0
M  V30 10245 H 975.069 2.98421 2.91548 0
M  V30 10246 H 973.699 1.88096 2.62335 0
M  V30 10247 H 972.751 3.67146 0.995381 0
M  V30 10248 H 974.063 4.75214 1.51569 0
M  V30 10249 H 973.217 4.67239 3.87005 0
M  V30 10250 H 971.956 3.49871 3.39767 0
M  V30 10251 H 970.961 5.18556 1.82703 0
M  V30 10252 H 972.186 6.37986 2.32702 0
M  V30 10253 H 970.132 5.07708 4.15414 0
M  V30 10254 H 970.049 6.68903 3.52285 0
M  V30 10255 H 971.317 6.26744 4.63479 0
M  V30 10256 N 975.546 -0.211634 1.56173 0
M  V30 10257 C 976.792 -0.931479 1.80818 0
M  V30 10258 C 977.147 -1.81571 0.636373 0
M  V30 10259 O 976.44 -1.8801 -0.369182 0
M  V30 10260 C 976.634 -1.79657 3.08963 0
M  V30 10261 C 976.463 -0.997577 4.38496 0
M  V30 10262 C 975.233 -0.688558 5.00587 0
M  V30 10263 C 977.431 -0.358138 5.13052 0
M  V30 10264 N 975.413 0.130797 6.13761 0
M  V30 10265 C 976.784 0.324159 6.19152 0
M  V30 10266 C 978.839 -0.272178 4.97156 0
M  V30 10267 C 977.542 1.08421 7.11082 0
M  V30 10268 C 979.568 0.474428 5.89494 0
M  V30 10269 C 978.93 1.14523 6.95028 0
M  V30 10270 H 975.029 -0.32079 0.713174 0
M  V30 10271 H 977.613 -0.201528 1.93654 0
M  V30 10272 H 975.784 -2.49826 2.97392 0
M  V30 10273 H 977.516 -2.45464 3.2176 0
M  V30 10274 H 974.271 -1.00899 4.62727 0
M  V30 10275 H 974.695 0.5296 6.74925 0
M  V30 10276 H 979.337 -0.776448 4.15609 0
M  V30 10277 H 977.055 1.59996 7.92103 0
M  V30 10278 H 980.641 0.542076 5.79269 0
M  V30 10279 H 979.521 1.71371 7.65246 0
M  V30 10280 N 977.024 -1.50153 -0.478725 0
M  V30 10281 C 978.254 -1.64266 -1.253 0
M  V30 10282 C 978.662 -0.322256 -1.86435 0
M  V30 10283 O 978.005 0.704925 -1.69636 0
M  V30 10284 C 978.067 -2.67017 -2.40712 0
M  V30 10285 C 977.731 -4.10779 -2.00274 0
M  V30 10286 C 978.728 -4.96889 -1.52963 0
M  V30 10287 C 976.413 -4.5665 -2.09228 0
M  V30 10288 C 978.407 -6.26914 -1.15139 0
M  V30 10289 C 976.094 -5.86683 -1.71015 0
M  V30 10290 C 977.092 -6.71641 -1.24048 0
M  V30 10291 O 976.78 -7.99248 -0.863617 0
M  V30 10292 H 976.512 -0.555382 -0.385392 0
M  V30 10293 H 979.066 -1.97078 -0.578751 0
M  V30 10294 H 977.296 -2.29432 -3.11284 0
M  V30 10295 H 978.985 -2.70428 -3.02694 0
M  V30 10296 H 979.751 -4.62669 -1.45474 0
M  V30 10297 H 975.63 -3.90674 -2.44735 0
M  V30 10298 H 979.174 -6.93179 -0.784089 0
M  V30 10299 H 975.071 -6.20426 -1.78162 0
M  V30 10300 H 975.839 -8.12452 -0.993139 0
M  V30 10301 N 978.502 0.731368 -1.39602 0
M  V30 10302 C 979.749 1.491 -1.37024 0
M  V30 10303 C 980.077 1.94473 0.0326423 0
M  V30 10304 O 979.332 1.6737 1.01418 0
M  V30 10305 C 979.631 2.74224 -2.29208 0
M  V30 10306 C 979.297 2.477 -3.7677 0
M  V30 10307 C 977.959 2.40175 -4.16976 0
M  V30 10308 C 980.311 2.25098 -4.70086 0
M  V30 10309 C 977.639 2.08095 -5.48556 0
M  V30 10310 C 979.991 1.94534 -6.01946 0
M  V30 10311 C 978.655 1.85481 -6.41212 0
M  V30 10312 H 977.925 0.545595 -0.501405 0
M  V30 10313 H 980.572 0.839127 -1.72136 0
M  V30 10314 H 978.877 3.44171 -1.87225 0
M  V30 10315 H 980.574 3.32264 -2.24504 0
M  V30 10316 H 977.164 2.54436 -3.44906 0
M  V30 10317 H 981.348 2.29876 -4.39853 0
M  V30 10318 H 976.604 1.99611 -5.77897 0
M  V30 10319 H 980.778 1.76054 -6.73779 0
M  V30 10320 H 978.405 1.60389 -7.43088 0
M  V30 10321 N 979.98 1.24838 0.961938 0
M  V30 10322 C 980.89 1.06304 2.09133 0
M  V30 10323 C 981.906 0.00221475 1.74 0
M  V30 10324 O 983.082 0.201611 2.00388 0
M  V30 10325 C 980.147 0.676117 3.40043 0
M  V30 10326 C 979.208 1.81407 3.89089 0
M  V30 10327 C 978.441 1.44551 5.13752 0
M  V30 10328 O 978.664 0.337894 5.69398 0
M  V30 10329 O 977.598 2.27316 5.57325 0
M  V30 10330 H 981.424 2.01001 2.27667 0
M  V30 10331 H 979.009 1.0371 1.07539 0
M  V30 10332 H 980.891 0.472124 4.18747 0
M  V30 10333 H 979.566 -0.241667 3.22797 0
M  V30 10334 H 978.473 2.07286 3.11421 0
M  V30 10335 H 979.806 2.71083 4.10822 0
M  V30 10336 N 981.458 -1.16348 1.06306 0
M  V30 10337 C 982.704 -1.87158 0.781007 0
M  V30 10338 C 983.037 -1.81499 -0.690784 0
M  V30 10339 O 982.312 -1.23074 -1.50609 0
M  V30 10340 C 982.595 -3.3672 1.27639 0
M  V30 10341 C 982.448 -3.51069 2.81194 0
M  V30 10342 C 983.767 -4.31122 0.884388 0
M  V30 10343 H 980.886 -0.679586 0.285187 0
M  V30 10344 H 983.528 -1.36756 1.31901 0
M  V30 10345 H 981.678 -3.79775 0.818715 0
M  V30 10346 H 983.35 -3.16952 3.35171 0
M  V30 10347 H 981.593 -2.92976 3.19918 0
M  V30 10348 H 982.264 -4.56105 3.10921 0
M  V30 10349 H 984.74 -3.95969 1.27858 0
M  V30 10350 H 983.616 -5.34279 1.25847 0
M  V30 10351 H 983.877 -4.41598 -0.210673 0
M  V30 10352 N 982.937 -0.845659 -1.3299 0
M  V30 10353 C 983.87 -0.228695 -2.27051 0
M  V30 10354 C 984.848 0.62812 -1.49978 0
M  V30 10355 O 986.032 0.586897 -1.79131 0
M  V30 10356 C 983.159 0.678251 -3.31839 0
M  V30 10357 C 982.205 -0.103994 -4.26373 0
M  V30 10358 S 983.038 -1.46642 -5.1503 0
M  V30 10359 C 984.194 -0.564953 -6.23345 0
M  V30 10360 H 984.427 -1.02609 -2.79032 0
M  V30 10361 H 981.96 -0.642786 -1.40384 0
M  V30 10362 H 983.918 1.1959 -3.92694 0
M  V30 10363 H 982.579 1.44937 -2.78661 0
M  V30 10364 H 981.772 0.586406 -5.00577 0
M  V30 10365 H 981.374 -0.552927 -3.6989 0
M  V30 10366 H 983.666 0.234466 -6.77094 0
M  V30 10367 H 984.609 -1.27736 -6.96483 0
M  V30 10368 H 985.017 -0.143286 -5.64318 0
M  V30 10369 N 984.415 1.45619 -0.602734 0
M  V30 10370 C 985.661 2.02572 -0.0961759 0
M  V30 10371 C 985.994 1.47076 1.26815 0
M  V30 10372 O 985.269 0.643566 1.83544 0
M  V30 10373 C 985.552 3.60062 -0.0520032 0
M  V30 10374 C 985.405 4.25901 -1.44665 0
M  V30 10375 C 986.724 4.35446 0.638342 0
M  V30 10376 H 983.843 0.736099 -0.0364238 0
M  V30 10377 H 986.485 1.7353 -0.773776 0
M  V30 10378 H 984.635 3.84936 0.525032 0
M  V30 10379 H 986.307 4.12228 -2.0704 0
M  V30 10380 H 984.55 3.84489 -2.00874 0
M  V30 10381 H 985.221 5.34779 -1.36803 0
M  V30 10382 H 987.697 4.15837 0.147926 0
M  V30 10383 H 986.573 5.45176 0.63834 0
M  V30 10384 H 986.834 4.07962 1.70351 0
M  V30 10385 N 985.893 0.34162 1.53853 0
M  V30 10386 C 987.17 -0.310664 1.93117 0
M  V30 10387 C 987.55 -1.68398 1.273 0
M  V30 10388 O 986.898 -2.24546 0.423225 0
M  V30 10389 C 987.108 -0.384867 3.46871 0
M  V30 10390 C 988.456 -0.636621 4.198 0
M  V30 10391 O 989.48 -0.467061 3.53125 0
M  V30 10392 O 988.339 -0.964962 5.37913 0
M  V30 10393 H 985.433 -0.180881 0.806977 0
M  V30 10394 H 987.979 0.392656 1.65095 0
M  V30 10395 H 986.751 0.57894 3.86994 0
M  V30 10396 H 986.374 -1.13505 3.81054 0
M  V30 10397 N 987.371 -1.57444 0.0701946 0
M  V30 10398 C 988.281 -2.16132 -0.912377 0
M  V30 10399 C 989.297 -1.12406 -1.32819 0
M  V30 10400 O 990.473 -1.44665 -1.40121 0
M  V30 10401 C 987.538 -2.71008 -2.16231 0
M  V30 10402 C 986.599 -3.896 -1.80306 0
M  V30 10403 C 985.832 -4.4185 -2.9934 0
M  V30 10404 O 986.055 -3.93106 -4.13309 0
M  V30 10405 O 984.989 -5.33201 -2.7925 0
M  V30 10406 H 988.815 -3.00449 -0.443167 0
M  V30 10407 H 986.4 -1.48617 -0.152786 0
M  V30 10408 H 988.282 -3.06186 -2.8953 0
M  V30 10409 H 986.957 -1.8975 -2.62253 0
M  V30 10410 H 985.864 -3.59277 -1.04264 0
M  V30 10411 H 987.197 -4.72145 -1.39068 0
M  V30 10412 N 988.849 0.203349 -1.56283 0
M  V30 10413 C 990.095 0.926381 -1.80405 0
M  V30 10414 C 990.428 1.8325 -0.642883 0
M  V30 10415 O 989.703 1.91196 0.356998 0
M  V30 10416 C 989.986 1.74972 -3.14733 0
M  V30 10417 C 989.839 0.868866 -4.41328 0
M  V30 10418 C 991.158 2.72394 -3.45672 0
M  V30 10419 H 988.277 0.335346 -0.656286 0
M  V30 10420 H 990.919 0.1942 -1.89005 0
M  V30 10421 H 989.069 2.37394 -3.07533 0
M  V30 10422 H 990.741 0.259986 -4.60567 0
M  V30 10423 H 988.984 0.175161 -4.33446 0
M  V30 10424 H 989.655 1.47975 -5.31796 0
M  V30 10425 H 992.131 2.20105 -3.53119 0
M  V30 10426 H 991.007 3.27091 -4.40798 0
M  V30 10427 H 991.268 3.51035 -2.6875 0
M  V30 10428 N 990.327 1.50405 0.470755 0
M  V30 10429 C 991.555 1.65168 1.24608 0
M  V30 10430 C 991.97 0.335153 1.85801 0
M  V30 10431 O 991.327 -0.682919 1.69241 0
M  V30 10432 C 991.378 2.74305 2.35455 0
M  V30 10433 O 991.099 4.00854 1.76771 0
M  V30 10434 C 992.6 3.00044 3.26326 0
M  V30 10435 H 989.82 0.555186 0.376842 0
M  V30 10436 H 992.364 1.9663 0.56187 0
M  V30 10437 H 990.519 2.45536 2.99651 0
M  V30 10438 H 990.933 4.61211 2.49769 0
M  V30 10439 H 992.407 3.8007 4.00313 0
M  V30 10440 H 992.884 2.11128 3.85126 0
M  V30 10441 H 993.49 3.30345 2.67866 0
M  V30 10442 N 991.805 -0.723954 1.39988 0
M  V30 10443 C 993.216 -1.30273 1.33738 0
M  V30 10444 C 993.567 -1.96199 0.00690581 0
M  V30 10445 O 992.692 -1.97016 -0.895179 0
M  V30 10446 C 993.287 -2.36889 2.42217 0
M  V30 10447 C 991.846 -2.90412 2.39453 0
M  V30 10448 C 990.993 -1.64103 2.2353 0
M  V30 10449 H 993.944 -0.520672 1.49916 0
M  V30 10450 H 993.965 -3.17538 2.09642 0
M  V30 10451 H 993.477 -1.88878 3.39038 0
M  V30 10452 H 991.578 -3.42674 1.46304 0
M  V30 10453 H 991.691 -3.42775 3.34727 0
M  V30 10454 H 990.055 -1.88855 1.70897 0
M  V30 10455 H 990.838 -1.18128 3.22336 0
M  V30 10456 N 993.283 -1.25346 -0.955304 0
M  V30 10457 C 994.53 -1.10055 -1.69983 0
M  V30 10458 C 994.858 0.358586 -1.91166 0
M  V30 10459 O 994.113 1.28071 -1.47974 0
M  V30 10460 C 994.412 -1.7993 -3.08804 0
M  V30 10461 C 994.078 -3.29851 -3.07424 0
M  V30 10462 C 992.74 -3.7075 -3.06754 0
M  V30 10463 C 995.092 -4.25636 -3.00805 0
M  V30 10464 C 992.42 -5.05847 -2.97214 0
M  V30 10465 C 994.772 -5.60756 -2.92806 0
M  V30 10466 C 993.436 -6.00984 -2.90472 0
M  V30 10467 H 992.706 -0.402718 -0.622012 0
M  V30 10468 H 995.353 -1.5561 -1.11614 0
M  V30 10469 H 993.658 -1.26803 -3.70713 0
M  V30 10470 H 995.355 -1.65551 -3.65231 0
M  V30 10471 H 991.945 -2.97308 -3.08716 0
M  V30 10472 H 996.129 -3.9503 -3.00441 0
M  V30 10473 H 991.385 -5.36196 -2.93775 0
M  V30 10474 H 995.559 -6.34671 -2.86645 0
M  V30 10475 H 993.186 -7.05626 -2.82835 0
M  V30 10476 N 994.761 1.15782 -1.06922 0
M  V30 10477 C 995.691 2.22538 -0.707045 0
M  V30 10478 C 996.672 1.67371 0.303471 0
M  V30 10479 O 997.857 1.9339 0.177189 0
M  V30 10480 C 994.987 3.47158 -0.0994269 0
M  V30 10481 C 993.941 4.15257 -1.03661 0
M  V30 10482 C 993.267 5.33902 -0.291974 0
M  V30 10483 C 994.567 4.65516 -2.36837 0
M  V30 10484 H 996.261 2.53089 -1.59958 0
M  V30 10485 H 993.807 1.21649 -0.770552 0
M  V30 10486 H 995.76 4.21073 0.165852 0
M  V30 10487 H 994.484 3.15926 0.828155 0
M  V30 10488 H 993.143 3.43276 -1.28674 0
M  V30 10489 H 992.791 4.98926 0.638928 0
M  V30 10490 H 992.491 5.80407 -0.916613 0
M  V30 10491 H 994.015 6.1059 -0.0343915 0
M  V30 10492 H 995.429 5.30981 -2.16175 0
M  V30 10493 H 993.826 5.22666 -2.94856 0
M  V30 10494 H 994.896 3.81387 -2.99453 0
M  V30 10495 N 996.239 0.8527 1.3254 0
M  V30 10496 C 997.467 0.469044 2.01513 0
M  V30 10497 C 997.882 -0.933701 1.64096 0
M  V30 10498 O 997.239 -1.60898 0.861283 0
M  V30 10499 C 997.29 0.596228 3.56549 0
M  V30 10500 O 997.011 1.94371 3.92621 0
M  V30 10501 C 998.512 0.211324 4.42796 0
M  V30 10502 H 995.732 0.184589 0.645111 0
M  V30 10503 H 998.276 1.1491 1.69163 0
M  V30 10504 H 996.431 -0.0360712 3.87383 0
M  V30 10505 H 996.845 1.93909 4.87339 0
M  V30 10506 H 998.319 0.351324 5.50881 0
M  V30 10507 H 998.796 -0.848055 4.30935 0
M  V30 10508 H 999.402 0.818617 4.17347 0
M  V30 10509 N 997.718 -1.45297 0.610449 0
M  V30 10510 C 998.681 -2.28995 -0.0968194 0
M  V30 10511 C 999.681 -1.39923 -0.792353 0
M  V30 10512 O 1000.87 -1.62014 -0.64008 0
M  V30 10513 C 998.003 -3.21013 -1.14731 0
M  V30 10514 H 999.196 -2.93012 0.639082 0
M  V30 10515 H 996.749 -1.51867 0.369624 0
M  V30 10516 H 997.484 -2.61803 -1.91388 0
M  V30 10517 H 997.269 -3.86628 -0.652753 0
M  V30 10518 H 998.759 -3.8394 -1.64256 0
M  V30 10519 N 999.196 -0.349774 -1.5367 0
M  V30 10520 C 1000.13 0.538575 -2.22782 0
M  V30 10521 C 1001.14 1.05896 -1.23652 0
M  V30 10522 O 1002.33 0.968045 -1.4997 0
M  V30 10523 C 999.43 1.7546 -2.89943 0
M  V30 10524 C 998.603 1.36843 -4.15443 0
M  V30 10525 C 997.662 2.4448 -4.65957 0
M  V30 10526 O 996.688 2.07528 -5.3002 0
M  V30 10527 N 997.89 3.75829 -4.42417 0
M  V30 10528 H 1000.65 -0.053348 -2.99653 0
M  V30 10529 H 998.216 -0.174193 -1.6096 0
M  V30 10530 H 1000.21 2.46911 -3.20651 0
M  V30 10531 H 998.778 2.25375 -2.16622 0
M  V30 10532 H 997.998 0.484421 -3.91212 0
M  V30 10533 H 999.286 1.0865 -4.97064 0
M  V30 10534 H 998.684 4.08635 -3.91196 0
M  V30 10535 H 997.241 4.43432 -4.77714 0
M  V30 10536 N 1000.67 1.57404 -0.0785433 0
M  V30 10537 C 1001.64 2.11977 0.871693 0
M  V30 10538 C 1002.64 1.04529 1.2219 0
M  V30 10539 O 1003.83 1.30488 1.15406 0
M  V30 10540 C 1000.96 2.6267 2.17296 0
M  V30 10541 H 1002.15 2.97246 0.398115 0
M  V30 10542 H 999.705 1.5537 0.170251 0
M  V30 10543 H 1000.44 1.80873 2.69175 0
M  V30 10544 H 1000.22 3.41214 1.93171 0
M  V30 10545 H 1001.71 3.04943 2.85306 0
M  V30 10546 N 1002.15 -0.195058 1.56388 0
M  V30 10547 C 1003.38 -0.931642 1.84738 0
M  V30 10548 C 1003.79 -1.76849 0.661046 0
M  V30 10549 O 1003.15 -1.78705 -0.370241 0
M  V30 10550 C 1003.2 -1.82777 3.11889 0
M  V30 10551 O 1002.92 -1.02471 4.25948 0
M  V30 10552 C 1004.42 -2.67603 3.53417 0
M  V30 10553 H 1001.64 -0.271821 0.613477 0
M  V30 10554 H 1004.19 -0.202299 2.03497 0
M  V30 10555 H 1002.34 -2.51074 2.95027 0
M  V30 10556 H 1002.76 -1.63539 4.98353 0
M  V30 10557 H 1004.23 -3.26138 4.45352 0
M  V30 10558 H 1004.71 -3.41314 2.76408 0
M  V30 10559 H 1005.31 -2.04678 3.7281 0
M  V30 10560 N 1003.63 -1.50653 -0.462772 0
M  V30 10561 C 1004.58 -1.66509 -1.55752 0
M  V30 10562 C 1005.56 -0.519508 -1.52282 0
M  V30 10563 O 1006.76 -0.774296 -1.59166 0
M  V30 10564 C 1003.88 -1.77023 -2.94139 0
M  V30 10565 C 1002.97 -2.97284 -3.02461 0
M  V30 10566 N 1003.36 -4.20843 -2.80579 0
M  V30 10567 C 1001.66 -2.96014 -3.33604 0
M  V30 10568 C 1002.36 -5.01886 -2.94084 0
M  V30 10569 N 1001.34 -4.3601 -3.24648 0
M  V30 10570 H 1005.14 -2.59727 -1.37546 0
M  V30 10571 H 1002.65 -1.47951 -0.669653 0
M  V30 10572 H 1004.65 -1.86488 -3.72864 0
M  V30 10573 H 1003.31 -0.849688 -3.13385 0
M  V30 10574 H 1004.32 -4.50206 -2.55998 0
M  V30 10575 H 1001 -2.13493 -3.58786 0
M  V30 10576 H 1002.39 -6.10164 -2.81334 0
M  V30 10577 N 1005.11 0.71652 -1.4037 0
M  V30 10578 C 1006.04 1.84345 -1.43315 0
M  V30 10579 C 1007.02 1.67537 -0.294186 0
M  V30 10580 O 1008.2 1.87582 -0.502671 0
M  V30 10581 C 1005.33 3.2229 -1.29408 0
M  V30 10582 C 1004.29 3.53769 -2.40897 0
M  V30 10583 C 1003.61 4.90847 -2.12068 0
M  V30 10584 C 1004.91 3.54862 -3.83237 0
M  V30 10585 H 1006.61 1.82138 -2.37626 0
M  V30 10586 H 1004.15 0.874873 -1.14376 0
M  V30 10587 H 1006.11 4.00819 -1.30085 0
M  V30 10588 H 1004.83 3.2507 -0.31573 0
M  V30 10589 H 1003.49 2.77579 -2.39469 0
M  V30 10590 H 1003.14 4.90229 -1.12626 0
M  V30 10591 H 1002.84 5.12875 -2.86762 0
M  V30 10592 H 1004.36 5.71711 -2.14426 0
M  V30 10593 H 1005.78 4.23432 -3.86494 0
M  V30 10594 H 1004.17 3.88416 -4.57442 0
M  V30 10595 H 1005.24 2.54266 -4.12888 0
M  V30 10596 N 1006.59 1.25851 0.948643 0
M  V30 10597 C 1008 1.02802 1.22081 0
M  V30 10598 C 1008.2 -0.251461 1.99925 0
M  V30 10599 O 1007.26 -0.962592 2.33432 0
M  V30 10600 C 1008.57 2.25489 1.98936 0
M  V30 10601 C 1010.12 2.30312 2.11956 0
M  V30 10602 C 1010.59 3.52671 2.92211 0
M  V30 10603 N 1012.09 3.53103 2.99787 0
M  V30 10604 C 1012.82 4.44445 3.62294 0
M  V30 10605 N 1012.32 5.46065 4.26362 0
M  V30 10606 N 1014.11 4.32113 3.59493 0
M  V30 10607 H 1006.26 2.08042 0.428044 0
M  V30 10608 H 1008.52 0.913928 0.251872 0
M  V30 10609 H 1008.23 3.18513 1.4914 0
M  V30 10610 H 1008.1 2.2914 2.99624 0
M  V30 10611 H 1010.49 1.37808 2.60946 0
M  V30 10612 H 1010.57 2.30676 1.10554 0
M  V30 10613 H 1010.22 4.45501 2.43909 0
M  V30 10614 H 1010.15 3.49554 3.93853 0
M  V30 10615 H 1012.64 2.79597 2.54232 0
M  V30 10616 H 1012.95 6.11964 4.71932 0
M  V30 10617 H 1011.29 5.49931 4.24972 0
M  V30 10618 H 1014.49 3.51946 3.08629 0
M  V30 10619 H 1014.66 5.03493 4.0792 0
M  V30 10620 N 1008.06 -1.15214 1.07534 0
M  V30 10621 C 1009.31 -1.86319 0.800814 0
M  V30 10622 C 1009.64 -1.82221 -0.671494 0
M  V30 10623 O 1008.92 -1.24664 -1.49295 0
M  V30 10624 C 1009.2 -3.35347 1.31203 0
M  V30 10625 C 1009.05 -3.48067 2.84902 0
M  V30 10626 C 1010.37 -4.3016 0.930064 0
M  V30 10627 H 1007.49 -0.676523 0.292379 0
M  V30 10628 H 1010.13 -1.35349 1.33344 0
M  V30 10629 H 1008.28 -3.78886 0.858949 0
M  V30 10630 H 1009.96 -3.13379 3.38514 0
M  V30 10631 H 1008.2 -2.89566 3.23008 0
M  V30 10632 H 1008.87 -4.52782 3.15741 0
M  V30 10633 H 1011.35 -3.94591 1.3205 0
M  V30 10634 H 1010.22 -5.32914 1.31507 0
M  V30 10635 H 1010.48 -4.41796 -0.163824 0
M  V30 10636 N 1009.54 -0.859717 -1.32086 0
M  V30 10637 C 1010.79 -0.464662 -1.96686 0
M  V30 10638 C 1011.11 0.98412 -1.68345 0
M  V30 10639 O 1010.38 1.68847 -0.993361 0
M  V30 10640 H 1008.96 -0.168838 -0.727669 0
M  V30 10641 H 1011.62 -1.09726 -1.61079 0
M  V30 10642 H 1010.72 -0.613904 -3.06003 0
M  V30 10643 N 1011.02 1.44971 -0.618145 0
M  V30 10644 C 1012.27 2.03009 -0.126125 0
M  V30 10645 C 1012.62 1.47656 1.23351 0
M  V30 10646 O 1011.91 0.645901 1.80385 0
M  V30 10647 C 1012.11 3.57378 -0.0394861 0
M  V30 10648 C 1011.94 4.27706 -1.38918 0
M  V30 10649 C 1010.71 4.65206 -1.97261 0
M  V30 10650 C 1012.91 4.58987 -2.32024 0
M  V30 10651 N 1010.89 5.2044 -3.256 0
M  V30 10652 C 1012.26 5.15167 -3.44969 0
M  V30 10653 C 1014.31 4.40932 -2.31265 0
M  V30 10654 C 1013.02 5.55193 -4.57333 0
M  V30 10655 C 1015.04 4.81997 -3.42684 0
M  V30 10656 C 1014.4 5.38279 -4.54352 0
M  V30 10657 H 1010.5 0.77683 -0.0897695 0
M  V30 10658 H 1013.09 1.76646 -0.818805 0
M  V30 10659 H 1011.26 3.8338 0.622441 0
M  V30 10660 H 1012.99 4.02075 0.460165 0
M  V30 10661 H 1009.75 4.49102 -1.50348 0
M  V30 10662 H 1010.17 5.52546 -3.9118 0
M  V30 10663 H 1014.81 3.96723 -1.46187 0
M  V30 10664 H 1012.53 5.98362 -5.43128 0
M  V30 10665 H 1016.12 4.69751 -3.43257 0
M  V30 10666 H 1015 5.6947 -5.39142 0
M  V30 10667 N 1012.5 0.357919 1.53482 0
M  V30 10668 C 1013.46 -0.479797 2.24122 0
M  V30 10669 C 1014.46 -1.01596 1.24639 0
M  V30 10670 O 1015.65 -0.902928 1.48973 0
M  V30 10671 C 1012.78 -1.66983 2.97203 0
M  V30 10672 H 1013.98 0.138219 2.99581 0
M  V30 10673 H 1011.53 0.109484 1.55916 0
M  V30 10674 H 1012.26 -2.32615 2.25966 0
M  V30 10675 H 1012.05 -1.29242 3.70188 0
M  V30 10676 H 1013.54 -2.26367 3.50924 0
M  V30 10677 N 1013.98 -1.5736 0.0868897 0
M  V30 10678 C 1014.91 -2.16596 -0.872252 0
M  V30 10679 C 1015.89 -1.09706 -1.29995 0
M  V30 10680 O 1017.07 -1.37808 -1.36831 0
M  V30 10681 C 1014.2 -2.73972 -2.1344 0
M  V30 10682 C 1013.16 -3.86163 -1.8456 0
M  V30 10683 C 1012.48 -4.30206 -3.17533 0
M  V30 10684 C 1013.78 -5.0973 -1.13899 0
M  V30 10685 H 1015.48 -2.96995 -0.378738 0
M  V30 10686 H 1013.02 -1.42861 -0.18073 0
M  V30 10687 H 1014.98 -3.14062 -2.80968 0
M  V30 10688 H 1013.7 -1.90817 -2.6506 0
M  V30 10689 H 1012.36 -3.466 -1.19432 0
M  V30 10690 H 1012.01 -3.43951 -3.67024 0
M  V30 10691 H 1011.71 -5.05841 -2.98996 0
M  V30 10692 H 1013.23 -4.72922 -3.86234 0
M  V30 10693 H 1014.64 -5.4704 -1.71523 0
M  V30 10694 H 1013.04 -5.90741 -1.05569 0
M  V30 10695 H 1014.11 -4.8475 -0.120432 0
M  V30 10696 N 1015.45 0.186762 -1.56489 0
M  V30 10697 C 1016.68 0.921832 -1.85229 0
M  V30 10698 C 1017.1 1.76496 -0.670416 0
M  V30 10699 O 1016.45 1.78899 0.360758 0
M  V30 10700 C 1016.51 1.81121 -3.12854 0
M  V30 10701 O 1016.23 1.00211 -4.26485 0
M  V30 10702 C 1017.73 2.65725 -3.54831 0
M  V30 10703 H 1014.95 0.268563 -0.61491 0
M  V30 10704 H 1017.49 0.191505 -2.03601 0
M  V30 10705 H 1015.65 2.49506 -2.96354 0
M  V30 10706 H 1016.06 1.60893 -4.99213 0
M  V30 10707 H 1017.53 3.23771 -4.47075 0
M  V30 10708 H 1018.01 3.39843 -2.78215 0
M  V30 10709 H 1018.62 2.02698 -3.7389 0
M  V30 10710 N 1016.93 1.50896 0.454776 0
M  V30 10711 C 1017.84 1.73762 1.5762 0
M  V30 10712 C 1018.86 0.621206 1.62533 0
M  V30 10713 O 1020.03 0.901449 1.801 0
M  V30 10714 C 1017.1 1.84183 2.9373 0
M  V30 10715 C 1016.16 3.07982 2.99075 0
M  V30 10716 C 1015.39 3.17896 4.28693 0
M  V30 10717 O 1015.62 2.34184 5.20109 0
M  V30 10718 O 1014.55 4.10749 4.39964 0
M  V30 10719 H 1018.38 2.68856 1.41245 0
M  V30 10720 H 1015.96 1.35187 0.635984 0
M  V30 10721 H 1017.84 1.93123 3.74542 0
M  V30 10722 H 1016.52 0.922742 3.10269 0
M  V30 10723 H 1015.43 3.04531 2.17282 0
M  V30 10724 H 1016.76 3.99523 2.87476 0
M  V30 10725 N 1018.41 -0.709066 1.40748 0
M  V30 10726 C 1019.66 -1.46611 1.39103 0
M  V30 10727 C 1019.98 -1.95 -0.00365366 0
M  V30 10728 O 1019.25 -1.70791 -0.959541 0
M  V30 10729 H 1017.83 -0.543954 0.511979 0
M  V30 10730 H 1020.49 -0.840141 1.75863 0
M  V30 10731 H 1019.59 -2.33581 2.06994 0
M  V30 10732 N 1019.89 -1.26353 -0.941956 0
M  V30 10733 C 1021.12 -1.1446 -1.71996 0
M  V30 10734 C 1021.53 0.302957 -1.86759 0
M  V30 10735 O 1020.87 1.2193 -1.374 0
M  V30 10736 C 1020.93 -1.73986 -3.14593 0
M  V30 10737 C 1020.6 -3.23078 -3.23217 0
M  V30 10738 C 1021.59 -4.19905 -3.06554 0
M  V30 10739 C 1019.28 -3.63526 -3.46632 0
M  V30 10740 C 1021.27 -5.55159 -3.13172 0
M  V30 10741 C 1018.96 -4.98914 -3.52886 0
M  V30 10742 C 1019.96 -5.9454 -3.36172 0
M  V30 10743 O 1019.65 -7.27462 -3.42132 0
M  V30 10744 H 1019.38 -0.399453 -0.545356 0
M  V30 10745 H 1021.93 -1.67455 -1.18945 0
M  V30 10746 H 1020.16 -1.15453 -3.69063 0
M  V30 10747 H 1021.85 -1.57011 -3.74302 0
M  V30 10748 H 1022.62 -3.89995 -2.88321 0
M  V30 10749 H 1018.5 -2.8958 -3.58698 0
M  V30 10750 H 1022.04 -6.29777 -3.00044 0
M  V30 10751 H 1017.94 -5.28485 -3.70639 0
M  V30 10752 H 1018.7 -7.35725 -3.5868 0
M  V30 10753 N 1021.37 1.14642 -1.08144 0
M  V30 10754 C 1022.6 1.89484 -0.830864 0
M  V30 10755 C 1023.01 1.78443 0.616722 0
M  V30 10756 O 1022.37 1.14191 1.42361 0
M  V30 10757 C 1022.42 3.39554 -1.24039 0
M  V30 10758 O 1022.14 3.50286 -2.63119 0
M  V30 10759 C 1023.64 4.31399 -1.02029 0
M  V30 10760 H 1020.86 0.600283 -0.299835 0
M  V30 10761 H 1023.4 1.45204 -1.44001 0
M  V30 10762 H 1021.56 3.81467 -0.675407 0
M  V30 10763 H 1021.97 4.43481 -2.80045 0
M  V30 10764 H 1023.45 5.35079 -1.35625 0
M  V30 10765 H 1023.92 4.39179 0.0428697 0
M  V30 10766 H 1024.53 3.95238 -1.57057 0
M  V30 10767 N 1022.85 0.866709 1.31628 0
M  V30 10768 C 1024.26 0.529032 1.79048 0
M  V30 10769 C 1024.61 -0.953871 1.71452 0
M  V30 10770 O 1023.73 -1.74462 1.28031 0
M  V30 10771 C 1024.33 0.953522 3.25105 0
M  V30 10772 C 1022.89 0.667554 3.70433 0
M  V30 10773 C 1022.03 1.14664 2.52483 0
M  V30 10774 H 1024.98 1.05275 1.18756 0
M  V30 10775 H 1025.01 0.274844 3.79506 0
M  V30 10776 H 1024.52 2.03283 3.30602 0
M  V30 10777 H 1022.62 -0.400532 3.70441 0
M  V30 10778 H 1022.73 1.2423 4.62714 0
M  V30 10779 H 1021.1 0.566502 2.4832 0
M  V30 10780 H 1021.88 2.2333 2.60727 0
M  V30 10781 N 1024.32 -1.44642 0.625825 0
M  V30 10782 C 1025.55 -2.06159 0.13492 0
M  V30 10783 C 1025.96 -1.46801 -1.19357 0
M  V30 10784 O 1025.3 -0.583345 -1.74192 0
M  V30 10785 C 1025.37 -3.5945 -0.0598481 0
M  V30 10786 C 1025.03 -4.41244 1.18965 0
M  V30 10787 C 1026.03 -4.75064 2.11212 0
M  V30 10788 C 1023.71 -4.81705 1.42359 0
M  V30 10789 C 1025.71 -5.48221 3.25165 0
M  V30 10790 C 1023.39 -5.54612 2.5661 0
M  V30 10791 C 1024.39 -5.87789 3.4784 0
M  V30 10792 O 1024.08 -6.59213 4.60101 0
M  V30 10793 H 1023.81 -0.671888 0.0744464 0
M  V30 10794 H 1026.37 -1.86586 0.858775 0
M  V30 10795 H 1024.6 -3.77493 -0.838792 0
M  V30 10796 H 1026.28 -4.02751 -0.504639 0
M  V30 10797 H 1027.05 -4.44348 1.94371 0
M  V30 10798 H 1022.93 -4.55305 0.722401 0
M  V30 10799 H 1026.47 -5.74035 3.96396 0
M  V30 10800 H 1022.37 -5.84743 2.73396 0
M  V30 10801 H 1023.14 -6.77678 4.59015 0
M  V30 10802 N 1025.8 -0.366053 -1.5329 0
M  V30 10803 C 1027.21 0.113056 -1.86357 0
M  V30 10804 C 1027.56 1.48123 -1.28662 0
M  V30 10805 O 1026.69 2.07658 -0.608849 0
M  V30 10806 C 1027.28 0.211923 -3.38137 0
M  V30 10807 C 1025.84 0.635289 -3.71 0
M  V30 10808 C 1024.99 -0.217203 -2.76448 0
M  V30 10809 H 1027.94 -0.584829 -1.47531 0
M  V30 10810 H 1027.96 1.0354 -3.66142 0
M  V30 10811 H 1027.47 -0.783994 -3.80099 0
M  V30 10812 H 1025.57 1.63942 -3.34595 0
M  V30 10813 H 1025.69 0.409571 -4.77346 0
M  V30 10814 H 1024.05 0.313988 -2.52757 0
M  V30 10815 H 1024.83 -1.21067 -3.21244 0
M  V30 10816 N 1027.28 1.57312 -0.0952337 0
M  V30 10817 C 1028.53 1.93974 0.567319 0
M  V30 10818 C 1028.85 0.977805 1.68713 0
M  V30 10819 O 1028.12 0.0298944 1.95877 0
M  V30 10820 H 1026.7 0.71612 0.212558 0
M  V30 10821 H 1029.36 1.94254 -0.158598 0
M  V30 10822 H 1028.46 2.964 0.977423 0
M  V30 10823 N 1028.76 -0.17846 1.56586 0
M  V30 10824 C 1029.72 -1.20479 1.94981 0
M  V30 10825 C 1030.72 -1.37561 0.832677 0
M  V30 10826 O 1031.91 -1.35089 1.09984 0
M  V30 10827 C 1029.04 -2.57117 2.23839 0
M  V30 10828 H 1030.24 -0.876173 2.86816 0
M  V30 10829 H 1027.79 -0.420635 1.50534 0
M  V30 10830 H 1028.52 -2.95005 1.34695 0
M  V30 10831 H 1028.31 -2.46086 3.05261 0
M  V30 10832 H 1029.8 -3.31096 2.5449 0
M  V30 10833 N 1030.24 -1.51135 -0.446768 0
M  V30 10834 C 1031.48 -1.63013 -1.19461 0
M  V30 10835 C 1031.8 -0.344067 -1.91941 0
M  V30 10836 O 1031.07 0.639666 -1.85162 0
M  V30 10837 H 1029.65 -0.600757 -0.443959 0
M  V30 10838 H 1032.32 -1.88024 -0.513137 0
M  V30 10839 H 1031.41 -2.45322 -1.92933 0
M  V30 10840 N 1031.71 0.701592 -1.41122 0
M  V30 10841 C 1032.62 1.84548 -1.44841 0
M  V30 10842 C 1033.64 1.70654 -0.339594 0
M  V30 10843 O 1034.82 1.92675 -0.586378 0
M  V30 10844 C 1031.88 3.20477 -1.3227 0
M  V30 10845 C 1030.94 3.46524 -2.53415 0
M  V30 10846 C 1030.17 4.75968 -2.41434 0
M  V30 10847 O 1030.4 5.52037 -1.43566 0
M  V30 10848 O 1029.33 5.02664 -3.31078 0
M  V30 10849 H 1033.16 1.84367 -2.41335 0
M  V30 10850 H 1030.74 0.853863 -1.22595 0
M  V30 10851 H 1032.62 4.01642 -1.2752 0
M  V30 10852 H 1031.3 3.21355 -0.388889 0
M  V30 10853 H 1030.21 2.65313 -2.63742 0
M  V30 10854 H 1031.54 3.50455 -3.45604 0
M  V30 10855 N 1033.19 1.2685 0.935242 0
M  V30 10856 C 1034.44 1.12522 1.67878 0
M  V30 10857 C 1034.76 -0.330894 1.92172 0
M  V30 10858 O 1034.03 -1.23259 1.52263 0
M  V30 10859 H 1032.61 0.413418 0.622169 0
M  V30 10860 H 1035.27 1.59267 1.12339 0
M  V30 10861 H 1034.37 1.64853 2.65009 0
M  V30 10862 N 1034.67 -1.14067 1.0875 0
M  V30 10863 C 1035.92 -1.85677 0.830392 0
M  V30 10864 C 1036.27 -1.81549 -0.637016 0
M  V30 10865 O 1035.56 -1.23774 -1.46255 0
M  V30 10866 C 1035.76 -3.33273 1.29089 0
M  V30 10867 C 1035.59 -3.51774 2.80153 0
M  V30 10868 C 1034.36 -3.66419 3.47944 0
M  V30 10869 C 1036.56 -3.48399 3.78316 0
M  V30 10870 N 1034.54 -3.73112 4.87504 0
M  V30 10871 C 1035.91 -3.61378 5.03791 0
M  V30 10872 C 1037.96 -3.31758 3.7127 0
M  V30 10873 C 1036.67 -3.59435 6.23056 0
M  V30 10874 C 1038.69 -3.31119 4.90014 0
M  V30 10875 C 1038.05 -3.44643 6.1433 0
M  V30 10876 H 1034.15 -0.695948 0.356625 0
M  V30 10877 H 1036.74 -1.36687 1.38654 0
M  V30 10878 H 1034.91 -3.80846 0.762274 0
M  V30 10879 H 1036.64 -3.92659 0.979828 0
M  V30 10880 H 1033.4 -3.67799 2.98364 0
M  V30 10881 H 1033.82 -3.80167 5.6018 0
M  V30 10882 H 1038.46 -3.2021 2.76089 0
M  V30 10883 H 1036.18 -3.69758 7.18544 0
M  V30 10884 H 1039.77 -3.1945 4.86254 0
M  V30 10885 H 1038.65 -3.44101 7.04673 0
M  V30 10886 N 1036.15 -0.873678 -1.31166 0
M  V30 10887 C 1037.4 -0.485497 -1.96182 0
M  V30 10888 C 1037.72 0.96621 -1.69379 0
M  V30 10889 O 1036.99 1.67783 -1.01121 0
M  V30 10890 H 1035.57 -0.176547 -0.725838 0
M  V30 10891 H 1038.23 -1.11428 -1.59906 0
M  V30 10892 H 1037.33 -0.646325 -3.05334 0
M  V30 10893 N 1037.63 1.44308 -0.633487 0
M  V30 10894 C 1038.87 2.01624 -0.138643 0
M  V30 10895 C 1039.2 1.50101 1.24477 0
M  V30 10896 O 1038.47 0.705575 1.82752 0
M  V30 10897 H 1037.05 0.745439 -0.0482636 0
M  V30 10898 H 1039.71 1.76777 -0.820719 0
M  V30 10899 H 1038.8 3.11913 -0.108136 0
M  V30 10900 N 1039.1 0.374177 1.53094 0
M  V30 10901 C 1040.05 -0.48326 2.27524 0
M  V30 10902 C 1041.05 -1.07606 1.30833 0
M  V30 10903 O 1042.25 -1.01827 1.48429 0
M  V30 10904 H 1038.63 -0.174578 0.731455 0
M  V30 10905 H 1040.6 0.166156 2.97937 0
M  V30 10906 C 1039.35 -1.6065 3.08362 0
M  V30 10907 H 1038.67 -1.15966 3.82612 0
M  V30 10908 H 1040.11 -2.18099 3.63606 0
M  V30 10909 C 1038.57 -2.55381 2.19732 0
M  V30 10910 O 1039.1 -3.58414 1.8139 0
M  V30 10911 N 1037.31 -2.24769 1.84194 0
M  V30 10912 H 1036.85 -1.41018 2.15573 0
M  V30 10913 H 1036.81 -2.88404 1.25181 0
M  V30 10914 N 1040.58 -1.57259 0.103575 0
M  V30 10915 C 1041.83 -1.94272 -0.557024 0
M  V30 10916 C 1042.15 -0.986739 -1.68192 0
M  V30 10917 O 1041.42 -0.0402818 -1.95859 0
M  V30 10918 H 1040 -0.717237 -0.208757 0
M  V30 10919 H 1042.66 -1.94167 0.168898 0
M  V30 10920 H 1041.76 -2.96914 -0.961691 0
M  V30 10921 N 1042.06 0.170153 -1.56679 0
M  V30 10922 C 1043.31 0.887906 -1.8233 0
M  V30 10923 C 1043.64 1.81845 -0.681608 0
M  V30 10924 O 1042.91 1.9191 0.316362 0
M  V30 10925 C 1043.2 1.68256 -3.18374 0
M  V30 10926 C 1043.05 0.775059 -4.43072 0
M  V30 10927 C 1044.37 2.65001 -3.51372 0
M  V30 10928 H 1041.49 0.32135 -0.663252 0
M  V30 10929 H 1044.13 0.154065 -1.89374 0
M  V30 10930 H 1042.28 2.30817 -3.12499 0
M  V30 10931 H 1043.95 0.162234 -4.61015 0
M  V30 10932 H 1042.2 0.0831809 -4.3372 0
M  V30 10933 H 1042.87 1.36661 -5.34816 0
M  V30 10934 H 1045.34 2.12566 -3.57708 0
M  V30 10935 H 1044.22 3.17667 -4.47637 0
M  V30 10936 H 1044.48 3.45255 -2.76136 0
M  V30 10937 N 1043.54 1.5137 0.438746 0
M  V30 10938 C 1044.79 1.63645 1.18595 0
M  V30 10939 C 1045.11 0.354241 1.91755 0
M  V30 10940 O 1044.38 -0.629838 1.85499 0
M  V30 10941 H 1042.96 0.603103 0.440767 0
M  V30 10942 H 1045.62 1.88293 0.503159 0
M  V30 10943 H 1044.72 2.46342 1.9163 0
M  V30 10944 N 1045.02 -0.694098 1.41492 0
M  V30 10945 C 1046.29 -1.44875 1.31418 0
M  V30 10946 C 1046.67 -2.11022 -0.0575538 0
M  V30 10947 O 1046.02 -2.01799 -1.07188 0
M  V30 10948 C 1046.23 -2.46698 2.46863 0
M  V30 10949 C 1047.58 -3.11907 2.88095 0
M  V30 10950 O 1048.6 -2.57022 2.46613 0
M  V30 10951 O 1047.46 -4.11318 3.59833 0
M  V30 10952 H 1044.56 -0.645266 0.517263 0
M  V30 10953 H 1047.1 -0.724452 1.53459 0
M  V30 10954 H 1045.87 -1.96485 3.38392 0
M  V30 10955 H 1045.5 -3.26634 2.26706 0
M  V30 10956 N 1046.49 -1.27344 -0.928501 0
M  V30 10957 C 1047.77 -1.04362 -1.65433 0
M  V30 10958 C 1048.15 0.421896 -2.06841 0
M  V30 10959 O 1047.5 1.40496 -1.80203 0
M  V30 10960 C 1047.71 -2.00442 -2.85699 0
M  V30 10961 C 1049.06 -2.29767 -3.57061 0
M  V30 10962 O 1050.08 -1.98409 -2.95825 0
M  V30 10963 O 1048.94 -2.83217 -4.67387 0
M  V30 10964 H 1046.03 -0.397783 -0.72505 0
M  V30 10965 H 1048.58 -1.38606 -0.979109 0
M  V30 10966 H 1047.35 -2.99281 -2.52085 0
M  V30 10967 H 1046.98 -1.66755 -3.60941 0
M  V30 10968 N 1047.97 1.13488 -1.09353 0
M  V30 10969 C 1048.9 2.20988 -0.75409 0
M  V30 10970 C 1049.88 1.67977 0.267901 0
M  V30 10971 O 1051.07 1.93722 0.136128 0
M  V30 10972 C 1048.2 3.46869 -0.173042 0
M  V30 10973 C 1047.15 4.12965 -1.12446 0
M  V30 10974 C 1046.48 5.33163 -0.405157 0
M  V30 10975 C 1047.78 4.60388 -2.46658 0
M  V30 10976 H 1049.47 2.49639 -1.6529 0
M  V30 10977 H 1047.02 1.19987 -0.796182 0
M  V30 10978 H 1048.97 4.21331 0.0764988 0
M  V30 10979 H 1047.7 3.17611 0.760956 0
M  V30 10980 H 1046.35 3.40469 -1.35927 0
M  V30 10981 H 1046 5.00169 0.532955 0
M  V30 10982 H 1045.7 5.78332 -1.03952 0
M  V30 10983 H 1047.23 6.1038 -0.163899 0
M  V30 10984 H 1048.64 5.26276 -2.27389 0
M  V30 10985 H 1047.04 5.16294 -3.05876 0
M  V30 10986 H 1048.11 3.74949 -3.07476 0
M  V30 10987 N 1049.45 0.880621 1.30701 0
M  V30 10988 C 1050.68 0.51094 2.00182 0
M  V30 10989 C 1051.09 -0.903914 1.66211 0
M  V30 10990 O 1050.43 -1.60529 0.893089 0
M  V30 10991 C 1050.49 0.600775 3.54445 0
M  V30 10992 C 1050.16 1.97915 4.1192 0
M  V30 10993 C 1051.16 2.94802 4.28238 0
M  V30 10994 C 1048.84 2.28336 4.47401 0
M  V30 10995 C 1050.83 4.20245 4.79242 0
M  V30 10996 C 1048.52 3.54026 4.98105 0
M  V30 10997 C 1049.52 4.49796 5.13978 0
M  V30 10998 O 1049.21 5.73256 5.63589 0
M  V30 10999 H 1048.94 0.196477 0.646818 0
M  V30 11000 H 1051.49 1.18659 1.67658 0
M  V30 11001 H 1049.72 -0.131832 3.86475 0
M  V30 11002 H 1051.41 0.242996 4.05172 0
M  V30 11003 H 1052.18 2.7261 4.01134 0
M  V30 11004 H 1048.06 1.54564 4.34317 0
M  V30 11005 H 1051.6 4.95003 4.91546 0
M  V30 11006 H 1047.5 3.76057 5.24644 0
M  V30 11007 H 1048.27 5.75577 5.81939 0
M  V30 11008 N 1050.93 -1.4397 0.641131 0
M  V30 11009 C 1052.15 -2.06818 0.155318 0
M  V30 11010 C 1052.58 -1.47665 -1.16519 0
M  V30 11011 O 1051.94 -0.58192 -1.71707 0
M  V30 11012 C 1051.99 -3.60542 0.0647537 0
M  V30 11013 O 1051.09 -4.00674 -0.976447 0
M  V30 11014 H 1050.43 -0.657962 0.0893404 0
M  V30 11015 H 1052.96 -1.84678 0.88064 0
M  V30 11016 H 1052.97 -4.07816 -0.122552 0
M  V30 11017 H 1051.65 -4.02975 1.02878 0
M  V30 11018 H 1050.22 -3.65013 -0.762905 0
M  V30 11019 N 1052.41 -0.382291 -1.52893 0
M  V30 11020 C 1053.64 0.202114 -2.05609 0
M  V30 11021 C 1054.05 1.4164 -1.25438 0
M  V30 11022 O 1053.39 1.81359 -0.292324 0
M  V30 11023 C 1053.45 0.64356 -3.53693 0
M  V30 11024 C 1053.11 -0.456305 -4.54716 0
M  V30 11025 C 1054.11 -1.3115 -5.03086 0
M  V30 11026 C 1051.8 -0.621329 -4.98442 0
M  V30 11027 C 1053.79 -2.3169 -5.938 0
M  V30 11028 C 1051.48 -1.63008 -5.88958 0
M  V30 11029 C 1052.48 -2.47629 -6.36529 0
M  V30 11030 O 1052.16 -3.46781 -7.25257 0
M  V30 11031 H 1051.9 0.0358014 -0.675051 0
M  V30 11032 H 1054.45 -0.543935 -1.98067 0
M  V30 11033 H 1052.68 1.44148 -3.58829 0
M  V30 11034 H 1054.37 1.15284 -3.89184 0
M  V30 11035 H 1055.13 -1.19528 -4.70041 0
M  V30 11036 H 1051.01 0.027593 -4.60992 0
M  V30 11037 H 1054.56 -2.97776 -6.30853 0
M  V30 11038 H 1050.45 -1.74671 -6.21418 0
M  V30 11039 H 1051.22 -3.42707 -7.433 0
M  V30 11040 N 1053.89 1.57202 -0.111913 0
M  V30 11041 C 1055.13 1.94565 0.546713 0
M  V30 11042 C 1055.45 0.995644 1.67666 0
M  V30 11043 O 1054.72 0.0506681 1.95834 0
M  V30 11044 H 1053.3 0.718334 0.204951 0
M  V30 11045 H 1055.97 1.94074 -0.179193 0
M  V30 11046 H 1055.06 2.9742 0.945931 0
M  V30 11047 N 1055.36 -0.161842 1.56767 0
M  V30 11048 C 1056.61 -0.876925 1.82527 0
M  V30 11049 C 1056.94 -1.81831 0.690492 0
M  V30 11050 O 1056.19 -1.9304 -0.32159 0
M  V30 11051 C 1056.49 -1.69736 3.14522 0
M  V30 11052 C 1056.16 -0.904075 4.41743 0
M  V30 11053 C 1054.82 -0.685168 4.76297 0
M  V30 11054 C 1057.17 -0.348282 5.20035 0
M  V30 11055 C 1054.5 0.10048 5.86614 0
M  V30 11056 C 1056.85 0.424327 6.31175 0
M  V30 11057 C 1055.52 0.653948 6.64289 0
M  V30 11058 H 1054.79 -0.320889 0.667915 0
M  V30 11059 H 1057.43 -0.141338 1.90978 0
M  V30 11060 H 1055.74 -2.50262 3.01456 0
M  V30 11061 H 1057.44 -2.25386 3.31666 0
M  V30 11062 H 1054.03 -1.08474 4.14646 0
M  V30 11063 H 1058.21 -0.504721 4.93727 0
M  V30 11064 H 1053.47 0.288029 6.10721 0
M  V30 11065 H 1057.64 0.862203 6.91042 0
M  V30 11066 H 1055.27 1.26459 7.49608 0
M  V30 11067 N 1056.84 -1.516 -0.430713 0
M  V30 11068 C 1058.12 -1.55142 -1.19123 0
M  V30 11069 C 1058.5 -0.319596 -2.08667 0
M  V30 11070 O 1057.85 0.694927 -2.17676 0
M  V30 11071 C 1058.06 -2.86891 -1.98732 0
M  V30 11072 C 1059.4 -3.39089 -2.55546 0
M  V30 11073 O 1060.43 -2.88486 -2.08936 0
M  V30 11074 O 1059.29 -4.27401 -3.40574 0
M  V30 11075 H 1056.38 -0.624019 -0.542705 0
M  V30 11076 H 1058.93 -1.63917 -0.439244 0
M  V30 11077 H 1057.7 -3.68002 -1.33005 0
M  V30 11078 H 1057.32 -2.81309 -2.80982 0
M  V30 11079 N 1058.32 0.686584 -1.41858 0
M  V30 11080 C 1059.57 1.44379 -1.41418 0
M  V30 11081 C 1059.89 1.94981 -0.0273696 0
M  V30 11082 O 1059.16 1.72296 0.932248 0
M  V30 11083 H 1057.74 0.53574 -0.520568 0
M  V30 11084 H 1060.4 0.812056 -1.77177 0
M  V30 11085 H 1059.5 2.30258 -2.10684 0
M  V30 11086 N 1059.8 1.27835 0.921735 0
M  V30 11087 C 1060.73 1.136 2.04003 0
M  V30 11088 C 1061.71 0.0358756 1.70062 0
M  V30 11089 O 1062.89 0.211438 1.93046 0
M  V30 11090 C 1060.02 0.788697 3.38226 0
M  V30 11091 C 1058.98 1.84272 3.863 0
M  V30 11092 C 1058.3 1.34923 5.17397 0
M  V30 11093 C 1059.6 3.24788 4.09035 0
M  V30 11094 H 1061.3 2.07149 2.1617 0
M  V30 11095 H 1058.84 0.997349 1.0387 0
M  V30 11096 H 1060.8 0.675911 4.15944 0
M  V30 11097 H 1059.52 -0.182499 3.2609 0
M  V30 11098 H 1058.18 1.94451 3.1078 0
M  V30 11099 H 1057.83 0.367328 5.01657 0
M  V30 11100 H 1057.53 2.05397 5.50532 0
M  V30 11101 H 1059.05 1.24951 5.97678 0
M  V30 11102 H 1060.47 3.17575 4.77304 0
M  V30 11103 H 1058.86 3.93025 4.53488 0
M  V30 11104 H 1059.93 3.69398 3.14122 0
M  V30 11105 N 1061.28 -1.12907 1.09954 0
M  V30 11106 C 1062.23 -2.16558 0.713204 0
M  V30 11107 C 1063.21 -1.5853 -0.27515 0
M  V30 11108 O 1064.4 -1.76797 -0.0846643 0
M  V30 11109 C 1061.53 -3.43009 0.141224 0
M  V30 11110 C 1060.62 -4.08032 1.15632 0
M  V30 11111 N 1061.01 -4.48139 2.34531 0
M  V30 11112 C 1059.31 -4.34743 0.995701 0
M  V30 11113 C 1060.01 -4.98885 2.99147 0
M  V30 11114 N 1058.98 -4.9408 2.26684 0
M  V30 11115 H 1062.78 -2.45328 1.61838 0
M  V30 11116 H 1060.3 -1.29759 0.976539 0
M  V30 11117 H 1062.3 -4.16617 -0.153598 0
M  V30 11118 H 1060.96 -3.15711 -0.758729 0
M  V30 11119 H 1061.97 -4.40668 2.72089 0
M  V30 11120 H 1058.64 -4.17227 0.150888 0
M  V30 11121 H 1060.03 -5.3967 4.00257 0
M  V30 11122 N 1062.75 -0.88754 -1.30232 0
M  V30 11123 C 1063.68 -0.372481 -2.3051 0
M  V30 11124 C 1064.66 0.546037 -1.61098 0
M  V30 11125 O 1065.85 0.459345 -1.88689 0
M  V30 11126 C 1062.98 0.411605 -3.44852 0
M  V30 11127 C 1061.93 -0.415383 -4.2598 0
M  V30 11128 C 1061.26 0.495463 -5.324 0
M  V30 11129 C 1062.56 -1.65886 -4.95257 0
M  V30 11130 H 1064.25 -1.21045 -2.7384 0
M  V30 11131 H 1061.8 -0.583498 -1.31648 0
M  V30 11132 H 1063.75 0.782584 -4.1407 0
M  V30 11133 H 1062.48 1.28325 -3.00334 0
M  V30 11134 H 1061.14 -0.768534 -3.58454 0
M  V30 11135 H 1060.78 1.36489 -4.84128 0
M  V30 11136 H 1060.48 -0.0540885 -5.87575 0
M  V30 11137 H 1062.01 0.862901 -6.04472 0
M  V30 11138 H 1063.42 -1.35832 -5.56976 0
M  V30 11139 H 1061.82 -2.14881 -5.60309 0
M  V30 11140 H 1062.89 -2.40181 -4.21237 0
M  V30 11141 N 1064.23 1.43628 -0.648757 0
M  V30 11142 C 1065.48 2.02695 -0.169158 0
M  V30 11143 C 1065.83 1.50239 1.20191 0
M  V30 11144 O 1065.13 0.684018 1.78974 0
M  V30 11145 C 1065.32 3.57214 -0.115282 0
M  V30 11146 C 1065.15 4.24663 -1.47959 0
M  V30 11147 C 1063.92 4.60917 -2.07084 0
M  V30 11148 C 1066.12 4.53962 -2.41708 0
M  V30 11149 N 1064.1 5.13416 -3.36566 0
M  V30 11150 C 1065.47 5.07733 -3.55819 0
M  V30 11151 C 1067.53 4.35927 -2.40566 0
M  V30 11152 C 1066.23 5.45367 -4.69007 0
M  V30 11153 C 1068.25 4.7462 -3.52831 0
M  V30 11154 C 1067.62 5.2852 -4.65667 0
M  V30 11155 H 1063.72 0.774751 -0.106227 0
M  V30 11156 H 1066.3 1.74869 -0.85609 0
M  V30 11157 H 1064.47 3.84614 0.54098 0
M  V30 11158 H 1066.2 4.02961 0.374775 0
M  V30 11159 H 1062.96 4.45812 -1.59841 0
M  V30 11160 H 1063.38 5.44124 -4.02813 0
M  V30 11161 H 1068.02 3.93533 -1.54569 0
M  V30 11162 H 1065.74 5.86707 -5.55698 0
M  V30 11163 H 1069.33 4.62364 -3.53144 0
M  V30 11164 H 1068.21 5.57906 -5.511 0
M  V30 11165 N 1065.71 0.390394 1.52688 0
M  V30 11166 C 1066.94 -0.191485 2.06012 0
M  V30 11167 C 1067.35 -1.40422 1.26202 0
M  V30 11168 O 1066.71 -1.79866 0.308963 0
M  V30 11169 C 1066.76 -0.560521 3.57128 0
M  V30 11170 O 1066.48 0.60404 4.33916 0
M  V30 11171 C 1067.98 -1.19814 4.26801 0
M  V30 11172 H 1065.2 -0.0286311 0.670389 0
M  V30 11173 H 1067.75 0.555939 1.96798 0
M  V30 11174 H 1065.9 -1.25784 3.66411 0
M  V30 11175 H 1066.32 0.300467 5.23639 0
M  V30 11176 H 1067.79 -1.40672 5.33775 0
M  V30 11177 H 1068.27 -2.16582 3.82085 0
M  V30 11178 H 1068.87 -0.541558 4.21838 0
M  V30 11179 N 1067.19 -1.57141 0.120249 0
M  V30 11180 C 1068.44 -1.94852 -0.536387 0
M  V30 11181 C 1068.76 -1.00452 -1.67136 0
M  V30 11182 O 1068.03 -0.061053 -1.95805 0
M  V30 11183 H 1066.61 -0.719411 -0.201138 0
M  V30 11184 H 1069.27 -1.93977 0.189482 0
M  V30 11185 H 1068.37 -2.97917 -0.930145 0
M  V30 11186 N 1068.67 0.153526 -1.5685 0
M  V30 11187 C 1069.62 1.19478 -1.94188 0
M  V30 11188 C 1070.6 1.38889 -0.812329 0
M  V30 11189 O 1071.79 1.4056 -1.07572 0
M  V30 11190 C 1068.92 2.53 -2.32047 0
M  V30 11191 C 1068.01 2.37209 -3.51557 0
M  V30 11192 N 1068.4 1.91162 -4.68285 0
M  V30 11193 C 1066.7 2.67981 -3.56514 0
M  V30 11194 C 1067.4 1.88259 -5.50394 0
M  V30 11195 N 1066.37 2.31329 -4.91923 0
M  V30 11196 H 1070.18 0.830748 -2.81915 0
M  V30 11197 H 1067.69 0.361643 -1.58322 0
M  V30 11198 H 1069.69 3.28264 -2.56998 0
M  V30 11199 H 1068.35 2.90191 -1.45669 0
M  V30 11200 H 1069.36 1.61227 -4.92165 0
M  V30 11201 H 1066.03 3.0909 -2.80659 0
M  V30 11202 H 1067.42 1.54205 -6.53965 0
M  V30 11203 N 1070.14 1.51827 0.422667 0
M  V30 11204 C 1071.39 1.65464 1.17258 0
M  V30 11205 C 1071.72 0.376834 1.90509 0
M  V30 11206 O 1071 -0.624219 1.84211 0
M  V30 11207 C 1071.28 2.86776 2.17788 0
M  V30 11208 C 1071.13 4.24571 1.48523 0
M  V30 11209 C 1072.45 3.03603 3.18611 0
M  V30 11210 H 1069.57 0.602169 0.424925 0
M  V30 11211 H 1072.21 1.84349 0.45996 0
M  V30 11212 H 1070.36 2.70806 2.78561 0
M  V30 11213 H 1072.04 4.5224 0.909739 0
M  V30 11214 H 1070.28 4.26595 0.787354 0
M  V30 11215 H 1070.95 5.05475 2.2181 0
M  V30 11216 H 1073.43 3.18381 2.67904 0
M  V30 11217 H 1072.3 3.90022 3.8623 0
M  V30 11218 H 1072.56 2.16318 3.85563 0
M  V30 11219 N 1071.62 -0.679052 1.4222 0
M  V30 11220 C 1072.59 -1.77448 1.45069 0
M  V30 11221 C 1073.59 -1.57189 0.338882 0
M  V30 11222 O 1074.78 -1.63559 0.599519 0
M  V30 11223 C 1071.91 -3.1603 1.27819 0
M  V30 11224 H 1073.1 -1.7631 2.426 0
M  V30 11225 H 1070.65 -0.888277 1.28605 0
M  V30 11226 H 1071.39 -3.22796 0.311946 0
M  V30 11227 H 1071.17 -3.32138 2.08391 0
M  V30 11228 H 1072.66 -3.9596 1.32686 0
M  V30 11229 N 1073.1 -1.28322 -0.914942 0
M  V30 11230 C 1074.52 -1.06003 -1.19313 0
M  V30 11231 C 1074.72 0.198366 -2.00521 0
M  V30 11232 O 1073.77 0.900364 -2.35902 0
M  V30 11233 C 1075.09 -2.30684 -1.92887 0
M  V30 11234 C 1076.63 -2.35851 -2.05775 0
M  V30 11235 C 1077.11 -3.60295 -2.82757 0
M  V30 11236 N 1078.6 -3.60928 -2.9032 0
M  V30 11237 C 1079.33 -4.53894 -3.50383 0
M  V30 11238 N 1078.83 -5.57178 -4.11734 0
M  V30 11239 N 1080.62 -4.41492 -3.4791 0
M  V30 11240 H 1072.77 -2.09104 -0.372735 0
M  V30 11241 H 1075.04 -0.920285 -0.227552 0
M  V30 11242 H 1074.74 -3.22355 -1.40643 0
M  V30 11243 H 1074.62 -2.37003 -2.93444 0
M  V30 11244 H 1077 -1.44678 -2.57201 0
M  V30 11245 H 1077.09 -2.33526 -1.04399 0
M  V30 11246 H 1076.73 -4.51811 -2.32011 0
M  V30 11247 H 1076.66 -3.59873 -3.84446 0
M  V30 11248 H 1079.15 -2.8624 -2.46729 0
M  V30 11249 H 1079.46 -6.24261 -4.55541 0
M  V30 11250 H 1077.81 -5.61005 -4.10242 0
M  V30 11251 H 1081 -3.60005 -2.99189 0
M  V30 11252 H 1081.17 -5.14132 -3.94427 0
M  V30 11253 N 1074.58 1.12322 -1.10551 0
M  V30 11254 C 1075.99 1.6539 -0.8662 0
M  V30 11255 C 1076.34 1.86695 0.603284 0
M  V30 11256 O 1075.47 1.59432 1.46323 0
M  V30 11257 C 1076.06 3.00443 -1.56587 0
M  V30 11258 C 1074.62 3.50456 -1.37323 0
M  V30 11259 C 1073.77 2.25454 -1.61449 0
M  V30 11260 H 1076.72 0.960866 -1.26305 0
M  V30 11261 H 1076.74 3.66972 -1.00557 0
M  V30 11262 H 1076.25 2.84905 -2.63535 0
M  V30 11263 H 1074.35 3.71176 -0.325431 0
M  V30 11264 H 1074.46 4.29839 -2.11601 0
M  V30 11265 H 1072.83 2.32621 -1.03729 0
M  V30 11266 H 1073.61 2.12469 -2.69651 0
M  V30 11267 N 1076.06 0.894434 1.2976 0
M  V30 11268 C 1077.3 0.518435 1.96061 0
M  V30 11269 C 1077.64 -0.931882 1.70381 0
M  V30 11270 O 1076.91 -1.65988 1.01381 0
M  V30 11271 C 1077.19 0.80519 3.50982 0
M  V30 11272 C 1077.05 2.30683 3.86142 0
M  V30 11273 C 1078.37 0.288096 4.39156 0
M  V30 11274 H 1075.48 0.18983 0.712133 0
M  V30 11275 H 1078.13 1.12016 1.53468 0
M  V30 11276 H 1076.28 0.293071 3.87393 0
M  V30 11277 H 1077.95 2.88808 3.59705 0
M  V30 11278 H 1076.19 2.76968 3.33873 0
M  V30 11279 H 1076.86 2.45805 4.94251 0
M  V30 11280 H 1079.34 0.726547 4.09708 0
M  V30 11281 H 1078.21 0.517985 5.4645 0
M  V30 11282 H 1078.48 -0.811018 4.34597 0
M  V30 11283 N 1077.53 -1.43282 0.656365 0
M  V30 11284 C 1078.76 -2.06125 0.178879 0
M  V30 11285 C 1079.18 -1.49216 -1.15672 0
M  V30 11286 O 1078.53 -0.624693 -1.71475 0
M  V30 11287 C 1078.59 -3.614 0.0851785 0
M  V30 11288 O 1078.31 -4.16194 1.36798 0
M  V30 11289 C 1079.81 -4.41325 -0.41801 0
M  V30 11290 H 1077.03 -0.664753 0.0913504 0
M  V30 11291 H 1079.57 -1.83733 0.897901 0
M  V30 11292 H 1077.73 -3.82966 -0.584421 0
M  V30 11293 H 1078.14 -5.09892 1.22924 0
M  V30 11294 H 1079.61 -5.50303 -0.432519 0
M  V30 11295 H 1080.09 -4.14577 -1.44991 0
M  V30 11296 H 1080.7 -4.24735 0.219208 0
M  V30 11297 N 1079.01 -0.398486 -1.52479 0
M  V30 11298 C 1080.24 0.183059 -2.06591 0
M  V30 11299 C 1080.66 1.3898 -1.26753 0
M  V30 11300 O 1080.02 1.78885 -0.294959 0
M  V30 11301 C 1080.07 0.522392 -3.56796 0
M  V30 11302 O 1079.17 1.61499 -3.79462 0
M  V30 11303 H 1078.51 0.0188411 -0.663733 0
M  V30 11304 H 1081.04 -0.56861 -1.9654 0
M  V30 11305 H 1081.05 0.784078 -4.00395 0
M  V30 11306 H 1079.73 -0.359807 -4.14341 0
M  V30 11307 H 1078.31 1.3463 -3.47749 0
M  V30 11308 N 1080.49 1.57075 -0.12858 0
M  V30 11309 C 1081.9 1.82468 0.39526 0
M  V30 11310 C 1082.25 1.0463 1.65973 0
M  V30 11311 O 1081.38 0.285835 2.14504 0
M  V30 11312 C 1081.97 3.30976 0.723889 0
M  V30 11313 C 1080.53 3.57016 1.19232 0
M  V30 11314 C 1079.68 2.76534 0.205907 0
M  V30 11315 H 1082.63 1.54711 -0.353571 0
M  V30 11316 H 1082.65 3.46127 1.58039 0
M  V30 11317 H 1082.16 3.87602 -0.196595 0
M  V30 11318 H 1080.26 3.05758 2.12938 0
M  V30 11319 H 1080.38 4.65558 1.13103 0
M  V30 11320 H 1078.74 2.45038 0.694872 0
M  V30 11321 H 1079.52 3.35923 -0.707842 0
M  V30 11322 N 1081.97 -0.145205 1.5693 0
M  V30 11323 C 1083.22 -0.855822 1.83085 0
M  V30 11324 C 1083.54 -1.81625 0.709747 0
M  V30 11325 O 1082.81 -1.94052 -0.268456 0
M  V30 11326 H 1081.39 -0.319032 0.675446 0
M  V30 11327 H 1084.05 -0.138781 1.94405 0
M  V30 11328 H 1083.15 -1.41698 2.78079 0
M  V30 11329 N 1083.45 -1.52049 -0.414609 0
M  V30 11330 C 1084.38 -1.7122 -1.52369 0
M  V30 11331 C 1085.39 -0.592634 -1.5163 0
M  V30 11332 O 1086.58 -0.867634 -1.55995 0
M  V30 11333 C 1083.68 -1.73247 -2.91271 0
M  V30 11334 C 1082.85 -3.02153 -3.16263 0
M  V30 11335 C 1081.91 -2.96066 -4.35007 0
M  V30 11336 O 1080.94 -3.69981 -4.32554 0
M  V30 11337 N 1082.14 -2.13478 -5.39822 0
M  V30 11338 H 1084.91 -2.66902 -1.3632 0
M  V30 11339 H 1082.47 -1.50218 -0.603842 0
M  V30 11340 H 1084.46 -1.66714 -3.68766 0
M  V30 11341 H 1083.03 -0.85062 -3.00804 0
M  V30 11342 H 1082.25 -3.22379 -2.2686 0
M  V30 11343 H 1083.54 -3.87439 -3.29801 0
M  V30 11344 H 1082.94 -1.52844 -5.44661 0
M  V30 11345 H 1081.49 -2.12805 -6.16082 0
M  V30 11346 N 1084.93 0.6715 -1.42579 0
M  V30 11347 C 1085.88 1.77767 -1.42769 0
M  V30 11348 C 1086.86 1.58106 -0.298568 0
M  V30 11349 O 1088.05 1.68528 -0.541037 0
M  V30 11350 C 1085.18 3.16248 -1.33574 0
M  V30 11351 C 1084.27 3.41521 -2.51445 0
M  V30 11352 N 1084.66 3.37361 -3.76857 0
M  V30 11353 C 1082.96 3.7217 -2.45776 0
M  V30 11354 C 1083.66 3.62209 -4.5517 0
M  V30 11355 N 1082.63 3.83134 -3.85628 0
M  V30 11356 H 1086.43 1.72949 -2.37626 0
M  V30 11357 H 1083.95 0.872467 -1.36974 0
M  V30 11358 H 1085.95 3.9552 -1.31793 0
M  V30 11359 H 1084.61 3.22261 -0.397223 0
M  V30 11360 H 1085.62 3.17187 -4.09406 0
M  V30 11361 H 1082.29 3.85408 -1.6052 0
M  V30 11362 H 1083.68 3.64925 -5.64162 0
M  V30 11363 N 1086.4 1.28806 0.908124 0
M  V30 11364 C 1087.33 1.15758 2.02787 0
M  V30 11365 C 1088.31 0.053911 1.70015 0
M  V30 11366 O 1089.5 0.231901 1.9281 0
M  V30 11367 C 1086.63 0.824526 3.37371 0
M  V30 11368 C 1085.58 1.88359 3.84324 0
M  V30 11369 C 1084.91 1.40404 5.15937 0
M  V30 11370 C 1086.21 3.29108 4.05568 0
M  V30 11371 H 1087.9 2.09431 2.13961 0
M  V30 11372 H 1085.45 1.00831 1.02806 0
M  V30 11373 H 1087.4 0.71999 4.15204 0
M  V30 11374 H 1086.13 -0.147902 3.26265 0
M  V30 11375 H 1084.79 1.97736 3.087 0
M  V30 11376 H 1084.43 0.420515 5.01239 0
M  V30 11377 H 1084.13 2.11224 5.48323 0
M  V30 11378 H 1085.66 1.31283 5.9632 0
M  V30 11379 H 1087.07 3.2262 4.73909 0
M  V30 11380 H 1085.47 3.97812 4.49294 0
M  V30 11381 H 1086.54 3.72709 3.10187 0
M  V30 11382 N 1087.88 -1.11734 1.11145 0
M  V30 11383 C 1088.81 -2.1976 0.789152 0
M  V30 11384 C 1089.79 -1.68382 -0.241143 0
M  V30 11385 O 1090.98 -1.93914 -0.105292 0
M  V30 11386 C 1088.11 -3.46549 0.228204 0
M  V30 11387 C 1087.06 -4.11123 1.19002 0
M  V30 11388 C 1086.39 -5.32451 0.489928 0
M  V30 11389 C 1087.69 -4.56406 2.53951 0
M  V30 11390 H 1089.38 -2.46978 1.69241 0
M  V30 11391 H 1086.93 -1.18705 0.81517 0
M  V30 11392 H 1088.88 -4.21399 -0.00945908 0
M  V30 11393 H 1087.6 -3.18782 -0.71033 0
M  V30 11394 H 1086.26 -3.38264 1.41326 0
M  V30 11395 H 1085.91 -5.00953 -0.453315 0
M  V30 11396 H 1085.61 -5.76605 1.1314 0
M  V30 11397 H 1087.14 -6.10042 0.260984 0
M  V30 11398 H 1088.55 -5.22592 2.35733 0
M  V30 11399 H 1086.95 -5.11363 3.14051 0
M  V30 11400 H 1088.02 -3.7001 3.13402 0
M  V30 11401 N 1089.36 -0.901303 -1.29284 0
M  V30 11402 C 1090.32 -0.385081 -2.25942 0
M  V30 11403 C 1091.32 0.481626 -1.53418 0
M  V30 11404 O 1092.51 0.286451 -1.71829 0
M  V30 11405 C 1089.64 0.449319 -3.37926 0
M  V30 11406 H 1090.84 -1.23877 -2.7312 0
M  V30 11407 H 1088.39 -0.679586 -1.40753 0
M  V30 11408 H 1089.13 1.32292 -2.9609 0
M  V30 11409 H 1088.91 -0.171731 -3.91724 0
M  V30 11410 H 1090.4 0.801746 -4.09831 0
M  V30 11411 N 1090.84 1.42931 -0.663954 0
M  V30 11412 C 1092.25 1.84877 -0.260283 0
M  V30 11413 C 1092.6 1.5558 1.19538 0
M  V30 11414 O 1091.72 1.01015 1.91377 0
M  V30 11415 C 1092.32 3.35585 -0.465618 0
M  V30 11416 C 1090.88 3.76221 -0.116169 0
M  V30 11417 C 1090.03 2.66587 -0.763317 0
M  V30 11418 H 1092.98 1.32932 -0.866882 0
M  V30 11419 H 1093 3.79427 0.285608 0
M  V30 11420 H 1092.51 3.56877 -1.52515 0
M  V30 11421 H 1090.61 3.60539 0.940342 0
M  V30 11422 H 1090.72 4.75943 -0.549123 0
M  V30 11423 H 1089.09 2.53948 -0.19559 0
M  V30 11424 H 1089.87 2.90704 -1.82609 0
M  V30 11425 N 1092.32 0.406567 1.52266 0
M  V30 11426 C 1093.23 -0.4271 2.30679 0
M  V30 11427 C 1094.24 -1.0559 1.383 0
M  V30 11428 O 1095.42 -1.05797 1.71374 0
M  V30 11429 C 1092.48 -1.53008 3.1111 0
M  V30 11430 C 1091.54 -0.924604 4.19225 0
M  V30 11431 C 1090.78 -1.97502 4.95811 0
M  V30 11432 O 1091 -3.19277 4.72671 0
M  V30 11433 O 1089.93 -1.58268 5.80719 0
M  V30 11434 H 1093.76 0.212187 3.02958 0
M  V30 11435 H 1091.34 0.169835 1.48432 0
M  V30 11436 H 1093.23 -2.17046 3.61205 0
M  V30 11437 H 1091.9 -2.15401 2.41628 0
M  V30 11438 H 1090.81 -0.247009 3.73284 0
M  V30 11439 H 1092.14 -0.34463 4.90992 0
M  V30 11440 N 1093.79 -1.57004 0.136909 0
M  V30 11441 C 1095.07 -1.87375 -0.561233 0
M  V30 11442 C 1095.45 -1.04117 -1.83638 0
M  V30 11443 O 1094.8 -0.125103 -2.28157 0
M  V30 11444 C 1095.01 -3.38829 -0.836426 0
M  V30 11445 C 1096.36 -4.07826 -1.18164 0
M  V30 11446 O 1097.38 -3.4395 -0.92611 0
M  V30 11447 O 1096.24 -5.20614 -1.66204 0
M  V30 11448 H 1093.33 -0.776287 -0.285145 0
M  V30 11449 H 1095.88 -1.68818 0.172761 0
M  V30 11450 H 1094.65 -3.91244 0.066442 0
M  V30 11451 H 1094.28 -3.62879 -1.62496 0
M  V30 11452 N 1095.27 0.136881 -1.57004 0
M  V30 11453 C 1096.52 0.849031 -1.84172 0
M  V30 11454 C 1096.85 1.80359 -0.720027 0
M  V30 11455 O 1096.13 1.92538 0.275584 0
M  V30 11456 C 1096.41 1.61465 -3.21871 0
M  V30 11457 C 1096.26 0.680902 -4.44616 0
M  V30 11458 C 1097.58 2.57488 -3.56914 0
M  V30 11459 H 1094.7 0.307209 -0.669919 0
M  V30 11460 H 1097.34 0.113862 -1.89659 0
M  V30 11461 H 1095.49 2.24137 -3.17325 0
M  V30 11462 H 1097.16 0.0644094 -4.61255 0
M  V30 11463 H 1095.41 -0.00883629 -4.33799 0
M  V30 11464 H 1096.08 1.25286 -5.37594 0
M  V30 11465 H 1098.55 2.0493 -3.62136 0
M  V30 11466 H 1097.43 3.08101 -4.54274 0
M  V30 11467 H 1097.69 3.39321 -2.83397 0
M  V30 11468 N 1096.75 1.52266 0.40654 0
M  V30 11469 C 1098 1.6568 1.15035 0
M  V30 11470 C 1098.31 0.394135 1.91588 0
M  V30 11471 O 1099.52 0.408113 2.68415 0
M  V30 11472 C 1097.97 2.92725 2.0938 0
M  V30 11473 C 1097.58 4.26108 1.38332 0
M  V30 11474 C 1099.33 3.15502 2.84004 0
M  V30 11475 C 1097.23 5.44275 2.3134 0
M  V30 11476 H 1096.16 0.61719 0.43312 0
M  V30 11477 H 1098.81 1.78755 0.414598 0
M  V30 11478 H 1097.2 2.73355 2.86519 0
M  V30 11479 H 1098.37 4.55971 0.665396 0
M  V30 11480 H 1096.69 4.09454 0.757384 0
M  V30 11481 H 1099.28 4.00964 3.5374 0
M  V30 11482 H 1099.63 2.29842 3.471 0
M  V30 11483 H 1100.16 3.35357 2.13964 0
M  V30 11484 H 1096.9 6.3229 1.72887 0
M  V30 11485 H 1096.42 5.18749 3.01098 0
M  V30 11486 H 1098.1 5.77457 2.91809 0
M  V30 11487 N 1098.23 -0.663929 1.42933 0
M  V30 11488 C 1099.45 -1.45691 1.47611 0
M  V30 11489 C 1099.88 -1.87875 0.0920305 0
M  V30 11490 O 1099.24 -1.56696 -0.91192 0
M  V30 11491 C 1099.28 -2.67517 2.41799 0
M  V30 11492 O 1098.39 -3.66187 1.89686 0
M  V30 11493 H 1097.73 -0.437257 0.499702 0
M  V30 11494 H 1100.26 -0.813397 1.87737 0
M  V30 11495 H 1100.27 -3.1546 2.58745 0
M  V30 11496 H 1098.94 -2.36155 3.4235 0
M  V30 11497 H 1097.52 -3.25274 1.82349 0
M  V30 11498 N 1099.71 -1.29285 -0.901281 0
M  V30 11499 C 1100.95 -1.18431 -1.66594 0
M  V30 11500 C 1101.31 0.260312 -1.90227 0
M  V30 11501 O 1102.51 0.4918 -2.64263 0
M  V30 11502 C 1100.78 -1.97357 -2.97968 0
M  V30 11503 S 1102.34 -2.03019 -3.8901 0
M  V30 11504 H 1099.16 -0.422323 -0.571983 0
M  V30 11505 H 1101.76 -1.63551 -1.07105 0
M  V30 11506 H 1100.47 -3.01459 -2.78479 0
M  V30 11507 H 1100 -1.52836 -3.62498 0
M  V30 11508 H 1102.01 -1.14572 -4.82791 0
M  V30 11509 N 1101.18 1.11143 -1.11736 0
M  V30 11510 C 1102.42 1.84576 -0.878119 0
M  V30 11511 C 1102.79 1.82851 0.585605 0
M  V30 11512 O 1103.99 2.51763 0.941732 0
M  V30 11513 C 1102.26 3.27628 -1.4281 0
M  V30 11514 S 1103.82 4.18276 -1.3263 0
M  V30 11515 H 1100.64 0.636442 -0.316958 0
M  V30 11516 H 1103.24 1.33794 -1.42546 0
M  V30 11517 H 1101.94 3.2645 -2.48714 0
M  V30 11518 H 1101.47 3.83479 -0.877925 0
M  V30 11519 H 1103.49 4.95335 -0.292878 0
M  V30 11520 N 1102.66 0.908147 1.28804 0
M  V30 11521 C 1103.59 0.409106 2.29888 0
M  V30 11522 C 1104.57 -0.520338 1.61946 0
M  V30 11523 O 1105.76 -0.429268 1.89396 0
M  V30 11524 C 1102.89 -0.35669 3.45463 0
M  V30 11525 C 1101.84 0.4831 4.25265 0
M  V30 11526 C 1101.17 -0.4107 5.3312 0
M  V30 11527 C 1102.47 1.73744 4.92555 0
M  V30 11528 H 1104.16 1.25386 2.7188 0
M  V30 11529 H 1101.71 0.604368 1.30703 0
M  V30 11530 H 1103.66 -0.71661 4.15262 0
M  V30 11531 H 1102.39 -1.2353 3.02337 0
M  V30 11532 H 1101.04 0.825464 3.57186 0
M  V30 11533 H 1100.69 -1.28769 4.86238 0
M  V30 11534 H 1100.39 0.14756 5.87415 0
M  V30 11535 H 1101.92 -0.766626 6.05768 0
M  V30 11536 H 1103.33 1.44676 5.54745 0
M  V30 11537 H 1101.73 2.23767 5.5682 0
M  V30 11538 H 1102.8 2.46853 4.17363 0
M  V30 11539 N 1104.14 -1.42577 0.671525 0
M  V30 11540 C 1105.42 -1.95222 0.121529 0
M  V30 11541 C 1105.8 -1.61209 -1.36289 0
M  V30 11542 O 1105.15 -0.906561 -2.09747 0
M  V30 11543 C 1105.36 -3.46846 0.387189 0
M  V30 11544 C 1106.7 -4.23525 0.301938 0
M  V30 11545 O 1107.73 -3.54753 0.320755 0
M  V30 11546 O 1106.59 -5.45967 0.241317 0
M  V30 11547 H 1103.68 -0.826999 0.000968615 0
M  V30 11548 H 1106.23 -1.52422 0.746029 0
M  V30 11549 H 1105 -3.64795 1.41563 0
M  V30 11550 H 1104.62 -3.96686 -0.26948 0
M  V30 11551 N 1105.62 -0.414636 -1.52048 0
M  V30 11552 C 1106.55 0.399119 -2.30064 0
M  V30 11553 C 1107.53 1.04126 -1.34506 0
M  V30 11554 O 1108.71 1.04923 -1.63416 0
M  V30 11555 C 1105.84 1.51305 -3.12608 0
M  V30 11556 C 1104.8 0.995621 -4.16259 0
M  V30 11557 C 1104.12 2.20357 -4.87183 0
M  V30 11558 C 1105.42 0.0458178 -5.2228 0
M  V30 11559 H 1107.12 -0.251879 -2.98339 0
M  V30 11560 H 1104.66 -0.122579 -1.43477 0
M  V30 11561 H 1106.62 2.08936 -3.65956 0
M  V30 11562 H 1105.34 2.19201 -2.42113 0
M  V30 11563 H 1104 0.441676 -3.6393 0
M  V30 11564 H 1103.65 2.8682 -4.13211 0
M  V30 11565 H 1103.35 1.86385 -5.57256 0
M  V30 11566 H 1104.87 2.78584 -5.43345 0
M  V30 11567 H 1106.29 0.531102 -5.70835 0
M  V30 11568 H 1104.68 -0.20536 -5.99749 0
M  V30 11569 H 1105.75 -0.897807 -4.76516 0
M  V30 11570 N 1107.1 1.56929 -0.145233 0
M  V30 11571 C 1108.32 2.00864 0.516564 0
M  V30 11572 C 1108.75 1.02466 1.57741 0
M  V30 11573 O 1108.1 0.000145439 1.813 0
M  V30 11574 C 1108.15 3.43552 1.09563 0
M  V30 11575 O 1107.26 3.4815 2.21055 0
M  V30 11576 H 1106.6 0.651835 0.126521 0
M  V30 11577 H 1109.13 2.0317 -0.241445 0
M  V30 11578 H 1109.14 3.82316 1.42473 0
M  V30 11579 H 1107.81 4.14677 0.318749 0
M  V30 11580 H 1106.39 3.21228 1.89387 0
M  V30 11581 N 1108.58 -0.128553 1.57075 0
M  V30 11582 C 1109.82 -0.839252 1.8462 0
M  V30 11583 C 1110.15 -1.79974 0.729582 0
M  V30 11584 O 1109.43 -1.92681 -0.265369 0
M  V30 11585 C 1109.71 -1.59756 3.22723 0
M  V30 11586 C 1109.57 -0.657313 4.44971 0
M  V30 11587 C 1110.88 -2.55592 3.58275 0
M  V30 11588 H 1108 -0.303652 0.671539 0
M  V30 11589 H 1110.65 -0.103802 1.89716 0
M  V30 11590 H 1108.8 -2.22451 3.18509 0
M  V30 11591 H 1110.47 -0.0399471 4.61283 0
M  V30 11592 H 1108.71 0.0318416 4.33788 0
M  V30 11593 H 1109.38 -1.22433 5.38251 0
M  V30 11594 H 1111.86 -2.03007 3.63218 0
M  V30 11595 H 1110.73 -3.05687 4.55902 0
M  V30 11596 H 1110.99 -3.37813 2.85193 0
M  V30 11597 N 1110.05 -1.5248 -0.398459 0
M  V30 11598 C 1111.46 -1.59107 -0.976817 0
M  V30 11599 C 1111.82 -0.438104 -1.91246 0
M  V30 11600 O 1110.94 0.440111 -2.11877 0
M  V30 11601 C 1111.54 -2.88373 -1.77838 0
M  V30 11602 C 1110.09 -2.97445 -2.30659 0
M  V30 11603 C 1109.24 -2.5414 -1.10942 0
M  V30 11604 H 1112.19 -1.57695 -0.178324 0
M  V30 11605 H 1112.21 -2.74327 -2.63676 0
M  V30 11606 H 1111.73 -3.72269 -1.09714 0
M  V30 11607 H 1109.83 -2.18066 -3.02123 0
M  V30 11608 H 1109.94 -4.019 -2.60794 0
M  V30 11609 H 1108.3 -2.08237 -1.46661 0
M  V30 11610 H 1109.09 -3.40421 -0.443684 0
M  V30 11611 N 1111.53 0.65634 -1.43283 0
M  V30 11612 C 1112.76 1.44906 -1.48382 0
M  V30 11613 C 1113.18 1.87823 -0.101993 0
M  V30 11614 O 1112.54 1.57178 0.903597 0
M  V30 11615 C 1112.59 2.66231 -2.43215 0
M  V30 11616 O 1111.69 3.65176 -1.91625 0
M  V30 11617 H 1111.03 0.434601 -0.502014 0
M  V30 11618 H 1113.56 0.803429 -1.88165 0
M  V30 11619 H 1113.57 3.14083 -2.60414 0
M  V30 11620 H 1112.25 2.34336 -3.43598 0
M  V30 11621 H 1110.82 3.24302 -1.84072 0
M  V30 11622 N 1113.01 1.29761 0.894412 0
M  V30 11623 C 1114.26 1.17409 1.64006 0
M  V30 11624 C 1114.57 -0.272355 1.93695 0
M  V30 11625 O 1115.78 -0.517269 2.66527 0
M  V30 11626 C 1114.23 2.05379 2.95546 0
M  V30 11627 C 1113.84 3.54878 2.73433 0
M  V30 11628 C 1115.59 2.01765 3.73485 0
M  V30 11629 C 1113.49 4.34935 4.00731 0
M  V30 11630 H 1112.42 0.43583 0.615279 0
M  V30 11631 H 1115.07 1.5444 0.990983 0
M  V30 11632 H 1113.46 1.61222 3.61695 0
M  V30 11633 H 1114.63 4.07122 2.15844 0
M  V30 11634 H 1112.94 3.60218 2.08882 0
M  V30 11635 H 1115.54 2.58835 4.67877 0
M  V30 11636 H 1115.88 0.998876 4.04139 0
M  V30 11637 H 1116.42 2.43994 3.14184 0
M  V30 11638 H 1113.16 5.3747 3.75241 0
M  V30 11639 H 1112.68 3.87458 4.5786 0
M  V30 11640 H 1114.36 4.45875 4.68833 0
M  V30 11641 N 1114.49 -1.10549 1.12324 0
M  V30 11642 C 1115.71 -1.8681 0.900927 0
M  V30 11643 C 1116.14 -1.80049 -0.54443 0
M  V30 11644 O 1115.5 -1.16957 -1.38531 0
M  V30 11645 C 1115.54 -3.33197 1.37883 0
M  V30 11646 O 1114.65 -4.08628 0.556529 0
M  V30 11647 H 1113.99 -0.579709 0.32378 0
M  V30 11648 H 1116.52 -1.39678 1.49503 0
M  V30 11649 H 1116.53 -3.84047 1.37739 0
M  V30 11650 H 1115.2 -3.37435 2.43127 0
M  V30 11651 H 1113.78 -3.67627 0.62486 0
M  V30 11652 N 1115.97 -0.914965 -1.28321 0
M  V30 11653 C 1117.21 -0.548749 -1.94923 0
M  V30 11654 C 1117.54 0.907776 -1.72016 0
M  V30 11655 O 1116.8 1.66097 -1.03491 0
M  V30 11656 C 1117.09 -0.805805 -3.48198 0
M  V30 11657 C 1116.76 -2.24207 -3.91206 0
M  V30 11658 C 1115.42 -2.63475 -4.02659 0
M  V30 11659 C 1117.77 -3.17667 -4.13204 0
M  V30 11660 C 1115.1 -3.95353 -4.3349 0
M  V30 11661 C 1117.45 -4.4911 -4.45514 0
M  V30 11662 C 1116.12 -4.8823 -4.55179 0
M  V30 11663 H 1115.39 -0.200801 -0.713274 0
M  V30 11664 H 1118.04 -1.15652 -1.52633 0
M  V30 11665 H 1116.34 -0.115244 -3.9163 0
M  V30 11666 H 1118.04 -0.501609 -3.9785 0
M  V30 11667 H 1114.63 -1.92737 -3.82819 0
M  V30 11668 H 1118.81 -2.88537 -4.03807 0
M  V30 11669 H 1114.07 -4.25362 -4.39178 0
M  V30 11670 H 1118.24 -5.21542 -4.61483 0
M  V30 11671 H 1115.87 -5.90451 -4.78823 0
M  V30 11672 N 1117.44 1.42219 -0.679077 0
M  V30 11673 C 1118.86 1.55737 -0.349034 0
M  V30 11674 C 1119.06 1.65789 1.14527 0
M  V30 11675 O 1118.12 1.62717 1.93079 0
M  V30 11676 C 1119.43 2.80516 -1.0831 0
M  V30 11677 C 1120.98 2.94294 -1.06584 0
M  V30 11678 C 1121.45 4.2194 -1.78132 0
M  V30 11679 N 1122.94 4.28861 -1.75021 0
M  V30 11680 C 1123.68 5.26453 -2.27234 0
M  V30 11681 N 1123.17 6.30171 -2.87847 0
M  V30 11682 N 1124.97 5.1828 -2.17584 0
M  V30 11683 H 1117.12 1.33939 -1.64846 0
M  V30 11684 H 1119.38 0.645029 -0.694725 0
M  V30 11685 H 1119.09 2.79241 -2.13816 0
M  V30 11686 H 1118.96 3.71539 -0.651069 0
M  V30 11687 H 1121.35 2.95094 -0.0191061 0
M  V30 11688 H 1121.43 2.04491 -1.53679 0
M  V30 11689 H 1121.07 4.21901 -2.82776 0
M  V30 11690 H 1121 5.10685 -1.28483 0
M  V30 11691 H 1123.49 3.54537 -1.30814 0
M  V30 11692 H 1123.81 7.01 -3.25298 0
M  V30 11693 H 1122.15 6.30721 -2.91918 0
M  V30 11694 H 1125.34 4.36172 -1.69916 0
M  V30 11695 H 1125.52 5.94172 -2.58581 0
M  V30 11696 N 1118.92 0.422693 1.51826 0
M  V30 11697 C 1120.17 -0.150066 2.01141 0
M  V30 11698 C 1120.48 -1.45059 1.31214 0
M  V30 11699 O 1121.69 -2.10542 1.71419 0
M  V30 11700 C 1120.15 -0.317985 3.58492 0
M  V30 11701 C 1119.75 0.971244 4.37345 0
M  V30 11702 C 1121.5 -0.845303 4.15999 0
M  V30 11703 C 1119.4 0.769769 5.86369 0
M  V30 11704 H 1118.33 -0.0598567 0.75162 0
M  V30 11705 H 1120.99 0.550217 1.75057 0
M  V30 11706 H 1119.37 -1.08092 3.80962 0
M  V30 11707 H 1120.54 1.74138 4.26629 0
M  V30 11708 H 1118.86 1.42599 3.91222 0
M  V30 11709 H 1121.45 -1.01229 5.2503 0
M  V30 11710 H 1121.8 -1.82375 3.74226 0
M  V30 11711 H 1122.33 -0.141067 3.9755 0
M  V30 11712 H 1119.07 1.72017 6.32527 0
M  V30 11713 H 1118.59 0.0391717 5.99787 0
M  V30 11714 H 1120.27 0.417225 6.45653 0
M  V30 11715 N 1120.4 -1.5685 0.153553 0
M  V30 11716 C 1121.35 -2.18385 -0.800667 0
M  V30 11717 C 1122.34 -1.14272 -1.25053 0
M  V30 11718 O 1123.55 -1.32509 -1.21825 0
M  V30 11719 H 1119.92 -0.699352 -0.276425 0
M  V30 11720 H 1121.89 -2.97287 -0.257535 0
M  V30 11721 C 1120.64 -2.82497 -2.02708 0
M  V30 11722 H 1119.97 -3.62328 -1.68992 0
M  V30 11723 H 1121.41 -3.29047 -2.67403 0
M  V30 11724 C 1119.86 -1.81343 -2.8393 0
M  V30 11725 O 1120.39 -1.28793 -3.80493 0
M  V30 11726 N 1118.6 -1.50499 -2.48593 0
M  V30 11727 H 1118.15 -1.93425 -1.70131 0
M  V30 11728 H 1118.11 -0.830672 -3.03228 0
M  V30 11729 N 1121.88 0.120221 -1.57141 0
M  V30 11730 C 1123.13 0.826586 -1.84423 0
M  V30 11731 C 1123.45 1.80473 -0.738553 0
M  V30 11732 O 1122.72 1.94454 0.23755 0
M  V30 11733 H 1121.3 0.308246 -0.680436 0
M  V30 11734 H 1123.96 0.107835 -1.94601 0
M  V30 11735 H 1123.05 1.37256 -2.80298 0
M  V30 11736 N 1123.36 1.52689 0.390367 0
M  V30 11737 C 1124.6 1.69354 1.1445 0
M  V30 11738 C 1124.96 0.423677 1.87267 0
M  V30 11739 O 1126.16 0.466669 2.64718 0
M  V30 11740 C 1124.43 2.89356 2.0978 0
M  V30 11741 S 1125.99 3.26602 2.93047 0
M  V30 11742 H 1122.81 0.596162 0.387442 0
M  V30 11743 H 1125.41 1.90732 0.429119 0
M  V30 11744 H 1124.12 3.80003 1.55004 0
M  V30 11745 H 1123.65 2.70307 2.85828 0
M  V30 11746 H 1125.66 2.76683 4.11899 0
M  V30 11747 N 1124.83 -0.648732 1.43629 0
M  V30 11748 C 1126.25 -1.23001 1.40455 0
M  V30 11749 C 1126.6 -1.95886 0.110897 0
M  V30 11750 O 1125.72 -2.01485 -0.789487 0
M  V30 11751 C 1126.32 -2.23716 2.54434 0
M  V30 11752 C 1124.88 -2.77311 2.54511 0
M  V30 11753 C 1124.02 -1.52024 2.31914 0
M  V30 11754 H 1126.97 -0.440473 1.52465 0
M  V30 11755 H 1126.99 -3.05979 2.26179 0
M  V30 11756 H 1126.51 -1.7064 3.48574 0
M  V30 11757 H 1124.61 -3.34437 1.64263 0
M  V30 11758 H 1124.72 -3.2455 3.52426 0
M  V30 11759 H 1123.08 -1.79531 1.80667 0
M  V30 11760 H 1123.87 -1.00876 3.28145 0
M  V30 11761 N 1126.31 -1.30234 -0.887518 0
M  V30 11762 C 1127.56 -1.19086 -1.64153 0
M  V30 11763 C 1127.89 0.254428 -1.92526 0
M  V30 11764 O 1127.17 1.18233 -1.54438 0
M  V30 11765 C 1127.45 -2.01723 -2.98295 0
M  V30 11766 C 1127.3 -3.54458 -2.76911 0
M  V30 11767 C 1128.62 -1.85307 -3.99186 0
M  V30 11768 H 1125.74 -0.433967 -0.595686 0
M  V30 11769 H 1128.38 -1.59839 -1.0272 0
M  V30 11770 H 1126.53 -1.67096 -3.5073 0
M  V30 11771 H 1128.2 -3.99131 -2.31284 0
M  V30 11772 H 1126.45 -3.78768 -2.11464 0
M  V30 11773 H 1127.12 -4.07565 -3.72283 0
M  V30 11774 H 1129.59 -2.15575 -3.55903 0
M  V30 11775 H 1128.47 -2.45456 -4.90961 0
M  V30 11776 H 1128.73 -0.811528 -4.34588 0
M  V30 11777 N 1127.79 1.09952 -1.12909 0
M  V30 11778 C 1128.72 2.16257 -0.759305 0
M  V30 11779 C 1129.74 1.61355 0.216427 0
M  V30 11780 O 1130.92 1.785 -0.00297224 0
M  V30 11781 C 1128.02 3.38741 -0.103908 0
M  V30 11782 C 1127.2 4.23072 -1.11037 0
M  V30 11783 C 1126.26 5.23991 -0.481667 0
M  V30 11784 O 1125.28 5.57665 -1.14011 0
M  V30 11785 N 1126.48 5.75652 0.748698 0
M  V30 11786 H 1129.25 2.48588 -1.67405 0
M  V30 11787 H 1126.81 1.25617 -1.02137 0
M  V30 11788 H 1128.8 4.03362 0.328799 0
M  V30 11789 H 1127.37 3.04344 0.713677 0
M  V30 11790 H 1126.59 3.5467 -1.72054 0
M  V30 11791 H 1127.88 4.76244 -1.79078 0
M  V30 11792 H 1127.28 5.505 1.30253 0
M  V30 11793 H 1125.84 6.42033 1.12415 0
M  V30 11794 N 1129.27 0.921757 1.27833 0
M  V30 11795 C 1130.52 0.557974 1.94245 0
M  V30 11796 C 1130.84 -0.90268 1.72849 0
M  V30 11797 O 1130.11 -1.63915 1.07279 0
M  V30 11798 H 1128.69 0.203364 0.718785 0
M  V30 11799 H 1131.35 1.17286 1.5566 0
M  V30 11800 H 1130.45 0.759202 3.02725 0
M  V30 11801 N 1130.75 -1.41857 0.686609 0
M  V30 11802 C 1131.99 -2.01666 0.214118 0
M  V30 11803 C 1132.33 -1.5422 -1.18025 0
M  V30 11804 O 1131.6 -0.749482 -1.7948 0
M  V30 11805 C 1131.88 -3.59147 0.261841 0
M  V30 11806 C 1131.74 -4.16742 1.69251 0
M  V30 11807 C 1133.06 -4.38427 -0.383378 0
M  V30 11808 H 1130.17 -0.732724 0.0792785 0
M  V30 11809 H 1132.82 -1.68724 0.873633 0
M  V30 11810 H 1130.97 -3.87342 -0.29971 0
M  V30 11811 H 1132.64 -3.99456 2.30722 0
M  V30 11812 H 1130.88 -3.72124 2.2295 0
M  V30 11813 H 1131.55 -5.25894 1.6775 0
M  V30 11814 H 1134.03 -4.15992 0.0947701 0
M  V30 11815 H 1132.9 -5.4797 -0.319401 0
M  V30 11816 H 1133.17 -4.172 -1.46276 0
M  V30 11817 N 1132.22 -0.430739 -1.51599 0
M  V30 11818 C 1133.47 0.137929 -2.0203 0
M  V30 11819 C 1133.8 1.43287 -1.31526 0
M  V30 11820 O 1133.05 1.9121 -0.416814 0
M  V30 11821 C 1133.35 0.410694 -3.55032 0
M  V30 11822 C 1133.02 -0.797634 -4.43789 0
M  V30 11823 C 1131.68 -1.12902 -4.67768 0
M  V30 11824 C 1134.03 -1.60403 -4.95904 0
M  V30 11825 C 1131.36 -2.2676 -5.41107 0
M  V30 11826 C 1133.71 -2.73354 -5.70491 0
M  V30 11827 C 1132.38 -3.06955 -5.92735 0
M  V30 11828 H 1131.65 0.0504718 -0.739279 0
M  V30 11829 H 1134.29 -0.576585 -1.82614 0
M  V30 11830 H 1132.6 1.20703 -3.72744 0
M  V30 11831 H 1134.3 0.864006 -3.91581 0
M  V30 11832 H 1130.89 -0.529397 -4.25318 0
M  V30 11833 H 1135.07 -1.36122 -4.77268 0
M  V30 11834 H 1130.33 -2.53114 -5.56546 0
M  V30 11835 H 1134.5 -3.36213 -6.09864 0
M  V30 11836 H 1132.13 -3.95293 -6.49344 0
M  V30 11837 N 1133.7 1.56767 -0.161869 0
M  V30 11838 C 1134.61 2.21083 0.784814 0
M  V30 11839 C 1135.63 1.19959 1.26039 0
M  V30 11840 O 1136.8 1.52588 1.31449 0
M  V30 11841 C 1133.87 2.83153 2.00063 0
M  V30 11842 C 1132.93 3.9945 1.57285 0
M  V30 11843 C 1132.16 4.5855 2.7307 0
M  V30 11844 O 1132.39 4.16534 3.89686 0
M  V30 11845 O 1131.32 5.48575 2.47688 0
M  V30 11846 H 1135.15 3.02522 0.267243 0
M  V30 11847 H 1132.73 1.49255 0.0658783 0
M  V30 11848 H 1134.61 3.22546 2.71186 0
M  V30 11849 H 1133.29 2.04718 2.50744 0
M  V30 11850 H 1132.2 3.64745 0.831393 0
M  V30 11851 H 1133.53 4.7945 1.11304 0
M  V30 11852 N 1135.18 -0.111886 1.57202 0
M  V30 11853 C 1136.41 -0.836317 1.89791 0
M  V30 11854 C 1136.83 -1.72304 0.754513 0
M  V30 11855 O 1136.19 -1.78889 -0.294672 0
M  V30 11856 C 1136.24 -1.63971 3.21164 0
M  V30 11857 O 1135.34 -2.74726 3.0757 0
M  V30 11858 H 1134.68 -0.230833 0.622585 0
M  V30 11859 H 1137.21 -0.0921478 2.04392 0
M  V30 11860 H 1137.22 -2.02746 3.54059 0
M  V30 11861 H 1135.9 -0.98882 4.03974 0
M  V30 11862 H 1134.47 -2.39101 2.86156 0
M  V30 11863 N 1136.66 -1.52894 -0.382264 0
M  V30 11864 C 1137.91 -1.68266 -1.12663 0
M  V30 11865 C 1138.23 -0.425974 -1.89778 0
M  V30 11866 O 1137.49 0.59178 -1.86538 0
M  V30 11867 C 1137.79 -2.87309 -2.12576 0
M  V30 11868 C 1137.45 -4.24484 -1.52067 0
M  V30 11869 C 1136.12 -4.6179 -1.35292 0
M  V30 11870 C 1138.47 -5.09858 -1.08138 0
M  V30 11871 C 1135.8 -5.82123 -0.731449 0
M  V30 11872 C 1138.15 -6.30822 -0.473986 0
M  V30 11873 C 1136.81 -6.66854 -0.293585 0
M  V30 11874 H 1136.08 -0.615728 -0.412262 0
M  V30 11875 H 1138.73 -1.8705 -0.410425 0
M  V30 11876 H 1137.03 -2.62968 -2.90439 0
M  V30 11877 H 1138.73 -2.96397 -2.70092 0
M  V30 11878 H 1135.32 -3.951 -1.66114 0
M  V30 11879 H 1139.5 -4.816 -1.19898 0
M  V30 11880 H 1134.76 -6.08643 -0.579938 0
M  V30 11881 H 1138.93 -6.96287 -0.125324 0
M  V30 11882 H 1136.56 -7.59962 0.190054 0
M  V30 11883 N 1138.14 0.641106 -1.43971 0
M  V30 11884 C 1139.09 1.77474 -1.50352 0
M  V30 11885 C 1140.08 1.65173 -0.376052 0
M  V30 11886 O 1141.29 1.71373 -0.550572 0
M  V30 11887 H 1137.66 0.585747 -0.471597 0
M  V30 11888 H 1139.63 1.69213 -2.45784 0
M  V30 11889 C 1138.38 3.15778 -1.45532 0
M  V30 11890 H 1137.7 3.25886 -2.316 0
M  V30 11891 H 1139.14 3.95022 -1.54058 0
M  V30 11892 C 1137.6 3.36447 -0.174624 0
M  V30 11893 O 1138.13 3.9446 0.759215 0
M  V30 11894 N 1136.34 2.90487 -0.0809383 0
M  V30 11895 H 1135.89 2.43461 -0.841691 0
M  V30 11896 H 1135.84 3.04693 0.775231 0
M  V30 11897 N 1139.62 1.30703 0.880598 0
M  V30 11898 C 1140.55 1.20033 2.00286 0
M  V30 11899 C 1141.53 0.0899614 1.69862 0
M  V30 11900 O 1142.71 0.272747 1.92275 0
M  V30 11901 C 1139.84 0.895902 3.35546 0
M  V30 11902 C 1138.8 1.96468 3.80242 0
M  V30 11903 C 1138.12 1.51316 5.12843 0
M  V30 11904 C 1139.42 3.37637 3.98496 0
M  V30 11905 H 1141.12 2.13922 2.0947 0
M  V30 11906 H 1138.66 1.02989 1.00644 0
M  V30 11907 H 1140.61 0.807899 4.13583 0
M  V30 11908 H 1139.34 -0.0786636 3.26505 0
M  V30 11909 H 1138 2.0424 3.04437 0
M  V30 11910 H 1137.65 0.52674 5.00234 0
M  V30 11911 H 1137.35 2.22807 5.43719 0
M  V30 11912 H 1138.87 1.43903 5.93401 0
M  V30 11913 H 1140.28 3.326 4.66959 0
M  V30 11914 H 1138.68 4.07253 4.40755 0
M  V30 11915 H 1139.75 3.79205 3.02211 0
M  V30 11916 N 1141.09 -1.09351 1.1349 0
M  V30 11917 C 1142.37 -1.78121 0.808225 0
M  V30 11918 C 1142.75 -1.99154 -0.700072 0
M  V30 11919 O 1142.1 -1.59356 -1.63762 0
M  V30 11920 C 1142.31 -3.10368 1.59601 0
M  V30 11921 C 1143.66 -3.85063 1.78919 0
M  V30 11922 O 1144.68 -3.20122 1.56206 0
M  V30 11923 O 1143.54 -5.01648 2.16821 0
M  V30 11924 H 1140.63 -0.77253 0.295173 0
M  V30 11925 H 1143.18 -1.15901 1.23956 0
M  V30 11926 H 1141.95 -2.90549 2.62101 0
M  V30 11927 H 1141.57 -3.80312 1.15967 0
M  V30 11928 N 1142.57 -0.928524 -1.27343 0
M  V30 11929 C 1143.82 -0.568267 -1.93946 0
M  V30 11930 C 1144.14 0.893501 -1.73325 0
M  V30 11931 O 1143.41 1.63344 -1.08147 0
M  V30 11932 H 1141.99 -0.207173 -0.717696 0
M  V30 11933 H 1144.65 -1.1811 -1.55036 0
M  V30 11934 H 1143.75 -0.775246 -3.02318 0
M  V30 11935 N 1144.05 1.41491 -0.694123 0
M  V30 11936 C 1144.98 2.33462 -0.0422169 0
M  V30 11937 C 1145.96 1.51739 0.76872 0
M  V30 11938 O 1147.15 1.8028 0.721985 0
M  V30 11939 C 1144.28 3.35545 0.895925 0
M  V30 11940 C 1143.23 4.27568 0.192188 0
M  V30 11941 C 1142.56 5.20014 1.24459 0
M  V30 11942 C 1143.86 5.1376 -0.940626 0
M  V30 11943 H 1145.55 2.88225 -0.810363 0
M  V30 11944 H 1143.1 1.38586 -0.39114 0
M  V30 11945 H 1145.05 3.9881 1.36121 0
M  V30 11946 H 1143.77 2.79129 1.69572 0
M  V30 11947 H 1142.43 3.65726 -0.25305 0
M  V30 11948 H 1142.08 4.59913 2.03687 0
M  V30 11949 H 1141.78 5.82417 0.778734 0
M  V30 11950 H 1143.3 5.86155 1.71041 0
M  V30 11951 H 1144.72 5.70601 -0.555692 0
M  V30 11952 H 1143.11 5.85097 -1.33349 0
M  V30 11953 H 1144.18 4.51011 -1.78093 0
M  V30 11954 N 1145.53 0.438773 1.51369 0
M  V30 11955 C 1146.77 -0.127213 2.021 0
M  V30 11956 C 1147.1 -1.42587 1.32284 0
M  V30 11957 O 1146.36 -1.90986 0.426949 0
M  V30 11958 C 1146.66 -0.39186 3.55245 0
M  V30 11959 C 1146.32 0.821158 4.4336 0
M  V30 11960 C 1144.98 1.15381 4.67162 0
M  V30 11961 C 1147.34 1.6303 4.95046 0
M  V30 11962 C 1144.66 2.29626 5.39897 0
M  V30 11963 C 1147.02 2.76376 5.69033 0
M  V30 11964 C 1145.68 3.10094 5.91099 0
M  V30 11965 H 1144.95 -0.0465505 0.739536 0
M  V30 11966 H 1147.6 0.586261 1.82305 0
M  V30 11967 H 1145.9 -1.18724 3.73379 0
M  V30 11968 H 1147.6 -0.843228 3.92034 0
M  V30 11969 H 1144.19 0.551946 4.25031 0
M  V30 11970 H 1148.37 1.38651 4.76539 0
M  V30 11971 H 1143.63 2.56062 5.55196 0
M  V30 11972 H 1147.8 3.39442 6.08072 0
M  V30 11973 H 1145.43 3.98731 6.47238 0
M  V30 11974 N 1147.01 -1.56678 0.170181 0
M  V30 11975 C 1148.25 -1.96849 -0.475064 0
M  V30 11976 C 1148.58 -1.05611 -1.6333 0
M  V30 11977 O 1147.84 -0.0899708 -1.95493 0
M  V30 11978 C 1148.13 -3.43103 -1.00076 0
M  V30 11979 C 1147.8 -4.50881 0.0414538 0
M  V30 11980 C 1146.46 -4.80082 0.327894 0
M  V30 11981 C 1148.81 -5.15791 0.748936 0
M  V30 11982 C 1146.14 -5.71491 1.32722 0
M  V30 11983 C 1148.49 -6.08278 1.73724 0
M  V30 11984 C 1147.16 -6.35847 2.03114 0
M  V30 11985 H 1146.43 -0.72032 -0.173838 0
M  V30 11986 H 1149.08 -1.89701 0.261903 0
M  V30 11987 H 1147.38 -3.47197 -1.81553 0
M  V30 11988 H 1149.08 -3.71525 -1.50899 0
M  V30 11989 H 1145.67 -4.2817 -0.191976 0
M  V30 11990 H 1149.85 -4.93344 0.540852 0
M  V30 11991 H 1145.11 -5.91134 1.56112 0
M  V30 11992 H 1149.28 -6.57643 2.29082 0
M  V30 11993 H 1146.91 -7.06479 2.80698 0
M  V30 11994 N 1148.48 0.103547 -1.57259 0
M  V30 11995 C 1149.89 0.659006 -1.74683 0
M  V30 11996 C 1150.25 1.79542 -0.791142 0
M  V30 11997 O 1149.37 2.16376 0.0323585 0
M  V30 11998 C 1149.97 1.20222 -3.16752 0
M  V30 11999 C 1148.52 1.70382 -3.35629 0
M  V30 12000 C 1147.67 0.609886 -2.7051 0
M  V30 12001 H 1150.62 -0.122474 -1.58227 0
M  V30 12002 H 1150.64 2.07169 -3.19157 0
M  V30 12003 H 1150.16 0.374901 -3.86285 0
M  V30 12004 H 1148.26 2.55542 -2.71162 0
M  V30 12005 H 1148.37 1.80263 -4.43894 0
M  V30 12006 H 1146.73 1.04728 -2.32173 0
M  V30 12007 H 1147.52 -0.206713 -3.42677 0
M  V30 12008 N 1149.96 1.53094 0.37415 0
M  V30 12009 C 1151.21 1.69111 1.11934 0
M  V30 12010 C 1151.54 0.437252 1.89213 0
M  V30 12011 O 1150.82 -0.565298 1.86104 0
M  V30 12012 C 1151.1 2.93559 2.08554 0
M  V30 12013 C 1150.95 4.29082 1.3494 0
M  V30 12014 C 1152.27 3.13586 3.08791 0
M  V30 12015 H 1149.39 0.615383 0.405553 0
M  V30 12016 H 1152.03 1.85719 0.401078 0
M  V30 12017 H 1150.18 2.79531 2.69805 0
M  V30 12018 H 1151.85 4.54906 0.765402 0
M  V30 12019 H 1150.1 4.28884 0.651238 0
M  V30 12020 H 1150.77 5.12275 2.05616 0
M  V30 12021 H 1153.24 3.26743 2.57639 0
M  V30 12022 H 1152.12 4.02112 3.73627 0
M  V30 12023 H 1152.38 2.28475 3.78486 0
M  V30 12024 N 1151.44 -0.633461 1.44309 0
M  V30 12025 C 1152.69 -1.39513 1.47187 0
M  V30 12026 C 1153.02 -1.93926 0.103186 0
M  V30 12027 O 1152.29 -1.73512 -0.878853 0
M  V30 12028 C 1152.58 -2.56213 2.53036 0
M  V30 12029 C 1152.43 -2.07164 3.99253 0
M  V30 12030 C 1153.75 -3.58403 2.55412 0
M  V30 12031 H 1150.87 -0.505936 0.535908 0
M  V30 12032 H 1153.51 -0.716445 1.75975 0
M  V30 12033 H 1151.66 -3.14111 2.28619 0
M  V30 12034 H 1153.33 -1.54115 4.34795 0
M  V30 12035 H 1151.57 -1.38367 4.11141 0
M  V30 12036 H 1152.25 -2.91172 4.6896 0
M  V30 12037 H 1154.72 -3.103 2.77224 0
M  V30 12038 H 1153.6 -4.37581 3.31382 0
M  V30 12039 H 1153.86 -4.12316 1.59523 0
M  V30 12040 N 1152.92 -1.31168 -0.873655 0
M  V30 12041 C 1154.14 -1.23728 -1.66452 0
M  V30 12042 C 1154.57 0.194869 -1.87088 0
M  V30 12043 O 1153.93 1.1397 -1.40998 0
M  V30 12044 C 1153.97 -1.98285 -3.0119 0
M  V30 12045 O 1153.08 -1.31767 -3.90783 0
M  V30 12046 H 1152.42 -0.427362 -0.508191 0
M  V30 12047 H 1154.95 -1.73176 -1.08955 0
M  V30 12048 H 1154.96 -2.0774 -3.51153 0
M  V30 12049 H 1153.63 -3.02437 -2.8549 0
M  V30 12050 H 1152.21 -1.3074 -3.4923 0
M  V30 12051 N 1154.4 1.08748 -1.14068 0
M  V30 12052 C 1155.64 1.81065 -0.906738 0
M  V30 12053 C 1155.97 1.86057 0.566844 0
M  V30 12054 O 1155.23 1.32976 1.43582 0
M  V30 12055 C 1155.53 3.26734 -1.44843 0
M  V30 12056 C 1155.19 3.41866 -2.94005 0
M  V30 12057 C 1153.85 3.45703 -3.34729 0
M  V30 12058 C 1156.21 3.45831 -3.89937 0
M  V30 12059 C 1153.53 3.51092 -4.70055 0
M  V30 12060 C 1155.89 3.52755 -5.25116 0
M  V30 12061 C 1154.55 3.54863 -5.65357 0
M  V30 12062 H 1153.82 0.662564 -0.331799 0
M  V30 12063 H 1156.47 1.28065 -1.42378 0
M  V30 12064 H 1154.77 3.82419 -0.852239 0
M  V30 12065 H 1156.47 3.81236 -1.2434 0
M  V30 12066 H 1153.06 3.39568 -2.61518 0
M  V30 12067 H 1157.24 3.421 -3.59557 0
M  V30 12068 H 1152.5 3.51015 -5.00598 0
M  V30 12069 H 1156.67 3.54768 -5.9926 0
M  V30 12070 H 1154.3 3.58792 -6.70203 0
M  V30 12071 N 1155.87 0.935264 1.26849 0
M  V30 12072 C 1157.1 0.595704 1.98661 0
M  V30 12073 C 1157.52 -0.821001 1.69237 0
M  V30 12074 O 1156.88 -1.55211 0.936982 0
M  V30 12075 C 1156.93 0.837275 3.50745 0
M  V30 12076 O 1156.03 -0.0934914 4.12294 0
M  V30 12077 H 1155.38 0.228512 0.623441 0
M  V30 12078 H 1157.91 1.25658 1.61466 0
M  V30 12079 H 1157.92 0.755827 4.00938 0
M  V30 12080 H 1156.59 1.86993 3.71492 0
M  V30 12081 H 1155.17 0.0385124 3.7288 0
M  V30 12082 N 1157.35 -1.41121 0.701616 0
M  V30 12083 C 1158.32 -2.29148 0.0490091 0
M  V30 12084 C 1159.32 -1.44679 -0.701763 0
M  V30 12085 O 1160.51 -1.65757 -0.53575 0
M  V30 12086 C 1157.64 -3.2766 -0.940837 0
M  V30 12087 H 1158.83 -2.88354 0.824133 0
M  V30 12088 H 1156.38 -1.49209 0.465457 0
M  V30 12089 H 1157.12 -2.73445 -1.74351 0
M  V30 12090 H 1156.9 -3.89997 -0.405551 0
M  V30 12091 H 1158.39 -3.93609 -1.39507 0
M  V30 12092 N 1158.83 -0.446794 -1.51134 0
M  V30 12093 C 1160.08 0.116263 -2.01765 0
M  V30 12094 C 1160.4 1.42382 -1.33238 0
M  V30 12095 O 1159.67 1.9018 -0.469915 0
M  V30 12096 H 1158.25 0.0459558 -0.745585 0
M  V30 12097 H 1160.91 -0.591664 -1.85702 0
M  V30 12098 H 1160.01 0.285358 -3.10793 0
M  V30 12099 N 1160.31 1.56586 -0.178487 0
M  V30 12100 C 1161.55 1.9739 0.465306 0
M  V30 12101 C 1161.89 1.06474 1.6241 0
M  V30 12102 O 1161.16 0.113316 1.9417 0
M  V30 12103 C 1161.45 3.47577 0.941408 0
M  V30 12104 C 1161.3 4.49271 -0.218054 0
M  V30 12105 C 1162.62 4.01038 1.81263 0
M  V30 12106 H 1159.74 0.717676 0.167663 0
M  V30 12107 H 1162.38 1.88128 -0.266067 0
M  V30 12108 H 1160.53 3.556 1.56463 0
M  V30 12109 H 1162.2 4.53301 -0.855332 0
M  V30 12110 H 1160.44 4.24936 -0.872441 0
M  V30 12111 H 1161.11 5.51776 0.157315 0
M  V30 12112 H 1163.59 3.9569 1.28718 0
M  V30 12113 H 1162.47 5.06526 2.11476 0
M  V30 12114 H 1162.73 3.45288 2.76096 0
M  V30 12115 N 1161.79 -0.095206 1.57312 0
M  V30 12116 C 1162.73 -1.11551 2.02052 0
M  V30 12117 C 1163.7 -1.39808 0.896818 0
M  V30 12118 O 1164.89 -1.51273 1.1628 0
M  V30 12119 C 1162.03 -2.43056 2.44985 0
M  V30 12120 C 1161.14 -2.21531 3.70875 0
M  V30 12121 C 1160.28 -3.46434 4.02687 0
M  V30 12122 C 1159.32 -3.2017 5.21687 0
M  V30 12123 N 1158.45 -4.37339 5.49253 0
M  V30 12124 H 1163.29 -0.727 2.88996 0
M  V30 12125 H 1160.83 -0.347441 1.42938 0
M  V30 12126 H 1162.79 -3.19803 2.67921 0
M  V30 12127 H 1161.42 -2.79754 1.61051 0
M  V30 12128 H 1160.47 -1.35587 3.55416 0
M  V30 12129 H 1161.78 -1.98116 4.57768 0
M  V30 12130 H 1160.94 -4.31589 4.26399 0
M  V30 12131 H 1159.67 -3.72904 3.14315 0
M  V30 12132 H 1158.68 -2.33409 4.97796 0
M  V30 12133 H 1159.9 -2.95047 6.11657 0
M  V30 12134 H 1157.85 -4.63885 4.6384 0
M  V30 12135 H 1157.77 -4.17114 6.30517 0
M  V30 12136 H 1159.04 -5.23559 5.775 0
M  V30 12137 N 1163.26 -1.53291 -0.366026 0
M  V30 12138 C 1164.51 -1.69702 -1.11036 0
M  V30 12139 C 1164.84 -0.44728 -1.88979 0
M  V30 12140 O 1164.12 0.55542 -1.86401 0
M  V30 12141 C 1164.4 -2.94661 -2.06995 0
M  V30 12142 C 1164.25 -4.29791 -1.32663 0
M  V30 12143 C 1165.57 -3.15219 -3.07123 0
M  V30 12144 H 1162.69 -0.617525 -0.402284 0
M  V30 12145 H 1165.33 -1.85929 -0.391223 0
M  V30 12146 H 1163.48 -2.80958 -2.68318 0
M  V30 12147 H 1165.16 -4.55305 -0.741266 0
M  V30 12148 H 1163.4 -4.29223 -0.628484 0
M  V30 12149 H 1164.07 -5.13359 -2.02896 0
M  V30 12150 H 1166.55 -3.28105 -2.55903 0
M  V30 12151 H 1165.42 -4.04088 -3.71489 0
M  V30 12152 H 1165.68 -2.30479 -3.77269 0
M  V30 12153 N 1164.74 0.6258 -1.44643 0
M  V30 12154 C 1166.16 0.944569 -1.28647 0
M  V30 12155 C 1166.36 2.00227 -0.226134 0
M  V30 12156 O 1165.41 2.4953 0.386161 0
M  V30 12157 C 1166.73 1.40278 -2.65975 0
M  V30 12158 C 1168.28 1.51797 -2.73727 0
M  V30 12159 C 1168.75 2.01 -4.11537 0
M  V30 12160 N 1170.24 2.08262 -4.13741 0
M  V30 12161 C 1170.98 2.47515 -5.17227 0
M  V30 12162 N 1170.47 2.85867 -6.31072 0
M  V30 12163 N 1172.27 2.47695 -5.04583 0
M  V30 12164 H 1164.42 -0.0736157 -2.12272 0
M  V30 12165 H 1166.68 0.0296998 -0.947535 0
M  V30 12166 H 1166.39 0.699871 -3.44666 0
M  V30 12167 H 1166.26 2.37279 -2.93221 0
M  V30 12168 H 1168.65 2.21183 -1.95351 0
M  V30 12169 H 1168.73 0.531574 -2.50216 0
M  V30 12170 H 1168.37 1.32207 -4.90391 0
M  V30 12171 H 1168.3 3.0052 -4.32429 0
M  V30 12172 H 1170.79 1.81286 -3.31578 0
M  V30 12173 H 1171.11 3.14647 -7.05845 0
M  V30 12174 H 1169.45 2.83605 -6.34502 0
M  V30 12175 H 1172.64 2.17127 -4.14697 0
M  V30 12176 H 1172.81 2.77962 -5.85356 0
M  V30 12177 N 1166.22 1.31629 0.866686 0
M  V30 12178 C 1167.47 1.21503 1.61998 0
M  V30 12179 C 1167.8 -0.226044 1.93182 0
M  V30 12180 O 1167.05 -1.17573 1.56445 0
M  V30 12181 C 1167.35 2.00775 2.95676 0
M  V30 12182 C 1167.02 3.50245 2.83971 0
M  V30 12183 C 1165.68 3.91 2.80485 0
M  V30 12184 C 1168.03 4.45347 2.70769 0
M  V30 12185 C 1165.36 5.25119 2.61661 0
M  V30 12186 C 1167.71 5.79595 2.53481 0
M  V30 12187 C 1166.37 6.19567 2.48381 0
M  V30 12188 H 1165.64 0.44461 0.592792 0
M  V30 12189 H 1168.29 1.62929 1.00629 0
M  V30 12190 H 1166.6 1.52039 3.61097 0
M  V30 12191 H 1168.29 1.90318 3.52959 0
M  V30 12192 H 1164.88 3.17869 2.87502 0
M  V30 12193 H 1169.07 4.14789 2.72514 0
M  V30 12194 H 1164.32 5.5516 2.5614 0
M  V30 12195 H 1168.5 6.5291 2.42243 0
M  V30 12196 H 1166.12 7.23434 2.33554 0
M  V30 12197 N 1167.7 -1.08142 1.14644 0
M  V30 12198 C 1168.63 -2.17139 0.858667 0
M  V30 12199 C 1169.61 -1.69064 -0.187452 0
M  V30 12200 O 1170.8 -1.94151 -0.0435458 0
M  V30 12201 C 1167.93 -3.45648 0.33834 0
M  V30 12202 C 1166.88 -4.07129 1.32021 0
M  V30 12203 C 1166.21 -5.30623 0.659075 0
M  V30 12204 C 1167.51 -4.48095 2.68343 0
M  V30 12205 H 1169.2 -2.41468 1.77012 0
M  V30 12206 H 1166.75 -1.16052 0.852523 0
M  V30 12207 H 1168.7 -4.21216 0.124611 0
M  V30 12208 H 1167.42 -3.2088 -0.608553 0
M  V30 12209 H 1166.08 -3.33596 1.52016 0
M  V30 12210 H 1165.73 -5.02142 -0.293711 0
M  V30 12211 H 1165.43 -5.72714 1.31427 0
M  V30 12212 H 1166.95 -6.08903 0.454933 0
M  V30 12213 H 1168.37 -5.14828 2.5224 0
M  V30 12214 H 1166.76 -5.01113 3.30161 0
M  V30 12215 H 1167.83 -3.59852 3.25015 0
M  V30 12216 N 1169.18 -0.941978 -1.26351 0
M  V30 12217 C 1170.11 -0.469913 -2.28723 0
M  V30 12218 C 1171.09 0.477218 -1.63269 0
M  V30 12219 O 1172.27 0.378902 -1.90468 0
M  V30 12220 C 1169.4 0.264971 -3.46288 0
M  V30 12221 C 1168.36 -0.595682 -4.23834 0
M  V30 12222 C 1167.68 0.269208 -5.34022 0
M  V30 12223 C 1168.98 -1.86743 -4.87775 0
M  V30 12224 H 1170.68 -1.32551 -2.6846 0
M  V30 12225 H 1168.22 -0.638809 -1.29055 0
M  V30 12226 H 1170.18 0.606259 -4.17016 0
M  V30 12227 H 1168.9 1.15471 -3.05506 0
M  V30 12228 H 1167.56 -0.919875 -3.54872 0
M  V30 12229 H 1167.21 1.15832 -4.89481 0
M  V30 12230 H 1166.91 -0.30325 -5.86817 0
M  V30 12231 H 1168.43 0.605748 -6.07588 0
M  V30 12232 H 1169.85 -1.59333 -5.50714 0
M  V30 12233 H 1168.24 -2.38452 -5.50691 0
M  V30 12234 H 1169.31 -2.57831 -4.10671 0
M  V30 12235 N 1170.66 1.40747 -0.709091 0
M  V30 12236 C 1171.9 2.00606 -0.245324 0
M  V30 12237 C 1172.22 1.56489 1.16346 0
M  V30 12238 O 1171.49 0.801456 1.78755 0
M  V30 12239 H 1170.07 0.741833 -0.0877098 0
M  V30 12240 H 1172.74 1.72178 -0.913271 0
M  V30 12241 H 1171.83 3.10901 -0.273322 0
M  V30 12242 N 1172.13 0.454803 1.50895 0
M  V30 12243 C 1173.38 -0.105562 2.01824 0
M  V30 12244 C 1173.7 -1.41673 1.33992 0
M  V30 12245 O 1172.97 -1.89929 0.479994 0
M  V30 12246 H 1171.55 -0.0420011 0.745818 0
M  V30 12247 H 1174.21 0.601504 1.85386 0
M  V30 12248 H 1173.31 -0.268872 3.1094 0
M  V30 12249 N 1173.61 -1.56489 0.186789 0
M  V30 12250 C 1175.03 -1.58701 -0.169176 0
M  V30 12251 C 1175.23 -1.2027 -1.61671 0
M  V30 12252 O 1174.28 -0.92154 -2.35083 0
M  V30 12253 C 1175.6 -3.00437 0.125657 0
M  V30 12254 C 1177.14 -3.12932 0.0651 0
M  V30 12255 C 1177.62 -4.56787 0.333131 0
M  V30 12256 N 1179.11 -4.62344 0.281453 0
M  V30 12257 C 1179.85 -5.71529 0.462805 0
M  V30 12258 N 1179.34 -6.89213 0.704054 0
M  V30 12259 N 1181.13 -5.60692 0.397636 0
M  V30 12260 H 1173.29 -1.79754 1.13148 0
M  V30 12261 H 1175.55 -0.83385 0.450997 0
M  V30 12262 H 1175.25 -3.33086 1.12901 0
M  V30 12263 H 1175.13 -3.72782 -0.575612 0
M  V30 12264 H 1177.52 -2.80101 -0.928845 0
M  V30 12265 H 1177.6 -2.42991 0.799318 0
M  V30 12266 H 1177.24 -4.9033 1.32436 0
M  V30 12267 H 1177.17 -5.24907 -0.421879 0
M  V30 12268 H 1179.66 -3.77764 0.101266 0
M  V30 12269 H 1179.97 -7.68314 0.831468 0
M  V30 12270 H 1178.32 -6.9104 0.740851 0
M  V30 12271 H 1181.51 -4.6763 0.20964 0
M  V30 12272 H 1181.68 -6.45726 0.54239 0
M  V30 12273 N 1175.09 0.086862 -1.5736 0
M  V30 12274 C 1176.04 1.11134 -1.99081 0
M  V30 12275 C 1177.02 1.35318 -0.870506 0
M  V30 12276 O 1178.22 1.35871 -1.13437 0
M  V30 12277 C 1175.34 2.42931 -2.42569 0
M  V30 12278 C 1174.43 2.22085 -3.61302 0
M  V30 12279 N 1174.82 1.71128 -4.75971 0
M  V30 12280 C 1173.12 2.52619 -3.67559 0
M  V30 12281 C 1173.82 1.64745 -5.57883 0
M  V30 12282 N 1172.8 2.10257 -5.01291 0
M  V30 12283 H 1176.6 0.710431 -2.85184 0
M  V30 12284 H 1174.11 0.294168 -1.59714 0
M  V30 12285 H 1176.11 3.17069 -2.7069 0
M  V30 12286 H 1174.77 2.83751 -1.57846 0
M  V30 12287 H 1175.78 1.40207 -4.9856 0
M  V30 12288 H 1172.46 2.96908 -2.93516 0
M  V30 12289 H 1173.85 1.26329 -6.59917 0
M  V30 12290 N 1176.57 1.53483 0.357892 0
M  V30 12291 C 1177.82 1.69701 1.09754 0
M  V30 12292 C 1178.14 0.455389 1.89608 0
M  V30 12293 O 1177.41 -0.530623 1.88577 0
M  V30 12294 H 1175.99 0.62562 0.408178 0
M  V30 12295 H 1178.65 1.90696 0.402641 0
M  V30 12296 H 1177.74 2.56154 1.78302 0
M  V30 12297 N 1178.05 -0.61812 1.44973 0
M  V30 12298 C 1178.96 -1.7579 1.55355 0
M  V30 12299 C 1179.97 -1.68384 0.438512 0
M  V30 12300 O 1181.15 -1.88928 0.697715 0
M  V30 12301 C 1178.21 -3.1222 1.50729 0
M  V30 12302 C 1177.27 -3.3116 2.73188 0
M  V30 12303 C 1176.51 -4.61082 2.68774 0
M  V30 12304 O 1176.73 -5.42728 1.75507 0
M  V30 12305 O 1175.66 -4.82506 3.59821 0
M  V30 12306 H 1179.49 -1.69983 2.51674 0
M  V30 12307 H 1177.07 -0.780934 1.27365 0
M  V30 12308 H 1178.96 -3.93524 1.5072 0
M  V30 12309 H 1177.63 -3.18541 0.575587 0
M  V30 12310 H 1176.54 -2.49485 2.78762 0
M  V30 12311 H 1177.87 -3.29709 3.65449 0
M  V30 12312 N 1179.52 -1.32087 -0.859693 0
M  V30 12313 C 1180.77 -1.2236 -1.61351 0
M  V30 12314 C 1181.1 0.215796 -1.93299 0
M  V30 12315 O 1180.35 1.16742 -1.57066 0
M  V30 12316 C 1180.65 -2.0234 -2.94607 0
M  V30 12317 C 1180.32 -3.51746 -2.82109 0
M  V30 12318 C 1178.98 -3.92482 -2.78408 0
M  V30 12319 C 1181.33 -4.46776 -2.68403 0
M  V30 12320 C 1178.66 -5.265 -2.58873 0
M  V30 12321 C 1181.01 -5.80931 -2.50404 0
M  V30 12322 C 1179.68 -6.20875 -2.45092 0
M  V30 12323 H 1178.95 -0.447748 -0.590426 0
M  V30 12324 H 1181.59 -1.63461 -0.997637 0
M  V30 12325 H 1179.9 -1.53952 -3.60286 0
M  V30 12326 H 1181.6 -1.92187 -3.51945 0
M  V30 12327 H 1178.19 -3.19389 -2.85812 0
M  V30 12328 H 1182.37 -4.16228 -2.70311 0
M  V30 12329 H 1177.63 -5.5651 -2.53192 0
M  V30 12330 H 1181.8 -6.54185 -2.38777 0
M  V30 12331 H 1179.43 -7.24662 -2.29714 0
M  V30 12332 N 1181 1.07532 -1.15215 0
M  V30 12333 C 1181.95 2.14687 -0.847243 0
M  V30 12334 C 1182.92 1.64903 0.199043 0
M  V30 12335 O 1184.1 1.90682 0.0669986 0
M  V30 12336 C 1181.24 3.43414 -0.340673 0
M  V30 12337 C 1180.36 4.06999 -1.44831 0
M  V30 12338 C 1179.49 5.23554 -0.898059 0
M  V30 12339 C 1178.53 5.79097 -1.98276 0
M  V30 12340 N 1177.67 6.86985 -1.44902 0
M  V30 12341 H 1182.51 2.4011 -1.76498 0
M  V30 12342 H 1180.04 1.17823 -0.880689 0
M  V30 12343 H 1182 4.1719 -0.0286956 0
M  V30 12344 H 1180.63 3.18249 0.540144 0
M  V30 12345 H 1179.68 3.30895 -1.87651 0
M  V30 12346 H 1181 4.44289 -2.26735 0
M  V30 12347 H 1180.15 6.04305 -0.538514 0
M  V30 12348 H 1178.89 4.87676 -0.0481752 0
M  V30 12349 H 1177.89 4.96992 -2.35115 0
M  V30 12350 H 1179.12 6.1703 -2.83639 0
M  V30 12351 H 1177.07 6.5305 -0.621468 0
M  V30 12352 H 1176.98 7.23149 -2.20434 0
M  V30 12353 H 1178.25 7.71446 -1.11767 0
M  V30 12354 N 1182.48 0.948665 1.2585 0
M  V30 12355 C 1183.73 0.600236 1.934 0
M  V30 12356 C 1184.06 -0.86185 1.74363 0
M  V30 12357 O 1183.31 -1.63294 1.07858 0
M  V30 12358 C 1183.61 0.89784 3.45939 0
M  V30 12359 C 1183.28 2.345 3.85124 0
M  V30 12360 C 1181.94 2.74058 3.95532 0
M  V30 12361 C 1184.29 3.2851 4.04636 0
M  V30 12362 C 1181.62 4.06707 4.22855 0
M  V30 12363 C 1183.97 4.60764 4.3345 0
M  V30 12364 C 1182.63 5.00127 4.42074 0
M  V30 12365 H 1181.9 0.219642 0.707699 0
M  V30 12366 H 1184.55 1.19658 1.49513 0
M  V30 12367 H 1182.86 0.219037 3.91187 0
M  V30 12368 H 1184.55 0.606916 3.96381 0
M  V30 12369 H 1181.14 2.02819 3.77574 0
M  V30 12370 H 1185.33 2.99141 3.96015 0
M  V30 12371 H 1180.58 4.36856 4.27746 0
M  V30 12372 H 1184.76 5.33594 4.47493 0
M  V30 12373 H 1182.38 6.02939 4.63 0
M  V30 12374 N 1183.96 -1.40369 0.716545 0
M  V30 12375 C 1184.89 -2.33365 0.0793533 0
M  V30 12376 C 1185.87 -1.52943 -0.744482 0
M  V30 12377 O 1187.05 -1.81406 -0.693212 0
M  V30 12378 C 1184.18 -3.36928 -0.842429 0
M  V30 12379 C 1183.14 -4.2782 -0.124142 0
M  V30 12380 C 1182.46 -5.21928 -1.1617 0
M  V30 12381 C 1183.76 -5.12199 1.02224 0
M  V30 12382 H 1185.46 -2.86899 0.856115 0
M  V30 12383 H 1183 -1.37946 0.413138 0
M  V30 12384 H 1184.96 -4.00925 -1.29759 0
M  V30 12385 H 1183.68 -2.81791 -1.6511 0
M  V30 12386 H 1182.34 -3.65277 0.311201 0
M  V30 12387 H 1181.99 -4.63096 -1.96345 0
M  V30 12388 H 1181.69 -5.83582 -0.685978 0
M  V30 12389 H 1183.21 -5.88802 -1.61694 0
M  V30 12390 H 1184.63 -5.69644 0.646399 0
M  V30 12391 H 1183.02 -5.82901 1.4264 0
M  V30 12392 H 1184.09 -4.4812 1.85246 0
M  V30 12393 N 1185.44 -0.462799 -1.50652 0
M  V30 12394 C 1186.85 -0.00568907 -1.86699 0
M  V30 12395 C 1187.2 1.39641 -1.37822 0
M  V30 12396 O 1186.32 2.03366 -0.739679 0
M  V30 12397 C 1186.92 -0.00354783 -3.388 0
M  V30 12398 C 1185.48 0.398061 -3.74289 0
M  V30 12399 C 1184.62 -0.392574 -2.74507 0
M  V30 12400 H 1187.58 -0.677469 -1.43513 0
M  V30 12401 H 1187.6 0.800456 -3.71985 0
M  V30 12402 H 1187.11 -1.02414 -3.74344 0
M  V30 12403 H 1185.21 1.42331 -3.44344 0
M  V30 12404 H 1185.32 0.105168 -4.78985 0
M  V30 12405 H 1183.69 0.152608 -2.54242 0
M  V30 12406 H 1184.47 -1.41252 -3.12894 0
M  V30 12407 N 1186.91 1.56388 -0.195085 0
M  V30 12408 C 1188.33 1.8398 0.317513 0
M  V30 12409 C 1188.68 1.11575 1.61386 0
M  V30 12410 O 1187.8 0.376557 2.13099 0
M  V30 12411 C 1188.4 3.33749 0.582859 0
M  V30 12412 C 1186.96 3.61752 1.03983 0
M  V30 12413 C 1186.1 2.77159 0.088434 0
M  V30 12414 H 1189.05 1.53072 -0.418871 0
M  V30 12415 H 1189.07 3.52519 1.43216 0
M  V30 12416 H 1188.59 3.86419 -0.360813 0
M  V30 12417 H 1186.69 3.14515 1.99778 0
M  V30 12418 H 1186.8 4.69937 0.932549 0
M  V30 12419 H 1185.16 2.47765 0.590317 0
M  V30 12420 H 1185.95 3.32619 -0.849682 0
M  V30 12421 N 1188.39 -0.0785156 1.57404 0
M  V30 12422 C 1189.8 -0.631132 1.75709 0
M  V30 12423 C 1190.15 -1.78261 0.819605 0
M  V30 12424 O 1189.28 -2.164 0.00206912 0
M  V30 12425 C 1189.87 -1.15168 3.18625 0
M  V30 12426 C 1188.43 -1.65021 3.38297 0
M  V30 12427 C 1187.58 -0.566773 2.71446 0
M  V30 12428 H 1190.53 0.147631 1.58012 0
M  V30 12429 H 1190.55 -2.02065 3.22413 0
M  V30 12430 H 1190.06 -0.313399 3.86833 0
M  V30 12431 H 1188.17 -2.51196 2.75194 0
M  V30 12432 H 1188.28 -1.73179 4.46706 0
M  V30 12433 H 1186.64 -1.01021 2.33809 0
M  V30 12434 H 1187.43 0.261204 3.42305 0
M  V30 12435 N 1189.87 -1.5367 -0.349747 0
M  V30 12436 C 1191.12 -1.70281 -1.08853 0
M  V30 12437 C 1191.44 -0.465438 -1.89364 0
M  V30 12438 O 1190.71 0.520615 -1.88856 0
M  V30 12439 H 1189.29 -0.627775 -0.404854 0
M  V30 12440 H 1191.95 -1.90906 -0.392523 0
M  V30 12441 H 1191.05 -2.57096 -1.76941 0
M  V30 12442 N 1191.35 0.610423 -1.45298 0
M  V30 12443 C 1192.58 1.39419 -1.52466 0
M  V30 12444 C 1192.99 1.88563 -0.1551 0
M  V30 12445 O 1192.33 1.62692 0.853061 0
M  V30 12446 C 1192.39 2.63515 -2.44541 0
M  V30 12447 C 1192.06 2.36028 -3.91331 0
M  V30 12448 C 1193.05 1.96567 -4.81308 0
M  V30 12449 C 1190.74 2.49028 -4.36223 0
M  V30 12450 C 1192.73 1.70461 -6.14184 0
M  V30 12451 C 1190.42 2.22536 -5.6914 0
M  V30 12452 C 1191.42 1.83314 -6.5794 0
M  V30 12453 O 1191.1 1.57131 -7.88394 0
M  V30 12454 H 1190.84 0.433278 -0.518889 0
M  V30 12455 H 1193.39 0.751803 -1.91147 0
M  V30 12456 H 1191.62 3.30463 -2.00826 0
M  V30 12457 H 1193.31 3.25554 -2.42424 0
M  V30 12458 H 1194.08 1.86062 -4.4789 0
M  V30 12459 H 1189.95 2.78524 -3.67349 0
M  V30 12460 H 1193.5 1.39773 -6.83454 0
M  V30 12461 H 1189.4 2.32657 -6.02114 0
M  V30 12462 H 1190.16 1.71207 -8.00394 0
M  V30 12463 N 1192.83 1.32541 0.852676 0
M  V30 12464 C 1193.79 1.21578 1.94297 0
M  V30 12465 C 1194.79 0.138318 1.60204 0
M  V30 12466 O 1195.98 0.388864 1.69804 0
M  V30 12467 C 1193.11 0.870209 3.29606 0
M  V30 12468 H 1194.3 2.18476 2.05446 0
M  V30 12469 H 1191.86 1.16401 1.0431 0
M  V30 12470 H 1192.59 -0.0968698 3.24155 0
M  V30 12471 H 1192.38 1.64924 3.55728 0
M  V30 12472 H 1193.87 0.817874 4.09513 0
M  V30 12473 N 1194.3 -1.0692 1.15784 0
M  V30 12474 C 1195.72 -1.61069 0.944123 0
M  V30 12475 C 1196.07 -1.8936 -0.513522 0
M  V30 12476 O 1195.19 -1.66232 -1.38549 0
M  V30 12477 C 1195.79 -2.9263 1.70743 0
M  V30 12478 C 1194.35 -3.43505 1.53887 0
M  V30 12479 C 1193.49 -2.17495 1.72021 0
M  V30 12480 H 1196.44 -0.89951 1.30746 0
M  V30 12481 H 1196.46 -3.61757 1.17951 0
M  V30 12482 H 1195.98 -2.72007 2.76828 0
M  V30 12483 H 1194.08 -3.69201 0.502153 0
M  V30 12484 H 1194.19 -4.19254 2.31868 0
M  V30 12485 H 1192.55 -2.27407 1.1471 0
M  V30 12486 H 1193.34 -1.99362 2.79481 0
M  V30 12487 N 1195.78 -0.955326 -1.25345 0
M  V30 12488 C 1197.02 -0.618161 -1.94828 0
M  V30 12489 C 1197.39 0.829532 -1.73155 0
M  V30 12490 O 1198.59 1.27632 -2.36566 0
M  V30 12491 C 1196.86 -0.967887 -3.44045 0
M  V30 12492 S 1198.42 -0.743401 -4.32457 0
M  V30 12493 H 1195.24 -0.227189 -0.673726 0
M  V30 12494 H 1197.84 -1.22965 -1.51986 0
M  V30 12495 H 1196.54 -2.01864 -3.57322 0
M  V30 12496 H 1196.07 -0.346677 -3.9187 0
M  V30 12497 H 1198.09 0.385467 -4.94701 0
M  V30 12498 N 1197.26 1.39987 -0.723979 0
M  V30 12499 C 1198.21 2.27938 -0.0531058 0
M  V30 12500 C 1199.2 1.43693 0.723965 0
M  V30 12501 O 1200.39 1.66707 0.594785 0
M  V30 12502 C 1197.52 3.32311 0.861659 0
M  V30 12503 C 1196.6 4.24026 0.079327 0
M  V30 12504 N 1196.99 4.96954 -0.941805 0
M  V30 12505 C 1195.29 4.44917 0.310637 0
M  V30 12506 C 1195.99 5.64287 -1.41261 0
M  V30 12507 N 1194.97 5.38632 -0.733217 0
M  V30 12508 H 1198.77 2.81771 -0.835608 0
M  V30 12509 H 1196.28 1.52538 -0.557315 0
M  V30 12510 H 1198.28 3.94174 1.35766 0
M  V30 12511 H 1196.94 2.80038 1.64344 0
M  V30 12512 H 1197.95 5.0072 -1.32288 0
M  V30 12513 H 1194.63 4.03606 1.06809 0
M  V30 12514 H 1196.02 6.32695 -2.26155 0
M  V30 12515 N 1198.74 0.470782 1.50404 0
M  V30 12516 C 1199.65 -0.328877 2.32283 0
M  V30 12517 C 1200.67 -0.99629 1.42654 0
M  V30 12518 O 1201.84 -0.984331 1.75707 0
M  V30 12519 C 1198.91 -1.39675 3.1732 0
M  V30 12520 C 1197.97 -0.745965 4.22769 0
M  V30 12521 C 1197.2 -1.76295 5.03742 0
M  V30 12522 O 1197.42 -2.98943 4.85788 0
M  V30 12523 O 1196.36 -1.33495 5.86909 0
M  V30 12524 H 1200.18 0.340491 3.01785 0
M  V30 12525 H 1197.77 0.232637 1.47578 0
M  V30 12526 H 1199.65 -2.0153 3.70086 0
M  V30 12527 H 1198.33 -2.04959 2.50546 0
M  V30 12528 H 1197.23 -0.0884647 3.73995 0
M  V30 12529 H 1198.57 -0.136074 4.92012 0
M  V30 12530 N 1200.22 -1.56282 0.203376 0
M  V30 12531 C 1201.18 -2.18233 -0.700489 0
M  V30 12532 C 1202.18 -1.13908 -1.13497 0
M  V30 12533 O 1203.37 -1.39246 -1.04672 0
M  V30 12534 C 1200.5 -2.79107 -1.95735 0
M  V30 12535 H 1201.7 -2.99469 -0.160649 0
M  V30 12536 H 1199.25 -1.56232 -0.0462475 0
M  V30 12537 H 1199.98 -2.01691 -2.53951 0
M  V30 12538 H 1199.77 -3.55486 -1.65446 0
M  V30 12539 H 1201.26 -3.2665 -2.60172 0
M  V30 12540 N 1201.7 0.070167 -1.57444 0
M  V30 12541 C 1202.94 0.770153 -1.87607 0
M  V30 12542 C 1203.27 1.77143 -0.795875 0
M  V30 12543 O 1202.55 1.93533 0.193674 0
M  V30 12544 C 1202.83 1.47668 -3.2843 0
M  V30 12545 C 1202.69 0.491712 -4.47104 0
M  V30 12546 C 1204 2.42118 -3.67514 0
M  V30 12547 H 1201.12 0.278519 -0.682346 0
M  V30 12548 H 1203.77 0.0333184 -1.89971 0
M  V30 12549 H 1201.92 2.10476 -3.26546 0
M  V30 12550 H 1203.59 -0.131283 -4.61113 0
M  V30 12551 H 1201.83 -0.192817 -4.33371 0
M  V30 12552 H 1202.5 1.02372 -5.42424 0
M  V30 12553 H 1204.98 1.89387 -3.70502 0
M  V30 12554 H 1203.85 2.88556 -4.66933 0
M  V30 12555 H 1204.11 3.26995 -2.97534 0
M  V30 12556 N 1203.17 1.53854 0.341593 0
M  V30 12557 C 1204.1 1.84966 1.42513 0
M  V30 12558 C 1205.08 0.704944 1.54805 0
M  V30 12559 O 1206.27 0.957036 1.68981 0
M  V30 12560 C 1203.4 2.06099 2.79536 0
M  V30 12561 C 1202.35 3.21919 2.82049 0
M  V30 12562 C 1201.68 3.28389 4.21977 0
M  V30 12563 C 1202.98 4.59984 2.4741 0
M  V30 12564 H 1204.67 2.7571 1.16724 0
M  V30 12565 H 1202.22 1.32662 0.560073 0
M  V30 12566 H 1204.17 2.26448 3.55386 0
M  V30 12567 H 1202.9 1.12087 3.06764 0
M  V30 12568 H 1201.56 3.01429 2.08653 0
M  V30 12569 H 1201.2 2.3197 4.46317 0
M  V30 12570 H 1200.9 4.0622 4.24569 0
M  V30 12571 H 1202.43 3.50951 4.99666 0
M  V30 12572 H 1203.84 4.80334 3.12973 0
M  V30 12573 H 1202.24 5.40233 2.61282 0
M  V30 12574 H 1203.31 4.6346 1.42594 0
M  V30 12575 N 1204.65 -0.602709 1.4562 0
M  V30 12576 C 1206.06 -1.1847 1.44297 0
M  V30 12577 C 1206.41 -1.95434 0.17316 0
M  V30 12578 O 1205.54 -2.03894 -0.724986 0
M  V30 12579 C 1206.13 -2.15508 2.61422 0
M  V30 12580 C 1204.69 -2.69073 2.63204 0
M  V30 12581 C 1203.84 -1.44568 2.36633 0
M  V30 12582 H 1206.79 -0.391745 1.53789 0
M  V30 12583 H 1206.81 -2.98628 2.35799 0
M  V30 12584 H 1206.32 -1.59464 3.53826 0
M  V30 12585 H 1204.42 -3.29042 1.7482 0
M  V30 12586 H 1204.54 -3.13173 3.62573 0
M  V30 12587 H 1202.9 -1.73692 1.86287 0
M  V30 12588 H 1203.68 -0.903852 3.31188 0
M  V30 12589 N 1206.13 -1.32992 -0.845635 0
M  V30 12590 C 1207.55 -1.12179 -1.13526 0
M  V30 12591 C 1207.75 0.091795 -2.01291 0
M  V30 12592 O 1206.8 0.774051 -2.40343 0
M  V30 12593 C 1208.11 -2.40584 -1.80388 0
M  V30 12594 C 1209.66 -2.46427 -1.92984 0
M  V30 12595 C 1210.14 -3.74776 -2.63261 0
M  V30 12596 N 1211.63 -3.75809 -2.7078 0
M  V30 12597 C 1212.36 -4.71829 -3.2583 0
M  V30 12598 N 1211.86 -5.78219 -3.81621 0
M  V30 12599 N 1213.65 -4.59313 -3.24018 0
M  V30 12600 H 1205.8 -2.10786 -0.261369 0
M  V30 12601 H 1208.07 -0.931053 -0.17845 0
M  V30 12602 H 1207.77 -3.29357 -1.23357 0
M  V30 12603 H 1207.65 -2.52225 -2.80468 0
M  V30 12604 H 1210.03 -1.58108 -2.4917 0
M  V30 12605 H 1210.11 -2.38732 -0.918732 0
M  V30 12606 H 1209.76 -4.63474 -2.07736 0
M  V30 12607 H 1209.69 -3.79746 -3.6483 0
M  V30 12608 H 1212.18 -2.98916 -2.31209 0
M  V30 12609 H 1212.49 -6.47531 -4.2181 0
M  V30 12610 H 1210.84 -5.81962 -3.79927 0
M  V30 12611 H 1214.03 -3.75358 -2.79685 0
M  V30 12612 H 1214.2 -5.34316 -3.6662 0
M  V30 12613 N 1207.61 1.06304 -1.1635 0
M  V30 12614 C 1208.52 2.17296 -0.884289 0
M  V30 12615 C 1209.53 1.73408 0.143414 0
M  V30 12616 O 1210.71 2.01373 -0.0331987 0
M  V30 12617 C 1207.77 3.44509 -0.389163 0
M  V30 12618 C 1206.84 4.02906 -1.48208 0
M  V30 12619 C 1206.07 5.24047 -1.01048 0
M  V30 12620 O 1206.29 5.70229 0.139821 0
M  V30 12621 O 1205.23 5.74394 -1.79876 0
M  V30 12622 H 1209.05 2.4369 -1.81243 0
M  V30 12623 H 1206.64 1.15841 -0.943459 0
M  V30 12624 H 1208.52 4.21229 -0.120018 0
M  V30 12625 H 1207.19 3.19642 0.510968 0
M  V30 12626 H 1206.1 3.27677 -1.80496 0
M  V30 12627 H 1207.43 4.32068 -2.35751 0
M  V30 12628 N 1209.09 0.96196 1.24836 0
M  V30 12629 C 1210.5 0.667561 1.44968 0
M  V30 12630 C 1210.7 -0.772521 1.86103 0
M  V30 12631 O 1209.76 -1.54704 1.99557 0
M  V30 12632 C 1211.07 1.64675 2.516 0
M  V30 12633 C 1212.62 1.65874 2.65433 0
M  V30 12634 C 1213.09 2.62576 3.75257 0
M  V30 12635 N 1214.58 2.60984 3.82677 0
M  V30 12636 C 1215.32 3.32484 4.67163 0
M  V30 12637 N 1214.82 4.13482 5.55882 0
M  V30 12638 N 1216.61 3.21336 4.61193 0
M  V30 12639 H 1208.76 1.89248 0.964307 0
M  V30 12640 H 1211.02 0.814443 0.485167 0
M  V30 12641 H 1210.73 2.67572 2.2825 0
M  V30 12642 H 1210.6 1.415 3.49653 0
M  V30 12643 H 1212.99 0.636912 2.88145 0
M  V30 12644 H 1213.07 1.9311 1.67756 0
M  V30 12645 H 1212.71 3.6489 3.53295 0
M  V30 12646 H 1212.64 2.32622 4.72435 0
M  V30 12647 H 1215.14 2.02187 3.19263 0
M  V30 12648 H 1215.45 4.6494 6.17293 0
M  V30 12649 H 1213.79 4.17578 5.55566 0
M  V30 12650 H 1216.98 2.57524 3.90895 0
M  V30 12651 H 1217.16 3.77323 5.26812 0
M  V30 12652 N 1210.56 -1.39601 0.731392 0
M  V30 12653 C 1211.49 -2.33268 0.1041 0
M  V30 12654 C 1212.47 -1.53724 -0.728219 0
M  V30 12655 O 1213.66 -1.82131 -0.673933 0
M  V30 12656 C 1210.79 -3.37802 -0.806646 0
M  V30 12657 C 1209.74 -4.27928 -0.0787588 0
M  V30 12658 C 1209.07 -5.23131 -1.10628 0
M  V30 12659 C 1210.37 -5.11086 1.07651 0
M  V30 12660 H 1212.06 -2.85975 0.886496 0
M  V30 12661 H 1209.61 -1.375 0.427746 0
M  V30 12662 H 1211.56 -4.02278 -1.25499 0
M  V30 12663 H 1210.29 -2.83527 -1.62112 0
M  V30 12664 H 1208.95 -3.64926 0.349926 0
M  V30 12665 H 1208.59 -4.65152 -1.91422 0
M  V30 12666 H 1208.29 -5.84277 -0.624043 0
M  V30 12667 H 1209.82 -5.90483 -1.5544 0
M  V30 12668 H 1211.23 -5.68927 0.706781 0
M  V30 12669 H 1209.63 -5.81356 1.48814 0
M  V30 12670 H 1210.7 -4.46131 1.89988 0
M  V30 12671 N 1212.04 -0.478751 -1.50152 0
M  V30 12672 C 1212.99 0.330224 -2.25596 0
M  V30 12673 C 1213.98 0.954871 -1.29503 0
M  V30 12674 O 1215.17 0.866153 -1.54359 0
M  V30 12675 C 1212.3 1.40719 -3.13134 0
M  V30 12676 C 1211.38 0.789896 -4.16679 0
M  V30 12677 N 1211.77 -0.094345 -5.05712 0
M  V30 12678 C 1210.07 1.05299 -4.33391 0
M  V30 12679 C 1210.77 -0.445458 -5.79992 0
M  V30 12680 N 1209.75 0.181237 -5.43298 0
M  V30 12681 H 1213.55 -0.350824 -2.91799 0
M  V30 12682 H 1211.07 -0.293386 -1.59728 0
M  V30 12683 H 1213.06 1.99999 -3.65795 0
M  V30 12684 H 1211.72 2.09015 -2.48481 0
M  V30 12685 H 1212.73 -0.463695 -5.1582 0
M  V30 12686 H 1209.41 1.73036 -3.79954 0
M  V30 12687 H 1210.8 -1.16754 -6.61678 0
M  V30 12688 N 1213.52 1.56172 -0.211661 0
M  V30 12689 C 1214.45 2.22843 0.697375 0
M  V30 12690 C 1215.43 1.19689 1.20866 0
M  V30 12691 O 1216.62 1.48245 1.25447 0
M  V30 12692 C 1213.75 2.90067 1.90993 0
M  V30 12693 C 1212.7 3.99608 1.5329 0
M  V30 12694 C 1212.03 4.54078 2.82343 0
M  V30 12695 C 1213.33 5.17169 0.730333 0
M  V30 12696 H 1215.02 2.99065 0.141533 0
M  V30 12697 H 1212.57 1.43846 0.0666337 0
M  V30 12698 H 1214.52 3.35396 2.55123 0
M  V30 12699 H 1213.24 2.11276 2.49058 0
M  V30 12700 H 1211.9 3.54995 0.915115 0
M  V30 12701 H 1211.55 3.72029 3.38531 0
M  V30 12702 H 1211.25 5.28001 2.57853 0
M  V30 12703 H 1212.77 5.02119 3.47432 0
M  V30 12704 H 1214.19 5.5894 1.2751 0
M  V30 12705 H 1212.59 5.97262 0.582916 0
M  V30 12706 H 1213.66 4.84174 -0.265157 0
M  V30 12707 N 1215 -0.0618163 1.57479 0
M  V30 12708 C 1215.91 -1.09006 2.07738 0
M  V30 12709 C 1216.92 -1.4176 1.00896 0
M  V30 12710 O 1218.1 -1.51737 1.32431 0
M  V30 12711 C 1215.17 -2.38153 2.5196 0
M  V30 12712 C 1214.23 -2.12279 3.73143 0
M  V30 12713 C 1213.46 -3.35269 4.15248 0
M  V30 12714 O 1213.68 -4.44758 3.57137 0
M  V30 12715 O 1212.62 -3.22894 5.0796 0
M  V30 12716 H 1216.44 -0.693059 2.95686 0
M  V30 12717 H 1214.03 -0.276628 1.46817 0
M  V30 12718 H 1215.91 -3.14139 2.80882 0
M  V30 12719 H 1214.58 -2.77213 1.67137 0
M  V30 12720 H 1213.49 -1.33966 3.49291 0
M  V30 12721 H 1214.82 -1.78094 4.5885 0
M  V30 12722 N 1216.48 -1.54033 -0.333429 0
M  V30 12723 C 1217.89 -1.63107 -0.908455 0
M  V30 12724 C 1218.24 -0.518823 -1.89216 0
M  V30 12725 O 1217.36 0.34985 -2.13553 0
M  V30 12726 C 1217.96 -2.95657 -1.65447 0
M  V30 12727 C 1216.52 -3.0696 -2.17836 0
M  V30 12728 C 1215.66 -2.58617 -1.00063 0
M  V30 12729 H 1218.62 -1.58309 -0.11128 0
M  V30 12730 H 1218.64 -2.85263 -2.51804 0
M  V30 12731 H 1218.15 -3.76588 -0.938263 0
M  V30 12732 H 1216.25 -2.30683 -2.92602 0
M  V30 12733 H 1216.36 -4.12599 -2.43513 0
M  V30 12734 H 1214.73 -2.1427 -1.37697 0
M  V30 12735 H 1215.51 -3.41996 -0.298901 0
M  V30 12736 N 1217.95 0.594978 -1.45938 0
M  V30 12737 C 1219.2 1.34976 -1.49881 0
M  V30 12738 C 1219.52 1.95025 -0.14983 0
M  V30 12739 O 1220.72 2.71417 -0.0669868 0
M  V30 12740 C 1219.18 2.44563 -2.6404 0
M  V30 12741 C 1218.79 1.9087 -4.05306 0
M  V30 12742 C 1220.53 3.21461 -2.77242 0
M  V30 12743 C 1218.44 2.98013 -5.10825 0
M  V30 12744 H 1217.37 0.507366 -0.55776 0
M  V30 12745 H 1220.02 0.636316 -1.72114 0
M  V30 12746 H 1218.4 3.1865 -2.35114 0
M  V30 12747 H 1219.57 1.23408 -4.43968 0
M  V30 12748 H 1217.89 1.26678 -3.96663 0
M  V30 12749 H 1220.49 4.01399 -3.53246 0
M  V30 12750 H 1220.83 3.73271 -1.84321 0
M  V30 12751 H 1221.36 2.54477 -3.05756 0
M  V30 12752 H 1218.1 2.51104 -6.05497 0
M  V30 12753 H 1217.62 3.64003 -4.7672 0
M  V30 12754 H 1219.3 3.62178 -5.36131 0
M  V30 12755 N 1219.43 1.33438 0.838571 0
M  V30 12756 C 1220.38 1.23717 1.94841 0
M  V30 12757 C 1221.35 0.11573 1.65696 0
M  V30 12758 O 1222.53 0.294051 1.8852 0
M  V30 12759 C 1219.67 0.982626 3.30815 0
M  V30 12760 C 1218.79 2.19036 3.72354 0
M  V30 12761 C 1217.92 1.86995 4.97199 0
M  V30 12762 C 1216.96 3.03998 5.31274 0
M  V30 12763 N 1216.1 2.71943 6.47295 0
M  V30 12764 H 1220.94 2.18639 2.02487 0
M  V30 12765 H 1218.48 1.08721 0.990861 0
M  V30 12766 H 1220.43 0.81548 4.09152 0
M  V30 12767 H 1219.06 0.0701443 3.22724 0
M  V30 12768 H 1218.12 2.46724 2.89537 0
M  V30 12769 H 1219.43 3.06505 3.93518 0
M  V30 12770 H 1218.58 1.66925 5.83285 0
M  V30 12771 H 1217.32 0.967628 4.78004 0
M  V30 12772 H 1216.33 3.24681 4.43692 0
M  V30 12773 H 1217.55 3.94985 5.52416 0
M  V30 12774 H 1215.5 1.8427 6.29588 0
M  V30 12775 H 1215.41 3.52943 6.68556 0
M  V30 12776 H 1216.68 2.55342 7.36492 0
M  V30 12777 N 1220.91 -1.05686 1.16912 0
M  V30 12778 C 1221.82 -2.16824 0.8958 0
M  V30 12779 C 1222.84 -1.73482 -0.134215 0
M  V30 12780 O 1224.01 -2.01352 0.0438776 0
M  V30 12781 C 1221.08 -3.44298 0.407427 0
M  V30 12782 C 1220.14 -4.02114 1.50342 0
M  V30 12783 C 1219.37 -5.23503 1.03826 0
M  V30 12784 O 1219.59 -5.70295 -0.109579 0
M  V30 12785 O 1218.53 -5.73432 1.8292 0
M  V30 12786 H 1222.35 -2.42725 1.82533 0
M  V30 12787 H 1219.94 -1.15339 0.949589 0
M  V30 12788 H 1221.82 -4.21159 0.142356 0
M  V30 12789 H 1220.5 -3.19908 -0.494009 0
M  V30 12790 H 1219.4 -3.26715 1.82231 0
M  V30 12791 H 1220.74 -4.30811 2.38039 0
M  V30 12792 N 1222.39 -0.968567 -1.24324 0
M  V30 12793 C 1223.62 -0.647628 -1.96187 0
M  V30 12794 C 1224.03 0.787267 -1.72043 0
M  V30 12795 O 1223.37 1.53996 -1.00155 0
M  V30 12796 C 1223.43 -0.843517 -3.49464 0
M  V30 12797 C 1223.1 -2.25822 -3.97308 0
M  V30 12798 C 1224.09 -3.23602 -4.06913 0
M  V30 12799 C 1221.78 -2.58614 -4.30609 0
M  V30 12800 C 1223.77 -4.5226 -4.49154 0
M  V30 12801 C 1221.46 -3.87499 -4.72534 0
M  V30 12802 C 1222.46 -4.84134 -4.81771 0
M  V30 12803 O 1222.14 -6.10719 -5.2276 0
M  V30 12804 H 1221.88 -0.240568 -0.631746 0
M  V30 12805 H 1224.43 -1.29926 -1.59086 0
M  V30 12806 H 1222.66 -0.134716 -3.86465 0
M  V30 12807 H 1224.35 -0.521533 -4.02536 0
M  V30 12808 H 1225.12 -2.99596 -3.81402 0
M  V30 12809 H 1220.99 -1.84116 -4.22637 0
M  V30 12810 H 1224.54 -5.27689 -4.56279 0
M  V30 12811 H 1220.44 -4.11305 -4.97492 0
M  V30 12812 H 1221.2 -6.14298 -5.40906 0
M  V30 12813 N 1223.87 1.39211 -0.738786 0
M  V30 12814 C 1225.28 1.54116 -0.414773 0
M  V30 12815 C 1225.48 1.70497 1.07392 0
M  V30 12816 O 1224.54 1.7076 1.86003 0
M  V30 12817 C 1225.85 2.7567 -1.2011 0
M  V30 12818 C 1227.4 2.89508 -1.1897 0
M  V30 12819 C 1227.87 4.14005 -1.95868 0
M  V30 12820 N 1229.37 4.21052 -1.93053 0
M  V30 12821 C 1230.1 5.16341 -2.49358 0
M  V30 12822 N 1229.6 6.17396 -3.14316 0
M  V30 12823 N 1231.39 5.08585 -2.3937 0
M  V30 12824 H 1223.54 1.26827 -1.70378 0
M  V30 12825 H 1225.8 0.614983 -0.721457 0
M  V30 12826 H 1225.51 2.69922 -2.25467 0
M  V30 12827 H 1225.38 3.68443 -0.808065 0
M  V30 12828 H 1227.77 2.94747 -0.144248 0
M  V30 12829 H 1227.85 1.97788 -1.62214 0
M  V30 12830 H 1227.5 4.09527 -3.00416 0
M  V30 12831 H 1227.43 5.04776 -1.50028 0
M  V30 12832 H 1229.92 3.48669 -1.45733 0
M  V30 12833 H 1230.23 6.86572 -3.54737 0
M  V30 12834 H 1228.57 6.17772 -3.18407 0
M  V30 12835 H 1231.77 4.28573 -1.88262 0
M  V30 12836 H 1231.94 5.8267 -2.83549 0
M  V30 12837 N 1225.34 0.486708 1.49896 0
M  V30 12838 C 1226.76 0.141788 1.58969 0
M  V30 12839 C 1226.96 -1.35279 1.49338 0
M  V30 12840 O 1226.02 -2.1275 1.35992 0
M  V30 12841 C 1227.33 0.70588 2.92297 0
M  V30 12842 C 1228.88 0.670704 3.0573 0
M  V30 12843 C 1229.35 1.21261 4.41656 0
M  V30 12844 N 1230.84 1.17269 4.4811 0
M  V30 12845 C 1231.58 1.56233 5.51705 0
M  V30 12846 N 1231.07 2.02721 6.62477 0
M  V30 12847 N 1232.87 1.47738 5.42337 0
M  V30 12848 H 1225.02 1.45858 1.544 0
M  V30 12849 H 1227.28 0.604137 0.730563 0
M  V30 12850 H 1226.99 1.7535 3.04869 0
M  V30 12851 H 1226.86 0.158215 3.76868 0
M  V30 12852 H 1229.25 -0.368041 2.92796 0
M  V30 12853 H 1229.33 1.25535 2.22878 0
M  V30 12854 H 1228.97 2.25006 4.5534 0
M  V30 12855 H 1228.9 0.604031 5.23124 0
M  V30 12856 H 1231.39 0.831905 3.6863 0
M  V30 12857 H 1231.71 2.3056 7.37606 0
M  V30 12858 H 1230.05 2.06686 6.63556 0
M  V30 12859 H 1233.24 1.11249 4.54688 0
M  V30 12860 H 1233.42 1.78429 6.2295 0
M  V30 12861 N 1226.82 -1.56058 0.219941 0
M  V30 12862 C 1227.73 -2.23844 -0.70222 0
M  V30 12863 C 1228.75 -1.24554 -1.215 0
M  V30 12864 O 1229.93 -1.57362 -1.25695 0
M  V30 12865 C 1226.99 -2.90384 -1.89416 0
M  V30 12866 C 1226.05 -4.05012 -1.42351 0
M  V30 12867 C 1225.28 -4.68369 -2.55863 0
M  V30 12868 O 1225.51 -4.3071 -3.73958 0
M  V30 12869 O 1224.44 -5.5739 -2.27157 0
M  V30 12870 H 1228.27 -3.03305 -0.15478 0
M  V30 12871 H 1225.85 -1.49396 -0.010438 0
M  V30 12872 H 1227.73 -3.32389 -2.59028 0
M  V30 12873 H 1226.41 -2.13883 -2.42973 0
M  V30 12874 H 1225.32 -3.67579 -0.695448 0
M  V30 12875 H 1226.65 -4.83251 -0.934332 0
M  V30 12876 N 1228.3 0.053464 -1.57509 0
M  V30 12877 C 1229.55 0.747622 -1.87763 0
M  V30 12878 C 1229.87 1.77178 -0.814433 0
M  V30 12879 O 1229.14 1.95287 0.154862 0
M  V30 12880 H 1227.72 0.279109 -0.692898 0
M  V30 12881 H 1230.38 0.0252006 -1.94884 0
M  V30 12882 H 1229.48 1.25244 -2.85868 0
M  V30 12883 N 1229.78 1.54207 0.325255 0
M  V30 12884 C 1231.19 1.63587 0.899793 0
M  V30 12885 C 1231.54 0.528851 1.88938 0
M  V30 12886 O 1230.67 -0.33852 2.13736 0
M  V30 12887 C 1231.26 2.9653 1.63877 0
M  V30 12888 C 1229.82 3.08111 2.16205 0
M  V30 12889 C 1228.97 2.59144 0.986903 0
M  V30 12890 H 1231.92 1.58366 0.102883 0
M  V30 12891 H 1231.94 2.86595 2.50287 0
M  V30 12892 H 1231.45 3.7708 0.918279 0
M  V30 12893 H 1229.55 2.32232 2.91375 0
M  V30 12894 H 1229.67 4.13885 2.41322 0
M  V30 12895 H 1228.03 2.14997 1.36558 0
M  V30 12896 H 1228.81 3.4215 0.28076 0
M  V30 12897 N 1231.26 -0.58723 1.46251 0
M  V30 12898 C 1232.67 -0.910129 1.31106 0
M  V30 12899 C 1232.87 -1.99557 0.279141 0
M  V30 12900 O 1231.93 -2.50466 -0.319867 0
M  V30 12901 C 1233.24 -1.33177 2.69601 0
M  V30 12902 C 1234.79 -1.44486 2.77656 0
M  V30 12903 C 1235.27 -1.90018 4.16722 0
M  V30 12904 N 1236.76 -1.97219 4.19117 0
M  V30 12905 C 1237.49 -2.33714 5.23608 0
M  V30 12906 N 1236.99 -2.69034 6.3843 0
M  V30 12907 N 1238.78 -2.3423 5.10972 0
M  V30 12908 H 1230.93 0.12987 2.12003 0
M  V30 12909 H 1233.19 -0.00456718 0.947989 0
M  V30 12910 H 1232.9 -0.608243 3.464 0
M  V30 12911 H 1232.77 -2.29421 2.99409 0
M  V30 12912 H 1235.16 -2.15926 2.01147 0
M  V30 12913 H 1235.24 -0.465047 2.51537 0
M  V30 12914 H 1234.89 -1.19159 4.93724 0
M  V30 12915 H 1234.82 -2.88949 4.40245 0
M  V30 12916 H 1237.31 -1.72431 3.36268 0
M  V30 12917 H 1237.62 -2.95822 7.13939 0
M  V30 12918 H 1235.97 -2.66683 6.41798 0
M  V30 12919 H 1239.16 -2.06056 4.20308 0
M  V30 12920 H 1239.33 -2.62345 5.92519 0
M  V30 12921 N 1232.74 -1.33881 -0.831482 0
M  V30 12922 C 1233.98 -1.25507 -1.58406 0
M  V30 12923 C 1234.3 0.177137 -1.94194 0
M  V30 12924 O 1233.57 1.10769 -1.61576 0
M  V30 12925 H 1232.15 -0.461551 -0.587349 0
M  V30 12926 H 1234.82 -1.6769 -0.99328 0
M  V30 12927 H 1233.91 -1.85391 -2.51071 0
M  V30 12928 N 1234.21 1.05064 -1.1747 0
M  V30 12929 C 1235.62 1.59547 -0.969628 0
M  V30 12930 C 1235.98 1.90153 0.483332 0
M  V30 12931 O 1235.1 1.68415 1.35887 0
M  V30 12932 C 1235.7 2.89877 -1.75377 0
M  V30 12933 C 1234.25 3.41013 -1.59332 0
M  V30 12934 C 1233.4 2.1473 -1.7546 0
M  V30 12935 H 1236.35 0.878595 -1.3216 0
M  V30 12936 H 1236.37 3.59834 -1.23691 0
M  V30 12937 H 1235.89 2.67569 -2.8112 0
M  V30 12938 H 1233.99 3.68355 -0.560827 0
M  V30 12939 H 1234.1 4.15512 -2.38509 0
M  V30 12940 H 1232.46 2.25553 -1.18313 0
M  V30 12941 H 1233.25 1.9489 -2.82618 0
M  V30 12942 N 1235.69 0.975146 1.23809 0
M  V30 12943 C 1236.64 0.482305 2.2284 0
M  V30 12944 C 1237.63 -0.439787 1.54773 0
M  V30 12945 O 1238.82 -0.269496 1.74936 0
M  V30 12946 C 1235.95 -0.219056 3.426 0
M  V30 12947 C 1235.03 0.722299 4.17904 0
M  V30 12948 N 1235.42 1.86271 4.70252 0
M  V30 12949 C 1233.72 0.53457 4.42785 0
M  V30 12950 C 1234.42 2.45212 5.2749 0
M  V30 12951 N 1233.4 1.73652 5.15117 0
M  V30 12952 H 1237.2 1.35234 2.60939 0
M  V30 12953 H 1234.71 0.835162 1.3928 0
M  V30 12954 H 1236.71 -0.589401 4.12713 0
M  V30 12955 H 1235.37 -1.08544 3.0602 0
M  V30 12956 H 1236.38 2.24404 4.66758 0
M  V30 12957 H 1233.06 -0.287232 4.16511 0
M  V30 12958 H 1234.45 3.41491 5.78648 0
M  V30 12959 N 1237.17 -1.38817 0.746158 0
M  V30 12960 C 1238.1 -2.33144 0.128836 0
M  V30 12961 C 1239.08 -1.54487 -0.711873 0
M  V30 12962 O 1240.27 -1.82836 -0.654577 0
M  V30 12963 C 1237.4 -3.38639 -0.770772 0
M  V30 12964 C 1236.35 -4.27987 -0.0333669 0
M  V30 12965 C 1235.68 -5.24274 -1.05073 0
M  V30 12966 C 1236.98 -5.09915 1.13066 0
M  V30 12967 H 1238.67 -2.85019 0.916778 0
M  V30 12968 H 1236.22 -1.37039 0.442306 0
M  V30 12969 H 1238.17 -4.03587 -1.21225 0
M  V30 12970 H 1236.89 -2.8523 -1.59095 0
M  V30 12971 H 1235.55 -3.64534 0.388612 0
M  V30 12972 H 1235.2 -4.67156 -1.86478 0
M  V30 12973 H 1234.9 -5.84906 -0.562037 0
M  V30 12974 H 1236.42 -5.92099 -1.49169 0
M  V30 12975 H 1237.84 -5.68145 0.767084 0
M  V30 12976 H 1236.23 -5.79744 1.54972 0
M  V30 12977 H 1237.3 -4.4409 1.94709 0
M  V30 12978 N 1238.65 -0.49465 -1.49636 0
M  V30 12979 C 1239.89 0.0521945 -2.02733 0
M  V30 12980 C 1240.23 1.3723 -1.37411 0
M  V30 12981 O 1239.5 1.87758 -0.507642 0
M  V30 12982 C 1239.78 0.2114 -3.59479 0
M  V30 12983 C 1239.64 -1.13138 -4.35339 0
M  V30 12984 C 1240.96 0.955015 -4.29613 0
M  V30 12985 H 1238.08 0.0174946 -0.736792 0
M  V30 12986 H 1240.72 -0.644827 -1.78723 0
M  V30 12987 H 1238.87 0.805078 -3.80067 0
M  V30 12988 H 1240.54 -1.76345 -4.26263 0
M  V30 12989 H 1238.78 -1.72224 -3.98147 0
M  V30 12990 H 1239.45 -0.97336 -5.4335 0
M  V30 12991 H 1241.93 0.451575 -4.13642 0
M  V30 12992 H 1240.81 1.03524 -5.39049 0
M  V30 12993 H 1241.07 1.99724 -3.94414 0
M  V30 12994 N 1240.13 1.55939 -0.228214 0
M  V30 12995 C 1241.37 1.98084 0.400884 0
M  V30 12996 C 1241.69 1.11727 1.59819 0
M  V30 12997 O 1240.96 0.195794 1.94919 0
M  V30 12998 H 1239.54 0.731558 0.151102 0
M  V30 12999 H 1242.21 1.92211 -0.322659 0
M  V30 13000 H 1241.3 3.03617 0.722706 0
M  V30 13001 N 1241.6 -0.0451101 1.57535 0
M  V30 13002 C 1243.02 -0.59372 1.77008 0
M  V30 13003 C 1243.37 -1.76482 0.857233 0
M  V30 13004 O 1242.49 -2.16347 0.0479703 0
M  V30 13005 C 1243.09 -1.08383 3.20996 0
M  V30 13006 C 1241.65 -1.57808 3.41721 0
M  V30 13007 C 1240.79 -0.509067 2.72587 0
M  V30 13008 H 1243.74 0.181114 1.57663 0
M  V30 13009 H 1243.76 -1.95181 3.26626 0
M  V30 13010 H 1243.28 -0.231276 3.8741 0
M  V30 13011 H 1241.38 -2.45302 2.8046 0
M  V30 13012 H 1241.49 -1.63664 4.50279 0
M  V30 13013 H 1239.85 -0.960389 2.359 0
M  V30 13014 H 1240.64 0.333753 3.41674 0
M  V30 13015 N 1243.08 -1.54377 -0.317073 0
M  V30 13016 C 1244.31 -1.77184 -1.07798 0
M  V30 13017 C 1244.73 -0.52204 -1.80711 0
M  V30 13018 O 1244.09 0.52672 -1.7348 0
M  V30 13019 C 1244.14 -2.96887 -2.04671 0
M  V30 13020 O 1243.24 -2.68887 -3.12688 0
M  V30 13021 H 1242.58 -0.586937 -0.310485 0
M  V30 13022 H 1245.11 -2.01419 -0.35939 0
M  V30 13023 H 1245.12 -3.24414 -2.47426 0
M  V30 13024 H 1243.8 -3.87518 -1.51005 0
M  V30 13025 H 1242.38 -2.52329 -2.74562 0
M  V30 13026 N 1244.56 0.579466 -1.4656 0
M  V30 13027 C 1245.98 0.903163 -1.31587 0
M  V30 13028 C 1246.18 1.99406 -0.28972 0
M  V30 13029 O 1245.23 2.50632 0.30658 0
M  V30 13030 C 1246.55 1.31745 -2.70303 0
M  V30 13031 C 1248.09 1.43012 -2.78418 0
M  V30 13032 C 1248.57 1.87805 -4.17724 0
M  V30 13033 N 1250.06 1.94993 -4.20157 0
M  V30 13034 C 1250.79 2.30934 -5.2484 0
M  V30 13035 N 1250.29 2.65645 -6.39847 0
M  V30 13036 N 1252.08 2.31517 -5.12207 0
M  V30 13037 H 1244.23 -0.141111 -2.11931 0
M  V30 13038 H 1246.5 -0.000460304 -0.948 0
M  V30 13039 H 1246.2 0.589864 -3.46718 0
M  V30 13040 H 1246.08 2.2783 -3.00622 0
M  V30 13041 H 1248.46 2.14856 -2.02289 0
M  V30 13042 H 1248.55 0.451701 -2.5178 0
M  V30 13043 H 1248.19 1.16539 -4.94349 0
M  V30 13044 H 1248.12 2.86611 -4.41771 0
M  V30 13045 H 1250.61 1.70645 -3.37178 0
M  V30 13046 H 1250.92 2.92032 -7.15498 0
M  V30 13047 H 1249.27 2.63276 -6.43204 0
M  V30 13048 H 1252.46 2.03824 -4.21394 0
M  V30 13049 H 1252.63 2.59199 -5.93902 0
M  V30 13050 N 1246.04 1.3432 0.824371 0
M  V30 13051 C 1247.28 1.27942 1.59405 0
M  V30 13052 C 1247.64 -0.148961 1.91421 0
M  V30 13053 O 1248.84 -0.336891 2.6668 0
M  V30 13054 C 1247.11 2.14393 2.85955 0
M  V30 13055 S 1248.67 2.25354 3.76512 0
M  V30 13056 H 1245.49 0.454953 0.546387 0
M  V30 13057 H 1248.09 1.69517 0.973873 0
M  V30 13058 H 1246.8 3.17182 2.60429 0
M  V30 13059 H 1246.33 1.7371 3.52971 0
M  V30 13060 H 1248.34 1.42526 4.7529 0
M  V30 13061 N 1247.52 -1.0444 1.18026 0
M  V30 13062 C 1248.45 -2.14297 0.927314 0
M  V30 13063 C 1249.43 -1.69575 -0.13357 0
M  V30 13064 O 1250.61 -1.94191 0.0182439 0
M  V30 13065 C 1247.74 -3.44397 0.448134 0
M  V30 13066 C 1246.7 -4.02723 1.44907 0
M  V30 13067 C 1246.02 -5.28257 0.827555 0
M  V30 13068 C 1247.32 -4.39331 2.82463 0
M  V30 13069 H 1249.02 -2.35715 1.84605 0
M  V30 13070 H 1246.56 -1.13281 0.889012 0
M  V30 13071 H 1248.52 -4.20606 0.258554 0
M  V30 13072 H 1247.24 -3.22654 -0.506159 0
M  V30 13073 H 1245.9 -3.28591 1.62552 0
M  V30 13074 H 1245.55 -5.02822 -0.13381 0
M  V30 13075 H 1245.25 -5.68242 1.49581 0
M  V30 13076 H 1246.77 -6.07147 0.64842 0
M  V30 13077 H 1248.18 -5.06543 2.68491 0
M  V30 13078 H 1246.58 -4.90355 3.45936 0
M  V30 13079 H 1247.65 -3.4933 3.36299 0
M  V30 13080 N 1248.99 -0.981699 -1.2329 0
M  V30 13081 C 1250.22 -0.669025 -1.96313 0
M  V30 13082 C 1250.64 0.757624 -1.72168 0
M  V30 13083 O 1250 1.51626 -0.993942 0
M  V30 13084 C 1250.05 -0.966875 -3.47396 0
M  V30 13085 O 1249.15 -0.0595933 -4.12357 0
M  V30 13086 H 1248.5 -0.251493 -0.61453 0
M  V30 13087 H 1251.03 -1.31564 -1.56691 0
M  V30 13088 H 1251.04 -0.904112 -3.97857 0
M  V30 13089 H 1249.71 -2.00651 -3.64296 0
M  V30 13090 H 1248.29 -0.176878 -3.7248 0
M  V30 13091 N 1250.47 1.3842 -0.753509 0
M  V30 13092 C 1251.42 2.27774 -0.101443 0
M  V30 13093 C 1252.41 1.45196 0.693322 0
M  V30 13094 O 1253.6 1.67931 0.55929 0
M  V30 13095 C 1250.73 3.34064 0.790977 0
M  V30 13096 C 1249.81 4.24099 -0.010633 0
M  V30 13097 N 1250.2 4.94845 -1.047 0
M  V30 13098 C 1248.5 4.45476 0.216193 0
M  V30 13099 C 1249.2 5.61164 -1.53199 0
M  V30 13100 N 1248.18 5.36956 -0.847304 0
M  V30 13101 H 1251.98 2.79935 -0.895188 0
M  V30 13102 H 1249.5 1.51321 -0.589545 0
M  V30 13103 H 1251.49 3.96965 1.27375 0
M  V30 13104 H 1250.15 2.83461 1.58367 0
M  V30 13105 H 1251.16 4.97801 -1.42879 0
M  V30 13106 H 1247.84 4.05781 0.982238 0
M  V30 13107 H 1249.23 6.27756 -2.39525 0
M  V30 13108 N 1251.95 0.502579 1.49372 0
M  V30 13109 C 1253.18 -0.0381429 2.06865 0
M  V30 13110 C 1253.59 -1.30674 1.36271 0
M  V30 13111 O 1252.95 -1.77078 0.441532 0
M  V30 13112 C 1253 -0.294068 3.60302 0
M  V30 13113 O 1252.72 0.924244 4.2824 0
M  V30 13114 C 1254.22 -0.878253 4.34513 0
M  V30 13115 H 1251.44 0.0211756 0.670666 0
M  V30 13116 H 1253.99 0.700387 1.92132 0
M  V30 13117 H 1252.14 -0.982583 3.74732 0
M  V30 13118 H 1252.56 0.688062 5.19967 0
M  V30 13119 H 1254.03 -1.0069 5.42739 0
M  V30 13120 H 1254.51 -1.87643 3.97098 0
M  V30 13121 H 1255.11 -0.227157 4.24693 0
M  V30 13122 N 1253.43 -1.55816 0.23648 0
M  V30 13123 C 1254.71 -1.90565 -0.440933 0
M  V30 13124 C 1255.09 -1.15585 -1.76645 0
M  V30 13125 O 1254.43 -0.269949 -2.269 0
M  V30 13126 C 1254.64 -3.43462 -0.61925 0
M  V30 13127 C 1255.99 -4.14516 -0.91989 0
M  V30 13128 O 1257.02 -3.49144 -0.705496 0
M  V30 13129 O 1255.87 -5.3013 -1.32759 0
M  V30 13130 H 1252.97 -0.79285 -0.235199 0
M  V30 13131 H 1255.51 -1.67378 0.279774 0
M  V30 13132 H 1254.29 -3.90029 0.315124 0
M  V30 13133 H 1253.91 -3.72478 -1.39089 0
M  V30 13134 N 1254.91 0.036755 -1.57557 0
M  V30 13135 C 1256.15 0.729106 -1.88919 0
M  V30 13136 C 1256.48 1.75769 -0.832801 0
M  V30 13137 O 1255.74 1.94985 0.167173 0
M  V30 13138 C 1256.04 1.44206 -3.27016 0
M  V30 13139 C 1255.7 0.550184 -4.47531 0
M  V30 13140 C 1254.36 0.304511 -4.80236 0
M  V30 13141 C 1256.72 -0.0660664 -5.21158 0
M  V30 13142 C 1254.04 -0.566316 -5.8396 0
M  V30 13143 C 1256.4 -0.92455 -6.25807 0
M  V30 13144 C 1255.06 -1.17976 -6.56992 0
M  V30 13145 H 1254.33 0.266799 -0.691303 0
M  V30 13146 H 1256.98 -0.0108698 -1.91497 0
M  V30 13147 H 1255.28 2.25516 -3.2039 0
M  V30 13148 H 1256.98 1.98317 -3.48527 0
M  V30 13149 H 1253.57 0.751814 -4.21955 0
M  V30 13150 H 1257.75 0.110784 -4.96176 0
M  V30 13151 H 1253.01 -0.772428 -6.06501 0
M  V30 13152 H 1257.18 -1.40861 -6.82005 0
M  V30 13153 H 1254.81 -1.85627 -7.37188 0
M  V30 13154 N 1256.39 1.54543 0.308881 0
M  V30 13155 C 1257.63 1.73706 1.04661 0
M  V30 13156 C 1257.96 0.517111 1.87189 0
M  V30 13157 O 1257.24 -0.485856 1.88334 0
M  V30 13158 C 1257.52 3.02141 1.95916 0
M  V30 13159 C 1257.38 4.34419 1.1662 0
M  V30 13160 C 1258.69 3.26401 2.95213 0
M  V30 13161 H 1255.81 0.63203 0.379087 0
M  V30 13162 H 1258.46 1.87253 0.321947 0
M  V30 13163 H 1256.61 2.90723 2.57706 0
M  V30 13164 H 1258.28 4.57743 0.571772 0
M  V30 13165 H 1256.52 4.3126 0.468747 0
M  V30 13166 H 1257.19 5.20535 1.83704 0
M  V30 13167 H 1259.67 3.37377 2.43549 0
M  V30 13168 H 1258.54 4.17597 3.56235 0
M  V30 13169 H 1258.8 2.44322 3.68455 0
M  V30 13170 N 1257.86 -0.571685 1.46866 0
M  V30 13171 C 1259.27 -1.15383 1.46778 0
M  V30 13172 C 1259.63 -1.95023 0.214576 0
M  V30 13173 O 1258.75 -2.05386 -0.681574 0
M  V30 13174 C 1259.35 -2.09915 2.65935 0
M  V30 13175 C 1257.9 -2.6343 2.68852 0
M  V30 13176 C 1257.05 -1.39517 2.39646 0
M  V30 13177 H 1260 -0.359036 1.54585 0
M  V30 13178 H 1260.02 -2.9356 2.42081 0
M  V30 13179 H 1259.54 -1.51923 3.57129 0
M  V30 13180 H 1257.64 -3.2526 1.8176 0
M  V30 13181 H 1257.75 -3.05412 3.69134 0
M  V30 13182 H 1256.11 -1.69702 1.8993 0
M  V30 13183 H 1256.9 -0.833399 3.33031 0
M  V30 13184 N 1259.34 -1.34755 -0.817236 0
M  V30 13185 C 1260.58 -1.28786 -1.58725 0
M  V30 13186 C 1260.95 0.138807 -1.91498 0
M  V30 13187 O 1262.15 0.322743 -2.66855 0
M  V30 13188 C 1260.42 -2.15907 -2.84814 0
M  V30 13189 S 1261.98 -2.27347 -3.75311 0
M  V30 13190 H 1258.79 -0.457844 -0.543967 0
M  V30 13191 H 1261.4 -1.70031 -0.96487 0
M  V30 13192 H 1260.1 -3.18559 -2.58744 0
M  V30 13193 H 1259.63 -1.7558 -3.52044 0
M  V30 13194 H 1261.65 -1.45044 -4.74528 0
M  V30 13195 N 1260.82 1.03812 -1.18578 0
M  V30 13196 C 1262.23 1.58509 -0.986496 0
M  V30 13197 C 1262.58 1.90655 0.463136 0
M  V30 13198 O 1261.71 1.69847 1.34093 0
M  V30 13199 C 1262.3 2.88 -1.78441 0
M  V30 13200 C 1260.86 3.39304 -1.6294 0
M  V30 13201 C 1260.01 2.12857 -1.77727 0
M  V30 13202 H 1262.96 0.864528 -1.33085 0
M  V30 13203 H 1262.98 3.58502 -1.27501 0
M  V30 13204 H 1262.49 2.64572 -2.83942 0
M  V30 13205 H 1260.59 3.6774 -0.599864 0
M  V30 13206 H 1260.71 4.12959 -2.42902 0
M  V30 13207 H 1259.07 2.24285 -1.20699 0
M  V30 13208 H 1259.85 1.91882 -2.84669 0
M  V30 13209 N 1262.3 0.988223 1.22768 0
M  V30 13210 C 1263.54 0.662441 1.91676 0
M  V30 13211 C 1263.88 -0.802931 1.76824 0
M  V30 13212 O 1263.15 -1.58011 1.13415 0
M  V30 13213 C 1263.43 1.06332 3.44043 0
M  V30 13214 C 1263.29 2.5869 3.67967 0
M  V30 13215 C 1264.61 0.613058 4.35809 0
M  V30 13216 H 1261.73 0.242132 0.69609 0
M  V30 13217 H 1264.37 1.23091 1.44736 0
M  V30 13218 H 1262.52 0.579623 3.84152 0
M  V30 13219 H 1264.19 3.14694 3.37291 0
M  V30 13220 H 1262.43 3.00971 3.12408 0
M  V30 13221 H 1263.1 2.8179 4.74656 0
M  V30 13222 H 1265.58 1.02846 4.0319 0
M  V30 13223 H 1264.46 0.921901 5.41103 0
M  V30 13224 H 1264.72 -0.48641 4.39416 0
M  V30 13225 N 1263.78 -1.38018 0.760839 0
M  V30 13226 C 1265.05 -1.94054 0.245437 0
M  V30 13227 C 1265.43 -1.6955 -1.25761 0
M  V30 13228 O 1264.78 -1.03812 -2.03557 0
M  V30 13229 C 1264.99 -3.43681 0.606986 0
M  V30 13230 C 1266.34 -4.20748 0.570673 0
M  V30 13231 O 1267.36 -3.51995 0.545715 0
M  V30 13232 O 1266.22 -5.43327 0.588043 0
M  V30 13233 H 1263.32 -0.825264 0.0535607 0
M  V30 13234 H 1265.86 -1.47369 0.841453 0
M  V30 13235 H 1264.63 -3.55054 1.64476 0
M  V30 13236 H 1264.26 -3.97597 -0.0166576 0
M  V30 13237 N 1265.25 -0.510493 -1.49103 0
M  V30 13238 C 1266.48 0.0271718 -2.06882 0
M  V30 13239 C 1266.9 1.2995 -1.36962 0
M  V30 13240 O 1266.25 1.76842 -0.450916 0
M  V30 13241 C 1266.3 0.274956 -3.60453 0
M  V30 13242 O 1266.03 -0.946941 -4.27744 0
M  V30 13243 C 1267.53 0.855197 -4.34973 0
M  V30 13244 H 1264.75 -0.024732 -0.670544 0
M  V30 13245 H 1267.29 -0.710567 -1.91758 0
M  V30 13246 H 1265.45 0.962696 -3.75248 0
M  V30 13247 H 1265.86 -0.715627 -5.19595 0
M  V30 13248 H 1267.33 0.978103 -5.43265 0
M  V30 13249 H 1267.81 1.85535 -3.98087 0
M  V30 13250 H 1268.42 0.204632 -4.24807 0
M  V30 13251 N 1266.73 1.55688 -0.24474 0
M  V30 13252 C 1267.98 1.99186 0.381167 0
M  V30 13253 C 1268.31 1.13266 1.57748 0
M  V30 13254 O 1267.59 0.195568 1.93514 0
M  V30 13255 C 1267.87 3.51257 0.793142 0
M  V30 13256 C 1267.72 4.47942 -0.408409 0
M  V30 13257 C 1269.04 4.08365 1.64091 0
M  V30 13258 H 1266.16 0.724141 0.137073 0
M  V30 13259 H 1268.8 1.8683 -0.345619 0
M  V30 13260 H 1266.95 3.61917 1.4124 0
M  V30 13261 H 1268.62 4.49265 -1.04682 0
M  V30 13262 H 1266.87 4.20854 -1.05189 0
M  V30 13263 H 1267.54 5.51946 -0.0768531 0
M  V30 13264 H 1270.01 4.00794 1.1182 0
M  V30 13265 H 1268.89 5.1504 1.89802 0
M  V30 13266 H 1269.15 3.56687 2.61202 0
M  V30 13267 N 1268.21 -0.0283989 1.57574 0
M  V30 13268 C 1269.14 -1.05641 2.03403 0
M  V30 13269 C 1270.15 -1.32426 0.946953 0
M  V30 13270 O 1271.34 -1.29902 1.22425 0
M  V30 13271 C 1268.44 -2.39788 2.39489 0
M  V30 13272 C 1267.62 -2.32348 3.70585 0
M  V30 13273 C 1266.68 -3.4895 3.93853 0
M  V30 13274 O 1265.7 -3.28414 4.64901 0
M  V30 13275 N 1266.9 -4.7084 3.39543 0
M  V30 13276 H 1269.67 -0.665788 2.92211 0
M  V30 13277 H 1267.23 -0.21633 1.60448 0
M  V30 13278 H 1269.22 -3.16514 2.52193 0
M  V30 13279 H 1267.79 -2.70692 1.56348 0
M  V30 13280 H 1267.01 -1.40717 3.68229 0
M  V30 13281 H 1268.3 -2.24521 4.56582 0
M  V30 13282 H 1267.7 -4.90425 2.81956 0
M  V30 13283 H 1266.25 -5.44929 3.57625 0
M  V30 13284 N 1269.69 -1.54705 -0.300681 0
M  V30 13285 C 1270.94 -1.73211 -1.03349 0
M  V30 13286 C 1271.25 -0.52518 -1.88418 0
M  V30 13287 O 1272.46 -0.592049 -2.64966 0
M  V30 13288 C 1270.91 -3.06453 -1.88717 0
M  V30 13289 C 1270.52 -4.34625 -1.0865 0
M  V30 13290 C 1272.26 -3.34317 -2.61595 0
M  V30 13291 C 1270.17 -5.58919 -1.93297 0
M  V30 13292 H 1269.1 -0.64556 -0.389574 0
M  V30 13293 H 1271.75 -1.81186 -0.290472 0
M  V30 13294 H 1270.13 -2.92443 -2.67008 0
M  V30 13295 H 1271.31 -4.59471 -0.349707 0
M  V30 13296 H 1269.62 -4.13699 -0.473521 0
M  V30 13297 H 1272.22 -4.2438 -3.25278 0
M  V30 13298 H 1272.56 -2.53207 -3.30442 0
M  V30 13299 H 1273.1 -3.493 -1.90354 0
M  V30 13300 H 1269.83 -6.42697 -1.2892 0
M  V30 13301 H 1269.35 -5.38258 -2.64647 0
M  V30 13302 H 1271.03 -5.96187 -2.51336 0
M  V30 13303 N 1271.17 0.563888 -1.47167 0
M  V30 13304 C 1272.41 1.32331 -1.53676 0
M  V30 13305 C 1272.75 1.93213 -0.195593 0
M  V30 13306 O 1272.02 1.77508 0.795068 0
M  V30 13307 C 1272.3 2.43848 -2.64972 0
M  V30 13308 C 1272.16 1.8788 -4.08682 0
M  V30 13309 C 1273.48 3.45809 -2.72221 0
M  V30 13310 H 1270.59 0.479791 -0.559437 0
M  V30 13311 H 1273.24 0.631669 -1.79192 0
M  V30 13312 H 1271.39 3.02846 -2.43345 0
M  V30 13313 H 1273.06 1.33195 -4.41652 0
M  V30 13314 H 1271.3 1.18593 -4.17275 0
M  V30 13315 H 1271.97 2.68465 -4.82318 0
M  V30 13316 H 1274.45 2.9672 -2.91713 0
M  V30 13317 H 1273.32 4.21272 -3.51882 0
M  V30 13318 H 1273.59 4.04236 -1.79014 0
M  V30 13319 N 1272.64 1.35187 0.810078 0
M  V30 13320 C 1273.57 1.30481 1.93641 0
M  V30 13321 C 1274.56 0.179875 1.69146 0
M  V30 13322 O 1275.74 0.374284 1.90559 0
M  V30 13323 C 1272.87 1.07251 3.30325 0
M  V30 13324 C 1271.82 2.16348 3.69293 0
M  V30 13325 C 1271.15 1.78288 5.04101 0
M  V30 13326 C 1272.45 3.58285 3.80038 0
M  V30 13327 H 1274.14 2.24725 1.97836 0
M  V30 13328 H 1271.69 1.08179 0.950436 0
M  V30 13329 H 1273.64 1.02599 4.08719 0
M  V30 13330 H 1272.37 0.0945203 3.26463 0
M  V30 13331 H 1271.03 2.2009 2.93182 0
M  V30 13332 H 1270.67 0.791163 4.96739 0
M  V30 13333 H 1270.37 2.51315 5.31144 0
M  V30 13334 H 1271.9 1.75155 5.84938 0
M  V30 13335 H 1273.31 3.56884 4.48672 0
M  V30 13336 H 1271.71 4.30044 4.18548 0
M  V30 13337 H 1272.78 3.94691 2.81685 0
M  V30 13338 N 1274.12 -1.03182 1.19127 0
M  V30 13339 C 1275.53 -1.57984 0.994888 0
M  V30 13340 C 1275.88 -1.90898 -0.453019 0
M  V30 13341 O 1275.01 -1.70556 -1.33191 0
M  V30 13342 C 1275.6 -2.8705 1.79966 0
M  V30 13343 C 1274.16 -3.38435 1.64737 0
M  V30 13344 C 1273.31 -2.11912 1.78854 0
M  V30 13345 H 1276.26 -0.857458 1.33542 0
M  V30 13346 H 1276.28 -3.57821 1.294 0
M  V30 13347 H 1275.79 -2.63062 2.85341 0
M  V30 13348 H 1273.9 -3.67416 0.619358 0
M  V30 13349 H 1274.01 -4.11665 2.45089 0
M  V30 13350 H 1272.37 -2.23642 1.21886 0
M  V30 13351 H 1273.16 -1.90369 2.85682 0
M  V30 13352 N 1275.6 -0.99472 -1.22242 0
M  V30 13353 C 1277.01 -0.706456 -1.72818 0
M  V30 13354 C 1277.36 0.776566 -1.80177 0
M  V30 13355 O 1276.49 1.60698 -1.44931 0
M  V30 13356 C 1277.08 -1.27571 -3.13865 0
M  V30 13357 C 1275.64 -1.03679 -3.61839 0
M  V30 13358 C 1274.79 -1.3948 -2.39668 0
M  V30 13359 H 1277.74 -1.16687 -1.07564 0
M  V30 13360 H 1277.76 -0.655202 -3.74816 0
M  V30 13361 H 1277.27 -2.35508 -3.08476 0
M  V30 13362 H 1275.37 0.0258679 -3.72591 0
M  V30 13363 H 1275.49 -1.70145 -4.4787 0
M  V30 13364 H 1273.85 -0.813418 -2.41362 0
M  V30 13365 H 1274.63 -2.48425 -2.36939 0
M  V30 13366 N 1277.08 1.37613 -0.768148 0
M  V30 13367 C 1278.03 2.27654 -0.125596 0
M  V30 13368 C 1279.01 1.45923 0.677883 0
M  V30 13369 O 1280.2 1.68515 0.541448 0
M  V30 13370 C 1277.33 3.34884 0.7555 0
M  V30 13371 C 1276.42 4.24064 -0.0556137 0
M  V30 13372 N 1276.81 4.93707 -1.09943 0
M  V30 13373 C 1275.11 4.4568 0.168932 0
M  V30 13374 C 1275.81 5.59508 -1.59142 0
M  V30 13375 N 1274.79 5.36027 -0.904208 0
M  V30 13376 H 1278.59 2.7897 -0.924828 0
M  V30 13377 H 1276.1 1.50687 -0.605561 0
M  V30 13378 H 1278.1 3.98294 1.23157 0
M  V30 13379 H 1276.76 2.85124 1.55352 0
M  V30 13380 H 1277.77 4.96258 -1.48151 0
M  V30 13381 H 1274.45 4.068 0.939144 0
M  V30 13382 H 1275.84 6.2518 -2.4617 0
M  V30 13383 N 1278.56 0.518393 1.4883 0
M  V30 13384 C 1279.49 -0.239685 2.32267 0
M  V30 13385 C 1280.47 -0.94613 1.41359 0
M  V30 13386 O 1281.65 -0.934162 1.70256 0
M  V30 13387 C 1278.78 -1.29411 3.22289 0
M  V30 13388 C 1277.74 -0.706504 4.22129 0
M  V30 13389 C 1277.06 -1.86273 5.01205 0
M  V30 13390 C 1278.36 0.314079 5.21355 0
M  V30 13391 H 1280.06 0.4568 2.95895 0
M  V30 13392 H 1277.6 0.221126 1.42292 0
M  V30 13393 H 1279.56 -1.8323 3.7948 0
M  V30 13394 H 1278.28 -2.02001 2.56638 0
M  V30 13395 H 1276.94 -0.189924 3.66108 0
M  V30 13396 H 1276.59 -2.57674 4.31988 0
M  V30 13397 H 1276.29 -1.47554 5.68772 0
M  V30 13398 H 1277.81 -2.40492 5.61245 0
M  V30 13399 H 1279.22 -0.136604 5.73137 0
M  V30 13400 H 1277.62 0.618026 5.96909 0
M  V30 13401 H 1278.69 1.22394 4.69199 0
M  V30 13402 N 1280.03 -1.55556 0.252993 0
M  V30 13403 C 1280.94 -2.25283 -0.654581 0
M  V30 13404 C 1281.96 -1.27103 -1.18831 0
M  V30 13405 O 1283.14 -1.59993 -1.22329 0
M  V30 13406 C 1280.2 -2.94336 -1.83214 0
M  V30 13407 C 1279.26 -4.0794 -1.33728 0
M  V30 13408 C 1278.5 -4.73691 -2.45871 0
M  V30 13409 O 1278.72 -4.38545 -3.64738 0
M  V30 13410 O 1277.65 -5.62083 -2.15283 0
M  V30 13411 H 1281.48 -3.03565 -0.0904091 0
M  V30 13412 H 1279.06 -1.49385 0.0212535 0
M  V30 13413 H 1280.95 -3.37808 -2.5192 0
M  V30 13414 H 1279.62 -2.18989 -2.38381 0
M  V30 13415 H 1278.53 -3.68971 -0.617323 0
M  V30 13416 H 1279.86 -4.85124 -0.831617 0
M  V30 13417 N 1281.51 0.0200419 -1.57587 0
M  V30 13418 C 1282.93 0.375834 -1.55112 0
M  V30 13419 C 1283.13 1.76047 -0.980297 0
M  V30 13420 O 1282.18 2.45138 -0.605297 0
M  V30 13421 C 1283.5 0.269418 -2.99491 0
M  V30 13422 C 1285.05 0.345838 -3.11084 0
M  V30 13423 C 1285.52 0.268771 -4.57211 0
M  V30 13424 N 1287.01 0.32729 -4.62042 0
M  V30 13425 C 1287.75 0.290688 -5.72663 0
M  V30 13426 N 1287.24 0.205851 -6.92494 0
M  V30 13427 N 1289.04 0.341082 -5.61064 0
M  V30 13428 H 1281.19 -0.885979 -1.93039 0
M  V30 13429 H 1283.45 -0.337753 -0.885792 0
M  V30 13430 H 1283.16 -0.682452 -3.45015 0
M  V30 13431 H 1283.03 1.0595 -3.62014 0
M  V30 13432 H 1285.42 1.28814 -2.65501 0
M  V30 13433 H 1285.5 -0.47376 -2.51375 0
M  V30 13434 H 1285.14 -0.669906 -5.03463 0
M  V30 13435 H 1285.07 1.10659 -5.14842 0
M  V30 13436 H 1287.56 0.395004 -3.7583 0
M  V30 13437 H 1287.88 0.18327 -7.72583 0
M  V30 13438 H 1286.22 0.171768 -6.94788 0
M  V30 13439 H 1289.41 0.405415 -4.66341 0
M  V30 13440 H 1289.58 0.309091 -6.47262 0
M  V30 13441 N 1282.99 1.54862 0.292472 0
M  V30 13442 C 1284.24 1.73756 1.02429 0
M  V30 13443 C 1284.55 0.535164 1.88137 0
M  V30 13444 O 1285.76 0.606092 2.64648 0
M  V30 13445 C 1284.21 3.0745 1.8709 0
M  V30 13446 C 1283.82 4.35195 1.06343 0
M  V30 13447 C 1285.57 3.357 2.59819 0
M  V30 13448 C 1283.47 5.59936 1.9033 0
M  V30 13449 H 1282.4 0.647617 0.386145 0
M  V30 13450 H 1285.05 1.81338 0.28086 0
M  V30 13451 H 1283.44 2.93855 2.65453 0
M  V30 13452 H 1284.61 4.5965 0.325335 0
M  V30 13453 H 1282.93 4.13944 0.451574 0
M  V30 13454 H 1285.52 4.26099 3.23023 0
M  V30 13455 H 1285.87 2.54956 3.29094 0
M  V30 13456 H 1286.4 3.50304 1.88499 0
M  V30 13457 H 1283.14 6.43372 1.25509 0
M  V30 13458 H 1282.66 5.39654 2.61789 0
M  V30 13459 H 1284.34 5.97512 2.48171 0
M  V30 13460 N 1284.47 -0.556076 1.47464 0
M  V30 13461 C 1285.88 -0.882115 1.33007 0
M  V30 13462 C 1286.08 -1.9892 0.321407 0
M  V30 13463 O 1285.14 -2.51088 -0.266668 0
M  V30 13464 C 1286.45 -1.27428 2.72365 0
M  V30 13465 C 1288 -1.38564 2.80658 0
M  V30 13466 C 1288.48 -1.81136 4.20659 0
M  V30 13467 N 1289.97 -1.88284 4.23206 0
M  V30 13468 C 1290.7 -2.22555 5.28447 0
M  V30 13469 N 1290.2 -2.55432 6.43993 0
M  V30 13470 N 1291.99 -2.23339 5.15826 0
M  V30 13471 H 1284.14 0.17481 2.11679 0
M  V30 13472 H 1286.41 0.0155421 0.947873 0
M  V30 13473 H 1286.11 -0.53463 3.47613 0
M  V30 13474 H 1285.99 -2.23019 3.04208 0
M  V30 13475 H 1288.37 -2.1161 2.05682 0
M  V30 13476 H 1288.45 -0.411588 2.52467 0
M  V30 13477 H 1288.1 -1.08659 4.96141 0
M  V30 13478 H 1288.03 -2.79546 4.46275 0
M  V30 13479 H 1290.52 -1.65259 3.3985 0
M  V30 13480 H 1290.83 -2.80612 7.20053 0
M  V30 13481 H 1289.18 -2.5301 6.47311 0
M  V30 13482 H 1292.37 -1.97094 4.24584 0
M  V30 13483 H 1292.54 -2.49717 5.97951 0
M  V30 13484 N 1285.95 -1.35615 -0.802897 0
M  V30 13485 C 1286.86 -1.3096 -1.94645 0
M  V30 13486 C 1287.87 -0.213909 -1.7268 0
M  V30 13487 O 1289.05 -0.443932 -1.96446 0
M  V30 13488 C 1286.11 -1.08483 -3.2929 0
M  V30 13489 C 1285.18 -2.27401 -3.64126 0
M  V30 13490 C 1284.41 -2.05987 -4.92347 0
M  V30 13491 O 1284.63 -1.02819 -5.61057 0
M  V30 13492 O 1283.57 -2.93439 -5.25526 0
M  V30 13493 H 1287.39 -2.27209 -2.01519 0
M  V30 13494 H 1284.98 -1.16024 -0.941214 0
M  V30 13495 H 1286.86 -0.978118 -4.09891 0
M  V30 13496 H 1285.53 -0.152885 -3.23339 0
M  V30 13497 H 1284.44 -2.43638 -2.83886 0
M  V30 13498 H 1285.77 -3.19055 -3.74786 0
M  V30 13499 N 1287.43 1.02549 -1.19673 0
M  V30 13500 C 1288.37 2.109 -0.937536 0
M  V30 13501 C 1289.34 1.65599 0.128923 0
M  V30 13502 O 1290.53 1.90795 -0.0139366 0
M  V30 13503 C 1287.67 3.4166 -0.48602 0
M  V30 13504 C 1286.78 4.0049 -1.61963 0
M  V30 13505 C 1285.92 5.19273 -1.11931 0
M  V30 13506 C 1284.95 5.70166 -2.22659 0
M  V30 13507 N 1284.09 6.80221 -1.73909 0
M  V30 13508 H 1288.93 2.32408 -1.86523 0
M  V30 13509 H 1286.47 1.13982 -0.929869 0
M  V30 13510 H 1288.43 4.16693 -0.205614 0
M  V30 13511 H 1287.06 3.20253 0.404678 0
M  V30 13512 H 1286.11 3.22638 -2.01516 0
M  V30 13513 H 1287.42 4.34273 -2.45374 0
M  V30 13514 H 1286.57 6.01478 -0.794336 0
M  V30 13515 H 1285.31 4.87033 -0.254972 0
M  V30 13516 H 1284.32 4.86572 -2.55983 0
M  V30 13517 H 1285.54 6.04444 -3.09554 0
M  V30 13518 H 1283.49 6.49826 -0.897889 0
M  V30 13519 H 1283.41 7.13149 -2.50907 0
M  V30 13520 H 1284.67 7.66011 -1.44386 0
M  V30 13521 N 1288.9 1.00119 1.21713 0
M  V30 13522 C 1289.83 0.578504 2.2622 0
M  V30 13523 C 1290.81 -0.398777 1.6536 0
M  V30 13524 O 1292 -0.287596 1.92059 0
M  V30 13525 C 1289.13 -0.0994508 3.47158 0
M  V30 13526 C 1288.08 0.79722 4.2051 0
M  V30 13527 C 1287.41 -0.0141125 5.34698 0
M  V30 13528 C 1288.71 2.09802 4.7831 0
M  V30 13529 H 1290.4 1.45208 2.6183 0
M  V30 13530 H 1287.95 0.699656 1.2586 0
M  V30 13531 H 1289.9 -0.406605 4.19434 0
M  V30 13532 H 1288.63 -1.00763 3.10667 0
M  V30 13533 H 1287.29 1.08814 3.50079 0
M  V30 13534 H 1286.93 -0.923468 4.9445 0
M  V30 13535 H 1286.63 0.582883 5.84702 0
M  V30 13536 H 1288.16 -0.31517 6.09786 0
M  V30 13537 H 1289.57 1.85427 5.42485 0
M  V30 13538 H 1287.97 2.64455 5.38687 0
M  V30 13539 H 1289.04 2.77132 3.97902 0
M  V30 13540 N 1290.38 -1.37203 0.775435 0
M  V30 13541 C 1291.34 -2.28566 0.170406 0
M  V30 13542 C 1292.34 -1.48195 -0.624085 0
M  V30 13543 O 1293.53 -1.68364 -0.447132 0
M  V30 13544 C 1290.67 -3.32186 -0.765829 0
M  V30 13545 H 1291.86 -2.8358 0.975824 0
M  V30 13546 H 1289.41 -1.46531 0.543895 0
M  V30 13547 H 1290.15 -2.82303 -1.59611 0
M  V30 13548 H 1289.93 -3.91598 -0.198251 0
M  V30 13549 H 1291.42 -4.0045 -1.18446 0
M  V30 13550 N 1291.86 -0.526279 -1.48553 0
M  V30 13551 C 1292.77 0.24244 -2.33344 0
M  V30 13552 C 1293.79 0.942658 -1.46253 0
M  V30 13553 O 1294.96 0.91844 -1.79239 0
M  V30 13554 C 1292.03 1.27801 -3.22285 0
M  V30 13555 C 1291.09 0.588543 -4.25247 0
M  V30 13556 C 1290.32 1.57478 -5.09938 0
M  V30 13557 O 1290.54 2.80707 -4.96548 0
M  V30 13558 O 1289.48 1.11621 -5.9146 0
M  V30 13559 H 1293.3 -0.452262 -3.00314 0
M  V30 13560 H 1290.89 -0.287249 -1.46613 0
M  V30 13561 H 1292.77 1.87656 -3.7731 0
M  V30 13562 H 1291.45 1.95519 -2.57981 0
M  V30 13563 H 1290.35 -0.0504022 -3.74066 0
M  V30 13564 H 1291.69 -0.046627 -4.92178 0
M  V30 13565 N 1293.34 1.5542 -0.261239 0
M  V30 13566 C 1294.29 2.23382 0.648324 0
M  V30 13567 C 1295.28 1.22615 1.16884 0
M  V30 13568 O 1296.49 1.40587 1.12407 0
M  V30 13569 H 1292.86 0.716733 0.227592 0
M  V30 13570 H 1294.83 2.98354 0.0521289 0
M  V30 13571 C 1293.58 2.9579 1.82766 0
M  V30 13572 H 1292.9 3.73109 1.4363 0
M  V30 13573 H 1294.34 3.46686 2.441 0
M  V30 13574 C 1292.8 2.00472 2.70763 0
M  V30 13575 O 1293.33 1.54698 3.70717 0
M  V30 13576 N 1291.54 1.67267 2.37635 0
M  V30 13577 H 1291.09 2.04685 1.56402 0
M  V30 13578 H 1291.04 1.03759 2.96785 0
M  V30 13579 N 1294.82 -0.0116844 1.57596 0
M  V30 13580 C 1296.06 -0.698089 1.89234 0
M  V30 13581 C 1296.38 -1.75581 0.862016 0
M  V30 13582 O 1297.58 -2.49602 1.06822 0
M  V30 13583 C 1296.04 -1.29277 3.3588 0
M  V30 13584 C 1295.65 -0.27049 4.47183 0
M  V30 13585 C 1297.39 -1.95805 3.76644 0
M  V30 13586 C 1295.3 -0.874502 5.84899 0
M  V30 13587 H 1294.23 -0.264495 0.706087 0
M  V30 13588 H 1296.88 0.0469451 1.8344 0
M  V30 13589 H 1295.26 -2.08809 3.36474 0
M  V30 13590 H 1296.44 0.499381 4.58086 0
M  V30 13591 H 1294.75 0.293676 4.15363 0
M  V30 13592 H 1297.35 -2.41879 4.76863 0
M  V30 13593 H 1297.69 -2.78366 3.09545 0
M  V30 13594 H 1298.22 -1.23023 3.78299 0
M  V30 13595 H 1294.96 -0.0879263 6.55441 0
M  V30 13596 H 1294.48 -1.61381 5.77682 0
M  V30 13597 H 1296.16 -1.37665 6.32185 0
M  V30 13598 N 1296.29 -1.55015 -0.284256 0
M  V30 13599 C 1297.24 -1.83508 -1.3531 0
M  V30 13600 C 1298.23 -0.693244 -1.452 0
M  V30 13601 O 1299.42 -0.954312 -1.4907 0
M  V30 13602 C 1296.55 -2.10059 -2.71533 0
M  V30 13603 C 1295.63 -3.30472 -2.65799 0
M  V30 13604 N 1296.03 -4.50644 -2.29682 0
M  V30 13605 C 1294.32 -3.32836 -2.96878 0
M  V30 13606 C 1295.02 -5.32708 -2.33661 0
M  V30 13607 N 1294 -4.70837 -2.71687 0
M  V30 13608 H 1297.8 -2.73973 -1.06377 0
M  V30 13609 H 1295.32 -1.5474 -0.492875 0
M  V30 13610 H 1297.31 -2.28624 -3.48621 0
M  V30 13611 H 1295.97 -1.20872 -3.01364 0
M  V30 13612 H 1296.98 -4.76945 -2.0185 0
M  V30 13613 H 1293.66 -2.53807 -3.31494 0
M  V30 13614 H 1295.05 -6.38766 -2.08394 0
M  V30 13615 N 1297.77 0.548248 -1.47757 0
M  V30 13616 C 1298.68 1.68178 -1.63565 0
M  V30 13617 C 1299.7 1.661 -0.518351 0
M  V30 13618 O 1300.87 1.85384 -0.787061 0
M  V30 13619 C 1297.94 3.04673 -1.65454 0
M  V30 13620 C 1297 3.17749 -2.88677 0
M  V30 13621 C 1296.23 4.47733 -2.90466 0
M  V30 13622 O 1296.46 5.33736 -2.01201 0
M  V30 13623 O 1295.39 4.64789 -3.82433 0
M  V30 13624 H 1299.22 1.57781 -2.59497 0
M  V30 13625 H 1296.8 0.719277 -1.30946 0
M  V30 13626 H 1298.68 3.85885 -1.69324 0
M  V30 13627 H 1297.36 3.15433 -0.726912 0
M  V30 13628 H 1296.26 2.359 -2.90348 0
M  V30 13629 H 1297.6 3.11897 -3.80763 0
M  V30 13630 N 1299.25 1.36039 0.795694 0
M  V30 13631 C 1300.18 1.32528 1.92246 0
M  V30 13632 C 1301.16 0.197805 1.68946 0
M  V30 13633 O 1302.35 0.394474 1.90151 0
M  V30 13634 C 1299.48 1.10748 3.29169 0
M  V30 13635 C 1298.43 2.20253 3.66978 0
M  V30 13636 C 1297.76 1.83624 5.02181 0
M  V30 13637 C 1299.06 3.62296 3.76216 0
M  V30 13638 H 1300.75 2.2681 1.95442 0
M  V30 13639 H 1298.3 1.09181 0.938908 0
M  V30 13640 H 1300.25 1.06929 4.07608 0
M  V30 13641 H 1298.97 0.129141 3.26345 0
M  V30 13642 H 1297.63 2.23187 2.90832 0
M  V30 13643 H 1297.28 0.843804 4.95872 0
M  V30 13644 H 1296.98 2.56935 5.28449 0
M  V30 13645 H 1298.5 1.81349 5.83048 0
M  V30 13646 H 1299.92 3.61623 4.44861 0
M  V30 13647 H 1298.31 4.34459 4.13963 0
M  V30 13648 H 1299.38 3.97657 2.77483 0
M  V30 13649 N 1300.73 -1.01913 1.20215 0
M  V30 13650 C 1301.97 -1.75843 1.0223 0
M  V30 13651 C 1302.33 -1.87272 -0.441237 0
M  V30 13652 O 1301.62 -1.38562 -1.32329 0
M  V30 13653 C 1301.82 -3.17734 1.63646 0
M  V30 13654 C 1301.65 -3.20138 3.15819 0
M  V30 13655 C 1300.42 -3.27524 3.84781 0
M  V30 13656 C 1302.61 -3.0639 4.13073 0
M  V30 13657 N 1300.6 -3.19405 5.24265 0
M  V30 13658 C 1301.97 -3.06013 5.39218 0
M  V30 13659 C 1304.02 -2.90588 4.04306 0
M  V30 13660 C 1302.72 -2.91455 6.57607 0
M  V30 13661 C 1304.75 -2.77383 5.22315 0
M  V30 13662 C 1304.11 -2.77669 6.47363 0
M  V30 13663 H 1300.21 -0.654282 0.428298 0
M  V30 13664 H 1302.8 -1.2124 1.52345 0
M  V30 13665 H 1300.97 -3.70636 1.16118 0
M  V30 13666 H 1302.7 -3.8008 1.39002 0
M  V30 13667 H 1299.45 -3.34145 3.35625 0
M  V30 13668 H 1299.88 -3.18726 5.97279 0
M  V30 13669 H 1304.52 -2.89182 3.08438 0
M  V30 13670 H 1302.24 -2.9161 7.53651 0
M  V30 13671 H 1305.82 -2.66177 5.1734 0
M  V30 13672 H 1304.7 -2.67566 7.37142 0
M  V30 13673 N 1302.21 -1.00763 -1.2118 0
M  V30 13674 C 1303.17 -0.575183 -2.21865 0
M  V30 13675 C 1304.17 0.349871 -1.56948 0
M  V30 13676 O 1305.36 0.139795 -1.73638 0
M  V30 13677 C 1302.49 0.161308 -3.40518 0
M  V30 13678 H 1303.68 -1.46578 -2.61639 0
M  V30 13679 H 1301.24 -0.79643 -1.34487 0
M  V30 13680 H 1301.97 1.06723 -3.06236 0
M  V30 13681 H 1301.76 -0.503101 -3.88859 0
M  V30 13682 H 1303.25 0.451527 -4.15152 0
M  V30 13683 N 1303.68 1.3679 -0.7827 0
M  V30 13684 C 1304.61 2.32721 -0.190604 0
M  V30 13685 C 1305.6 1.56321 0.670663 0
M  V30 13686 O 1306.78 1.84507 0.605871 0
M  V30 13687 C 1303.91 3.40564 0.680717 0
M  V30 13688 C 1302.86 4.27925 -0.080118 0
M  V30 13689 C 1302.19 5.26876 0.911361 0
M  V30 13690 C 1303.49 5.06738 -1.26545 0
M  V30 13691 H 1305.18 2.82488 -0.992023 0
M  V30 13692 H 1302.73 1.35818 -0.478484 0
M  V30 13693 H 1304.68 4.06659 1.10482 0
M  V30 13694 H 1303.41 2.89348 1.51477 0
M  V30 13695 H 1302.07 3.63376 -0.485125 0
M  V30 13696 H 1301.71 4.71936 1.74026 0
M  V30 13697 H 1301.41 5.8619 0.406762 0
M  V30 13698 H 1302.94 5.95846 1.33418 0
M  V30 13699 H 1304.35 5.65911 -0.917448 0
M  V30 13700 H 1302.75 5.75432 -1.70289 0
M  V30 13701 H 1303.82 4.38772 -2.06415 0
M  V30 13702 N 1305.16 0.53415 1.48272 0
M  V30 13703 C 1306.39 0.00574475 2.06899 0
M  V30 13704 C 1306.81 -1.27754 1.39012 0
M  V30 13705 O 1306.16 -1.76102 0.478993 0
M  V30 13706 C 1306.21 -0.217576 3.60845 0
M  V30 13707 O 1305.93 1.01487 4.26183 0
M  V30 13708 C 1307.44 -0.785888 4.36278 0
M  V30 13709 H 1304.66 0.0353967 0.670066 0
M  V30 13710 H 1307.2 0.740984 1.90603 0
M  V30 13711 H 1305.35 -0.902875 3.76732 0
M  V30 13712 H 1305.77 0.7982 5.18391 0
M  V30 13713 H 1307.24 -0.891551 5.44753 0
M  V30 13714 H 1307.72 -1.79178 4.00989 0
M  V30 13715 H 1308.33 -0.137022 4.25079 0
M  V30 13716 N 1306.64 -1.55279 0.269478 0
M  V30 13717 C 1308.06 -1.59374 -0.0848147 0
M  V30 13718 C 1308.26 -1.2867 -1.55068 0
M  V30 13719 O 1307.31 -1.04486 -2.29867 0
M  V30 13720 C 1308.63 -2.99349 0.284735 0
M  V30 13721 C 1310.17 -3.12147 0.230887 0
M  V30 13722 C 1310.65 -4.54379 0.574795 0
M  V30 13723 N 1312.14 -4.60202 0.526136 0
M  V30 13724 C 1312.87 -5.68273 0.765109 0
M  V30 13725 N 1312.37 -6.84512 1.0684 0
M  V30 13726 N 1314.16 -5.57796 0.694287 0
M  V30 13727 H 1306.31 -1.73503 1.22517 0
M  V30 13728 H 1308.58 -0.808771 0.494564 0
M  V30 13729 H 1308.28 -3.26633 1.30398 0
M  V30 13730 H 1308.16 -3.75309 -0.377199 0
M  V30 13731 H 1310.54 -2.84631 -0.779064 0
M  V30 13732 H 1310.63 -2.38412 0.926998 0
M  V30 13733 H 1310.27 -4.8262 1.58241 0
M  V30 13734 H 1310.2 -5.26406 -0.143044 0
M  V30 13735 H 1312.69 -3.76696 0.301368 0
M  V30 13736 H 1313 -7.62826 1.23757 0
M  V30 13737 H 1311.35 -6.86141 1.10612 0
M  V30 13738 H 1314.54 -4.65862 0.457226 0
M  V30 13739 H 1314.71 -6.41943 0.883913 0
M  V30 13740 N 1308.12 0.00332656 -1.576 0
M  V30 13741 C 1309.37 0.688044 -1.89602 0
M  V30 13742 C 1309.68 1.75121 -0.871316 0
M  V30 13743 O 1310.89 2.49032 -1.08144 0
M  V30 13744 C 1309.34 1.27494 -3.36561 0
M  V30 13745 C 1308.95 0.246771 -4.4732 0
M  V30 13746 C 1310.69 1.93804 -3.77677 0
M  V30 13747 C 1308.6 0.843471 -5.85354 0
M  V30 13748 H 1307.53 0.260747 -0.707479 0
M  V30 13749 H 1310.18 -0.0566727 -1.83412 0
M  V30 13750 H 1308.56 2.07022 -3.37577 0
M  V30 13751 H 1309.74 -0.523668 -4.57815 0
M  V30 13752 H 1308.05 -0.3157 -4.15202 0
M  V30 13753 H 1310.65 2.39347 -4.78139 0
M  V30 13754 H 1310.99 2.7672 -3.11017 0
M  V30 13755 H 1311.53 1.21015 -3.78946 0
M  V30 13756 H 1308.27 0.0531655 -6.55478 0
M  V30 13757 H 1307.79 1.58315 -5.7853 0
M  V30 13758 H 1309.46 1.34311 -6.32906 0
M  V30 13759 N 1309.6 1.55164 0.276031 0
M  V30 13760 C 1310.51 1.90928 1.36321 0
M  V30 13761 C 1311.52 0.806183 1.54197 0
M  V30 13762 O 1312.7 1.10497 1.68382 0
M  V30 13763 C 1309.76 2.17123 2.70293 0
M  V30 13764 C 1308.82 3.40703 2.6119 0
M  V30 13765 C 1308.06 3.65638 3.88773 0
M  V30 13766 O 1308.28 2.93137 4.89313 0
M  V30 13767 O 1307.21 4.59172 3.89159 0
M  V30 13768 H 1311.04 2.8347 1.08988 0
M  V30 13769 H 1308.63 1.41672 0.474292 0
M  V30 13770 H 1310.51 2.3541 3.49514 0
M  V30 13771 H 1309.18 1.27765 2.97419 0
M  V30 13772 H 1308.09 3.27754 1.80355 0
M  V30 13773 H 1309.42 4.30271 2.39014 0
M  V30 13774 N 1311.07 -0.540404 1.48045 0
M  V30 13775 C 1312.01 -1.66164 1.57867 0
M  V30 13776 C 1313.02 -1.56058 0.463655 0
M  V30 13777 O 1314.21 -1.62709 0.734038 0
M  V30 13778 C 1311.31 -3.04748 1.48263 0
M  V30 13779 C 1310.48 -3.40441 2.74625 0
M  V30 13780 C 1309.54 -4.58259 2.58621 0
M  V30 13781 O 1308.57 -4.62 3.32482 0
M  V30 13782 N 1309.77 -5.55794 1.67551 0
M  V30 13783 H 1312.53 -1.58179 2.54557 0
M  V30 13784 H 1310.09 -0.727441 1.44637 0
M  V30 13785 H 1312.09 -3.81425 1.35267 0
M  V30 13786 H 1310.66 -3.06868 0.595892 0
M  V30 13787 H 1309.88 -2.53044 3.02262 0
M  V30 13788 H 1311.16 -3.61069 3.58478 0
M  V30 13789 H 1310.56 -5.55541 1.06725 0
M  V30 13790 H 1309.12 -6.3173 1.60499 0
M  V30 13791 N 1312.55 -1.36459 -0.788468 0
M  V30 13792 C 1313.8 -1.30483 -1.54333 0
M  V30 13793 C 1314.12 0.115266 -1.94659 0
M  V30 13794 O 1313.39 1.05573 -1.65019 0
M  V30 13795 H 1311.97 -0.480004 -0.572368 0
M  V30 13796 H 1314.63 -1.70765 -0.939428 0
M  V30 13797 H 1313.73 -1.93284 -2.45046 0
M  V30 13798 N 1314.03 1.01274 -1.20754 0
M  V30 13799 C 1315.28 1.75298 -1.03161 0
M  V30 13800 C 1315.63 1.87504 0.431299 0
M  V30 13801 O 1314.92 1.39262 1.31593 0
M  V30 13802 C 1315.12 3.16862 -1.65329 0
M  V30 13803 C 1314.95 3.18459 -3.17513 0
M  V30 13804 C 1313.72 3.25479 -3.86512 0
M  V30 13805 C 1315.92 3.04195 -4.14693 0
M  V30 13806 N 1313.9 3.1662 -5.25951 0
M  V30 13807 C 1315.27 3.03149 -5.40833 0
M  V30 13808 C 1317.32 2.8844 -4.05841 0
M  V30 13809 C 1316.03 2.87963 -6.59143 0
M  V30 13810 C 1318.05 2.74609 -5.23779 0
M  V30 13811 C 1317.41 2.74232 -6.48827 0
M  V30 13812 H 1313.51 0.652001 -0.431762 0
M  V30 13813 H 1316.1 1.2043 -1.52986 0
M  V30 13814 H 1314.27 3.70015 -1.18082 0
M  V30 13815 H 1316 3.79337 -1.41015 0
M  V30 13816 H 1312.76 3.3236 -3.37392 0
M  V30 13817 H 1313.18 3.15554 -5.98961 0
M  V30 13818 H 1317.82 2.87542 -3.09967 0
M  V30 13819 H 1315.54 2.87609 -7.55186 0
M  V30 13820 H 1319.13 2.6343 -5.18745 0
M  V30 13821 H 1318.01 2.63653 -7.38551 0
M  V30 13822 N 1315.51 1.01404 1.20644 0
M  V30 13823 C 1316.74 0.72104 1.93929 0
M  V30 13824 C 1317.15 -0.717853 1.7462 0
M  V30 13825 O 1316.51 -1.48664 1.05855 0
M  V30 13826 C 1316.56 1.04399 3.46097 0
M  V30 13827 O 1316.28 2.42637 3.64773 0
M  V30 13828 C 1317.78 0.771678 4.36532 0
M  V30 13829 H 1315 0.264983 0.616462 0
M  V30 13830 H 1317.55 1.35453 1.53208 0
M  V30 13831 H 1315.7 0.455946 3.84708 0
M  V30 13832 H 1316.12 2.54201 4.58783 0
M  V30 13833 H 1317.59 1.04774 5.41965 0
M  V30 13834 H 1318.07 -0.294188 4.38214 0
M  V30 13835 H 1318.67 1.34176 4.0358 0
M  V30 13836 N 1316.99 -1.36373 0.789944 0
M  V30 13837 C 1318.22 -2.03187 0.373987 0
M  V30 13838 C 1318.63 -1.59697 -1.01457 0
M  V30 13839 O 1317.97 -0.782151 -1.66217 0
M  V30 13840 C 1318.03 -3.57703 0.358985 0
M  V30 13841 C 1317.69 -4.24396 1.69521 0
M  V30 13842 C 1318.69 -4.47247 2.65077 0
M  V30 13843 C 1316.38 -4.61858 1.97465 0
M  V30 13844 C 1318.37 -5.06642 3.86772 0
M  V30 13845 C 1316.06 -5.2097 3.19426 0
M  V30 13846 C 1317.06 -5.43302 4.13899 0
M  V30 13847 O 1316.74 -6.01173 5.3371 0
M  V30 13848 H 1316.48 -0.658654 0.152153 0
M  V30 13849 H 1319.03 -1.7532 1.07014 0
M  V30 13850 H 1317.26 -3.84691 -0.39366 0
M  V30 13851 H 1318.95 -4.05887 -0.0323762 0
M  V30 13852 H 1319.71 -4.18701 2.44775 0
M  V30 13853 H 1315.59 -4.438 1.2475 0
M  V30 13854 H 1319.14 -5.23989 4.60523 0
M  V30 13855 H 1315.03 -5.48943 3.39606 0
M  V30 13856 H 1315.8 -6.19638 5.34781 0
M  V30 13857 N 1318.47 -0.542005 -1.47987 0
M  V30 13858 C 1319.71 -0.0122873 -2.02096 0
M  V30 13859 C 1320.03 1.3362 -1.42024 0
M  V30 13860 O 1319.3 1.86807 -0.589911 0
M  V30 13861 H 1317.88 -0.00155365 -0.746998 0
M  V30 13862 H 1320.55 -0.708566 -1.81564 0
M  V30 13863 H 1319.64 0.0871275 -3.11978 0
M  V30 13864 N 1319.94 1.55134 -0.277709 0
M  V30 13865 C 1321.35 1.85405 0.219543 0
M  V30 13866 C 1321.71 1.19973 1.55245 0
M  V30 13867 O 1320.83 0.488986 2.10803 0
M  V30 13868 C 1321.43 3.36369 0.405127 0
M  V30 13869 C 1319.98 3.66755 0.846609 0
M  V30 13870 C 1319.13 2.77238 -0.0586063 0
M  V30 13871 H 1322.08 1.50637 -0.499422 0
M  V30 13872 H 1322.1 3.59615 1.24329 0
M  V30 13873 H 1321.62 3.83963 -0.565138 0
M  V30 13874 H 1319.72 3.24662 1.82825 0
M  V30 13875 H 1319.83 4.74219 0.682135 0
M  V30 13876 H 1318.19 2.50546 0.458153 0
M  V30 13877 H 1318.98 3.27647 -1.0248 0
M  V30 13878 N 1321.42 0.00503138 1.57599 0
M  V30 13879 C 1322.67 -0.679766 1.91068 0
M  V30 13880 C 1323 -1.73144 0.879486 0
M  V30 13881 O 1322.28 -1.94237 -0.101116 0
M  V30 13882 C 1322.56 -1.3183 3.35101 0
M  V30 13883 C 1322.41 -0.277833 4.48941 0
M  V30 13884 C 1323.73 -2.24308 3.78647 0
M  V30 13885 H 1320.85 -0.245646 0.694857 0
M  V30 13886 H 1323.49 0.057357 1.89913 0
M  V30 13887 H 1321.64 -1.94657 3.36216 0
M  V30 13888 H 1323.31 0.351136 4.59962 0
M  V30 13889 H 1321.56 0.399365 4.31958 0
M  V30 13890 H 1322.23 -0.763759 5.46691 0
M  V30 13891 H 1324.7 -1.71494 3.79116 0
M  V30 13892 H 1323.58 -2.6595 4.80169 0
M  V30 13893 H 1323.84 -3.12427 3.12797 0
M  V30 13894 N 1322.9 -1.55308 -0.267798 0
M  V30 13895 C 1324.32 -1.47264 -0.61526 0
M  V30 13896 C 1324.52 -0.691025 -1.8928 0
M  V30 13897 O 1323.57 -0.211964 -2.51609 0
M  V30 13898 C 1324.88 -2.91519 -0.73739 0
M  V30 13899 C 1326.43 -3.01764 -0.831102 0
M  V30 13900 C 1326.91 -4.47283 -0.984965 0
M  V30 13901 N 1328.4 -4.51134 -1.05036 0
M  V30 13902 C 1329.13 -5.60952 -1.1883 0
M  V30 13903 N 1328.63 -6.80625 -1.29311 0
M  V30 13904 N 1330.42 -5.48705 -1.21982 0
M  V30 13905 H 1322.57 -2.04577 0.57114 0
M  V30 13906 H 1324.84 -0.927908 0.194141 0
M  V30 13907 H 1324.54 -3.51456 0.130974 0
M  V30 13908 H 1324.42 -3.40829 -1.61603 0
M  V30 13909 H 1326.8 -2.4192 -1.68993 0
M  V30 13910 H 1326.88 -2.55698 0.0722509 0
M  V30 13911 H 1326.53 -5.07732 -0.130776 0
M  V30 13912 H 1326.46 -4.91011 -1.90305 0
M  V30 13913 H 1328.95 -3.6493 -0.981551 0
M  V30 13914 H 1329.26 -7.60071 -1.39685 0
M  V30 13915 H 1327.61 -6.83426 -1.26306 0
M  V30 13916 H 1330.8 -4.5415 -1.13428 0
M  V30 13917 H 1330.97 -6.34332 -1.32388 0
M  V30 13918 N 1324.38 0.532545 -1.4833 0
M  V30 13919 C 1325.65 1.29371 -1.46705 0
M  V30 13920 C 1326.03 2.10354 -0.177329 0
M  V30 13921 O 1325.38 2.12462 0.840968 0
M  V30 13922 C 1325.59 2.17733 -2.72751 0
M  V30 13923 C 1326.94 2.77956 -3.20976 0
M  V30 13924 O 1327.96 2.28022 -2.7365 0
M  V30 13925 O 1326.82 3.68779 -4.03317 0
M  V30 13926 H 1323.92 0.58378 -0.585773 0
M  V30 13927 H 1326.46 0.549411 -1.6056 0
M  V30 13928 H 1325.24 1.57659 -3.58133 0
M  V30 13929 H 1324.86 2.99415 -2.61603 0
M  V30 13930 N 1325.86 1.36875 0.78122 0
M  V30 13931 C 1327.13 1.22101 1.52809 0
M  V30 13932 C 1327.51 -0.189402 2.10249 0
M  V30 13933 O 1326.86 -1.19598 1.94701 0
M  V30 13934 C 1327.07 2.30953 2.61652 0
M  V30 13935 C 1328.42 2.68027 3.29313 0
M  V30 13936 O 1329.44 2.30058 2.71941 0
M  V30 13937 O 1328.3 3.33407 4.33015 0
M  V30 13938 H 1325.4 0.4759 0.676349 0
M  V30 13939 H 1327.94 1.48629 0.818998 0
M  V30 13940 H 1326.71 3.25443 2.17261 0
M  V30 13941 H 1326.34 2.05837 3.40172 0
M  V30 13942 N 1327.33 -1.00632 1.21289 0
M  V30 13943 C 1328.28 -2.11502 0.96798 0
M  V30 13944 C 1329.28 -1.6919 -0.0843024 0
M  V30 13945 O 1330.48 -1.79875 0.06697 0
M  V30 13946 H 1326.86 -0.691398 0.295759 0
M  V30 13947 H 1328.83 -2.29337 1.90911 0
M  V30 13948 C 1327.58 -3.43357 0.547818 0
M  V30 13949 H 1326.9 -3.76348 1.34915 0
M  V30 13950 H 1328.34 -4.21957 0.415759 0
M  V30 13951 C 1326.8 -3.28648 -0.741086 0
M  V30 13952 O 1327.33 -3.59267 -1.79695 0
M  V30 13953 N 1325.53 -2.81866 -0.707084 0
M  V30 13954 H 1325.08 -2.57149 0.152447 0
M  V30 13955 H 1325.04 -2.72406 -1.56979 0
M  V30 13956 N 1328.81 -1.02043 -1.20104 0
M  V30 13957 C 1329.76 -0.593945 -2.23027 0
M  V30 13958 C 1330.73 0.387931 -1.61506 0
M  V30 13959 O 1331.91 0.286504 -1.88637 0
M  V30 13960 C 1329.05 0.0577309 -3.45052 0
M  V30 13961 C 1328.17 -0.969169 -4.20988 0
M  V30 13962 C 1327.3 -0.288143 -5.30418 0
M  V30 13963 C 1326.34 -1.30154 -5.98102 0
M  V30 13964 N 1325.48 -0.646912 -6.99113 0
M  V30 13965 H 1330.32 -1.47623 -2.58866 0
M  V30 13966 H 1327.85 -0.738901 -1.27195 0
M  V30 13967 H 1329.81 0.452726 -4.14736 0
M  V30 13968 H 1328.44 0.90364 -3.09894 0
M  V30 13969 H 1327.49 -1.48229 -3.50332 0
M  V30 13970 H 1328.81 -1.73972 -4.67477 0
M  V30 13971 H 1327.96 0.162149 -6.06483 0
M  V30 13972 H 1326.7 0.514683 -4.84977 0
M  V30 13973 H 1325.7 -1.76218 -5.20795 0
M  V30 13974 H 1326.93 -2.10571 -6.45629 0
M  V30 13975 H 1324.88 0.135976 -6.55859 0
M  V30 13976 H 1324.79 -1.35548 -7.43749 0
M  V30 13977 H 1326.06 -0.220339 -7.79189 0
M  V30 13978 N 1330.29 1.35952 -0.797165 0
M  V30 13979 C 1331.71 1.52218 -0.479765 0
M  V30 13980 C 1331.91 1.74898 1.00064 0
M  V30 13981 O 1330.96 1.78495 1.78594 0
M  V30 13982 C 1332.28 2.70328 -1.31694 0
M  V30 13983 C 1333.82 2.84202 -1.31142 0
M  V30 13984 C 1334.3 4.05325 -2.13251 0
M  V30 13985 N 1335.79 4.12485 -2.10737 0
M  V30 13986 C 1336.52 5.053 -2.71033 0
M  V30 13987 N 1336.02 6.03509 -3.40219 0
M  V30 13988 N 1337.81 4.97975 -2.60725 0
M  V30 13989 H 1329.96 1.19486 -1.75604 0
M  V30 13990 H 1332.23 0.58383 -0.746892 0
M  V30 13991 H 1331.93 2.60116 -2.36712 0
M  V30 13992 H 1331.81 3.64684 -0.963607 0
M  V30 13993 H 1334.19 2.9387 -0.269131 0
M  V30 13994 H 1334.28 1.9073 -1.70457 0
M  V30 13995 H 1333.92 3.96417 -3.17515 0
M  V30 13996 H 1333.85 4.97959 -1.71302 0
M  V30 13997 H 1336.34 3.42174 -1.6039 0
M  V30 13998 H 1336.65 6.70909 -3.83537 0
M  V30 13999 H 1335 6.03711 -3.44322 0
M  V30 14000 H 1338.19 4.20203 -2.0627 0
M  V30 14001 H 1338.36 5.70119 -3.08007 0
M  V30 14002 N 1331.77 0.549846 1.47697 0
M  V30 14003 C 1332.7 -0.190364 2.32723 0
M  V30 14004 C 1333.68 -0.915933 1.43334 0
M  V30 14005 O 1334.86 -0.897838 1.72199 0
M  V30 14006 C 1331.99 -1.22545 3.24961 0
M  V30 14007 C 1330.95 -0.616805 4.23532 0
M  V30 14008 C 1330.27 -1.75599 5.05044 0
M  V30 14009 C 1331.57 0.424595 5.20571 0
M  V30 14010 H 1333.27 0.519461 2.94859 0
M  V30 14011 H 1330.81 0.251259 1.41791 0
M  V30 14012 H 1332.77 -1.75139 3.83281 0
M  V30 14013 H 1331.49 -1.96512 2.60865 0
M  V30 14014 H 1330.15 -0.112224 3.66428 0
M  V30 14015 H 1329.8 -2.48453 4.37356 0
M  V30 14016 H 1329.5 -1.35456 5.71774 0
M  V30 14017 H 1331.02 -2.28533 5.6622 0
M  V30 14018 H 1332.44 -0.0150025 5.73298 0
M  V30 14019 H 1330.83 0.7445 5.95464 0
M  V30 14020 H 1331.9 1.32318 4.66497 0
M  V30 14021 N 1333.25 -1.54984 0.285932 0
M  V30 14022 C 1334.2 -2.19645 -0.611576 0
M  V30 14023 C 1335.18 -1.16453 -1.11029 0
M  V30 14024 O 1336.37 -1.42228 -1.05357 0
M  V30 14025 C 1333.5 -2.9293 -1.79017 0
M  V30 14026 C 1332.59 -4.03421 -1.30813 0
M  V30 14027 N 1332.98 -5.02877 -0.542993 0
M  V30 14028 C 1331.28 -4.16689 -1.59016 0
M  V30 14029 C 1331.98 -5.80986 -0.288176 0
M  V30 14030 N 1330.95 -5.36695 -0.863695 0
M  V30 14031 H 1334.76 -2.93894 -0.0192813 0
M  V30 14032 H 1332.27 -1.6215 0.0899876 0
M  V30 14033 H 1334.27 -3.37709 -2.44454 0
M  V30 14034 H 1332.93 -2.20194 -2.38631 0
M  V30 14035 H 1333.94 -5.17554 -0.189305 0
M  V30 14036 H 1330.61 -3.5515 -2.19488 0
M  V30 14037 H 1332 -6.71112 0.325337 0
M  V30 14038 N 1334.72 -0.0133892 -1.57594 0
M  V30 14039 C 1336.14 0.527615 -1.7909 0
M  V30 14040 C 1336.49 1.73179 -0.922142 0
M  V30 14041 O 1335.61 2.1602 -0.128233 0
M  V30 14042 C 1336.21 0.963949 -3.24798 0
M  V30 14043 C 1334.77 1.45017 -3.47343 0
M  V30 14044 C 1333.91 0.407548 -2.74289 0
M  V30 14045 H 1336.86 -0.239505 -1.56882 0
M  V30 14046 H 1336.88 1.82924 -3.33645 0
M  V30 14047 H 1336.4 0.0873315 -3.88002 0
M  V30 14048 H 1334.5 2.34724 -2.89371 0
M  V30 14049 H 1334.61 1.4684 -4.56043 0
M  V30 14050 H 1332.97 0.872174 -2.39301 0
M  V30 14051 H 1333.76 -0.460333 -3.402 0
M  V30 14052 N 1336.2 1.55448 0.259558 0
M  V30 14053 C 1337.44 1.78444 0.996849 0
M  V30 14054 C 1337.81 0.580862 1.83003 0
M  V30 14055 O 1339.01 0.68934 2.59811 0
M  V30 14056 C 1337.28 3.06094 1.84502 0
M  V30 14057 S 1338.84 3.50263 2.64313 0
M  V30 14058 H 1335.66 0.626854 0.335523 0
M  V30 14059 H 1338.26 1.93683 0.265929 0
M  V30 14060 H 1336.96 3.91772 1.22241 0
M  V30 14061 H 1336.49 2.93558 2.61891 0
M  V30 14062 H 1338.51 3.10596 3.86968 0
M  V30 14063 N 1337.68 -0.524672 1.4861 0
M  V30 14064 C 1338.61 -1.63782 1.66426 0
M  V30 14065 C 1339.59 -1.62177 0.513077 0
M  V30 14066 O 1340.78 -1.7929 0.74623 0
M  V30 14067 C 1337.91 -3.02354 1.70877 0
M  V30 14068 C 1336.86 -3.18819 2.85549 0
M  V30 14069 C 1336.19 -4.58506 2.75094 0
M  V30 14070 C 1337.49 -3.01086 4.26784 0
M  V30 14071 H 1339.18 -1.49127 2.59618 0
M  V30 14072 H 1336.73 -0.715997 1.24938 0
M  V30 14073 H 1338.68 -3.80105 1.81929 0
M  V30 14074 H 1337.4 -3.18044 0.742682 0
M  V30 14075 H 1336.06 -2.43487 2.74061 0
M  V30 14076 H 1335.71 -4.71038 1.76443 0
M  V30 14077 H 1335.41 -4.70466 3.52044 0
M  V30 14078 H 1336.93 -5.38348 2.88121 0
M  V30 14079 H 1338.35 -3.68624 4.39077 0
M  V30 14080 H 1336.75 -3.24536 5.04774 0
M  V30 14081 H 1337.82 -1.97454 4.42877 0
M  V30 14082 N 1339.16 -1.37287 -0.77395 0
M  V30 14083 C 1340.4 -1.3257 -1.5347 0
M  V30 14084 C 1340.74 0.090346 -1.9399 0
M  V30 14085 O 1340.01 1.04719 -1.63903 0
M  V30 14086 C 1340.3 -2.26277 -2.80126 0
M  V30 14087 C 1340.15 -3.76651 -2.45874 0
M  V30 14088 C 1341.47 -2.18471 -3.82045 0
M  V30 14089 H 1338.59 -0.48289 -0.556764 0
M  V30 14090 H 1341.23 -1.6797 -0.888039 0
M  V30 14091 H 1339.38 -1.96219 -3.35306 0
M  V30 14092 H 1341.05 -4.17296 -1.96626 0
M  V30 14093 H 1339.29 -3.95327 -1.78602 0
M  V30 14094 H 1339.96 -4.3765 -3.36403 0
M  V30 14095 H 1342.44 -2.44962 -3.36352 0
M  V30 14096 H 1341.32 -2.86183 -4.68392 0
M  V30 14097 H 1341.58 -1.17692 -4.26147 0
M  V30 14098 N 1340.64 0.999871 -1.21821 0
M  V30 14099 C 1341.91 1.71135 -0.947213 0
M  V30 14100 C 1342.29 2.04087 0.539601 0
M  V30 14101 O 1341.64 1.71866 1.5058 0
M  V30 14102 C 1341.85 2.96704 -1.8376 0
M  V30 14103 C 1343.2 3.69627 -2.08952 0
M  V30 14104 O 1344.22 3.06697 -1.81151 0
M  V30 14105 O 1343.08 4.82832 -2.55999 0
M  V30 14106 H 1340.18 0.746631 -0.355628 0
M  V30 14107 H 1342.72 1.05684 -1.32774 0
M  V30 14108 H 1341.49 2.68802 -2.84361 0
M  V30 14109 H 1341.12 3.69894 -1.45821 0
M  V30 14110 N 1342.11 1.02678 1.19562 0
M  V30 14111 C 1343.36 0.722016 1.89191 0
M  V30 14112 C 1343.69 -0.749217 1.79491 0
M  V30 14113 O 1342.94 -1.56105 1.18025 0
M  V30 14114 C 1343.24 1.11603 3.39529 0
M  V30 14115 C 1342.91 2.58518 3.69431 0
M  V30 14116 C 1341.57 2.98658 3.77302 0
M  V30 14117 C 1343.92 3.53579 3.82925 0
M  V30 14118 C 1341.25 4.32776 3.96134 0
M  V30 14119 C 1343.6 4.87398 4.0327 0
M  V30 14120 C 1342.27 5.27229 4.09373 0
M  V30 14121 H 1341.54 0.264204 0.692298 0
M  V30 14122 H 1344.18 1.28924 1.41601 0
M  V30 14123 H 1342.49 0.467374 3.89002 0
M  V30 14124 H 1344.19 0.857771 3.91718 0
M  V30 14125 H 1340.78 2.26421 3.63911 0
M  V30 14126 H 1344.96 3.23721 3.76189 0
M  V30 14127 H 1340.22 4.63175 3.99098 0
M  V30 14128 H 1344.39 5.60973 4.12653 0
M  V30 14129 H 1342.02 6.31164 4.23718 0
M  V30 14130 N 1343.59 -1.35528 0.804364 0
M  V30 14131 C 1344.54 -2.27241 0.18591 0
M  V30 14132 C 1345.53 -1.47669 -0.638956 0
M  V30 14133 O 1346.72 -1.69891 -0.496578 0
M  V30 14134 C 1343.85 -3.36769 -0.666446 0
M  V30 14135 C 1342.93 -4.23767 0.168027 0
M  V30 14136 N 1343.32 -4.90618 1.22994 0
M  V30 14137 C 1341.62 -4.45971 -0.0507088 0
M  V30 14138 C 1342.32 -5.55092 1.7392 0
M  V30 14139 N 1341.3 -5.33441 1.04601 0
M  V30 14140 H 1345.1 -2.7642 0.998467 0
M  V30 14141 H 1342.62 -1.49029 0.645301 0
M  V30 14142 H 1344.61 -4.01419 -1.12554 0
M  V30 14143 H 1343.27 -2.89143 -1.47738 0
M  V30 14144 H 1344.28 -4.92155 1.61256 0
M  V30 14145 H 1340.96 -4.09147 -0.830958 0
M  V30 14146 H 1342.35 -6.18434 2.62659 0
M  V30 14147 N 1345.07 -0.557671 -1.47404 0
M  V30 14148 C 1346.3 -0.0366797 -2.07368 0
M  V30 14149 C 1346.72 1.2478 -1.40754 0
M  V30 14150 O 1346.08 1.74757 -0.48268 0
M  V30 14151 C 1346.13 0.141728 -3.60321 0
M  V30 14152 O 1345.23 1.20419 -3.94427 0
M  V30 14153 H 1344.57 -0.0515319 -0.661997 0
M  V30 14154 H 1347.1 -0.773485 -1.89416 0
M  V30 14155 H 1347.11 0.355787 -4.06446 0
M  V30 14156 H 1345.79 -0.796433 -4.08203 0
M  V30 14157 H 1344.36 0.970589 -3.60047 0
M  V30 14158 N 1346.55 1.54831 -0.294147 0
M  V30 14159 C 1347.48 2.26226 0.57827 0
M  V30 14160 C 1348.46 1.25928 1.14351 0
M  V30 14161 O 1349.65 1.54687 1.17412 0
M  V30 14162 C 1346.78 2.99783 1.75349 0
M  V30 14163 C 1345.73 4.07171 1.31892 0
M  V30 14164 C 1345.06 4.68406 2.57876 0
M  V30 14165 C 1346.36 5.20313 0.455167 0
M  V30 14166 H 1348.05 2.99395 -0.0171936 0
M  V30 14167 H 1345.6 1.43997 -0.00970944 0
M  V30 14168 H 1347.55 3.48448 2.36986 0
M  V30 14169 H 1346.27 2.24181 2.37509 0
M  V30 14170 H 1344.93 3.59346 0.725653 0
M  V30 14171 H 1344.58 3.89451 3.18335 0
M  V30 14172 H 1344.28 5.40927 2.29502 0
M  V30 14173 H 1345.8 5.1983 3.20327 0
M  V30 14174 H 1347.22 5.64913 0.977026 0
M  V30 14175 H 1345.61 5.99512 0.265501 0
M  V30 14176 H 1346.68 4.82088 -0.521434 0
M  V30 14177 N 1348.03 0.0217466 1.57585 0
M  V30 14178 C 1349.44 -0.51811 1.79367 0
M  V30 14179 C 1349.79 -1.72688 0.931313 0
M  V30 14180 O 1348.91 -2.15949 0.139687 0
M  V30 14181 C 1349.51 -0.946711 3.25304 0
M  V30 14182 C 1348.07 -1.43173 3.48107 0
M  V30 14183 C 1347.22 -0.392996 2.74501 0
M  V30 14184 H 1350.17 0.247822 1.56753 0
M  V30 14185 H 1350.19 -1.81152 3.34611 0
M  V30 14186 H 1349.7 -0.0667536 3.88043 0
M  V30 14187 H 1347.8 -2.33186 2.90612 0
M  V30 14188 H 1347.91 -1.44419 4.56815 0
M  V30 14189 H 1346.28 -0.859471 2.39761 0
M  V30 14190 H 1347.06 0.478368 3.39951 0
M  V30 14191 N 1349.51 -1.55583 -0.251311 0
M  V30 14192 C 1350.42 -1.93073 -1.33266 0
M  V30 14193 C 1351.43 -0.830612 -1.52895 0
M  V30 14194 O 1352.61 -1.13162 -1.66602 0
M  V30 14195 C 1349.67 -2.21396 -2.66805 0
M  V30 14196 C 1348.73 -3.44815 -2.55737 0
M  V30 14197 C 1347.97 -3.71777 -3.82907 0
M  V30 14198 O 1348.19 -3.00884 -4.84587 0
M  V30 14199 O 1347.12 -4.65305 -3.81805 0
M  V30 14200 H 1350.95 -2.85168 -1.04465 0
M  V30 14201 H 1348.53 -1.42408 -0.451693 0
M  V30 14202 H 1350.42 -2.4094 -3.45725 0
M  V30 14203 H 1349.09 -1.3248 -2.95348 0
M  V30 14204 H 1348 -3.30582 -1.75118 0
M  V30 14205 H 1349.33 -4.34019 -2.32139 0
M  V30 14206 N 1350.98 0.516783 -1.48886 0
M  V30 14207 C 1352.39 1.09856 -1.50959 0
M  V30 14208 C 1352.75 1.94092 -0.28681 0
M  V30 14209 O 1351.87 2.07774 0.604877 0
M  V30 14210 C 1352.47 1.999 -2.73542 0
M  V30 14211 C 1351.02 2.5327 -2.78444 0
M  V30 14212 C 1350.17 1.30526 -2.44659 0
M  V30 14213 H 1353.12 0.301415 -1.55811 0
M  V30 14214 H 1353.14 2.84373 -2.52809 0
M  V30 14215 H 1352.66 1.38564 -3.62521 0
M  V30 14216 H 1350.76 3.1829 -1.93707 0
M  V30 14217 H 1350.87 2.91502 -3.80215 0
M  V30 14218 H 1349.23 1.62536 -1.96097 0
M  V30 14219 H 1350.02 0.709223 -3.35894 0
M  V30 14220 N 1352.46 1.37696 0.766659 0
M  V30 14221 C 1353.37 1.36075 1.91104 0
M  V30 14222 C 1354.39 0.259617 1.72052 0
M  V30 14223 O 1355.56 0.49586 1.952 0
M  V30 14224 C 1352.63 1.17176 3.26298 0
M  V30 14225 C 1351.69 2.36975 3.57968 0
M  V30 14226 C 1350.92 2.18968 4.86712 0
M  V30 14227 O 1351.15 1.17658 5.58133 0
M  V30 14228 O 1350.08 3.07269 5.17561 0
M  V30 14229 H 1353.91 2.32472 1.95424 0
M  V30 14230 H 1351.49 1.18478 0.910122 0
M  V30 14231 H 1353.37 1.08645 4.07154 0
M  V30 14232 H 1352.05 0.238559 3.2282 0
M  V30 14233 H 1350.95 2.51079 2.77327 0
M  V30 14234 H 1352.29 3.2888 3.66195 0
M  V30 14235 N 1353.94 -0.993397 1.22349 0
M  V30 14236 C 1355.36 -1.25708 0.983345 0
M  V30 14237 C 1355.56 -1.98888 -0.323372 0
M  V30 14238 O 1354.61 -2.2981 -1.04612 0
M  V30 14239 C 1355.92 -2.06935 2.1817 0
M  V30 14240 C 1357.47 -2.20121 2.22521 0
M  V30 14241 C 1357.95 -3.04735 3.41907 0
M  V30 14242 N 1359.44 -3.12322 3.42066 0
M  V30 14243 C 1360.17 -3.78081 4.31095 0
M  V30 14244 N 1359.67 -4.45771 5.3034 0
M  V30 14245 N 1361.46 -3.74837 4.18872 0
M  V30 14246 H 1353.61 -0.502767 2.06364 0
M  V30 14247 H 1355.88 -0.284656 0.904254 0
M  V30 14248 H 1355.58 -1.60525 3.12929 0
M  V30 14249 H 1355.46 -3.0769 2.18189 0
M  V30 14250 H 1357.84 -2.65745 1.28311 0
M  V30 14251 H 1357.92 -1.18798 2.26541 0
M  V30 14252 H 1357.57 -2.59811 4.36418 0
M  V30 14253 H 1357.5 -4.06198 3.35128 0
M  V30 14254 H 1359.99 -2.64146 2.7025 0
M  V30 14255 H 1360.3 -4.93687 5.94553 0
M  V30 14256 H 1358.65 -4.44521 5.34253 0
M  V30 14257 H 1361.84 -3.21116 3.40591 0
M  V30 14258 H 1362.01 -4.25806 4.8846 0
M  V30 14259 N 1355.42 -1.03311 -1.19015 0
M  V30 14260 C 1356.37 -0.611169 -2.24427 0
M  V30 14261 C 1357.36 0.358303 -1.65567 0
M  V30 14262 O 1358.57 0.22642 -1.7857 0
M  V30 14263 H 1354.94 -0.179393 -0.730289 0
M  V30 14264 H 1356.91 -1.51077 -2.57329 0
M  V30 14265 C 1355.66 0.0178126 -3.47695 0
M  V30 14266 H 1354.98 -0.71921 -3.93278 0
M  V30 14267 H 1356.42 0.275926 -4.23101 0
M  V30 14268 C 1354.88 1.26564 -3.12223 0
M  V30 14269 O 1355.41 2.35725 -3.25264 0
M  V30 14270 N 1353.62 1.15602 -2.66617 0
M  V30 14271 H 1353.17 0.267736 -2.56205 0
M  V30 14272 H 1353.12 1.99186 -2.43254 0
M  V30 14273 N 1356.9 1.35099 -0.81154 0
M  V30 14274 C 1358.13 2.02566 -0.406265 0
M  V30 14275 C 1358.53 1.61291 0.989032 0
M  V30 14276 O 1357.88 0.808496 1.64952 0
M  V30 14277 C 1357.94 3.57087 -0.415847 0
M  V30 14278 C 1357.6 4.21645 -1.76251 0
M  V30 14279 C 1358.6 4.42974 -2.72159 0
M  V30 14280 C 1356.28 4.58658 -2.04787 0
M  V30 14281 C 1358.28 5.00425 -3.94783 0
M  V30 14282 C 1355.97 5.15822 -3.27674 0
M  V30 14283 C 1356.96 5.36648 -4.2249 0
M  V30 14284 O 1356.65 5.92606 -5.43207 0
M  V30 14285 H 1356.38 0.65615 -0.162612 0
M  V30 14286 H 1358.94 1.73596 -1.09789 0
M  V30 14287 H 1357.17 3.85269 0.332409 0
M  V30 14288 H 1358.86 4.05887 -0.0322011 0
M  V30 14289 H 1359.62 4.14753 -2.51405 0
M  V30 14290 H 1355.5 4.41759 -1.31795 0
M  V30 14291 H 1359.05 5.16596 -4.68801 0
M  V30 14292 H 1354.94 5.4347 -3.48296 0
M  V30 14293 H 1355.71 6.11052 -5.44571 0
M  V30 14294 N 1358.37 0.56548 1.47106 0
M  V30 14295 C 1359.32 -0.190542 2.31818 0
M  V30 14296 C 1360.32 -0.901279 1.43434 0
M  V30 14297 O 1361.52 -0.821625 1.60154 0
M  V30 14298 H 1357.9 -0.0803183 0.747698 0
M  V30 14299 H 1359.87 0.542999 2.93418 0
M  V30 14300 C 1358.62 -1.20208 3.2626 0
M  V30 14301 H 1357.94 -0.664608 3.94237 0
M  V30 14302 H 1359.38 -1.7018 3.88349 0
M  V30 14303 C 1357.84 -2.25423 2.50372 0
M  V30 14304 O 1358.37 -3.3249 2.25418 0
M  V30 14305 N 1356.57 -1.9957 2.11235 0
M  V30 14306 H 1356.12 -1.12513 2.31729 0
M  V30 14307 H 1356.08 -2.70182 1.60777 0
M  V30 14308 N 1359.85 -1.54672 0.302354 0
M  V30 14309 C 1360.78 -2.2653 -0.566265 0
M  V30 14310 C 1361.76 -1.26532 -1.13682 0
M  V30 14311 O 1362.95 -1.55307 -1.1659 0
M  V30 14312 C 1360.08 -3.00709 -1.73757 0
M  V30 14313 C 1359.03 -4.07865 -1.29731 0
M  V30 14314 C 1358.36 -4.69767 -2.55388 0
M  V30 14315 C 1359.66 -5.20547 -0.427567 0
M  V30 14316 H 1361.35 -2.99382 0.033071 0
M  V30 14317 H 1358.9 -1.4399 0.0173458 0
M  V30 14318 H 1360.85 -3.497 -2.35134 0
M  V30 14319 H 1359.58 -2.25437 -2.36317 0
M  V30 14320 H 1358.23 -3.59726 -0.706586 0
M  V30 14321 H 1357.88 -3.91134 -3.16265 0
M  V30 14322 H 1357.58 -5.42137 -2.26631 0
M  V30 14323 H 1359.11 -5.21521 -3.17566 0
M  V30 14324 H 1360.52 -5.65424 -0.947053 0
M  V30 14325 H 1358.92 -5.99645 -0.233704 0
M  V30 14326 H 1359.99 -4.81805 0.546993 0
M  V30 14327 N 1361.33 -0.0301034 -1.57571 0
M  V30 14328 C 1362.26 0.980187 -2.07183 0
M  V30 14329 C 1363.28 1.2882 -0.995449 0
M  V30 14330 O 1364.46 1.25268 -1.27162 0
M  V30 14331 C 1361.56 2.30734 -2.48224 0
M  V30 14332 C 1360.74 2.18434 -3.78953 0
M  V30 14333 C 1359.8 3.34092 -4.06533 0
M  V30 14334 O 1358.82 3.10934 -4.76769 0
M  V30 14335 N 1360.02 4.57914 -3.56784 0
M  V30 14336 H 1362.79 0.556877 -2.94481 0
M  V30 14337 H 1360.35 0.156632 -1.61141 0
M  V30 14338 H 1362.34 3.06936 -2.63766 0
M  V30 14339 H 1360.91 2.64703 -1.66287 0
M  V30 14340 H 1360.13 1.26953 -3.73198 0
M  V30 14341 H 1361.42 2.07421 -4.64601 0
M  V30 14342 H 1360.82 4.79623 -2.99964 0
M  V30 14343 H 1359.38 5.31281 -3.77603 0
M  V30 14344 N 1362.81 1.55714 0.243056 0
M  V30 14345 C 1363.74 1.85615 1.32748 0
M  V30 14346 C 1364.72 0.711577 1.46203 0
M  V30 14347 O 1365.9 0.957732 1.62357 0
M  V30 14348 C 1363.03 2.04425 2.70052 0
M  V30 14349 C 1362.08 3.27071 2.73727 0
M  V30 14350 S 1362.91 4.83615 2.2995 0
M  V30 14351 C 1364.07 5.05434 3.69171 0
M  V30 14352 H 1364.3 2.77305 1.07187 0
M  V30 14353 H 1361.83 1.47871 0.444234 0
M  V30 14354 H 1363.79 2.15946 3.4911 0
M  V30 14355 H 1362.45 1.1357 2.92849 0
M  V30 14356 H 1361.64 3.37211 3.74573 0
M  V30 14357 H 1361.25 3.14296 2.02716 0
M  V30 14358 H 1363.54 4.93013 4.64698 0
M  V30 14359 H 1364.48 6.07401 3.63963 0
M  V30 14360 H 1364.89 4.33262 3.61862 0
M  V30 14361 N 1364.29 -0.50888 1.49158 0
M  V30 14362 C 1365.51 -1.29245 1.62205 0
M  V30 14363 C 1365.94 -1.85845 0.29041 0
M  V30 14364 O 1365.29 -1.6547 -0.740906 0
M  V30 14365 C 1365.34 -2.40415 2.68762 0
M  V30 14366 O 1364.45 -3.44048 2.27387 0
M  V30 14367 H 1363.79 -0.381898 0.543185 0
M  V30 14368 H 1366.32 -0.610076 1.95293 0
M  V30 14369 H 1366.33 -2.86295 2.90688 0
M  V30 14370 H 1365 -1.98584 3.65427 0
M  V30 14371 H 1363.58 -3.04141 2.1576 0
M  V30 14372 N 1365.76 -1.381 -0.759346 0
M  V30 14373 C 1367.01 -1.33727 -1.5153 0
M  V30 14374 C 1367.33 0.0739504 -1.9486 0
M  V30 14375 O 1366.6 1.02049 -1.67221 0
M  V30 14376 H 1365.18 -0.492037 -0.562058 0
M  V30 14377 H 1367.85 -1.72719 -0.902995 0
M  V30 14378 H 1366.94 -1.98439 -2.40891 0
M  V30 14379 N 1367.24 0.986894 -1.22875 0
M  V30 14380 C 1368.15 2.11232 -1.02069 0
M  V30 14381 C 1369.17 1.73969 0.0328424 0
M  V30 14382 O 1370.34 2.00754 -0.161197 0
M  V30 14383 C 1367.41 3.41337 -0.60747 0
M  V30 14384 C 1366.47 3.92665 -1.73531 0
M  V30 14385 C 1365.7 5.1656 -1.34171 0
M  V30 14386 O 1365.93 5.69964 -0.223106 0
M  V30 14387 O 1364.86 5.61791 -2.16041 0
M  V30 14388 H 1368.69 2.3167 -1.96374 0
M  V30 14389 H 1366.27 1.09607 -1.01522 0
M  V30 14390 H 1368.15 4.19613 -0.387661 0
M  V30 14391 H 1366.83 3.22244 0.306653 0
M  V30 14392 H 1365.74 3.15534 -2.0097 0
M  V30 14393 H 1367.07 4.162 -2.62751 0
M  V30 14394 N 1368.72 1.0394 1.18466 0
M  V30 14395 C 1369.95 0.762014 1.92356 0
M  V30 14396 C 1370.36 -0.680652 1.76104 0
M  V30 14397 O 1369.72 -1.46385 1.08985 0
M  V30 14398 C 1369.77 1.11717 3.43805 0
M  V30 14399 O 1369.49 2.50319 3.59544 0
M  V30 14400 C 1370.99 0.864099 4.34797 0
M  V30 14401 H 1368.21 0.277999 0.610702 0
M  V30 14402 H 1370.76 1.38672 1.503 0
M  V30 14403 H 1368.91 0.537445 3.83654 0
M  V30 14404 H 1369.33 2.63875 4.53288 0
M  V30 14405 H 1370.8 1.16247 5.39621 0
M  V30 14406 H 1371.28 -0.20117 4.38739 0
M  V30 14407 H 1371.88 1.42706 4.00643 0
M  V30 14408 N 1370.2 -1.34667 0.818693 0
M  V30 14409 C 1371.13 -2.32134 0.252239 0
M  V30 14410 C 1372.11 -1.58044 -0.628982 0
M  V30 14411 O 1373.29 -1.86049 -0.55674 0
M  V30 14412 C 1370.42 -3.42249 -0.590183 0
M  V30 14413 C 1369.38 -4.27562 0.193547 0
M  V30 14414 C 1368.7 -5.29107 -0.771349 0
M  V30 14415 C 1370 -5.03205 1.39936 0
M  V30 14416 H 1371.7 -2.79758 1.06657 0
M  V30 14417 H 1369.24 -1.34502 0.514325 0
M  V30 14418 H 1371.2 -4.09445 -0.996616 0
M  V30 14419 H 1369.92 -2.93262 -1.43752 0
M  V30 14420 H 1368.58 -3.61962 0.581297 0
M  V30 14421 H 1368.23 -4.76384 -1.61453 0
M  V30 14422 H 1367.93 -5.87063 -0.251201 0
M  V30 14423 H 1369.45 -5.99174 -1.17573 0
M  V30 14424 H 1370.87 -5.6328 1.06717 0
M  V30 14425 H 1369.26 -5.70715 1.85485 0
M  V30 14426 H 1370.33 -4.33145 2.17976 0
M  V30 14427 N 1371.68 -0.573274 -1.46804 0
M  V30 14428 C 1372.62 0.165358 -2.30207 0
M  V30 14429 C 1373.59 0.89312 -1.40045 0
M  V30 14430 O 1374.78 0.885653 -1.68999 0
M  V30 14431 C 1371.92 1.17915 -3.2433 0
M  V30 14432 C 1371.03 0.455805 -4.29589 0
M  V30 14433 C 1370.17 1.45629 -5.10848 0
M  V30 14434 C 1369.21 0.718822 -6.07865 0
M  V30 14435 N 1368.34 1.66691 -6.82025 0
M  V30 14436 H 1373.18 -0.551947 -2.92844 0
M  V30 14437 H 1370.72 -0.28401 -1.44332 0
M  V30 14438 H 1372.68 1.77969 -3.77337 0
M  V30 14439 H 1371.31 1.86429 -2.63523 0
M  V30 14440 H 1370.36 -0.259584 -3.79513 0
M  V30 14441 H 1371.67 -0.121161 -4.98653 0
M  V30 14442 H 1370.83 2.1299 -5.68084 0
M  V30 14443 H 1369.56 2.06718 -4.41723 0
M  V30 14444 H 1368.57 0.0313773 -5.49791 0
M  V30 14445 H 1369.79 0.113452 -6.79005 0
M  V30 14446 H 1367.74 2.26608 -6.15617 0
M  V30 14447 H 1367.66 1.14251 -7.47317 0
M  V30 14448 H 1368.93 2.33117 -7.43826 0
M  V30 14449 N 1373.15 1.5451 -0.310553 0
M  V30 14450 C 1374.38 2.04739 0.29824 0
M  V30 14451 C 1374.8 1.18737 1.46788 0
M  V30 14452 O 1374.15 0.215114 1.81228 0
M  V30 14453 C 1374.21 3.53734 0.745274 0
M  V30 14454 O 1373.93 4.36468 -0.377826 0
M  V30 14455 C 1375.43 4.20001 1.41823 0
M  V30 14456 H 1372.65 0.667997 0.0634159 0
M  V30 14457 H 1375.19 1.9942 -0.452961 0
M  V30 14458 H 1373.35 3.59383 1.44648 0
M  V30 14459 H 1373.76 5.24492 -0.0280567 0
M  V30 14460 H 1375.23 5.25747 1.68209 0
M  V30 14461 H 1375.71 3.70319 2.36137 0
M  V30 14462 H 1376.32 4.18455 0.759951 0
M  V30 14463 N 1374.63 0.0384594 1.57553 0
M  V30 14464 C 1375.56 -0.938444 2.13812 0
M  V30 14465 C 1376.54 -1.33307 1.05657 0
M  V30 14466 O 1377.73 -1.41003 1.33535 0
M  V30 14467 C 1374.86 -2.21764 2.67279 0
M  V30 14468 C 1373.81 -1.96347 3.80305 0
M  V30 14469 C 1373.14 -3.30612 4.20238 0
M  V30 14470 C 1374.44 -1.2952 5.05986 0
M  V30 14471 H 1376.13 -0.469887 2.9569 0
M  V30 14472 H 1373.68 -0.224576 1.42238 0
M  V30 14473 H 1375.63 -2.90493 3.05273 0
M  V30 14474 H 1374.36 -2.70802 1.82576 0
M  V30 14475 H 1373.02 -1.30033 3.42764 0
M  V30 14476 H 1372.66 -3.77427 3.32502 0
M  V30 14477 H 1372.36 -3.14409 4.96408 0
M  V30 14478 H 1373.89 -4.00594 4.60822 0
M  V30 14479 H 1375.3 -1.88264 5.41507 0
M  V30 14480 H 1373.7 -1.23685 5.87216 0
M  V30 14481 H 1374.77 -0.269439 4.84151 0
M  V30 14482 N 1376.11 -1.55841 -0.234795 0
M  V30 14483 C 1377.04 -1.94344 -1.29432 0
M  V30 14484 C 1378.02 -0.809912 -1.49581 0
M  V30 14485 O 1379.21 -1.07117 -1.61986 0
M  V30 14486 C 1376.34 -2.24866 -2.64675 0
M  V30 14487 C 1375.29 -3.40584 -2.59203 0
M  V30 14488 C 1374.62 -3.56678 -3.98353 0
M  V30 14489 C 1375.92 -4.75935 -2.15135 0
M  V30 14490 H 1377.61 -2.83096 -0.97454 0
M  V30 14491 H 1375.16 -1.36205 -0.467355 0
M  V30 14492 H 1377.11 -2.50392 -3.38942 0
M  V30 14493 H 1375.83 -1.32953 -2.98314 0
M  V30 14494 H 1374.49 -3.15087 -1.87393 0
M  V30 14495 H 1374.14 -2.62164 -4.29277 0
M  V30 14496 H 1373.84 -4.34503 -3.95577 0
M  V30 14497 H 1375.37 -3.84538 -4.74302 0
M  V30 14498 H 1376.78 -5.00753 -2.7914 0
M  V30 14499 H 1375.18 -5.56949 -2.23446 0
M  V30 14500 H 1376.25 -4.72182 -1.10328 0
M  V30 14501 N 1377.59 0.500963 -1.49426 0
M  V30 14502 C 1378.55 1.58478 -1.65582 0
M  V30 14503 C 1379.55 1.51897 -0.52762 0
M  V30 14504 O 1380.74 1.55049 -0.794071 0
M  V30 14505 C 1377.87 2.9813 -1.65322 0
M  V30 14506 H 1379.07 1.45483 -2.6225 0
M  V30 14507 H 1376.62 0.725199 -1.38458 0
M  V30 14508 H 1377.36 3.16602 -0.702384 0
M  V30 14509 H 1377.14 3.04315 -2.47255 0
M  V30 14510 H 1378.63 3.76874 -1.79878 0
M  V30 14511 N 1379.07 1.38501 0.752011 0
M  V30 14512 C 1380 1.38577 1.87933 0
M  V30 14513 C 1380.98 0.251454 1.68231 0
M  V30 14514 O 1382.16 0.45477 1.888 0
M  V30 14515 C 1379.29 1.21164 3.25479 0
M  V30 14516 C 1378.25 2.31816 3.59785 0
M  V30 14517 C 1377.57 1.99508 4.96085 0
M  V30 14518 C 1378.87 3.74082 3.645 0
M  V30 14519 H 1380.57 2.32913 1.88127 0
M  V30 14520 H 1378.11 1.12113 0.903698 0
M  V30 14521 H 1380.07 1.19842 4.04 0
M  V30 14522 H 1378.79 0.232899 3.25769 0
M  V30 14523 H 1377.45 2.32327 2.83584 0
M  V30 14524 H 1377.1 1.00114 4.92936 0
M  V30 14525 H 1376.8 2.73617 5.20007 0
M  V30 14526 H 1378.32 1.99807 5.76983 0
M  V30 14527 H 1379.74 3.75593 4.33131 0
M  V30 14528 H 1378.13 4.47409 3.99931 0
M  V30 14529 H 1379.2 4.06284 2.64692 0
M  V30 14530 N 1380.55 -0.980364 1.23396 0
M  V30 14531 C 1381.79 -1.71826 1.06397 0
M  V30 14532 C 1382.11 -1.90854 -0.399958 0
M  V30 14533 O 1381.38 -1.47721 -1.28668 0
M  V30 14534 H 1379.96 -0.636669 0.390719 0
M  V30 14535 H 1382.63 -1.18008 1.55113 0
M  V30 14536 H 1381.72 -2.7078 1.55192 0
M  V30 14537 N 1382.02 -1.04567 -1.17913 0
M  V30 14538 C 1383.26 -0.760977 -1.89706 0
M  V30 14539 C 1383.63 0.698804 -1.78832 0
M  V30 14540 O 1384.83 1.09733 -2.45382 0
M  V30 14541 C 1383.1 -1.22042 -3.35917 0
M  V30 14542 S 1384.66 -1.06214 -4.25751 0
M  V30 14543 H 1381.48 -0.276538 -0.655017 0
M  V30 14544 H 1384.08 -1.339 -1.42446 0
M  V30 14545 H 1382.78 -2.27813 -3.41364 0
M  V30 14546 H 1382.31 -0.636401 -3.88218 0
M  V30 14547 H 1384.33 0.0174486 -4.96197 0
M  V30 14548 N 1383.5 1.34231 -0.825823 0
M  V30 14549 C 1384.45 2.26916 -0.222038 0
M  V30 14550 C 1385.44 1.48667 0.615382 0
M  V30 14551 O 1386.63 1.7066 0.469487 0
M  V30 14552 C 1383.76 3.37787 0.612785 0
M  V30 14553 C 1382.84 4.23446 -0.235423 0
M  V30 14554 N 1383.23 4.88599 -1.30784 0
M  V30 14555 C 1381.53 4.45995 -0.0202477 0
M  V30 14556 C 1382.23 5.52254 -1.82729 0
M  V30 14557 N 1381.21 5.3171 -1.13074 0
M  V30 14558 H 1385.01 2.74796 -1.04232 0
M  V30 14559 H 1382.52 1.47983 -0.668928 0
M  V30 14560 H 1384.52 4.03159 1.06153 0
M  V30 14561 H 1383.18 2.91457 1.43119 0
M  V30 14562 H 1384.19 4.89528 -1.69066 0
M  V30 14563 H 1380.87 4.10417 0.765761 0
M  V30 14564 H 1382.26 6.14177 -2.72464 0
M  V30 14565 N 1384.98 0.581051 1.46498 0
M  V30 14566 C 1386.23 0.0660934 2.02692 0
M  V30 14567 C 1386.56 -1.28985 1.45178 0
M  V30 14568 O 1385.83 -1.84479 0.616247 0
M  V30 14569 C 1386.12 -0.00145411 3.601 0
M  V30 14570 C 1385.97 1.38327 4.28002 0
M  V30 14571 C 1387.29 -0.702914 4.3445 0
M  V30 14572 H 1384.41 0.0254923 0.736559 0
M  V30 14573 H 1387.05 0.74793 1.7466 0
M  V30 14574 H 1385.2 -0.582118 3.84114 0
M  V30 14575 H 1386.87 2.00897 4.15257 0
M  V30 14576 H 1385.11 1.95144 3.87429 0
M  V30 14577 H 1385.79 1.28849 5.36751 0
M  V30 14578 H 1388.26 -0.209641 4.15572 0
M  V30 14579 H 1387.14 -0.719202 5.44168 0
M  V30 14580 H 1387.4 -1.76389 4.05388 0
M  V30 14581 N 1386.46 -1.54343 0.318742 0
M  V30 14582 C 1387.71 -2.00084 -0.284713 0
M  V30 14583 C 1388.03 -1.20855 -1.53033 0
M  V30 14584 O 1387.3 -0.309104 -1.93446 0
M  V30 14585 H 1385.88 -0.739123 -0.108193 0
M  V30 14586 H 1388.54 -1.90002 0.434174 0
M  V30 14587 H 1387.63 -3.07314 -0.544459 0
M  V30 14588 N 1387.94 -0.0468143 -1.5753 0
M  V30 14589 C 1388.87 0.96433 -2.06823 0
M  V30 14590 C 1389.85 1.30663 -0.967783 0
M  V30 14591 O 1391.03 1.42025 -1.2394 0
M  V30 14592 C 1388.16 2.27954 -2.50509 0
M  V30 14593 C 1387.2 2.0906 -3.71748 0
M  V30 14594 S 1388.04 1.373 -5.17599 0
M  V30 14595 C 1389.19 2.70153 -5.64596 0
M  V30 14596 H 1389.43 0.544801 -2.92266 0
M  V30 14597 H 1386.96 0.16534 -1.53512 0
M  V30 14598 H 1388.92 3.03555 -2.76342 0
M  V30 14599 H 1387.58 2.67036 -1.65381 0
M  V30 14600 H 1386.77 3.06333 -4.0022 0
M  V30 14601 H 1386.37 1.41599 -3.46158 0
M  V30 14602 H 1388.66 3.66337 -5.69915 0
M  V30 14603 H 1389.61 2.46322 -6.63876 0
M  V30 14604 H 1390.02 2.76212 -4.92308 0
M  V30 14605 N 1389.41 1.55964 0.226527 0
M  V30 14606 C 1390.38 1.91184 1.26418 0
M  V30 14607 C 1391.38 0.789982 1.40057 0
M  V30 14608 O 1392.57 1.05778 1.38407 0
M  V30 14609 C 1389.7 2.15826 2.63878 0
M  V30 14610 H 1390.89 2.83986 0.963956 0
M  V30 14611 H 1388.45 1.49169 0.466726 0
M  V30 14612 H 1389.18 1.2556 2.99007 0
M  V30 14613 H 1388.97 2.97549 2.55356 0
M  V30 14614 H 1390.46 2.44188 3.38765 0
M  V30 14615 N 1390.89 -0.493031 1.4969 0
M  V30 14616 C 1392.17 -1.25436 1.50084 0
M  V30 14617 C 1392.55 -2.0981 0.233038 0
M  V30 14618 O 1391.9 -2.14617 -0.784342 0
M  V30 14619 C 1392.11 -2.10425 2.78428 0
M  V30 14620 C 1393.46 -2.69349 3.28232 0
M  V30 14621 O 1394.48 -2.20686 2.796 0
M  V30 14622 O 1393.34 -3.57956 4.12953 0
M  V30 14623 H 1390.43 -0.568044 0.601045 0
M  V30 14624 H 1392.98 -0.506648 1.6196 0
M  V30 14625 H 1391.75 -1.48108 3.62187 0
M  V30 14626 H 1391.37 -2.92374 2.6945 0
M  V30 14627 N 1392.37 -1.38898 -0.744656 0
M  V30 14628 C 1393.28 -1.39098 -1.88915 0
M  V30 14629 C 1394.3 -0.286956 -1.71617 0
M  V30 14630 O 1395.47 -0.526852 -1.94387 0
M  V30 14631 C 1392.54 -1.22352 -3.24393 0
M  V30 14632 C 1391.6 -2.4264 -3.54153 0
M  V30 14633 C 1390.83 -2.26683 -4.83167 0
M  V30 14634 O 1391.05 -1.26523 -5.56191 0
M  V30 14635 O 1389.99 -3.15464 -5.12607 0
M  V30 14636 H 1393.81 -2.35551 -1.91701 0
M  V30 14637 H 1391.4 -1.19911 -0.891158 0
M  V30 14638 H 1393.28 -1.15109 -4.05374 0
M  V30 14639 H 1391.96 -0.289886 -3.22399 0
M  V30 14640 H 1390.86 -2.55459 -2.73298 0
M  V30 14641 H 1392.2 -3.34664 -3.60917 0
M  V30 14642 N 1393.85 0.973806 -1.23914 0
M  V30 14643 C 1394.8 2.06734 -1.02614 0
M  V30 14644 C 1395.77 1.65997 0.0585705 0
M  V30 14645 O 1396.95 1.90564 -0.0948467 0
M  V30 14646 C 1394.09 3.39292 -0.630493 0
M  V30 14647 C 1393.2 3.9326 -1.78803 0
M  V30 14648 C 1392.34 5.14059 -1.33854 0
M  V30 14649 C 1391.38 5.60209 -2.46642 0
M  V30 14650 N 1390.51 6.72232 -2.02603 0
M  V30 14651 H 1395.35 2.24287 -1.96212 0
M  V30 14652 H 1392.89 1.09935 -0.977376 0
M  V30 14653 H 1394.85 4.15446 -0.382163 0
M  V30 14654 H 1393.48 3.21682 0.268483 0
M  V30 14655 H 1392.53 3.13801 -2.15019 0
M  V30 14656 H 1393.84 4.23475 -2.63573 0
M  V30 14657 H 1393 5.97567 -1.04873 0
M  V30 14658 H 1391.74 4.85513 -0.46131 0
M  V30 14659 H 1390.74 4.75278 -2.7639 0
M  V30 14660 H 1391.97 5.90771 -3.34912 0
M  V30 14661 H 1389.91 6.45433 -1.17269 0
M  V30 14662 H 1389.83 7.01865 -2.80929 0
M  V30 14663 H 1391.1 7.59198 -1.76745 0
M  V30 14664 N 1395.33 1.05191 1.17357 0
M  V30 14665 C 1396.29 0.65713 2.19578 0
M  V30 14666 C 1397.29 -0.29138 1.58138 0
M  V30 14667 O 1398.48 -0.075254 1.74037 0
M  V30 14668 C 1395.61 -0.0348162 3.40882 0
M  V30 14669 H 1396.8 1.56188 2.56018 0
M  V30 14670 H 1394.36 0.845795 1.31438 0
M  V30 14671 H 1395.09 -0.952835 3.09986 0
M  V30 14672 H 1394.88 0.647076 3.86724 0
M  V30 14673 H 1396.37 -0.297135 4.16542 0
M  V30 14674 N 1396.8 -1.33791 0.83293 0
M  V30 14675 C 1397.71 -2.33108 0.264169 0
M  V30 14676 C 1398.73 -1.6308 -0.606694 0
M  V30 14677 O 1399.91 -1.94777 -0.512225 0
M  V30 14678 C 1396.97 -3.42208 -0.556315 0
M  V30 14679 C 1396.03 -4.27966 0.338123 0
M  V30 14680 C 1395.27 -5.31856 -0.443297 0
M  V30 14681 O 1395.49 -5.45234 -1.6756 0
M  V30 14682 O 1394.42 -6.01632 0.179599 0
M  V30 14683 H 1398.25 -2.83602 1.08645 0
M  V30 14684 H 1395.83 -1.37027 0.595307 0
M  V30 14685 H 1397.72 -4.088 -1.02277 0
M  V30 14686 H 1396.39 -2.9394 -1.35575 0
M  V30 14687 H 1395.3 -3.64262 0.852293 0
M  V30 14688 H 1396.63 -4.79701 1.10217 0
M  V30 14689 N 1398.28 -0.588812 -1.46187 0
M  V30 14690 C 1399.56 -0.00958331 -1.95598 0
M  V30 14691 C 1399.94 1.45294 -1.53144 0
M  V30 14692 O 1399.29 2.14592 -0.785015 0
M  V30 14693 C 1399.5 -0.188018 -3.48493 0
M  V30 14694 C 1400.85 -0.0590152 -4.24559 0
M  V30 14695 O 1401.87 -0.117167 -3.56007 0
M  V30 14696 O 1400.73 0.0715924 -5.46453 0
M  V30 14697 H 1397.82 0.0463708 -0.825699 0
M  V30 14698 H 1400.37 -0.657558 -1.56443 0
M  V30 14699 H 1399.14 -1.20449 -3.723 0
M  V30 14700 H 1398.76 0.496103 -3.94493 0
M  V30 14701 N 1399.76 1.54172 -0.326923 0
M  V30 14702 C 1400.71 2.25931 0.552996 0
M  V30 14703 C 1401.7 1.27463 1.11578 0
M  V30 14704 O 1402.91 1.45228 1.06343 0
M  V30 14705 H 1399.28 0.725741 0.196988 0
M  V30 14706 H 1401.25 2.98307 -0.0744603 0
M  V30 14707 C 1400 3.03276 1.70056 0
M  V30 14708 H 1399.33 3.78865 1.27676 0
M  V30 14709 H 1400.77 3.56727 2.29177 0
M  V30 14710 C 1399.23 2.11775 2.62017 0
M  V30 14711 O 1399.76 1.70282 3.63822 0
M  V30 14712 N 1397.96 1.77195 2.30327 0
M  V30 14713 H 1397.51 2.11135 1.4758 0
M  V30 14714 H 1397.47 1.16253 2.92117 0
M  V30 14715 N 1401.24 0.0551678 1.57503 0
M  V30 14716 C 1402.17 -0.915714 2.14795 0
M  V30 14717 C 1403.15 -1.32179 1.07065 0
M  V30 14718 O 1404.33 -1.39579 1.35023 0
M  V30 14719 C 1401.46 -2.18916 2.69616 0
M  V30 14720 C 1400.42 -1.92303 3.82366 0
M  V30 14721 C 1399.74 -3.26136 4.23721 0
M  V30 14722 C 1401.04 -1.24146 5.07331 0
M  V30 14723 H 1402.74 -0.438499 2.96171 0
M  V30 14724 H 1400.28 -0.209477 1.42468 0
M  V30 14725 H 1402.24 -2.87239 3.08337 0
M  V30 14726 H 1400.96 -2.6885 1.85437 0
M  V30 14727 H 1399.62 -1.26391 3.44123 0
M  V30 14728 H 1399.27 -3.73879 3.36487 0
M  V30 14729 H 1398.97 -3.09126 4.99715 0
M  V30 14730 H 1400.49 -3.95684 4.65045 0
M  V30 14731 H 1401.91 -1.8251 5.43473 0
M  V30 14732 H 1400.3 -1.17449 5.88494 0
M  V30 14733 H 1401.37 -0.218073 4.84409 0
M  V30 14734 N 1402.72 -1.56081 -0.218252 0
M  V30 14735 C 1403.66 -1.92684 -1.27049 0
M  V30 14736 C 1404.63 -0.784441 -1.46409 0
M  V30 14737 O 1405.82 -1.04062 -1.59924 0
M  V30 14738 C 1402.96 -2.25174 -2.61516 0
M  V30 14739 C 1402.07 -3.52364 -2.49927 0
M  V30 14740 C 1401.21 -3.74286 -3.7694 0
M  V30 14741 C 1400.25 -4.94979 -3.60087 0
M  V30 14742 N 1399.38 -5.13273 -4.79057 0
M  V30 14743 H 1404.22 -2.82406 -0.951347 0
M  V30 14744 H 1401.76 -1.39774 -0.458441 0
M  V30 14745 H 1403.72 -2.42022 -3.39825 0
M  V30 14746 H 1402.35 -1.38621 -2.9152 0
M  V30 14747 H 1401.4 -3.43691 -1.63036 0
M  V30 14748 H 1402.71 -4.40826 -2.33397 0
M  V30 14749 H 1401.87 -3.91248 -4.63692 0
M  V30 14750 H 1400.6 -2.84111 -3.96399 0
M  V30 14751 H 1399.61 -4.77963 -2.71719 0
M  V30 14752 H 1400.83 -5.86641 -3.42095 0
M  V30 14753 H 1398.78 -4.26041 -4.98824 0
M  V30 14754 H 1398.7 -5.95873 -4.65265 0
M  V30 14755 H 1399.97 -5.34673 -5.67226 0
M  V30 14756 N 1404.2 0.485086 -1.49949 0
M  V30 14757 C 1405.14 1.5848 -1.67788 0
M  V30 14758 C 1406.11 1.57776 -0.519216 0
M  V30 14759 O 1407.3 1.75521 -0.748141 0
M  V30 14760 C 1404.44 2.9654 -1.76516 0
M  V30 14761 C 1403.55 3.07139 -3.03792 0
M  V30 14762 C 1402.69 4.36029 -3.03401 0
M  V30 14763 C 1401.72 4.40318 -4.2519 0
M  V30 14764 N 1400.86 5.60659 -4.22618 0
M  V30 14765 H 1405.7 1.42575 -2.6168 0
M  V30 14766 H 1403.24 0.693426 -1.29731 0
M  V30 14767 H 1405.2 3.76583 -1.79557 0
M  V30 14768 H 1403.83 3.11112 -0.860764 0
M  V30 14769 H 1402.88 2.20057 -3.10289 0
M  V30 14770 H 1404.19 3.06167 -3.9378 0
M  V30 14771 H 1403.34 5.24407 -3.05094 0
M  V30 14772 H 1402.08 4.39588 -2.11219 0
M  V30 14773 H 1401.09 3.50339 -4.23725 0
M  V30 14774 H 1402.31 4.38461 -5.18583 0
M  V30 14775 H 1400.26 5.6503 -3.33282 0
M  V30 14776 H 1400.18 5.61371 -5.06359 0
M  V30 14777 H 1401.44 6.51201 -4.28436 0
M  V30 14778 N 1405.67 1.39291 0.737279 0
M  V30 14779 C 1406.9 1.39659 1.52653 0
M  V30 14780 C 1407.32 -0.00948259 1.88798 0
M  V30 14781 O 1406.67 -0.980249 1.53939 0
M  V30 14782 C 1406.72 2.2674 2.81552 0
M  V30 14783 O 1406.45 3.61871 2.46943 0
M  V30 14784 C 1407.95 2.35466 3.75594 0
M  V30 14785 H 1405.17 0.477108 0.471814 0
M  V30 14786 H 1407.71 1.83077 0.911205 0
M  V30 14787 H 1405.87 1.86741 3.39421 0
M  V30 14788 H 1406.28 4.07897 3.29728 0
M  V30 14789 H 1407.75 3.00649 4.62941 0
M  V30 14790 H 1408.23 1.37314 4.17183 0
M  V30 14791 H 1408.84 2.75925 3.23644 0
M  V30 14792 N 1407.15 -0.967221 1.24429 0
M  V30 14793 C 1408.1 -2.06187 1.03709 0
M  V30 14794 C 1409.07 -1.66025 -0.0497665 0
M  V30 14795 O 1410.25 -1.90511 0.104951 0
M  V30 14796 C 1407.39 -3.38952 0.648477 0
M  V30 14797 C 1406.51 -3.92306 1.80886 0
M  V30 14798 C 1405.64 -5.13342 1.36579 0
M  V30 14799 C 1404.68 -5.58893 2.49609 0
M  V30 14800 N 1403.82 -6.71148 2.06165 0
M  V30 14801 H 1408.66 -2.23244 1.97399 0
M  V30 14802 H 1406.19 -1.09415 0.983192 0
M  V30 14803 H 1408.15 -4.15237 0.40419 0
M  V30 14804 H 1406.78 -3.21819 -0.25142 0
M  V30 14805 H 1405.83 -3.12656 2.1668 0
M  V30 14806 H 1407.15 -4.22071 2.65815 0
M  V30 14807 H 1406.3 -5.97003 1.0804 0
M  V30 14808 H 1405.04 -4.85262 0.487051 0
M  V30 14809 H 1404.04 -4.73805 2.78906 0
M  V30 14810 H 1405.27 -5.88987 3.3804 0
M  V30 14811 H 1403.22 -6.44802 1.20691 0
M  V30 14812 H 1403.13 -7.00366 2.84647 0
M  V30 14813 H 1404.4 -7.5825 1.80769 0
M  V30 14814 N 1408.63 -1.05812 -1.16797 0
M  V30 14815 C 1409.56 -0.685778 -2.23202 0
M  V30 14816 C 1410.54 0.319428 -1.67074 0
M  V30 14817 O 1411.73 0.195635 -1.93212 0
M  V30 14818 C 1408.86 -0.0662958 -3.47237 0
M  V30 14819 C 1407.81 -0.996943 -4.16227 0
M  V30 14820 C 1407.14 -0.241015 -5.34157 0
M  V30 14821 C 1408.44 -2.32384 -4.67755 0
M  V30 14822 H 1410.13 -1.57535 -2.54604 0
M  V30 14823 H 1407.68 -0.758909 -1.22379 0
M  V30 14824 H 1409.63 0.206024 -4.20896 0
M  V30 14825 H 1408.35 0.858263 -3.15121 0
M  V30 14826 H 1407.01 -1.25393 -3.44488 0
M  V30 14827 H 1406.66 0.686508 -4.98293 0
M  V30 14828 H 1406.36 -0.861188 -5.81255 0
M  V30 14829 H 1407.88 0.0238739 -6.10595 0
M  V30 14830 H 1409.3 -2.11099 -5.3302 0
M  V30 14831 H 1407.69 -2.89855 -5.25456 0
M  V30 14832 H 1408.76 -2.958 -3.84227 0
M  V30 14833 N 1410.11 1.33347 -0.840014 0
M  V30 14834 C 1411.52 1.80077 -0.492851 0
M  V30 14835 C 1411.87 1.69495 0.988221 0
M  V30 14836 O 1410.99 1.2449 1.77006 0
M  V30 14837 C 1411.59 3.2696 -0.887827 0
M  V30 14838 C 1410.15 3.71703 -0.592785 0
M  V30 14839 C 1409.3 2.54742 -1.09554 0
M  V30 14840 H 1412.25 1.20853 -1.02861 0
M  V30 14841 H 1412.27 3.79983 -0.198327 0
M  V30 14842 H 1411.78 3.3463 -1.96581 0
M  V30 14843 H 1409.88 3.69559 0.475086 0
M  V30 14844 H 1409.99 4.65123 -1.14882 0
M  V30 14845 H 1408.36 2.49411 -0.516357 0
M  V30 14846 H 1409.14 2.65173 -2.18032 0
M  V30 14847 N 1411.59 0.596556 1.45873 0
M  V30 14848 C 1412.53 -0.128713 2.30441 0
M  V30 14849 C 1413.5 -0.870727 1.41448 0
M  V30 14850 O 1414.69 -0.858654 1.70387 0
M  V30 14851 C 1411.83 -1.1274 3.26165 0
M  V30 14852 C 1410.94 -0.387403 4.30259 0
M  V30 14853 C 1410.08 -1.37484 5.131 0
M  V30 14854 C 1409.11 -0.622025 6.08931 0
M  V30 14855 N 1408.25 -1.5582 6.84591 0
M  V30 14856 H 1413.09 0.598466 2.91929 0
M  V30 14857 H 1410.63 0.306936 1.43862 0
M  V30 14858 H 1412.59 -1.71943 3.8012 0
M  V30 14859 H 1411.22 -1.82213 2.66455 0
M  V30 14860 H 1410.27 0.319929 3.79052 0
M  V30 14861 H 1411.58 0.200477 4.98397 0
M  V30 14862 H 1410.73 -2.03926 5.71401 0
M  V30 14863 H 1409.47 -1.99665 4.44955 0
M  V30 14864 H 1408.48 0.0560936 5.49771 0
M  V30 14865 H 1409.7 -0.00541426 6.791 0
M  V30 14866 H 1407.65 -2.16786 6.19145 0
M  V30 14867 H 1407.57 -1.02347 7.4904 0
M  V30 14868 H 1408.83 -2.21254 7.4744 0
M  V30 14869 N 1413.06 -1.53996 0.335095 0
M  V30 14870 C 1414.29 -2.05188 -0.26563 0
M  V30 14871 C 1414.71 -1.21058 -1.44881 0
M  V30 14872 O 1414.06 -0.243919 -1.80863 0
M  V30 14873 C 1414.11 -3.54875 -0.688904 0
M  V30 14874 O 1413.84 -4.35811 0.447217 0
M  V30 14875 C 1415.34 -4.22204 -1.35123 0
M  V30 14876 H 1412.56 -0.668921 -0.0527806 0
M  V30 14877 H 1415.1 -1.98675 0.48463 0
M  V30 14878 H 1413.26 -3.61638 -1.38912 0
M  V30 14879 H 1413.67 -5.24381 0.111495 0
M  V30 14880 H 1415.14 -5.28356 -1.59823 0
M  V30 14881 H 1415.62 -3.74029 -2.30216 0
M  V30 14882 H 1416.23 -4.19611 -0.693283 0
M  V30 14883 N 1414.54 -0.0635198 -1.57472 0
M  V30 14884 C 1415.77 0.615841 -1.97208 0
M  V30 14885 C 1416.18 1.64181 -0.940281 0
M  V30 14886 O 1415.52 1.83515 0.0824321 0
M  V30 14887 C 1415.58 1.34908 -3.33227 0
M  V30 14888 C 1415.25 0.477535 -4.54498 0
M  V30 14889 C 1416.25 -0.261479 -5.19242 0
M  V30 14890 C 1413.93 0.404839 -5.00666 0
M  V30 14891 C 1415.92 -1.0615 -6.28499 0
M  V30 14892 C 1413.61 -0.398859 -6.09797 0
M  V30 14893 C 1414.61 -1.1307 -6.73576 0
M  V30 14894 O 1414.3 -1.92116 -7.80607 0
M  V30 14895 H 1414.03 0.172273 -0.65368 0
M  V30 14896 H 1416.58 -0.129963 -2.04988 0
M  V30 14897 H 1414.81 2.14078 -3.22036 0
M  V30 14898 H 1416.5 1.91988 -3.57625 0
M  V30 14899 H 1417.27 -0.214859 -4.84524 0
M  V30 14900 H 1413.15 0.964087 -4.50806 0
M  V30 14901 H 1416.69 -1.63324 -6.78212 0
M  V30 14902 H 1412.59 -0.447073 -6.4395 0
M  V30 14903 H 1413.36 -1.84459 -7.97444 0
M  V30 14904 N 1416.02 1.56195 0.209972 0
M  V30 14905 C 1416.95 1.88389 1.28781 0
M  V30 14906 C 1417.93 0.742429 1.44661 0
M  V30 14907 O 1419.11 0.991955 1.60289 0
M  V30 14908 C 1416.24 2.10107 2.65655 0
M  V30 14909 C 1415.29 3.32804 2.66728 0
M  V30 14910 S 1416.12 4.88384 2.1964 0
M  V30 14911 C 1417.28 5.13151 3.58367 0
M  V30 14912 H 1417.51 2.79517 1.01281 0
M  V30 14913 H 1415.04 1.4878 0.412768 0
M  V30 14914 H 1417 2.23302 3.44451 0
M  V30 14915 H 1415.66 1.19756 2.90374 0
M  V30 14916 H 1414.85 3.4508 3.67336 0
M  V30 14917 H 1414.46 3.18525 1.96004 0
M  V30 14918 H 1416.75 5.02759 4.54136 0
M  V30 14919 H 1417.69 6.14985 3.50998 0
M  V30 14920 H 1418.1 4.4084 3.52591 0
M  V30 14921 N 1417.5 -0.477127 1.50204 0
M  V30 14922 C 1418.43 -1.59442 1.63259 0
M  V30 14923 C 1419.41 -1.55327 0.480864 0
M  V30 14924 O 1420.59 -1.75038 0.699578 0
M  V30 14925 C 1417.72 -2.98009 1.6096 0
M  V30 14926 C 1416.77 -3.20301 2.8162 0
M  V30 14927 S 1417.6 -3.00849 4.43001 0
M  V30 14928 C 1418.75 -4.41769 4.43386 0
M  V30 14929 H 1418.99 -1.48128 2.5777 0
M  V30 14930 H 1416.52 -0.66403 1.39392 0
M  V30 14931 H 1418.48 -3.779 1.60319 0
M  V30 14932 H 1417.14 -3.06718 0.676948 0
M  V30 14933 H 1416.33 -4.21515 2.76299 0
M  V30 14934 H 1415.93 -2.48173 2.79797 0
M  V30 14935 H 1418.23 -5.34294 4.16576 0
M  V30 14936 H 1419.17 -4.52135 5.44958 0
M  V30 14937 H 1419.58 -4.23565 3.73166 0
M  V30 14938 N 1418.98 -1.3968 -0.729882 0
M  V30 14939 C 1420.2 -1.40654 -1.52418 0
M  V30 14940 C 1420.63 -0.00428997 -1.881 0
M  V30 14941 O 1419.98 0.984023 -1.52272 0
M  V30 14942 C 1420.03 -2.29057 -2.78506 0
M  V30 14943 O 1419.14 -1.72397 -3.74637 0
M  V30 14944 H 1418.48 -0.478761 -0.460091 0
M  V30 14945 H 1421.01 -1.83738 -0.900087 0
M  V30 14946 H 1421.02 -2.43748 -3.27187 0
M  V30 14947 H 1419.69 -3.30961 -2.51868 0
M  V30 14948 H 1418.27 -1.66977 -3.33426 0
M  V30 14949 N 1420.45 0.960609 -1.2494 0
M  V30 14950 C 1421.4 2.07763 -1.04581 0
M  V30 14951 C 1422.4 1.69386 0.0214505 0
M  V30 14952 O 1423.6 1.79503 -0.133683 0
M  V30 14953 H 1419.98 0.679944 -0.321216 0
M  V30 14954 H 1421.95 2.22094 -1.99291 0
M  V30 14955 C 1420.7 3.41088 -0.674876 0
M  V30 14956 H 1420.02 3.71082 -1.4879 0
M  V30 14957 H 1421.46 4.20123 -0.572079 0
M  V30 14958 C 1419.92 3.31172 0.6186 0
M  V30 14959 O 1420.45 3.65688 1.66238 0
M  V30 14960 N 1418.66 2.84297 0.601984 0
M  V30 14961 H 1418.2 2.56406 -0.24778 0
M  V30 14962 H 1418.16 2.78045 1.4676 0
M  V30 14963 N 1421.93 1.0643 1.16234 0
M  V30 14964 C 1423.18 0.780296 1.86429 0
M  V30 14965 C 1423.5 -0.695335 1.82181 0
M  V30 14966 O 1422.77 -1.50312 1.2563 0
M  V30 14967 H 1421.35 0.285654 0.690225 0
M  V30 14968 H 1424.01 1.34609 1.40949 0
M  V30 14969 H 1423.11 1.10644 2.91829 0
M  V30 14970 N 1423.41 -1.329 0.847073 0
M  V30 14971 C 1424.64 -2.01418 0.459829 0
M  V30 14972 C 1425.05 -1.63857 -0.945921 0
M  V30 14973 O 1424.39 -0.851946 -1.6275 0
M  V30 14974 C 1424.45 -3.55859 0.510376 0
M  V30 14975 C 1424.12 -4.16824 1.87368 0
M  V30 14976 C 1425.11 -4.35602 2.83808 0
M  V30 14977 C 1422.8 -4.53067 2.16876 0
M  V30 14978 C 1424.79 -4.89782 4.07912 0
M  V30 14979 C 1422.48 -5.06953 3.41235 0
M  V30 14980 C 1423.48 -5.25258 4.36569 0
M  V30 14981 O 1423.17 -5.77995 5.58728 0
M  V30 14982 H 1422.9 -0.651608 0.179952 0
M  V30 14983 H 1425.45 -1.70624 1.14353 0
M  V30 14984 H 1423.68 -3.86015 -0.230145 0
M  V30 14985 H 1425.37 -4.05659 0.139804 0
M  V30 14986 H 1426.14 -4.07942 2.62313 0
M  V30 14987 H 1422.02 -4.3811 1.43461 0
M  V30 14988 H 1425.56 -5.03985 4.82333 0
M  V30 14989 H 1421.46 -5.34045 3.62583 0
M  V30 14990 H 1422.23 -5.96399 5.60581 0
M  V30 14991 N 1424.89 -0.604284 -1.45555 0
M  V30 14992 C 1425.84 0.116491 -2.30506 0
M  V30 14993 C 1426.81 0.863214 -1.41908 0
M  V30 14994 O 1427.99 0.849606 -1.7084 0
M  V30 14995 C 1425.13 1.11009 -3.26758 0
M  V30 14996 C 1424.24 0.36458 -4.30459 0
M  V30 14997 C 1423.38 1.34761 -5.13822 0
M  V30 14998 C 1422.42 0.589724 -6.09253 0
M  V30 14999 N 1421.55 1.52187 -6.85408 0
M  V30 15000 H 1426.39 -0.61394 -2.91607 0
M  V30 15001 H 1423.93 -0.314561 -1.43697 0
M  V30 15002 H 1425.89 1.69925 -3.81027 0
M  V30 15003 H 1424.52 1.80797 -2.67418 0
M  V30 15004 H 1423.57 -0.340026 -3.78877 0
M  V30 15005 H 1424.88 -0.226906 -4.98284 0
M  V30 15006 H 1424.04 2.00893 -5.72474 0
M  V30 15007 H 1422.78 1.97302 -4.46008 0
M  V30 15008 H 1421.78 -0.0852486 -5.49734 0
M  V30 15009 H 1423.01 -0.0306001 -6.79093 0
M  V30 15010 H 1420.95 2.13499 -6.20286 0
M  V30 15011 H 1420.87 0.983737 -7.49572 0
M  V30 15012 H 1422.14 2.17287 -7.48603 0
M  V30 15013 N 1426.37 1.53816 -0.343257 0
M  V30 15014 C 1427.78 1.86169 0.140709 0
M  V30 15015 C 1428.13 1.26449 1.50017 0
M  V30 15016 O 1427.25 0.577955 2.08539 0
M  V30 15017 C 1427.85 3.37785 0.262097 0
M  V30 15018 C 1426.41 3.70016 0.690294 0
M  V30 15019 C 1425.55 2.7674 -0.17614 0
M  V30 15020 H 1428.51 1.48383 -0.562863 0
M  V30 15021 H 1428.53 3.64564 1.08964 0
M  V30 15022 H 1428.04 3.81221 -0.727481 0
M  V30 15023 H 1426.14 3.32124 1.68891 0
M  V30 15024 H 1426.25 4.76686 0.480388 0
M  V30 15025 H 1424.62 2.52263 0.351476 0
M  V30 15026 H 1425.4 3.23006 -1.16285 0
M  V30 15027 N 1427.84 0.0718701 1.57436 0
M  V30 15028 C 1428.81 -0.880671 2.11605 0
M  V30 15029 C 1429.81 -1.22632 1.0401 0
M  V30 15030 O 1431 -1.15958 1.29997 0
M  V30 15031 C 1428.13 -2.18407 2.61746 0
M  V30 15032 H 1429.32 -0.410712 2.97074 0
M  V30 15033 H 1426.88 -0.176836 1.55296 0
M  V30 15034 H 1427.61 -2.6994 1.79731 0
M  V30 15035 H 1427.4 -1.94616 3.40392 0
M  V30 15036 H 1428.89 -2.86596 3.03731 0
M  V30 15037 N 1429.32 -1.56304 -0.201686 0
M  V30 15038 C 1430.73 -1.7022 -0.766953 0
M  V30 15039 C 1431.08 -0.677318 -1.84138 0
M  V30 15040 O 1430.21 0.167604 -2.1575 0
M  V30 15041 C 1430.8 -3.08615 -1.39795 0
M  V30 15042 C 1429.36 -3.24317 -1.91037 0
M  V30 15043 C 1428.51 -2.66167 -0.777853 0
M  V30 15044 H 1431.46 -1.58683 0.0232884 0
M  V30 15045 H 1431.48 -3.05578 -2.26721 0
M  V30 15046 H 1430.99 -3.83185 -0.615728 0
M  V30 15047 H 1429.1 -2.54652 -2.71999 0
M  V30 15048 H 1429.21 -4.31753 -2.07669 0
M  V30 15049 H 1427.57 -2.25169 -1.19042 0
M  V30 15050 H 1428.36 -3.43299 -0.00798179 0
M  V30 15051 N 1430.8 0.469154 -1.50455 0
M  V30 15052 C 1431.73 1.57493 -1.7239 0
M  V30 15053 C 1432.71 1.60161 -0.572915 0
M  V30 15054 O 1433.9 1.76397 -0.812259 0
M  V30 15055 C 1431.03 2.95804 -1.81981 0
M  V30 15056 C 1429.98 3.08001 -2.97185 0
M  V30 15057 C 1429.31 4.4798 -2.91922 0
M  V30 15058 C 1430.61 2.85039 -4.37665 0
M  V30 15059 H 1432.3 1.39389 -2.64974 0
M  V30 15060 H 1429.85 0.669133 -1.27509 0
M  V30 15061 H 1431.8 3.73091 -1.95911 0
M  V30 15062 H 1430.52 3.15068 -0.86021 0
M  V30 15063 H 1429.18 2.33148 -2.82909 0
M  V30 15064 H 1428.83 4.64165 -1.93803 0
M  V30 15065 H 1428.53 4.57076 -3.69263 0
M  V30 15066 H 1430.05 5.27284 -3.07903 0
M  V30 15067 H 1431.47 3.52074 -4.52456 0
M  V30 15068 H 1429.87 3.05578 -5.16471 0
M  V30 15069 H 1430.94 1.8088 -4.499 0
M  V30 15070 N 1432.28 1.40065 0.722464 0
M  V30 15071 C 1433.56 1.28473 1.47493 0
M  V30 15072 C 1433.94 -0.100058 2.10863 0
M  V30 15073 O 1433.28 -1.11232 1.99599 0
M  V30 15074 C 1433.49 2.41842 2.51621 0
M  V30 15075 C 1434.84 2.81753 3.17648 0
M  V30 15076 O 1435.87 2.41385 2.61939 0
M  V30 15077 O 1434.72 3.51473 4.18484 0
M  V30 15078 H 1431.82 0.504158 0.655556 0
M  V30 15079 H 1434.36 1.51969 0.755223 0
M  V30 15080 H 1433.14 3.34365 2.03263 0
M  V30 15081 H 1432.76 2.20079 3.31136 0
M  V30 15082 N 1433.76 -0.95397 1.25448 0
M  V30 15083 C 1434.69 -2.06828 1.08372 0
M  V30 15084 C 1435.67 -1.70098 -0.00741585 0
M  V30 15085 O 1436.85 -1.93521 0.16224 0
M  V30 15086 C 1433.98 -3.40124 0.702365 0
M  V30 15087 C 1432.94 -3.90865 1.74381 0
M  V30 15088 C 1432.26 -5.20663 1.21712 0
M  V30 15089 C 1433.56 -4.17169 3.14273 0
M  V30 15090 H 1435.26 -2.21372 2.01581 0
M  V30 15091 H 1432.8 -1.06374 0.970592 0
M  V30 15092 H 1434.76 -4.17529 0.569837 0
M  V30 15093 H 1433.48 -3.2552 -0.265428 0
M  V30 15094 H 1432.14 -3.15628 1.86479 0
M  V30 15095 H 1431.79 -5.02429 0.23954 0
M  V30 15096 H 1431.49 -5.55581 1.91319 0
M  V30 15097 H 1433.01 -6.00665 1.097 0
M  V30 15098 H 1434.43 -4.85231 3.05325 0
M  V30 15099 H 1432.82 -4.63344 3.81356 0
M  V30 15100 H 1433.89 -3.23421 3.61285 0
M  V30 15101 N 1435.24 -1.07045 -1.15668 0
M  V30 15102 C 1436.46 -0.812802 -1.9081 0
M  V30 15103 C 1436.89 0.627827 -1.77313 0
M  V30 15104 O 1436.24 1.43836 -1.10368 0
M  V30 15105 C 1436.29 -1.2219 -3.39267 0
M  V30 15106 O 1435.4 -0.365305 -4.10779 0
M  V30 15107 H 1434.74 -0.296385 -0.594182 0
M  V30 15108 H 1437.27 -1.42825 -1.465 0
M  V30 15109 H 1437.28 -1.19674 -3.90054 0
M  V30 15110 H 1435.95 -2.27121 -3.48409 0
M  V30 15111 H 1434.53 -0.452687 -3.70142 0
M  V30 15112 N 1436.71 1.32449 -0.85411 0
M  V30 15113 C 1437.66 2.26394 -0.270121 0
M  V30 15114 C 1438.65 1.49939 0.58371 0
M  V30 15115 O 1439.84 1.71617 0.433182 0
M  V30 15116 C 1436.97 3.3901 0.540998 0
M  V30 15117 C 1436.05 4.22851 -0.32519 0
M  V30 15118 N 1436.45 4.85715 -1.41118 0
M  V30 15119 C 1434.74 4.45852 -0.114845 0
M  V30 15120 C 1435.44 5.48254 -1.94402 0
M  V30 15121 N 1434.42 5.29192 -1.24327 0
M  V30 15122 H 1438.22 2.72523 -1.10037 0
M  V30 15123 H 1435.74 1.46531 -0.700167 0
M  V30 15124 H 1437.73 4.0532 0.975778 0
M  V30 15125 H 1436.39 2.94427 1.36905 0
M  V30 15126 H 1437.4 4.85831 -1.79411 0
M  V30 15127 H 1434.08 4.11949 0.678533 0
M  V30 15128 H 1435.47 6.08259 -2.8543 0
M  V30 15129 N 1438.19 0.611994 1.45232 0
M  V30 15130 C 1439.44 0.109073 2.02506 0
M  V30 15131 C 1439.77 -1.25876 1.47881 0
M  V30 15132 O 1439.05 -1.83131 0.65524 0
M  V30 15133 C 1439.33 0.0749288 3.60022 0
M  V30 15134 C 1439.18 1.47374 4.24972 0
M  V30 15135 C 1440.5 -0.610602 4.35844 0
M  V30 15136 H 1437.62 0.0411101 0.735853 0
M  V30 15137 H 1440.26 0.78481 1.73034 0
M  V30 15138 H 1438.41 -0.500511 3.85262 0
M  V30 15139 H 1440.08 2.0966 4.10902 0
M  V30 15140 H 1438.33 2.03319 3.83202 0
M  V30 15141 H 1439 1.40206 5.33897 0
M  V30 15142 H 1441.47 -0.121445 4.15923 0
M  V30 15143 H 1440.35 -0.603614 5.45571 0
M  V30 15144 H 1440.61 -1.6775 4.09038 0
M  V30 15145 N 1439.67 -1.53632 0.351409 0
M  V30 15146 C 1441.09 -1.596 -0.000214515 0
M  V30 15147 C 1441.29 -1.36709 -1.4803 0
M  V30 15148 O 1440.34 -1.16524 -2.24006 0
M  V30 15149 C 1441.65 -2.97419 0.443013 0
M  V30 15150 C 1443.2 -3.10485 0.396025 0
M  V30 15151 C 1443.68 -4.50693 0.814843 0
M  V30 15152 N 1445.17 -4.56766 0.76934 0
M  V30 15153 C 1445.9 -5.63418 1.06526 0
M  V30 15154 N 1445.4 -6.77887 1.42974 0
M  V30 15155 N 1447.19 -5.53331 0.988986 0
M  V30 15156 H 1439.34 -1.66765 1.31542 0
M  V30 15157 H 1441.61 -0.781418 0.53674 0
M  V30 15158 H 1441.31 -3.19262 1.47529 0
M  V30 15159 H 1441.19 -3.76781 -0.177725 0
M  V30 15160 H 1443.57 -2.8836 -0.627092 0
M  V30 15161 H 1443.65 -2.33163 1.05207 0
M  V30 15162 H 1443.3 -4.73554 1.83601 0
M  V30 15163 H 1443.23 -5.26424 0.136193 0
M  V30 15164 H 1445.72 -3.74569 0.500623 0
M  V30 15165 H 1446.03 -7.55194 1.64018 0
M  V30 15166 H 1444.38 -6.79314 1.46827 0
M  V30 15167 H 1447.57 -4.62783 0.703526 0
M  V30 15168 H 1447.74 -6.36355 1.22295 0
M  V30 15169 N 1441.15 -0.0802183 -1.57396 0
M  V30 15170 C 1442.08 0.881426 -2.16225 0
M  V30 15171 C 1443.06 1.30459 -1.09154 0
M  V30 15172 O 1444.24 1.37413 -1.37227 0
M  V30 15173 C 1441.37 2.14599 -2.73065 0
M  V30 15174 C 1440.33 1.86195 -3.85377 0
M  V30 15175 C 1439.65 3.19354 -4.28856 0
M  V30 15176 C 1440.95 1.16059 -5.09242 0
M  V30 15177 H 1442.65 0.391325 -2.96832 0
M  V30 15178 H 1440.19 0.186785 -1.42783 0
M  V30 15179 H 1442.15 2.82297 -3.12868 0
M  V30 15180 H 1440.87 2.65866 -1.89691 0
M  V30 15181 H 1439.53 1.209 -3.46091 0
M  V30 15182 H 1439.18 3.68479 -3.42392 0
M  V30 15183 H 1438.88 3.01137 -5.04569 0
M  V30 15184 H 1440.4 3.88235 -4.71281 0
M  V30 15185 H 1441.82 1.7384 -5.46308 0
M  V30 15186 H 1440.21 1.08072 -5.90288 0
M  V30 15187 H 1441.28 0.14098 -4.84695 0
M  V30 15188 N 1442.63 1.56409 0.193394 0
M  V30 15189 C 1443.85 1.84837 0.929676 0
M  V30 15190 C 1444.27 0.662928 1.76779 0
M  V30 15191 O 1443.63 -0.368339 1.78744 0
M  V30 15192 C 1443.68 3.12083 1.82445 0
M  V30 15193 O 1443.4 4.26056 1.02018 0
M  V30 15194 C 1444.9 3.53701 2.67227 0
M  V30 15195 H 1442.12 0.613766 0.271168 0
M  V30 15196 H 1444.66 2.03518 0.200134 0
M  V30 15197 H 1442.82 2.95294 2.5076 0
M  V30 15198 H 1443.23 4.98526 1.63008 0
M  V30 15199 H 1444.71 4.45699 3.25663 0
M  V30 15200 H 1445.18 2.76771 3.41019 0
M  V30 15201 H 1445.79 3.73027 2.04281 0
M  V30 15202 N 1444.1 -0.461169 1.50702 0
M  V30 15203 C 1445.51 -1.04177 1.54932 0
M  V30 15204 C 1445.87 -1.92894 0.358648 0
M  V30 15205 O 1444.99 -2.09876 -0.527346 0
M  V30 15206 C 1445.59 -1.8961 2.80773 0
M  V30 15207 C 1444.14 -2.42761 2.87652 0
M  V30 15208 C 1443.29 -1.21356 2.49335 0
M  V30 15209 H 1446.24 -0.243379 1.56823 0
M  V30 15210 H 1446.26 -2.74794 2.63189 0
M  V30 15211 H 1445.78 -1.25014 3.67414 0
M  V30 15212 H 1443.88 -3.10881 2.05386 0
M  V30 15213 H 1443.99 -2.77189 3.90772 0
M  V30 15214 H 1442.35 -1.55146 2.01995 0
M  V30 15215 H 1443.14 -0.584069 3.38295 0
M  V30 15216 N 1445.58 -1.40446 -0.715026 0
M  V30 15217 C 1446.54 -1.40506 -1.81082 0
M  V30 15218 C 1447.54 -0.298768 -1.58 0
M  V30 15219 O 1448.73 -0.5577 -1.65031 0
M  V30 15220 C 1445.87 -1.19735 -3.19181 0
M  V30 15221 H 1447.06 -2.38034 -1.82427 0
M  V30 15222 H 1444.61 -1.26303 -0.920718 0
M  V30 15223 H 1445.35 -0.229695 -3.23486 0
M  V30 15224 H 1445.13 -1.99871 -3.37334 0
M  V30 15225 H 1446.62 -1.22566 -3.99208 0
M  V30 15226 N 1447.06 0.947303 -1.25952 0
M  V30 15227 C 1447.99 2.0487 -1.02767 0
M  V30 15228 C 1449 1.62797 0.00985984 0
M  V30 15229 O 1450.19 1.77018 -0.229527 0
M  V30 15230 C 1447.29 3.34682 -0.533048 0
M  V30 15231 C 1446.47 4.05555 -1.63841 0
M  V30 15232 C 1445.53 5.13638 -1.1429 0
M  V30 15233 O 1444.55 5.38682 -1.83876 0
M  V30 15234 N 1445.75 5.80499 0.0119377 0
M  V30 15235 H 1448.52 2.25327 -1.97605 0
M  V30 15236 H 1446.08 1.11636 -1.17256 0
M  V30 15237 H 1448.07 4.04273 -0.185868 0
M  V30 15238 H 1446.64 3.10941 0.321585 0
M  V30 15239 H 1445.86 3.29962 -2.15683 0
M  V30 15240 H 1447.15 4.49661 -2.38081 0
M  V30 15241 H 1446.55 5.62581 0.593212 0
M  V30 15242 H 1445.1 6.51109 0.30009 0
M  V30 15243 N 1448.54 1.07657 1.15099 0
M  V30 15244 C 1449.77 0.822825 1.89835 0
M  V30 15245 C 1450.18 -0.624281 1.7818 0
M  V30 15246 O 1449.54 -1.42844 1.13587 0
M  V30 15247 C 1449.59 1.22598 3.40076 0
M  V30 15248 O 1449.31 2.61631 3.51398 0
M  V30 15249 C 1450.81 1.00199 4.31828 0
M  V30 15250 H 1448.03 0.297288 0.601549 0
M  V30 15251 H 1450.58 1.43384 1.45813 0
M  V30 15252 H 1448.73 0.65923 3.8175 0
M  V30 15253 H 1449.14 2.78163 4.44664 0
M  V30 15254 H 1450.62 1.33355 5.35649 0
M  V30 15255 H 1451.1 -0.0614865 4.39157 0
M  V30 15256 H 1451.7 1.5538 3.959 0
M  V30 15257 N 1450.02 -1.31994 0.861122 0
M  V30 15258 C 1451.24 -2.01211 0.481865 0
M  V30 15259 C 1451.66 -1.64687 -0.923233 0
M  V30 15260 O 1451.02 -0.87151 -1.60346 0
M  V30 15261 C 1451.07 -3.56162 0.618919 0
M  V30 15262 O 1450.79 -3.91376 1.96868 0
M  V30 15263 C 1452.29 -4.42652 0.239514 0
M  V30 15264 H 1449.51 -0.643922 0.188693 0
M  V30 15265 H 1452.05 -1.68427 1.15985 0
M  V30 15266 H 1450.21 -3.87398 -0.0114042 0
M  V30 15267 H 1450.62 -4.86095 1.97008 0
M  V30 15268 H 1452.1 -5.50646 0.386394 0
M  V30 15269 H 1452.57 -4.31466 -0.820598 0
M  V30 15270 H 1453.18 -4.16818 0.845175 0
M  V30 15271 N 1451.49 -0.619688 -1.44906 0
M  V30 15272 C 1452.42 0.0791121 -2.33366 0
M  V30 15273 C 1453.41 0.846503 -1.47541 0
M  V30 15274 O 1454.59 0.814657 -1.76287 0
M  V30 15275 C 1451.72 1.06901 -3.30438 0
M  V30 15276 C 1450.67 0.41403 -4.25993 0
M  V30 15277 C 1450 1.51303 -5.12846 0
M  V30 15278 C 1451.3 -0.672483 -5.17953 0
M  V30 15279 H 1452.99 -0.659551 -2.92045 0
M  V30 15280 H 1450.54 -0.318623 -1.40431 0
M  V30 15281 H 1452.49 1.56653 -3.912 0
M  V30 15282 H 1451.22 1.83842 -2.69944 0
M  V30 15283 H 1449.88 -0.0627315 -3.66546 0
M  V30 15284 H 1449.52 2.27303 -4.48712 0
M  V30 15285 H 1449.22 1.08022 -5.77586 0
M  V30 15286 H 1450.75 2.01258 -5.76479 0
M  V30 15287 H 1452.16 -0.258542 -5.72717 0
M  V30 15288 H 1450.56 -1.02776 -5.91234 0
M  V30 15289 H 1451.63 -1.54425 -4.59653 0
M  V30 15290 N 1452.97 1.53444 -0.359552 0
M  V30 15291 C 1454.22 2.01464 0.232366 0
M  V30 15292 C 1454.55 1.24656 1.48911 0
M  V30 15293 O 1453.83 0.338574 1.9153 0
M  V30 15294 C 1454.11 3.56172 0.530403 0
M  V30 15295 C 1453.96 4.43678 -0.739556 0
M  V30 15296 C 1455.28 4.19412 1.33347 0
M  V30 15297 H 1452.4 0.732314 0.0829802 0
M  V30 15298 H 1455.04 1.83752 -0.483253 0
M  V30 15299 H 1453.19 3.71396 1.14004 0
M  V30 15300 H 1454.86 4.40263 -1.37719 0
M  V30 15301 H 1453.11 4.11892 -1.36117 0
M  V30 15302 H 1453.78 5.49856 -0.486062 0
M  V30 15303 H 1456.25 4.07984 0.817816 0
M  V30 15304 H 1455.13 5.277 1.51075 0
M  V30 15305 H 1455.39 3.7508 2.34024 0
M  V30 15306 N 1454.45 0.0885642 1.57351 0
M  V30 15307 C 1455.73 -0.618587 1.85561 0
M  V30 15308 C 1456.11 -1.86753 0.984206 0
M  V30 15309 O 1455.46 -2.28434 0.0548839 0
M  V30 15310 C 1455.67 -0.940222 3.36096 0
M  V30 15311 C 1457.01 -1.30649 4.04 0
M  V30 15312 O 1458.04 -1.03144 3.4094 0
M  V30 15313 O 1456.9 -1.82135 5.15256 0
M  V30 15314 H 1453.99 -0.308881 0.767152 0
M  V30 15315 H 1456.54 0.120767 1.6927 0
M  V30 15316 H 1455.31 -0.0538991 3.91263 0
M  V30 15317 H 1454.93 -1.73577 3.5771 0
M  V30 15318 N 1455.93 -1.56509 -0.185096 0
M  V30 15319 C 1457.34 -1.50318 -0.536334 0
M  V30 15320 C 1457.54 -0.790387 -1.85351 0
M  V30 15321 O 1456.6 -0.345039 -2.50131 0
M  V30 15322 C 1457.91 -2.95017 -0.581825 0
M  V30 15323 C 1459.46 -3.05746 -0.669974 0
M  V30 15324 C 1459.94 -4.51876 -0.746485 0
M  V30 15325 N 1461.43 -4.56067 -0.809746 0
M  V30 15326 C 1462.16 -5.66462 -0.889286 0
M  V30 15327 N 1461.66 -6.86523 -0.930509 0
M  V30 15328 N 1463.45 -5.54399 -0.927246 0
M  V30 15329 H 1455.6 -2.01262 0.678778 0
M  V30 15330 H 1457.87 -0.916313 0.243054 0
M  V30 15331 H 1457.57 -3.50268 0.317089 0
M  V30 15332 H 1457.45 -3.48916 -1.43309 0
M  V30 15333 H 1459.83 -2.50538 -1.55932 0
M  V30 15334 H 1459.91 -2.54955 0.207689 0
M  V30 15335 H 1459.56 -5.07711 0.138546 0
M  V30 15336 H 1459.49 -5.00408 -1.6401 0
M  V30 15337 H 1461.98 -3.6962 -0.786729 0
M  V30 15338 H 1462.29 -7.66407 -0.991992 0
M  V30 15339 H 1460.64 -6.89161 -0.899017 0
M  V30 15340 H 1463.83 -4.59524 -0.891947 0
M  V30 15341 H 1464 -6.40458 -0.985773 0
M  V30 15342 N 1457.41 0.45317 -1.50944 0
M  V30 15343 C 1458.34 1.55655 -1.74051 0
M  V30 15344 C 1459.32 1.59545 -0.58987 0
M  V30 15345 O 1460.5 1.75526 -0.830922 0
M  V30 15346 C 1457.63 2.93857 -1.85109 0
M  V30 15347 C 1456.59 3.04832 -3.00435 0
M  V30 15348 C 1455.91 4.44858 -2.96657 0
M  V30 15349 C 1457.21 2.80381 -4.40663 0
M  V30 15350 H 1458.91 1.36571 -2.66437 0
M  V30 15351 H 1456.45 0.655572 -1.28212 0
M  V30 15352 H 1458.41 3.70992 -1.99857 0
M  V30 15353 H 1457.13 3.14138 -0.893579 0
M  V30 15354 H 1455.79 2.30134 -2.85366 0
M  V30 15355 H 1455.44 4.62083 -1.98716 0
M  V30 15356 H 1455.14 4.53134 -3.7409 0
M  V30 15357 H 1456.66 5.23989 -3.13478 0
M  V30 15358 H 1458.07 3.47255 -4.56165 0
M  V30 15359 H 1456.47 3.00083 -5.19683 0
M  V30 15360 H 1457.54 1.76099 -4.51793 0
M  V30 15361 N 1458.88 1.40823 0.707568 0
M  V30 15362 C 1459.85 1.41464 1.80334 0
M  V30 15363 C 1460.85 0.307143 1.57839 0
M  V30 15364 O 1462.04 0.566444 1.64733 0
M  V30 15365 C 1459.17 1.21426 3.18541 0
M  V30 15366 H 1460.36 2.38998 1.81162 0
M  V30 15367 H 1457.92 1.2679 0.914007 0
M  V30 15368 H 1458.65 0.246847 3.23359 0
M  V30 15369 H 1458.44 2.01657 3.36269 0
M  V30 15370 H 1459.93 1.24681 3.98553 0
M  V30 15371 N 1460.36 -0.94061 1.26453 0
M  V30 15372 C 1461.27 -2.07298 1.09839 0
M  V30 15373 C 1462.29 -1.73971 0.0317477 0
M  V30 15374 O 1463.46 -2.00017 0.235594 0
M  V30 15375 C 1460.53 -3.38847 0.733736 0
M  V30 15376 C 1459.59 -3.85954 1.87985 0
M  V30 15377 C 1458.82 -5.11224 1.5325 0
M  V30 15378 O 1459.05 -5.68743 0.434491 0
M  V30 15379 O 1457.98 -5.53386 2.36743 0
M  V30 15380 H 1461.81 -2.24222 2.04837 0
M  V30 15381 H 1459.39 -1.05763 1.0552 0
M  V30 15382 H 1461.27 -4.17885 0.543131 0
M  V30 15383 H 1459.95 -3.2316 -0.186843 0
M  V30 15384 H 1458.86 -3.07858 2.12542 0
M  V30 15385 H 1460.19 -4.06162 2.78017 0
M  V30 15386 N 1461.84 -1.08266 -1.14527 0
M  V30 15387 C 1462.79 -0.705807 -2.21633 0
M  V30 15388 C 1463.78 0.287758 -1.66938 0
M  V30 15389 O 1464.99 0.150479 -1.7937 0
M  V30 15390 H 1461.36 -0.210206 -0.722023 0
M  V30 15391 H 1463.33 -1.61855 -2.5069 0
M  V30 15392 C 1462.08 -0.129673 -3.47458 0
M  V30 15393 H 1461.41 -0.885365 -3.89873 0
M  V30 15394 H 1462.85 0.0962264 -4.23891 0
M  V30 15395 C 1461.31 1.13208 -3.1731 0
M  V30 15396 O 1461.84 2.21717 -3.34969 0
M  V30 15397 N 1460.04 1.0419 -2.7128 0
M  V30 15398 H 1459.59 0.15883 -2.5711 0
M  V30 15399 H 1459.55 1.88689 -2.51483 0
M  V30 15400 N 1463.32 1.31536 -0.86811 0
M  V30 15401 C 1464.57 1.96386 -0.477176 0
M  V30 15402 C 1464.89 1.68968 0.973381 0
M  V30 15403 O 1464.16 1.00409 1.68211 0
M  V30 15404 H 1462.74 0.726579 -0.173468 0
M  V30 15405 H 1465.4 1.60377 -1.10749 0
M  V30 15406 H 1464.5 3.05606 -0.633376 0
M  V30 15407 N 1464.8 0.627364 1.44575 0
M  V30 15408 C 1465.75 -0.101618 2.27773 0
M  V30 15409 C 1466.73 -0.819759 1.38451 0
M  V30 15410 O 1467.92 -0.706487 1.62289 0
M  V30 15411 C 1465.05 -1.08507 3.25701 0
M  V30 15412 C 1464.14 -0.366745 4.22511 0
M  V30 15413 N 1464.53 0.602571 5.02198 0
M  V30 15414 C 1462.83 -0.611691 4.41785 0
M  V30 15415 C 1463.53 1.02662 5.72569 0
M  V30 15416 N 1462.5 0.366195 5.42365 0
M  V30 15417 H 1466.31 0.642569 2.8679 0
M  V30 15418 H 1463.82 0.452571 1.55967 0
M  V30 15419 H 1465.82 -1.62189 3.84058 0
M  V30 15420 H 1464.48 -1.8296 2.68246 0
M  V30 15421 H 1465.49 0.980215 5.08539 0
M  V30 15422 H 1462.17 -1.33938 3.95432 0
M  V30 15423 H 1463.56 1.82721 6.46578 0
M  V30 15424 N 1466.28 -1.53251 0.367684 0
M  V30 15425 C 1467.22 -2.27318 -0.4929 0
M  V30 15426 C 1468.22 -1.30376 -1.08159 0
M  V30 15427 O 1469.42 -1.47996 -1.02455 0
M  V30 15428 H 1465.8 -0.730709 -0.177677 0
M  V30 15429 H 1467.77 -2.98005 0.153525 0
M  V30 15430 C 1466.52 -3.07678 -1.61955 0
M  V30 15431 H 1465.84 -3.82117 -1.17587 0
M  V30 15432 H 1467.28 -3.62678 -2.19638 0
M  V30 15433 C 1465.74 -2.18648 -2.5631 0
M  V30 15434 O 1466.27 -1.79869 -3.5918 0
M  V30 15435 N 1464.48 -1.83239 -2.25548 0
M  V30 15436 H 1464.02 -2.14973 -1.4193 0
M  V30 15437 H 1463.98 -1.23957 -2.88933 0
M  V30 15438 N 1467.75 -0.0969077 -1.57302 0
M  V30 15439 C 1469 0.567212 -1.94706 0
M  V30 15440 C 1469.33 1.67721 -0.978937 0
M  V30 15441 O 1468.61 1.94496 -0.0123016 0
M  V30 15442 C 1468.89 1.12069 -3.42217 0
M  V30 15443 C 1468.74 0.015615 -4.49797 0
M  V30 15444 C 1470.06 2.0185 -3.91081 0
M  V30 15445 H 1467.18 0.204716 -0.707997 0
M  V30 15446 H 1469.82 -0.167984 -1.89256 0
M  V30 15447 H 1467.97 1.74723 -3.46993 0
M  V30 15448 H 1469.65 -0.61871 -4.57132 0
M  V30 15449 H 1467.89 -0.650529 -4.28895 0
M  V30 15450 H 1468.56 0.443724 -5.50214 0
M  V30 15451 H 1471.04 1.49098 -3.8847 0
M  V30 15452 H 1469.91 2.37502 -4.94858 0
M  V30 15453 H 1470.17 2.93659 -3.3048 0
M  V30 15454 N 1469.23 1.56605 0.176793 0
M  V30 15455 C 1470.48 1.82848 0.89097 0
M  V30 15456 C 1470.83 0.676661 1.80108 0
M  V30 15457 O 1470.13 -0.32721 1.88785 0
M  V30 15458 C 1470.32 3.12888 1.7273 0
M  V30 15459 C 1470.15 4.40609 0.899652 0
M  V30 15460 C 1468.92 5.01996 0.57688 0
M  V30 15461 C 1471.12 5.13722 0.243765 0
M  V30 15462 N 1469.1 6.13317 -0.267482 0
M  V30 15463 C 1470.47 6.18276 -0.461997 0
M  V30 15464 C 1472.52 4.97638 0.161367 0
M  V30 15465 C 1471.23 7.0849 -1.24233 0
M  V30 15466 C 1473.25 5.88291 -0.605623 0
M  V30 15467 C 1472.62 6.92304 -1.29977 0
M  V30 15468 H 1468.71 0.720143 0.304824 0
M  V30 15469 H 1471.3 1.94055 0.15834 0
M  V30 15470 H 1469.47 3.02883 2.43139 0
M  V30 15471 H 1471.2 3.27148 2.38236 0
M  V30 15472 H 1467.96 4.6486 0.905666 0
M  V30 15473 H 1468.38 6.73578 -0.679811 0
M  V30 15474 H 1473.02 4.17236 0.683677 0
M  V30 15475 H 1470.74 7.88342 -1.77601 0
M  V30 15476 H 1474.33 5.77918 -0.670976 0
M  V30 15477 H 1473.21 7.61239 -1.88375 0
M  V30 15478 N 1470.71 -0.445159 1.51182 0
M  V30 15479 C 1471.67 -1.52224 1.71349 0
M  V30 15480 C 1472.67 -1.49834 0.583632 0
M  V30 15481 O 1473.86 -1.51995 0.85107 0
M  V30 15482 C 1470.99 -2.91789 1.76273 0
M  V30 15483 H 1472.19 -1.35649 2.67468 0
M  V30 15484 H 1469.74 -0.673312 1.41054 0
M  V30 15485 H 1470.48 -3.13777 0.819405 0
M  V30 15486 H 1470.26 -2.94928 2.58379 0
M  V30 15487 H 1471.75 -3.69938 1.93741 0
M  V30 15488 N 1472.19 -1.41197 -0.700089 0
M  V30 15489 C 1473.6 -1.23567 -1.01012 0
M  V30 15490 C 1473.8 -0.121821 -2.01131 0
M  V30 15491 O 1472.86 0.515258 -2.47187 0
M  V30 15492 C 1474.17 -2.58329 -1.53904 0
M  V30 15493 C 1475.72 -2.65473 -1.65811 0
M  V30 15494 C 1476.2 -4.00541 -2.22106 0
M  V30 15495 N 1477.69 -4.02364 -2.29472 0
M  V30 15496 C 1478.42 -5.03672 -2.74048 0
M  V30 15497 N 1477.92 -6.15371 -3.18262 0
M  V30 15498 N 1479.71 -4.91035 -2.73571 0
M  V30 15499 H 1471.86 -2.12368 -0.0367488 0
M  V30 15500 H 1474.12 -0.944713 -0.0788795 0
M  V30 15501 H 1473.83 -3.40565 -0.877964 0
M  V30 15502 H 1473.7 -2.805 -2.5219 0
M  V30 15503 H 1476.09 -1.83598 -2.31032 0
M  V30 15504 H 1476.17 -2.47117 -0.660831 0
M  V30 15505 H 1475.82 -4.82862 -1.57502 0
M  V30 15506 H 1475.75 -4.16235 -3.22577 0
M  V30 15507 H 1478.24 -3.21713 -1.98265 0
M  V30 15508 H 1478.55 -6.88548 -3.50888 0
M  V30 15509 H 1476.9 -6.18914 -3.16182 0
M  V30 15510 H 1480.09 -4.02858 -2.38376 0
M  V30 15511 H 1480.26 -5.70127 -3.07993 0
M  V30 15512 N 1473.67 0.933891 -1.2695 0
M  V30 15513 C 1474.94 1.65874 -1.0366 0
M  V30 15514 C 1475.32 2.0666 0.43066 0
M  V30 15515 O 1474.67 1.79606 1.41259 0
M  V30 15516 C 1474.88 2.86546 -1.99229 0
M  V30 15517 C 1476.23 3.58031 -2.28251 0
M  V30 15518 O 1477.25 2.96663 -1.97154 0
M  V30 15519 O 1476.11 4.68583 -2.81233 0
M  V30 15520 H 1473.21 0.72673 -0.394706 0
M  V30 15521 H 1475.75 0.984975 -1.38189 0
M  V30 15522 H 1474.52 2.53351 -2.9821 0
M  V30 15523 H 1474.15 3.61645 -1.65224 0
M  V30 15524 N 1475.14 1.08871 1.13951 0
M  V30 15525 C 1476.56 0.817282 1.37086 0
M  V30 15526 C 1476.76 -0.571159 1.93236 0
M  V30 15527 O 1475.82 -1.32708 2.14813 0
M  V30 15528 C 1477.13 1.90386 2.32752 0
M  V30 15529 C 1478.68 1.93043 2.46381 0
M  V30 15530 C 1479.15 3.00828 3.4535 0
M  V30 15531 N 1480.64 3.0003 3.52897 0
M  V30 15532 C 1481.38 3.80073 4.29339 0
M  V30 15533 N 1480.87 4.70008 5.08984 0
M  V30 15534 N 1482.67 3.68355 4.24583 0
M  V30 15535 H 1474.82 1.98393 0.758537 0
M  V30 15536 H 1477.08 0.861229 0.396219 0
M  V30 15537 H 1476.79 2.90233 1.9864 0
M  V30 15538 H 1476.66 1.77722 3.32708 0
M  V30 15539 H 1479.05 0.938382 2.79783 0
M  V30 15540 H 1479.13 2.09785 1.4637 0
M  V30 15541 H 1478.77 4.00242 3.1268 0
M  V30 15542 H 1478.7 2.8133 4.45153 0
M  V30 15543 H 1481.19 2.3485 2.96064 0
M  V30 15544 H 1481.51 5.27678 5.64602 0
M  V30 15545 H 1479.85 4.74047 5.08236 0
M  V30 15546 H 1483.04 2.9746 3.61435 0
M  V30 15547 H 1483.22 4.30974 4.83906 0
M  V30 15548 N 1476.62 -1.31073 0.875073 0
M  V30 15549 C 1477.87 -1.96809 0.489273 0
M  V30 15550 C 1478.2 -1.68979 -0.957073 0
M  V30 15551 O 1477.48 -0.989061 -1.67475 0
M  V30 15552 C 1477.76 -3.52139 0.752998 0
M  V30 15553 C 1477.61 -3.89524 2.24925 0
M  V30 15554 C 1478.93 -4.39535 0.222871 0
M  V30 15555 H 1476.05 -0.714873 0.179238 0
M  V30 15556 H 1478.69 -1.55114 1.09725 0
M  V30 15557 H 1476.84 -3.87785 0.23553 0
M  V30 15558 H 1478.51 -3.63953 2.83436 0
M  V30 15559 H 1476.76 -3.37948 2.71981 0
M  V30 15560 H 1477.43 -4.97845 2.38441 0
M  V30 15561 H 1479.9 -4.10741 0.665645 0
M  V30 15562 H 1478.78 -5.47159 0.436806 0
M  V30 15563 H 1479.04 -4.33346 -0.875445 0
M  V30 15564 N 1478.1 -0.635022 -1.4424 0
M  V30 15565 C 1479.35 -0.140788 -2.01609 0
M  V30 15566 C 1479.67 1.24317 -1.50234 0
M  V30 15567 O 1478.94 1.82677 -0.707519 0
M  V30 15568 H 1477.52 -0.0490568 -0.745387 0
M  V30 15569 H 1480.18 -0.8226 -1.7669 0
M  V30 15570 H 1479.28 -0.111456 -3.11901 0
M  V30 15571 N 1479.58 1.53054 -0.375806 0
M  V30 15572 C 1480.51 2.23664 0.500685 0
M  V30 15573 C 1481.52 1.25432 1.03782 0
M  V30 15574 O 1482.71 1.51592 0.942451 0
M  V30 15575 C 1479.81 2.9288 1.70513 0
M  V30 15576 C 1478.99 4.17706 1.29772 0
M  V30 15577 C 1478.04 4.7004 2.36536 0
M  V30 15578 O 1477.07 5.33466 1.98502 0
M  V30 15579 N 1478.27 4.48732 3.68266 0
M  V30 15580 H 1481.04 2.99519 -0.104201 0
M  V30 15581 H 1478.6 1.60641 -0.201488 0
M  V30 15582 H 1480.59 3.24795 2.41433 0
M  V30 15583 H 1479.16 2.20416 2.21665 0
M  V30 15584 H 1478.38 3.91978 0.41795 0
M  V30 15585 H 1479.67 4.98837 1.00197 0
M  V30 15586 H 1479.07 3.98075 4.01936 0
M  V30 15587 H 1477.62 4.85172 4.3526 0
M  V30 15588 N 1481.06 0.105248 1.57248 0
M  V30 15589 C 1482.3 -0.554956 1.94331 0
M  V30 15590 C 1482.63 -1.68087 0.988528 0
M  V30 15591 O 1481.9 -1.95854 0.042366 0
M  V30 15592 H 1480.48 -0.207994 0.717459 0
M  V30 15593 H 1483.14 0.170964 1.94149 0
M  V30 15594 H 1482.23 -0.95853 2.97016 0
M  V30 15595 N 1482.53 -1.56697 -0.168486 0
M  V30 15596 C 1483.78 -1.83318 -0.88126 0
M  V30 15597 C 1484.14 -0.686203 -1.79747 0
M  V30 15598 O 1483.43 0.317194 -1.88956 0
M  V30 15599 C 1483.62 -3.138 -1.71068 0
M  V30 15600 C 1483.45 -4.4108 -0.876273 0
M  V30 15601 C 1482.22 -5.02295 -0.550249 0
M  V30 15602 C 1484.42 -5.13844 -0.216518 0
M  V30 15603 N 1482.4 -6.13167 0.300004 0
M  V30 15604 C 1483.77 -6.18023 0.494779 0
M  V30 15605 C 1485.83 -4.97717 -0.134974 0
M  V30 15606 C 1484.53 -7.07822 1.27989 0
M  V30 15607 C 1486.56 -5.87961 0.636813 0
M  V30 15608 C 1485.92 -6.91605 1.33646 0
M  V30 15609 H 1482.02 -0.72175 -0.301001 0
M  V30 15610 H 1484.6 -1.94136 -0.148047 0
M  V30 15611 H 1482.77 -3.04168 -2.41529 0
M  V30 15612 H 1484.5 -3.28407 -2.36497 0
M  V30 15613 H 1481.26 -4.65334 -0.881 0
M  V30 15614 H 1481.68 -6.73208 0.715523 0
M  V30 15615 H 1486.33 -4.17592 -0.66154 0
M  V30 15616 H 1484.04 -7.87389 1.81779 0
M  V30 15617 H 1487.63 -5.77554 0.701615 0
M  V30 15618 H 1486.51 -7.60229 1.92409 0
M  V30 15619 N 1484.01 0.437135 -1.51416 0
M  V30 15620 C 1485.24 1.21359 -1.68187 0
M  V30 15621 C 1485.66 1.84247 -0.378748 0
M  V30 15622 O 1485.02 1.68816 0.661115 0
M  V30 15623 C 1485.07 2.27319 -2.79926 0
M  V30 15624 O 1484.17 3.32807 -2.43543 0
M  V30 15625 H 1483.51 0.355547 -0.560787 0
M  V30 15626 H 1486.04 0.516204 -1.97981 0
M  V30 15627 H 1486.05 2.721 -3.04016 0
M  V30 15628 H 1484.73 1.80923 -3.74486 0
M  V30 15629 H 1483.31 2.93501 -2.30025 0
M  V30 15630 N 1485.49 1.41566 0.692592 0
M  V30 15631 C 1486.72 1.44236 1.47917 0
M  V30 15632 C 1487.13 0.0469112 1.89142 0
M  V30 15633 O 1486.47 -0.944788 1.57542 0
M  V30 15634 C 1486.53 2.29056 2.7708 0
M  V30 15635 C 1486.2 3.77179 2.58041 0
M  V30 15636 C 1487.19 4.69267 2.23795 0
M  V30 15637 C 1484.88 4.21253 2.73589 0
M  V30 15638 C 1486.87 6.03419 2.05338 0
M  V30 15639 C 1484.56 5.55469 2.54749 0
M  V30 15640 C 1485.56 6.46368 2.20675 0
M  V30 15641 O 1485.25 7.78107 2.02002 0
M  V30 15642 H 1484.98 0.493237 0.462269 0
M  V30 15643 H 1487.53 1.8653 0.859984 0
M  V30 15644 H 1485.76 1.8158 3.41417 0
M  V30 15645 H 1487.45 2.23392 3.38897 0
M  V30 15646 H 1488.22 4.36506 2.11395 0
M  V30 15647 H 1484.1 3.50804 2.99094 0
M  V30 15648 H 1487.64 6.74333 1.78665 0
M  V30 15649 H 1483.54 5.87809 2.66741 0
M  V30 15650 H 1484.31 7.89282 2.16741 0
M  V30 15651 N 1486.97 -0.927146 1.27443 0
M  V30 15652 C 1488.19 -1.71426 1.16739 0
M  V30 15653 C 1488.62 -1.86122 -0.272063 0
M  V30 15654 O 1487.98 -1.36165 -1.19703 0
M  V30 15655 C 1488.02 -3.09131 1.85661 0
M  V30 15656 O 1487.13 -3.95897 1.15495 0
M  V30 15657 H 1486.47 -0.525428 0.405983 0
M  V30 15658 H 1489 -1.16022 1.68523 0
M  V30 15659 H 1489.01 -3.59442 1.93042 0
M  V30 15660 H 1487.68 -2.97752 2.90373 0
M  V30 15661 H 1486.26 -3.54337 1.16187 0
M  V30 15662 N 1488.45 -1.09474 -1.13372 0
M  V30 15663 C 1489.41 -0.738173 -2.16988 0
M  V30 15664 C 1490.41 0.232488 -1.5911 0
M  V30 15665 O 1491.6 0.0106093 -1.74197 0
M  V30 15666 C 1488.73 -0.091724 -3.40777 0
M  V30 15667 H 1489.92 -1.65582 -2.50045 0
M  V30 15668 H 1487.48 -0.893994 -1.28209 0
M  V30 15669 H 1488.21 0.837129 -3.13309 0
M  V30 15670 H 1488 -0.790161 -3.84056 0
M  V30 15671 H 1489.49 0.142334 -4.17357 0
M  V30 15672 N 1489.92 1.30607 -0.882012 0
M  V30 15673 C 1491.17 1.96547 -0.499703 0
M  V30 15674 C 1491.5 1.69484 0.948098 0
M  V30 15675 O 1490.78 0.997929 1.66948 0
M  V30 15676 C 1491.06 3.51735 -0.771662 0
M  V30 15677 C 1490.91 3.88326 -2.26987 0
M  V30 15678 C 1492.23 4.39411 -0.246178 0
M  V30 15679 H 1489.35 0.713912 -0.183026 0
M  V30 15680 H 1491.99 1.5453 -1.10546 0
M  V30 15681 H 1490.14 3.87655 -0.256092 0
M  V30 15682 H 1491.82 3.62444 -2.85362 0
M  V30 15683 H 1490.06 3.36501 -2.7377 0
M  V30 15684 H 1490.73 4.96574 -2.41078 0
M  V30 15685 H 1493.21 4.10382 -0.687419 0
M  V30 15686 H 1492.08 5.4692 -0.465817 0
M  V30 15687 H 1492.34 4.33804 0.852452 0
M  V30 15688 N 1491.4 0.642663 1.43901 0
M  V30 15689 C 1492.33 -0.0938945 2.29008 0
M  V30 15690 C 1493.35 -0.797561 1.41925 0
M  V30 15691 O 1494.54 -0.65708 1.65966 0
M  V30 15692 C 1491.64 -1.15564 3.18588 0
M  V30 15693 C 1490.81 -0.532208 4.3415 0
M  V30 15694 C 1489.87 -1.48943 5.0468 0
M  V30 15695 O 1488.89 -1.00211 5.60309 0
M  V30 15696 N 1490.1 -2.82362 5.072 0
M  V30 15697 H 1492.86 0.636539 2.92862 0
M  V30 15698 H 1490.42 0.484665 1.54475 0
M  V30 15699 H 1492.41 -1.79658 3.62636 0
M  V30 15700 H 1490.98 -1.78816 2.56405 0
M  V30 15701 H 1490.2 0.287598 3.93149 0
M  V30 15702 H 1491.49 -0.0965526 5.08708 0
M  V30 15703 H 1490.89 -3.24524 4.63358 0
M  V30 15704 H 1489.45 -3.41786 5.55001 0
M  V30 15705 N 1492.88 -1.52852 0.383918 0
M  V30 15706 C 1494.16 -1.939 -0.25729 0
M  V30 15707 C 1494.54 -1.31895 -1.64824 0
M  V30 15708 O 1493.89 -0.484987 -2.23294 0
M  V30 15709 C 1494.1 -3.47801 -0.289064 0
M  V30 15710 C 1495.44 -4.21396 -0.520611 0
M  V30 15711 O 1496.47 -3.54278 -0.369502 0
M  V30 15712 O 1495.33 -5.4037 -0.816254 0
M  V30 15713 H 1492.42 -0.811658 -0.158558 0
M  V30 15714 H 1494.97 -1.63949 0.438034 0
M  V30 15715 H 1493.74 -3.8525 0.685441 0
M  V30 15716 H 1493.36 -3.8404 -1.02953 0
M  V30 15717 N 1494.36 -0.113586 -1.5719 0
M  V30 15718 C 1495.61 0.545507 -1.94183 0
M  V30 15719 C 1495.92 1.68176 -0.998816 0
M  V30 15720 O 1497.13 2.40324 -1.26319 0
M  V30 15721 C 1495.58 1.02178 -3.45091 0
M  V30 15722 C 1495.19 -0.0857195 -4.47918 0
M  V30 15723 C 1496.94 1.65255 -3.91013 0
M  V30 15724 C 1494.84 0.406946 -5.89998 0
M  V30 15725 H 1493.77 0.20755 -0.724872 0
M  V30 15726 H 1496.42 -0.192567 -1.82487 0
M  V30 15727 H 1494.81 1.81411 -3.52003 0
M  V30 15728 H 1495.98 -0.861821 -4.52669 0
M  V30 15729 H 1494.29 -0.622816 -4.11716 0
M  V30 15730 H 1496.89 2.0322 -4.94576 0
M  V30 15731 H 1497.23 2.52888 -3.30687 0
M  V30 15732 H 1497.77 0.925727 -3.86879 0
M  V30 15733 H 1494.51 -0.433199 -6.54067 0
M  V30 15734 H 1494.03 1.14965 -5.88679 0
M  V30 15735 H 1495.71 0.869934 -6.41125 0
M  V30 15736 N 1495.84 1.56784 0.160173 0
M  V30 15737 C 1497.25 1.72193 0.721552 0
M  V30 15738 C 1497.6 0.725901 1.82278 0
M  V30 15739 O 1496.72 -0.110343 2.16118 0
M  V30 15740 C 1497.32 3.12212 1.31563 0
M  V30 15741 C 1495.88 3.29268 1.82371 0
M  V30 15742 C 1495.03 2.68136 0.70701 0
M  V30 15743 H 1497.98 1.58565 -0.0653521 0
M  V30 15744 H 1498 3.11481 2.1854 0
M  V30 15745 H 1497.51 3.84682 0.513917 0
M  V30 15746 H 1495.61 2.61774 2.65152 0
M  V30 15747 H 1495.72 4.37107 1.96149 0
M  V30 15748 H 1494.09 2.28246 1.1303 0
M  V30 15749 H 1494.87 3.432 -0.0830407 0
M  V30 15750 N 1497.32 -0.429099 1.51646 0
M  V30 15751 C 1498.28 -1.50398 1.72954 0
M  V30 15752 C 1499.28 -1.49207 0.599491 0
M  V30 15753 O 1500.47 -1.51084 0.867143 0
M  V30 15754 C 1497.6 -2.89903 1.79358 0
M  V30 15755 H 1498.79 -1.32805 2.68892 0
M  V30 15756 H 1496.35 -0.658313 1.4176 0
M  V30 15757 H 1497.08 -3.12891 0.852639 0
M  V30 15758 H 1496.87 -2.92171 2.61492 0
M  V30 15759 H 1498.36 -3.67862 1.97654 0
M  V30 15760 N 1498.79 -1.41931 -0.685074 0
M  V30 15761 C 1500.21 -1.24631 -0.996957 0
M  V30 15762 C 1500.41 -0.143146 -2.00991 0
M  V30 15763 O 1499.47 0.489012 -2.47719 0
M  V30 15764 C 1500.78 -2.59947 -1.51156 0
M  V30 15765 C 1502.33 -2.67216 -1.62986 0
M  V30 15766 C 1502.8 -4.02874 -2.17845 0
M  V30 15767 N 1504.29 -4.04775 -2.25192 0
M  V30 15768 C 1505.03 -5.0655 -2.68691 0
M  V30 15769 N 1504.52 -6.18712 -3.11717 0
M  V30 15770 N 1506.32 -4.93909 -2.68348 0
M  V30 15771 H 1498.47 -2.12395 -0.0142223 0
M  V30 15772 H 1500.73 -0.945496 -0.0688552 0
M  V30 15773 H 1500.44 -3.41477 -0.841793 0
M  V30 15774 H 1500.31 -2.83159 -2.49201 0
M  V30 15775 H 1502.7 -1.86038 -2.29071 0
M  V30 15776 H 1502.78 -2.47804 -0.634584 0
M  V30 15777 H 1502.42 -4.84505 -1.52372 0
M  V30 15778 H 1502.35 -4.19633 -3.18144 0
M  V30 15779 H 1504.84 -3.23798 -1.94841 0
M  V30 15780 H 1505.16 -6.9223 -3.43565 0
M  V30 15781 H 1503.5 -6.22232 -3.096 0
M  V30 15782 H 1506.69 -4.05364 -2.34089 0
M  V30 15783 H 1506.87 -5.73361 -3.01929 0
M  V30 15784 N 1500.27 0.920374 -1.27933 0
M  V30 15785 C 1501.69 1.19761 -1.05496 0
M  V30 15786 C 1501.89 2.00435 0.206864 0
M  V30 15787 O 1500.94 2.35518 0.910356 0
M  V30 15788 C 1502.26 1.93863 -2.29864 0
M  V30 15789 C 1503.8 2.06773 -2.34976 0
M  V30 15790 C 1504.28 2.84282 -3.59093 0
M  V30 15791 N 1505.77 2.91847 -3.59694 0
M  V30 15792 C 1506.51 3.52303 -4.52404 0
M  V30 15793 N 1506 4.14092 -5.55427 0
M  V30 15794 N 1507.79 3.49778 -4.40013 0
M  V30 15795 H 1499.95 0.381596 -2.08944 0
M  V30 15796 H 1502.21 0.231451 -0.919312 0
M  V30 15797 H 1501.91 1.42008 -3.21756 0
M  V30 15798 H 1501.79 2.94446 -2.35757 0
M  V30 15799 H 1504.18 2.57812 -1.43586 0
M  V30 15800 H 1504.26 1.05388 -2.33082 0
M  V30 15801 H 1503.9 2.33925 -4.50823 0
M  V30 15802 H 1503.83 3.85968 -3.5824 0
M  V30 15803 H 1506.32 2.4794 -2.85191 0
M  V30 15804 H 1506.63 4.58183 -6.22325 0
M  V30 15805 H 1504.98 4.12616 -5.59261 0
M  V30 15806 H 1508.17 3.00712 -3.58733 0
M  V30 15807 H 1508.34 3.96603 -5.12455 0
M  V30 15808 N 1501.75 1.10074 1.1279 0
M  V30 15809 C 1502.7 0.740977 2.20482 0
M  V30 15810 C 1503.69 -0.261163 1.67375 0
M  V30 15811 O 1504.9 -0.121923 1.79587 0
M  V30 15812 H 1501.27 0.221666 0.718588 0
M  V30 15813 H 1503.24 1.65823 2.48083 0
M  V30 15814 C 1501.99 0.184934 3.47208 0
M  V30 15815 H 1501.32 0.947278 3.88416 0
M  V30 15816 H 1502.76 -0.0287769 4.2399 0
M  V30 15817 C 1501.21 -1.08145 3.19071 0
M  V30 15818 O 1501.74 -2.1636 3.38454 0
M  V30 15819 N 1499.95 -0.998609 2.72903 0
M  V30 15820 H 1499.5 -0.117906 2.5733 0
M  V30 15821 H 1499.46 -1.84664 2.54453 0
M  V30 15822 N 1503.23 -1.30138 0.888926 0
M  V30 15823 C 1504.64 -1.78124 0.559346 0
M  V30 15824 C 1504.99 -1.73046 -0.924633 0
M  V30 15825 O 1504.11 -1.30974 -1.72264 0
M  V30 15826 C 1504.71 -3.2344 1.00856 0
M  V30 15827 C 1503.27 -3.69247 0.730332 0
M  V30 15828 C 1502.42 -2.505 1.18933 0
M  V30 15829 H 1505.37 -1.16952 1.07275 0
M  V30 15830 H 1505.39 -3.78985 0.339219 0
M  V30 15831 H 1504.9 -3.27104 2.08865 0
M  V30 15832 H 1503 -3.71067 -0.337599 0
M  V30 15833 H 1503.11 -4.60538 1.32066 0
M  V30 15834 H 1501.48 -2.47323 0.608568 0
M  V30 15835 H 1502.26 -2.56899 2.27724 0
M  V30 15836 N 1504.71 -0.650285 -1.43559 0
M  V30 15837 C 1506.12 -0.317586 -1.56408 0
M  V30 15838 C 1506.32 1.17844 -1.63447 0
M  V30 15839 O 1505.38 1.96318 -1.58794 0
M  V30 15840 C 1506.69 -1.02636 -2.82642 0
M  V30 15841 C 1508.24 -1.00633 -2.96381 0
M  V30 15842 C 1508.71 -1.69595 -4.25443 0
M  V30 15843 N 1510.2 -1.66345 -4.323 0
M  V30 15844 C 1510.94 -2.16581 -5.30924 0
M  V30 15845 N 1510.44 -2.75092 -6.35843 0
M  V30 15846 N 1512.23 -2.07098 -5.22558 0
M  V30 15847 H 1504.38 -1.62114 -1.37233 0
M  V30 15848 H 1506.64 -0.681588 -0.658895 0
M  V30 15849 H 1506.35 -2.08146 -2.83493 0
M  V30 15850 H 1506.22 -0.576081 -3.72775 0
M  V30 15851 H 1508.61 0.0403519 -2.95072 0
M  V30 15852 H 1508.69 -1.49528 -2.07545 0
M  V30 15853 H 1508.33 -2.74218 -4.27512 0
M  V30 15854 H 1508.26 -1.18168 -5.1317 0
M  V30 15855 H 1510.76 -1.23644 -3.571 0
M  V30 15856 H 1511.07 -3.11108 -7.07412 0
M  V30 15857 H 1509.41 -2.79152 -6.36474 0
M  V30 15858 H 1512.6 -1.61093 -4.39507 0
M  V30 15859 H 1512.78 -2.46557 -5.99261 0
M  V30 15860 N 1506.18 1.52647 -0.392018 0
M  V30 15861 C 1507.11 2.29446 0.433228 0
M  V30 15862 C 1508.09 1.32945 1.06111 0
M  V30 15863 O 1509.28 1.61841 1.07337 0
M  V30 15864 C 1506.41 3.10328 1.55929 0
M  V30 15865 C 1505.36 4.14735 1.05731 0
M  V30 15866 C 1504.69 4.83858 2.27565 0
M  V30 15867 C 1505.99 5.22154 0.123346 0
M  V30 15868 H 1507.68 2.9868 -0.207563 0
M  V30 15869 H 1505.23 1.43643 -0.101266 0
M  V30 15870 H 1507.18 3.62814 2.14346 0
M  V30 15871 H 1505.91 2.38832 2.22771 0
M  V30 15872 H 1504.57 3.63234 0.495653 0
M  V30 15873 H 1504.21 4.08907 2.92923 0
M  V30 15874 H 1503.91 5.54428 1.94637 0
M  V30 15875 H 1505.44 5.39149 2.86619 0
M  V30 15876 H 1506.85 5.69983 0.615784 0
M  V30 15877 H 1505.25 5.99987 -0.116304 0
M  V30 15878 H 1506.32 4.77796 -0.826969 0
M  V30 15879 N 1507.66 0.121921 1.57128 0
M  V30 15880 C 1508.91 -0.536164 1.95584 0
M  V30 15881 C 1509.24 -1.66143 1.0055 0
M  V30 15882 O 1508.52 -1.94452 0.0432427 0
M  V30 15883 C 1508.8 -1.0661 3.43957 0
M  V30 15884 C 1508.65 0.0559458 4.49765 0
M  V30 15885 C 1509.97 -1.95603 3.94243 0
M  V30 15886 H 1507.09 -0.193427 0.711165 0
M  V30 15887 H 1509.73 0.198072 1.88965 0
M  V30 15888 H 1507.88 -1.69181 3.49729 0
M  V30 15889 H 1509.55 0.691357 4.5609 0
M  V30 15890 H 1507.8 0.71868 4.27805 0
M  V30 15891 H 1508.47 -0.356133 5.5085 0
M  V30 15892 H 1510.94 -1.42899 3.90793 0
M  V30 15893 H 1509.82 -2.29599 4.98573 0
M  V30 15894 H 1510.08 -2.88364 3.3511 0
M  V30 15895 N 1509.14 -1.56867 -0.151857 0
M  V30 15896 C 1510.55 -1.72573 -0.712411 0
M  V30 15897 C 1510.9 -0.735557 -1.8189 0
M  V30 15898 O 1510.03 0.09888 -2.16174 0
M  V30 15899 C 1510.62 -3.12906 -1.29905 0
M  V30 15900 C 1509.18 -3.30231 -1.80623 0
M  V30 15901 C 1508.33 -2.68507 -0.692781 0
M  V30 15902 H 1511.28 -1.58528 0.0737603 0
M  V30 15903 H 1511.3 -3.12636 -2.16885 0
M  V30 15904 H 1510.81 -3.84949 -0.493509 0
M  V30 15905 H 1508.91 -2.63176 -2.6376 0
M  V30 15906 H 1509.03 -4.38141 -1.93828 0
M  V30 15907 H 1507.39 -2.28842 -1.11818 0
M  V30 15908 H 1508.17 -3.43151 0.10124 0
M  V30 15909 N 1510.62 0.421051 -1.51871 0
M  V30 15910 C 1511.85 1.18938 -1.6893 0
M  V30 15911 C 1512.26 1.85069 -0.393198 0
M  V30 15912 O 1511.6 1.72204 0.639648 0
M  V30 15913 C 1511.66 2.30343 -2.76012 0
M  V30 15914 C 1511.33 1.84446 -4.18125 0
M  V30 15915 C 1512.32 1.33882 -5.02366 0
M  V30 15916 C 1510.01 1.91642 -4.64305 0
M  V30 15917 C 1512 0.911212 -6.30853 0
M  V30 15918 C 1509.69 1.48492 -5.92784 0
M  V30 15919 C 1510.69 0.98316 -6.75887 0
M  V30 15920 O 1510.37 0.557853 -8.01962 0
M  V30 15921 H 1510.11 0.363908 -0.56969 0
M  V30 15922 H 1512.66 0.503089 -1.99144 0
M  V30 15923 H 1510.89 3.02298 -2.41148 0
M  V30 15924 H 1512.58 2.92148 -2.81787 0
M  V30 15925 H 1513.35 1.27704 -4.67885 0
M  V30 15926 H 1509.22 2.29641 -3.99732 0
M  V30 15927 H 1512.77 0.518877 -6.95668 0
M  V30 15928 H 1508.67 1.54345 -6.26776 0
M  V30 15929 H 1509.43 0.682238 -8.15652 0
M  V30 15930 N 1512.1 1.42293 0.677538 0
M  V30 15931 C 1513.51 1.25158 0.990334 0
M  V30 15932 C 1513.71 0.153803 2.00912 0
M  V30 15933 O 1512.77 -0.475868 2.47975 0
M  V30 15934 C 1514.08 2.60745 1.49775 0
M  V30 15935 C 1515.63 2.68077 1.61566 0
M  V30 15936 C 1516.1 4.04024 2.15705 0
M  V30 15937 N 1517.6 4.05964 2.23042 0
M  V30 15938 C 1518.33 5.07968 2.66 0
M  V30 15939 N 1517.83 6.20356 3.08432 0
M  V30 15940 N 1519.62 4.95325 2.65725 0
M  V30 15941 H 1511.77 2.124 0.00295822 0
M  V30 15942 H 1514.03 0.945848 0.06384 0
M  V30 15943 H 1513.74 3.41919 0.823672 0
M  V30 15944 H 1513.61 2.84476 2.47695 0
M  V30 15945 H 1516 1.87251 2.28082 0
M  V30 15946 H 1516.08 2.48137 0.621434 0
M  V30 15947 H 1515.73 4.85306 1.498 0
M  V30 15948 H 1515.66 4.21314 3.15914 0
M  V30 15949 H 1518.15 3.24827 1.93122 0
M  V30 15950 H 1518.46 6.94043 3.39889 0
M  V30 15951 H 1516.8 6.23865 3.06296 0
M  V30 15952 H 1520 4.06599 2.31936 0
M  V30 15953 H 1520.17 5.74954 2.98884 0
M  V30 15954 N 1513.57 -0.913576 1.28419 0
M  V30 15955 C 1514.5 -2.03275 1.14897 0
M  V30 15956 C 1515.49 -1.70036 0.0467034 0
M  V30 15957 O 1516.67 -1.92907 0.223725 0
M  V30 15958 C 1513.8 -3.37717 0.810217 0
M  V30 15959 C 1512.75 -3.85119 1.86728 0
M  V30 15960 C 1512.08 -5.16527 1.38215 0
M  V30 15961 C 1513.38 -4.06959 3.27386 0
M  V30 15962 H 1515.07 -2.14847 2.08522 0
M  V30 15963 H 1512.62 -1.03233 1.00394 0
M  V30 15964 H 1514.57 -4.15505 0.702382 0
M  V30 15965 H 1513.3 -3.26199 -0.161732 0
M  V30 15966 H 1511.96 -3.09536 1.96426 0
M  V30 15967 H 1511.6 -5.01413 0.399263 0
M  V30 15968 H 1511.3 -5.49213 2.08898 0
M  V30 15969 H 1512.83 -5.96871 1.28754 0
M  V30 15970 H 1514.24 -4.75272 3.20608 0
M  V30 15971 H 1512.64 -4.50977 3.95904 0
M  V30 15972 H 1513.71 -3.11764 3.71391 0
M  V30 15973 N 1515.05 -1.1067 -1.12204 0
M  V30 15974 C 1515.98 -0.779829 -2.20093 0
M  V30 15975 C 1516.96 0.248279 -1.68278 0
M  V30 15976 O 1518.15 0.113511 -1.93868 0
M  V30 15977 C 1515.28 -0.213511 -3.46643 0
M  V30 15978 C 1514.23 -1.17258 -4.11624 0
M  V30 15979 C 1513.56 -0.467352 -5.32654 0
M  V30 15980 C 1514.86 -2.52014 -4.57478 0
M  V30 15981 H 1516.55 -1.68192 -2.47693 0
M  V30 15982 H 1514.1 -0.810131 -1.1905 0
M  V30 15983 H 1516.05 0.0273225 -4.21391 0
M  V30 15984 H 1514.78 0.723837 -3.18478 0
M  V30 15985 H 1513.43 -1.39891 -3.3886 0
M  V30 15986 H 1513.08 0.474547 -5.00756 0
M  V30 15987 H 1512.78 -1.10694 -5.77079 0
M  V30 15988 H 1514.31 -0.235122 -6.10147 0
M  V30 15989 H 1515.72 -2.33516 -5.23587 0
M  V30 15990 H 1514.12 -3.1188 -5.1269 0
M  V30 15991 H 1515.19 -3.11831 -3.71335 0
M  V30 15992 N 1516.53 1.29665 -0.895815 0
M  V30 15993 C 1517.81 1.90601 -0.439394 0
M  V30 15994 C 1518.19 1.81341 1.08068 0
M  V30 15995 O 1517.54 1.23761 1.92082 0
M  V30 15996 C 1517.75 3.35832 -0.949622 0
M  V30 15997 C 1519.09 4.12873 -0.991015 0
M  V30 15998 O 1520.12 3.4472 -0.897025 0
M  V30 15999 O 1518.98 5.34656 -1.1316 0
M  V30 16000 H 1516.07 0.81569 -0.136304 0
M  V30 16001 H 1518.62 1.38157 -0.985426 0
M  V30 16002 H 1517.39 3.36708 -1.99357 0
M  V30 16003 H 1517.01 3.95747 -0.383376 0
M  V30 16004 N 1518.01 0.657889 1.43212 0
M  V30 16005 C 1518.92 -0.0313677 2.34579 0
M  V30 16006 C 1519.93 -0.807153 1.54146 0
M  V30 16007 O 1521.11 -0.753335 1.8678 0
M  V30 16008 C 1518.18 -0.982659 3.32483 0
M  V30 16009 C 1517.24 -0.203288 4.28818 0
M  V30 16010 C 1516.47 -1.10927 5.22045 0
M  V30 16011 O 1516.69 -2.34861 5.19804 0
M  V30 16012 O 1515.63 -0.57916 5.99107 0
M  V30 16013 H 1519.45 0.720808 2.95022 0
M  V30 16014 H 1517.04 0.418083 1.43431 0
M  V30 16015 H 1518.92 -1.52923 3.92673 0
M  V30 16016 H 1517.59 -1.71498 2.74536 0
M  V30 16017 H 1516.5 0.386982 3.72093 0
M  V30 16018 H 1517.83 0.489562 4.89759 0
M  V30 16019 N 1519.49 -1.52437 0.400108 0
M  V30 16020 C 1520.45 -2.2536 -0.417808 0
M  V30 16021 C 1521.45 -1.27393 -0.981204 0
M  V30 16022 O 1522.64 -1.51406 -0.861503 0
M  V30 16023 C 1519.77 -3.01695 -1.58724 0
M  V30 16024 H 1520.96 -2.99086 0.220782 0
M  V30 16025 H 1518.52 -1.55555 0.152439 0
M  V30 16026 H 1519.25 -2.32295 -2.26295 0
M  V30 16027 H 1519.04 -3.73611 -1.18984 0
M  V30 16028 H 1520.53 -3.57033 -2.16604 0
M  V30 16029 N 1520.96 -0.130252 -1.57061 0
M  V30 16030 C 1522.19 0.532416 -1.99932 0
M  V30 16031 C 1522.61 1.59505 -1.01013 0
M  V30 16032 O 1521.96 1.82499 -0.00463158 0
M  V30 16033 C 1522.02 1.14833 -3.42776 0
M  V30 16034 O 1521.74 0.128163 -4.37912 0
M  V30 16035 C 1523.24 1.89324 -4.00838 0
M  V30 16036 H 1520.46 0.140046 -0.656223 0
M  V30 16037 H 1523 -0.219905 -2.03314 0
M  V30 16038 H 1521.16 1.85137 -3.40298 0
M  V30 16039 H 1521.57 0.577135 -5.21315 0
M  V30 16040 H 1523.04 2.27731 -5.02835 0
M  V30 16041 H 1523.52 2.77277 -3.40608 0
M  V30 16042 H 1524.13 1.23757 -4.06896 0
M  V30 16043 N 1522.44 1.56945 0.143535 0
M  V30 16044 C 1523.39 1.98526 1.17711 0
M  V30 16045 C 1524.36 0.853402 1.425 0
M  V30 16046 O 1525.55 1.11574 1.54777 0
M  V30 16047 C 1522.69 2.37395 2.50475 0
M  V30 16048 C 1521.8 3.63887 2.32831 0
M  V30 16049 C 1520.93 3.91844 3.58653 0
M  V30 16050 C 1519.97 5.11595 3.36061 0
M  V30 16051 N 1519.11 5.35545 4.54022 0
M  V30 16052 H 1523.95 2.86624 0.815524 0
M  V30 16053 H 1521.49 1.41802 0.391231 0
M  V30 16054 H 1523.44 2.5796 3.27891 0
M  V30 16055 H 1522.07 1.52372 2.84575 0
M  V30 16056 H 1521.13 3.51078 1.46452 0
M  V30 16057 H 1522.44 4.51459 2.12098 0
M  V30 16058 H 1521.59 4.12926 4.44497 0
M  V30 16059 H 1520.33 3.027 3.82393 0
M  V30 16060 H 1519.34 4.90383 2.48606 0
M  V30 16061 H 1520.56 6.02295 3.13716 0
M  V30 16062 H 1518.51 4.49355 4.77929 0
M  V30 16063 H 1518.42 6.17393 4.36305 0
M  V30 16064 H 1519.69 5.61127 5.4107 0
M  V30 16065 N 1523.92 -0.412991 1.52093 0
M  V30 16066 C 1525.34 -0.751324 1.40809 0
M  V30 16067 C 1525.54 -1.94951 0.509543 0
M  V30 16068 O 1524.59 -2.52486 -0.026132 0
M  V30 16069 C 1525.91 -1.00888 2.8327 0
M  V30 16070 C 1527.45 -1.11183 2.92587 0
M  V30 16071 C 1527.93 -1.40217 4.36008 0
M  V30 16072 N 1529.42 -1.4709 4.39225 0
M  V30 16073 C 1530.16 -1.71174 5.47254 0
M  V30 16074 N 1529.65 -1.92887 6.65407 0
M  V30 16075 N 1531.44 -1.73157 5.34765 0
M  V30 16076 H 1523.6 0.375774 2.0905 0
M  V30 16077 H 1525.86 0.105817 0.942076 0
M  V30 16078 H 1525.56 -0.200872 3.51126 0
M  V30 16079 H 1525.44 -1.93008 3.2408 0
M  V30 16080 H 1527.83 -1.91043 2.24915 0
M  V30 16081 H 1527.91 -0.169078 2.55241 0
M  V30 16082 H 1527.55 -0.608754 5.04239 0
M  V30 16083 H 1527.48 -2.35737 4.70888 0
M  V30 16084 H 1529.97 -1.32114 3.54054 0
M  V30 16085 H 1530.28 -2.10704 7.43521 0
M  V30 16086 H 1528.63 -1.9016 6.68479 0
M  V30 16087 H 1531.82 -1.55728 4.41437 0
M  V30 16088 H 1531.99 -1.91587 6.1903 0
M  V30 16089 N 1525.4 -1.4265 -0.669982 0
M  V30 16090 C 1526.62 -1.46992 -1.46315 0
M  V30 16091 C 1527.05 -0.0840655 -1.87912 0
M  V30 16092 O 1526.41 0.918554 -1.56308 0
M  V30 16093 C 1526.46 -2.40663 -2.6854 0
M  V30 16094 O 1525.56 -1.88132 -3.66988 0
M  V30 16095 H 1524.9 -0.497844 -0.439372 0
M  V30 16096 H 1527.43 -1.8739 -0.821348 0
M  V30 16097 H 1527.44 -2.57405 -3.16554 0
M  V30 16098 H 1526.12 -3.41346 -2.37604 0
M  V30 16099 H 1524.69 -1.80969 -3.26044 0
M  V30 16100 N 1526.88 0.906753 -1.28902 0
M  V30 16101 C 1527.83 2.03141 -1.13299 0
M  V30 16102 C 1528.82 1.69325 -0.0504114 0
M  V30 16103 O 1530.03 1.78774 -0.209696 0
M  V30 16104 H 1526.4 0.665709 -0.349766 0
M  V30 16105 H 1528.37 2.13441 -2.08531 0
M  V30 16106 C 1527.12 3.37918 -0.818935 0
M  V30 16107 H 1526.44 3.64437 -1.64395 0
M  V30 16108 H 1527.88 4.17318 -0.749753 0
M  V30 16109 C 1526.34 3.33498 0.477582 0
M  V30 16110 O 1526.87 3.7241 1.50578 0
M  V30 16111 N 1525.08 2.86594 0.480862 0
M  V30 16112 H 1524.63 2.55124 -0.356308 0
M  V30 16113 H 1524.58 2.84019 1.34835 0
M  V30 16114 N 1528.36 1.11264 1.11616 0
M  V30 16115 C 1529.77 0.846176 1.35322 0
M  V30 16116 C 1529.97 -0.530043 1.94404 0
M  V30 16117 O 1529.03 -1.28122 2.1758 0
M  V30 16118 C 1530.34 1.9528 2.28662 0
M  V30 16119 C 1531.89 1.98225 2.42231 0
M  V30 16120 C 1532.36 3.08086 3.38891 0
M  V30 16121 N 1533.85 3.07448 3.46453 0
M  V30 16122 C 1534.59 3.89094 4.21181 0
M  V30 16123 N 1534.09 4.80698 4.989 0
M  V30 16124 N 1535.88 3.77279 4.16674 0
M  V30 16125 H 1528.03 1.99958 0.716284 0
M  V30 16126 H 1530.29 0.869439 0.377862 0
M  V30 16127 H 1530 2.94381 1.92439 0
M  V30 16128 H 1529.87 1.84739 3.28864 0
M  V30 16129 H 1532.26 0.997517 2.77729 0
M  V30 16130 H 1532.34 2.12842 1.41887 0
M  V30 16131 H 1531.98 4.06784 3.0412 0
M  V30 16132 H 1531.91 2.90709 4.39085 0
M  V30 16133 H 1534.41 2.41077 2.91016 0
M  V30 16134 H 1534.72 5.39535 5.53282 0
M  V30 16135 H 1533.06 4.84721 4.98067 0
M  V30 16136 H 1536.25 3.05059 3.55044 0
M  V30 16137 H 1536.43 4.41142 4.74655 0
M  V30 16138 N 1529.83 -1.29188 0.902679 0
M  V30 16139 C 1531.11 -1.90365 0.449496 0
M  V30 16140 C 1531.49 -1.81911 -1.07105 0
M  V30 16141 O 1530.84 -1.24778 -1.91423 0
M  V30 16142 C 1531.05 -3.35324 0.967418 0
M  V30 16143 C 1532.4 -4.12342 1.0129 0
M  V30 16144 O 1533.42 -3.44239 0.915293 0
M  V30 16145 O 1532.28 -5.34048 1.15994 0
M  V30 16146 H 1529.37 -0.814956 0.140628 0
M  V30 16147 H 1531.92 -1.37633 0.992739 0
M  V30 16148 H 1530.69 -3.35646 2.0114 0
M  V30 16149 H 1530.31 -3.95539 0.404358 0
M  V30 16150 N 1531.31 -0.665475 -1.42861 0
M  V30 16151 C 1532.54 -0.190399 -2.06524 0
M  V30 16152 C 1532.96 1.13995 -1.49622 0
M  V30 16153 O 1532.32 1.70695 -0.610981 0
M  V30 16154 C 1532.37 -0.12594 -3.6038 0
M  V30 16155 O 1531.47 0.908299 -4.02273 0
M  V30 16156 H 1530.81 -0.100495 -0.656351 0
M  V30 16157 H 1533.34 -0.911858 -1.83156 0
M  V30 16158 H 1533.35 0.0533153 -4.07965 0
M  V30 16159 H 1532.03 -1.09703 -4.01171 0
M  V30 16160 H 1530.6 0.700841 -3.66255 0
M  V30 16161 N 1532.79 1.52222 -0.408187 0
M  V30 16162 C 1533.72 2.29892 0.408868 0
M  V30 16163 C 1534.7 1.34063 1.04695 0
M  V30 16164 O 1535.89 1.6297 1.05615 0
M  V30 16165 C 1533.02 3.11964 1.52629 0
M  V30 16166 C 1531.97 4.15833 1.01326 0
M  V30 16167 C 1531.3 4.86244 2.2242 0
M  V30 16168 C 1532.6 5.22256 0.0679573 0
M  V30 16169 H 1534.29 2.98443 -0.23923 0
M  V30 16170 H 1531.84 1.43528 -0.116496 0
M  V30 16171 H 1533.79 3.65067 2.10486 0
M  V30 16172 H 1532.51 2.41181 2.20225 0
M  V30 16173 H 1531.17 3.63739 0.4571 0
M  V30 16174 H 1530.82 4.11991 2.88569 0
M  V30 16175 H 1530.52 5.56461 1.88746 0
M  V30 16176 H 1532.04 5.42159 2.80885 0
M  V30 16177 H 1533.46 5.70604 0.555295 0
M  V30 16178 H 1531.85 5.9983 -0.179934 0
M  V30 16179 H 1532.92 4.76892 -0.877599 0
M  V30 16180 N 1534.27 0.138579 1.5699 0
M  V30 16181 C 1535.51 -0.517479 1.97741 0
M  V30 16182 C 1535.87 -1.62587 1.02125 0
M  V30 16183 O 1537.07 -2.3422 1.31888 0
M  V30 16184 C 1535.34 -1.01841 3.42583 0
M  V30 16185 S 1536.9 -1.68025 4.05355 0
M  V30 16186 H 1533.72 -0.167594 0.690965 0
M  V30 16187 H 1536.32 0.2283 1.94162 0
M  V30 16188 H 1535.03 -0.200832 4.09908 0
M  V30 16189 H 1534.56 -1.79901 3.49856 0
M  V30 16190 H 1536.57 -2.96708 3.97717 0
M  V30 16191 N 1535.75 -1.57019 -0.13521 0
M  V30 16192 C 1536.68 -1.95769 -1.19193 0
M  V30 16193 C 1537.69 -0.854953 -1.38544 0
M  V30 16194 O 1538.88 -1.13332 -1.37906 0
M  V30 16195 C 1535.98 -2.22674 -2.55479 0
M  V30 16196 C 1535.15 -3.53972 -2.56949 0
M  V30 16197 C 1534.21 -3.69278 -3.7486 0
M  V30 16198 O 1533.24 -4.41555 -3.59191 0
M  V30 16199 N 1534.44 -3.06826 -4.92786 0
M  V30 16200 H 1537.2 -2.87022 -0.862451 0
M  V30 16201 H 1534.77 -1.58611 -0.324658 0
M  V30 16202 H 1536.76 -2.30144 -3.3289 0
M  V30 16203 H 1535.33 -1.37628 -2.80673 0
M  V30 16204 H 1534.55 -3.57836 -1.65368 0
M  V30 16205 H 1535.84 -4.40303 -2.54973 0
M  V30 16206 H 1535.23 -2.48043 -5.0842 0
M  V30 16207 H 1533.79 -3.19841 -5.67931 0
M  V30 16208 N 1537.22 0.404919 -1.52309 0
M  V30 16209 C 1538.19 1.47627 -1.75325 0
M  V30 16210 C 1539.19 1.48234 -0.623153 0
M  V30 16211 O 1540.38 1.49685 -0.891069 0
M  V30 16212 C 1537.51 2.87013 -1.83947 0
M  V30 16213 H 1538.7 1.2851 -2.70971 0
M  V30 16214 H 1536.26 0.635677 -1.42789 0
M  V30 16215 H 1536.99 3.11495 -0.902309 0
M  V30 16216 H 1536.78 2.87974 -2.66108 0
M  V30 16217 H 1538.27 3.64671 -2.03481 0
M  V30 16218 N 1538.7 1.43003 0.662408 0
M  V30 16219 C 1539.95 1.44346 1.4245 0
M  V30 16220 C 1540.28 0.064094 1.94094 0
M  V30 16221 O 1539.56 -0.913633 1.71706 0
M  V30 16222 C 1539.84 2.47822 2.61259 0
M  V30 16223 C 1539.69 3.94998 2.15166 0
M  V30 16224 C 1541.01 2.48139 3.63476 0
M  V30 16225 H 1538.13 0.525606 0.51663 0
M  V30 16226 H 1540.77 1.74495 0.751754 0
M  V30 16227 H 1538.92 2.22244 3.18653 0
M  V30 16228 H 1540.59 4.31601 1.62843 0
M  V30 16229 H 1538.84 4.0827 1.46622 0
M  V30 16230 H 1539.51 4.62998 3.00561 0
M  V30 16231 H 1541.98 2.70916 3.15823 0
M  V30 16232 H 1540.86 3.22498 4.44169 0
M  V30 16233 H 1541.12 1.51184 4.15447 0
M  V30 16234 N 1540.18 -0.899904 1.29381 0
M  V30 16235 C 1541.6 -1.18067 1.07388 0
M  V30 16236 C 1541.8 -2.00739 -0.174951 0
M  V30 16237 O 1540.85 -2.36937 -0.872771 0
M  V30 16238 C 1542.17 -1.90182 2.32919 0
M  V30 16239 C 1543.71 -2.03009 2.38236 0
M  V30 16240 C 1544.19 -2.78533 3.6357 0
M  V30 16241 N 1545.68 -2.86088 3.64291 0
M  V30 16242 C 1546.41 -3.45062 4.57952 0
M  V30 16243 N 1545.91 -4.05204 5.61945 0
M  V30 16244 N 1547.7 -3.42734 4.45522 0
M  V30 16245 H 1539.85 -0.348306 2.09525 0
M  V30 16246 H 1542.12 -0.216796 0.922878 0
M  V30 16247 H 1541.82 -1.36871 3.23974 0
M  V30 16248 H 1541.7 -2.90658 2.40412 0
M  V30 16249 H 1544.08 -2.55495 1.47669 0
M  V30 16250 H 1544.17 -1.01666 2.34729 0
M  V30 16251 H 1543.81 -2.26723 4.54488 0
M  V30 16252 H 1543.74 -3.8022 3.64335 0
M  V30 16253 H 1546.23 -2.43372 2.891 0
M  V30 16254 H 1546.54 -4.48225 6.29535 0
M  V30 16255 H 1544.89 -4.03667 5.65755 0
M  V30 16256 H 1548.08 -2.94967 3.63472 0
M  V30 16257 H 1548.25 -3.884 5.187 0
M  V30 16258 N 1541.66 -1.11854 -1.11024 0
M  V30 16259 C 1542.89 -0.892714 -1.8665 0
M  V30 16260 C 1543.3 0.557721 -1.80374 0
M  V30 16261 O 1542.66 1.3853 -1.1881 0
M  V30 16262 C 1542.71 -1.35135 -3.35292 0
M  V30 16263 O 1542.43 -2.74493 -3.41446 0
M  V30 16264 C 1543.93 -1.16157 -4.27811 0
M  V30 16265 H 1541.15 -0.319409 -0.590101 0
M  V30 16266 H 1543.7 -1.48697 -1.40391 0
M  V30 16267 H 1541.85 -0.80046 -3.7904 0
M  V30 16268 H 1542.26 -2.94474 -4.34034 0
M  V30 16269 H 1543.74 -1.53144 -5.30331 0
M  V30 16270 H 1544.22 -0.101546 -4.39083 0
M  V30 16271 H 1544.82 -1.69966 -3.89861 0
M  V30 16272 N 1543.14 1.28707 -0.909517 0
M  V30 16273 C 1544.07 2.29845 -0.411552 0
M  V30 16274 C 1545.05 1.62001 0.518615 0
M  V30 16275 O 1546.23 1.89442 0.427252 0
M  V30 16276 C 1543.36 3.45501 0.353013 0
M  V30 16277 C 1542.32 4.25213 -0.487625 0
M  V30 16278 C 1541.64 5.33164 0.405026 0
M  V30 16279 C 1542.94 4.9237 -1.74268 0
M  V30 16280 H 1544.64 2.71746 -1.25676 0
M  V30 16281 H 1542.18 1.30639 -0.605759 0
M  V30 16282 H 1544.14 4.15338 0.712191 0
M  V30 16283 H 1542.86 3.02469 1.23209 0
M  V30 16284 H 1541.52 3.57098 -0.829265 0
M  V30 16285 H 1541.17 4.86375 1.28252 0
M  V30 16286 H 1540.87 5.87399 -0.153811 0
M  V30 16287 H 1542.39 6.0585 0.760179 0
M  V30 16288 H 1543.8 5.5459 -1.45266 0
M  V30 16289 H 1542.2 5.56581 -2.2436 0
M  V30 16290 H 1543.27 4.171 -2.47297 0
M  V30 16291 N 1544.61 0.673042 1.42506 0
M  V30 16292 C 1545.54 0.00755467 2.33499 0
M  V30 16293 C 1546.53 -0.791161 1.50581 0
M  V30 16294 O 1547.71 -0.748668 1.79189 0
M  V30 16295 C 1544.84 -0.945638 3.34178 0
M  V30 16296 C 1543.79 -0.25564 4.27236 0
M  V30 16297 C 1543.12 -1.32165 5.18109 0
M  V30 16298 C 1544.42 0.864254 5.151 0
M  V30 16299 H 1546.11 0.767487 2.89396 0
M  V30 16300 H 1543.66 0.370524 1.39151 0
M  V30 16301 H 1545.61 -1.42026 3.96745 0
M  V30 16302 H 1544.34 -1.73697 2.76581 0
M  V30 16303 H 1543 0.19873 3.66061 0
M  V30 16304 H 1542.64 -2.10492 4.56839 0
M  V30 16305 H 1542.34 -0.865109 5.81197 0
M  V30 16306 H 1543.87 -1.79724 5.83551 0
M  V30 16307 H 1545.28 0.470924 5.71363 0
M  V30 16308 H 1543.68 1.24648 5.87012 0
M  V30 16309 H 1544.75 1.71378 4.53605 0
M  V30 16310 N 1546.09 -1.52004 0.416254 0
M  V30 16311 C 1547.34 -2.0149 -0.15689 0
M  V30 16312 C 1547.66 -1.30343 -1.45037 0
M  V30 16313 O 1546.93 -0.431503 -1.91089 0
M  V30 16314 H 1545.51 -0.744508 -0.0609682 0
M  V30 16315 H 1548.17 -1.86857 0.55413 0
M  V30 16316 H 1547.27 -3.10155 -0.347917 0
M  V30 16317 N 1547.57 -0.146903 -1.56914 0
M  V30 16318 C 1548.8 0.51044 -2.00195 0
M  V30 16319 C 1549.21 1.58966 -1.02599 0
M  V30 16320 O 1548.55 1.83694 -0.0149611 0
M  V30 16321 C 1548.61 1.17055 -3.39909 0
M  V30 16322 C 1548.28 0.235944 -4.56391 0
M  V30 16323 C 1549.27 -0.536351 -5.17126 0
M  V30 16324 C 1546.96 0.138878 -5.02108 0
M  V30 16325 C 1548.95 -1.39316 -6.21989 0
M  V30 16326 C 1546.64 -0.721538 -6.06825 0
M  V30 16327 C 1547.64 -1.48616 -6.66635 0
M  V30 16328 O 1547.33 -2.33224 -7.69325 0
M  V30 16329 H 1547.06 0.137381 -0.661893 0
M  V30 16330 H 1549.61 -0.23844 -2.04011 0
M  V30 16331 H 1547.84 1.96707 -3.32931 0
M  V30 16332 H 1549.53 1.72761 -3.67299 0
M  V30 16333 H 1550.3 -0.471393 -4.82704 0
M  V30 16334 H 1546.18 0.723769 -4.55283 0
M  V30 16335 H 1549.72 -1.99044 -6.68601 0
M  V30 16336 H 1545.62 -0.787788 -6.40675 0
M  V30 16337 H 1546.39 -2.26471 -7.86545 0
M  V30 16338 N 1549.05 1.57088 0.126881 0
M  V30 16339 C 1550.3 1.84071 0.834397 0
M  V30 16340 C 1550.62 0.730896 1.80784 0
M  V30 16341 O 1549.89 -0.245791 1.94352 0
M  V30 16342 H 1548.47 0.679123 0.311128 0
M  V30 16343 H 1551.13 1.94554 0.116083 0
M  V30 16344 H 1550.23 2.79714 1.38443 0
M  V30 16345 N 1550.53 -0.396836 1.52522 0
M  V30 16346 C 1551.76 -1.16235 1.70801 0
M  V30 16347 C 1552.16 -1.8442 0.422591 0
M  V30 16348 O 1551.51 -1.732 -0.612171 0
M  V30 16349 C 1551.57 -2.25922 2.79642 0
M  V30 16350 C 1551.23 -1.7777 4.21007 0
M  V30 16351 C 1552.23 -1.25873 5.04432 0
M  V30 16352 C 1549.92 -1.84231 4.67295 0
M  V30 16353 C 1551.91 -0.810733 6.32223 0
M  V30 16354 C 1549.6 -1.39043 5.95072 0
M  V30 16355 C 1550.59 -0.875508 6.77365 0
M  V30 16356 O 1550.28 -0.430197 8.02748 0
M  V30 16357 H 1550.01 -0.354799 0.575407 0
M  V30 16358 H 1552.57 -0.471344 1.99919 0
M  V30 16359 H 1550.8 -2.98424 2.45927 0
M  V30 16360 H 1552.49 -2.87629 2.86399 0
M  V30 16361 H 1553.25 -1.20244 4.69858 0
M  V30 16362 H 1549.13 -2.23253 4.03335 0
M  V30 16363 H 1552.68 -0.408137 6.96405 0
M  V30 16364 H 1548.57 -1.44354 6.29152 0
M  V30 16365 H 1549.34 -0.552389 8.16634 0
M  V30 16366 N 1552.01 -1.43353 -0.654814 0
M  V30 16367 C 1552.95 -1.48652 -1.789 0
M  V30 16368 C 1553.95 -0.360274 -1.65525 0
M  V30 16369 O 1555.15 -0.534194 -1.71891 0
M  V30 16370 H 1551.53 -0.465987 -0.590221 0
M  V30 16371 H 1553.5 -2.44158 -1.7155 0
M  V30 16372 C 1552.25 -1.42512 -3.17152 0
M  V30 16373 H 1551.57 -2.28479 -3.28081 0
M  V30 16374 H 1553.01 -1.50282 -3.96474 0
M  V30 16375 C 1551.47 -0.142511 -3.36598 0
M  V30 16376 O 1552 0.796821 -3.93718 0
M  V30 16377 N 1550.21 -0.0532157 -2.90551 0
M  V30 16378 H 1549.75 -0.818421 -2.44253 0
M  V30 16379 H 1549.71 0.80427 -3.03939 0
M  V30 16380 N 1553.48 0.89303 -1.29857 0
M  V30 16381 C 1554.73 1.63881 -1.17583 0
M  V30 16382 C 1555.05 1.93723 0.270293 0
M  V30 16383 O 1556.25 2.66582 0.514432 0
M  V30 16384 C 1554.71 2.95327 -2.05694 0
M  V30 16385 C 1554.32 2.73055 -3.55169 0
M  V30 16386 C 1556.06 3.7327 -2.02162 0
M  V30 16387 C 1553.97 4.00268 -4.35361 0
M  V30 16388 H 1552.9 0.614815 -0.436485 0
M  V30 16389 H 1555.55 0.989339 -1.54546 0
M  V30 16390 H 1553.93 3.61523 -1.61607 0
M  V30 16391 H 1555.1 2.1541 -4.07351 0
M  V30 16392 H 1553.42 2.08498 -3.6044 0
M  V30 16393 H 1556.02 4.67601 -2.59333 0
M  V30 16394 H 1556.36 4.04032 -1.00318 0
M  V30 16395 H 1556.89 3.13925 -2.44328 0
M  V30 16396 H 1553.63 3.74669 -5.37869 0
M  V30 16397 H 1553.15 4.57448 -3.87945 0
M  V30 16398 H 1554.83 4.68358 -4.46374 0
M  V30 16399 N 1554.96 1.12442 1.10429 0
M  V30 16400 C 1555.87 0.805377 2.20343 0
M  V30 16401 C 1556.89 -0.205836 1.72778 0
M  V30 16402 O 1558.06 -0.0394195 2.01361 0
M  V30 16403 C 1555.13 0.264711 3.45688 0
M  V30 16404 C 1554.19 1.33586 4.07987 0
M  V30 16405 C 1553.42 0.8209 5.27349 0
M  V30 16406 O 1553.65 -0.345303 5.69354 0
M  V30 16407 O 1552.58 1.59052 5.80505 0
M  V30 16408 H 1556.41 1.7234 2.50065 0
M  V30 16409 H 1553.99 0.901084 1.19167 0
M  V30 16410 H 1555.87 -0.0319164 4.21388 0
M  V30 16411 H 1554.55 -0.625869 3.17592 0
M  V30 16412 H 1553.45 1.68566 3.33971 0
M  V30 16413 H 1554.79 2.20021 4.40286 0
M  V30 16414 N 1556.44 -1.28223 0.91633 0
M  V30 16415 C 1557.85 -1.76898 0.597003 0
M  V30 16416 C 1558.2 -1.74969 -0.887719 0
M  V30 16417 O 1557.33 -1.34598 -1.69447 0
M  V30 16418 C 1557.92 -3.21228 1.07694 0
M  V30 16419 C 1556.48 -3.67614 0.80849 0
M  V30 16420 C 1555.63 -2.47921 1.24219 0
M  V30 16421 H 1558.58 -1.1465 1.09732 0
M  V30 16422 H 1558.6 -3.7818 0.419531 0
M  V30 16423 H 1558.11 -3.226 2.15757 0
M  V30 16424 H 1556.21 -3.717 -0.258814 0
M  V30 16425 H 1556.33 -4.57633 1.41804 0
M  V30 16426 H 1554.69 -2.45976 0.660892 0
M  V30 16427 H 1555.47 -2.5201 2.33122 0
M  V30 16428 N 1557.92 -0.68059 -1.42147 0
M  V30 16429 C 1559.33 -0.281841 -1.8456 0
M  V30 16430 C 1559.68 1.17714 -1.56965 0
M  V30 16431 O 1558.8 1.90185 -1.03241 0
M  V30 16432 C 1559.4 -0.504751 -3.35019 0
M  V30 16433 C 1557.96 -0.160067 -3.76059 0
M  V30 16434 C 1557.11 -0.794377 -2.65678 0
M  V30 16435 H 1560.06 -0.882337 -1.31911 0
M  V30 16436 H 1560.08 0.241308 -3.79734 0
M  V30 16437 H 1559.59 -1.56669 -3.55072 0
M  V30 16438 H 1557.69 0.898202 -3.61612 0
M  V30 16439 H 1557.8 -0.60463 -4.75269 0
M  V30 16440 H 1556.17 -0.225213 -2.53702 0
M  V30 16441 H 1556.95 -1.85989 -2.88553 0
M  V30 16442 N 1559.4 1.51781 -0.424309 0
M  V30 16443 C 1560.67 1.94514 0.205791 0
M  V30 16444 C 1561.05 1.36219 1.61269 0
M  V30 16445 O 1560.4 0.544019 2.21929 0
M  V30 16446 C 1560.61 3.48445 0.196749 0
M  V30 16447 C 1561.96 4.22628 0.408702 0
M  V30 16448 O 1562.98 3.55133 0.275441 0
M  V30 16449 O 1561.84 5.42344 0.672698 0
M  V30 16450 H 1558.94 0.815576 0.136983 0
M  V30 16451 H 1561.48 1.6273 -0.481349 0
M  V30 16452 H 1560.25 3.83297 -0.787342 0
M  V30 16453 H 1559.88 3.86634 0.92735 0
M  V30 16454 N 1560.87 0.155222 1.56834 0
M  V30 16455 C 1561.81 -0.812448 2.14317 0
M  V30 16456 C 1562.82 -1.20502 1.09467 0
M  V30 16457 O 1564.01 -1.14767 1.36714 0
M  V30 16458 C 1561.11 -2.10279 2.65774 0
M  V30 16459 C 1560.28 -1.8763 3.95112 0
M  V30 16460 C 1559.34 -3.0073 4.31796 0
M  V30 16461 O 1558.37 -2.72064 4.9997 0
M  V30 16462 N 1559.57 -4.28114 3.92044 0
M  V30 16463 H 1562.33 -0.321106 2.97975 0
M  V30 16464 H 1559.89 -0.0280861 1.61876 0
M  V30 16465 H 1561.89 -2.85005 2.87323 0
M  V30 16466 H 1560.46 -2.50652 1.86796 0
M  V30 16467 H 1559.68 -0.968958 3.82106 0
M  V30 16468 H 1560.96 -1.69845 4.79614 0
M  V30 16469 H 1560.36 -4.54269 3.37129 0
M  V30 16470 H 1558.92 -4.99594 4.18627 0
M  V30 16471 N 1562.35 -1.57153 -0.118549 0
M  V30 16472 C 1563.26 -2.03673 -1.16424 0
M  V30 16473 C 1564.28 -0.957203 -1.45305 0
M  V30 16474 O 1565.45 -1.26874 -1.56413 0
M  V30 16475 C 1562.52 -2.43211 -2.47082 0
M  V30 16476 C 1561.58 -3.65248 -2.25593 0
M  V30 16477 C 1560.81 -4.02891 -3.50021 0
M  V30 16478 O 1561.04 -3.40871 -4.57344 0
M  V30 16479 O 1559.97 -4.95989 -3.40996 0
M  V30 16480 H 1563.8 -2.92996 -0.799206 0
M  V30 16481 H 1561.38 -1.45724 -0.329376 0
M  V30 16482 H 1563.26 -2.69374 -3.24061 0
M  V30 16483 H 1561.94 -1.57034 -2.83058 0
M  V30 16484 H 1560.84 -3.44234 -1.46471 0
M  V30 16485 H 1562.18 -4.52131 -1.94521 0
M  V30 16486 N 1563.83 0.388742 -1.5273 0
M  V30 16487 C 1565.24 0.966667 -1.59726 0
M  V30 16488 C 1565.59 1.90963 -0.450272 0
M  V30 16489 O 1564.72 2.12153 0.426611 0
M  V30 16490 C 1565.31 1.75998 -2.895 0
M  V30 16491 C 1563.87 2.28761 -2.98907 0
M  V30 16492 C 1563.02 1.09322 -2.54841 0
M  V30 16493 H 1565.97 0.16828 -1.57805 0
M  V30 16494 H 1565.99 2.61924 -2.76 0
M  V30 16495 H 1565.5 1.07342 -3.7296 0
M  V30 16496 H 1563.6 3.00728 -2.19985 0
M  V30 16497 H 1563.72 2.58229 -4.03552 0
M  V30 16498 H 1562.08 1.45332 -2.09167 0
M  V30 16499 H 1562.86 0.421999 -3.40696 0
M  V30 16500 N 1565.31 1.43698 0.647203 0
M  V30 16501 C 1566.53 1.49301 1.43958 0
M  V30 16502 C 1566.96 0.11395 1.87755 0
M  V30 16503 O 1566.32 -0.893571 1.5775 0
M  V30 16504 C 1566.36 2.44905 2.64677 0
M  V30 16505 O 1565.47 1.93947 3.63948 0
M  V30 16506 H 1564.81 0.504771 0.431396 0
M  V30 16507 H 1567.34 1.88673 0.791432 0
M  V30 16508 H 1567.35 2.62409 3.12419 0
M  V30 16509 H 1566.02 3.45083 2.32143 0
M  V30 16510 H 1564.6 1.86133 3.23124 0
M  V30 16511 N 1566.79 -0.886131 1.30328 0
M  V30 16512 C 1567.72 -1.99733 1.12425 0
M  V30 16513 C 1568.73 -1.62659 0.067824 0
M  V30 16514 O 1569.92 -1.75721 0.313723 0
M  V30 16515 C 1567.02 -3.31757 0.692122 0
M  V30 16516 C 1566.19 -3.97276 1.83004 0
M  V30 16517 C 1565.25 -5.076 1.38666 0
M  V30 16518 O 1564.28 -5.29295 2.09368 0
M  V30 16519 N 1565.48 -5.79895 0.265039 0
M  V30 16520 H 1568.25 -2.15643 2.0813 0
M  V30 16521 H 1565.81 -1.05915 1.22449 0
M  V30 16522 H 1567.8 -4.02926 0.37854 0
M  V30 16523 H 1566.37 -3.12122 -0.172864 0
M  V30 16524 H 1565.59 -3.19295 2.3118 0
M  V30 16525 H 1566.88 -4.37789 2.59264 0
M  V30 16526 H 1566.27 -5.64771 -0.324121 0
M  V30 16527 H 1564.83 -6.51799 0.0109044 0
M  V30 16528 N 1568.26 -1.13026 -1.09832 0
M  V30 16529 C 1569.51 -0.890736 -1.82191 0
M  V30 16530 C 1569.84 0.581818 -1.8528 0
M  V30 16531 O 1569.12 1.43037 -1.31798 0
M  V30 16532 C 1569.4 -1.47403 -3.28549 0
M  V30 16533 C 1569.25 -3.0154 -3.33757 0
M  V30 16534 C 1570.57 -1.13876 -4.25112 0
M  V30 16535 H 1567.69 -0.325028 -0.661457 0
M  V30 16536 H 1570.33 -1.39787 -1.28684 0
M  V30 16537 H 1568.48 -1.04272 -3.74245 0
M  V30 16538 H 1570.16 -3.53395 -2.96495 0
M  V30 16539 H 1568.4 -3.36746 -2.73467 0
M  V30 16540 H 1569.07 -3.37449 -4.36843 0
M  V30 16541 H 1571.55 -1.51139 -3.87681 0
M  V30 16542 H 1570.42 -1.57343 -5.25865 0
M  V30 16543 H 1570.68 -0.051854 -4.4207 0
M  V30 16544 N 1569.74 1.27735 -0.923117 0
M  V30 16545 C 1570.65 2.30734 -0.424124 0
M  V30 16546 C 1571.67 1.66872 0.49291 0
M  V30 16547 O 1572.84 1.97843 0.37683 0
M  V30 16548 C 1569.91 3.45227 0.319254 0
M  V30 16549 C 1568.97 4.2462 -0.632137 0
M  V30 16550 C 1568.2 5.33646 0.0758596 0
M  V30 16551 O 1568.43 5.55481 1.29602 0
M  V30 16552 O 1567.36 5.98966 -0.593624 0
M  V30 16553 H 1571.19 2.75444 -1.27923 0
M  V30 16554 H 1568.77 1.32601 -0.688288 0
M  V30 16555 H 1570.65 4.14874 0.73873 0
M  V30 16556 H 1569.33 3.02582 1.15004 0
M  V30 16557 H 1568.24 3.57525 -1.1012 0
M  V30 16558 H 1569.57 4.70969 -1.43001 0
M  V30 16559 N 1571.22 0.688118 1.41784 0
M  V30 16560 C 1572.17 0.00661035 2.32599 0
M  V30 16561 C 1573.16 -0.776475 1.50556 0
M  V30 16562 O 1574.37 -0.682937 1.66541 0
M  V30 16563 H 1570.74 -0.0166615 0.751815 0
M  V30 16564 H 1572.71 0.789718 2.8776 0
M  V30 16565 C 1571.46 -0.921251 3.35273 0
M  V30 16566 H 1570.79 -0.328099 3.98451 0
M  V30 16567 H 1572.23 -1.36655 4.01374 0
M  V30 16568 C 1570.69 -2.03393 2.68576 0
M  V30 16569 O 1571.22 -3.1219 2.52785 0
M  V30 16570 N 1569.42 -1.8095 2.27389 0
M  V30 16571 H 1568.97 -0.924692 2.40431 0
M  V30 16572 H 1568.93 -2.55584 1.83096 0
M  V30 16573 N 1572.7 -1.51554 0.432352 0
M  V30 16574 C 1573.63 -2.25369 -0.417328 0
M  V30 16575 C 1574.64 -1.29197 -0.990551 0
M  V30 16576 O 1575.83 -1.54985 -0.885539 0
M  V30 16577 C 1572.93 -2.99006 -1.59526 0
M  V30 16578 C 1572.11 -4.22234 -1.1418 0
M  V30 16579 C 1571.16 -4.78495 -2.18928 0
M  V30 16580 O 1570.19 -5.40465 -1.78566 0
M  V30 16581 N 1571.39 -4.62091 -3.51358 0
M  V30 16582 H 1574.16 -2.98926 0.215294 0
M  V30 16583 H 1571.72 -1.59783 0.26097 0
M  V30 16584 H 1573.71 -3.33532 -2.29212 0
M  V30 16585 H 1572.28 -2.28491 -2.13332 0
M  V30 16586 H 1571.5 -3.93259 -0.272182 0
M  V30 16587 H 1572.79 -5.02212 -0.816145 0
M  V30 16588 H 1572.19 -4.12718 -3.86885 0
M  V30 16589 H 1570.74 -5.00992 -4.16953 0
M  V30 16590 N 1574.18 -0.163538 -1.56749 0
M  V30 16591 C 1575.4 0.493087 -2.01453 0
M  V30 16592 C 1575.83 1.56535 -1.043 0
M  V30 16593 O 1575.18 1.81287 -0.0213039 0
M  V30 16594 C 1575.23 1.05546 -3.44808 0
M  V30 16595 O 1574.34 2.16977 -3.50706 0
M  V30 16596 H 1573.68 0.118905 -0.653267 0
M  V30 16597 H 1576.21 -0.265139 -2.02875 0
M  V30 16598 H 1576.22 1.38002 -3.83953 0
M  V30 16599 H 1574.89 0.270333 -4.1502 0
M  V30 16600 H 1573.47 1.85625 -3.23416 0
M  V30 16601 N 1575.65 1.57214 0.110213 0
M  V30 16602 C 1577.07 1.52706 0.464004 0
M  V30 16603 C 1577.27 0.87792 1.81369 0
M  V30 16604 O 1576.33 0.463987 2.482 0
M  V30 16605 C 1577.64 2.97457 0.440406 0
M  V30 16606 C 1579.19 3.08594 0.523336 0
M  V30 16607 C 1579.66 4.54923 0.53004 0
M  V30 16608 N 1581.15 4.59411 0.591228 0
M  V30 16609 C 1581.89 5.7006 0.618007 0
M  V30 16610 N 1581.38 6.9018 0.601901 0
M  V30 16611 N 1583.18 5.58192 0.661679 0
M  V30 16612 H 1575.33 1.97794 -0.77403 0
M  V30 16613 H 1577.59 0.903673 -0.286496 0
M  V30 16614 H 1577.3 3.48356 -0.483845 0
M  V30 16615 H 1577.17 3.55356 1.26498 0
M  V30 16616 H 1579.56 2.57692 1.43801 0
M  V30 16617 H 1579.64 2.53674 -0.329095 0
M  V30 16618 H 1579.28 5.06472 -0.380623 0
M  V30 16619 H 1579.21 5.07663 1.39948 0
M  V30 16620 H 1581.7 3.72953 0.609483 0
M  V30 16621 H 1582.02 7.70267 0.6252 0
M  V30 16622 H 1580.36 6.92665 0.569186 0
M  V30 16623 H 1583.55 4.63256 0.671686 0
M  V30 16624 H 1583.73 6.44432 0.67908 0
M  V30 16625 N 1577.13 -0.380637 1.52934 0
M  V30 16626 C 1578.37 -1.13369 1.70079 0
M  V30 16627 C 1578.74 -1.86994 0.435592 0
M  V30 16628 O 1579.94 -2.64416 0.483515 0
M  V30 16629 C 1578.21 -2.07933 2.90686 0
M  V30 16630 S 1579.77 -2.90962 3.28461 0
M  V30 16631 H 1576.59 -0.383638 0.598617 0
M  V30 16632 H 1579.19 -0.416966 1.91002 0
M  V30 16633 H 1577.89 -1.52581 3.80982 0
M  V30 16634 H 1577.42 -2.84101 2.72121 0
M  V30 16635 H 1579.44 -4.10129 2.793 0
M  V30 16636 N 1578.61 -1.44039 -0.639573 0
M  V30 16637 C 1579.89 -1.36853 -1.39752 0
M  V30 16638 C 1580.27 -0.0230515 -2.11087 0
M  V30 16639 O 1579.62 0.994061 -2.05744 0
M  V30 16640 C 1579.83 -2.56101 -2.37093 0
M  V30 16641 C 1581.17 -2.99793 -3.00681 0
M  V30 16642 O 1582.2 -2.56246 -2.4742 0
M  V30 16643 O 1581.06 -3.75274 -3.97281 0
M  V30 16644 H 1578.15 -0.541521 -0.625047 0
M  V30 16645 H 1580.7 -1.56113 -0.665336 0
M  V30 16646 H 1579.47 -3.45647 -1.83422 0
M  V30 16647 H 1579.09 -2.39011 -3.17741 0
M  V30 16648 N 1580.09 0.879207 -1.30796 0
M  V30 16649 C 1581.5 1.16344 -1.09253 0
M  V30 16650 C 1581.7 2.00992 0.142993 0
M  V30 16651 O 1580.76 2.38295 0.834966 0
M  V30 16652 C 1582.07 1.86452 -2.35915 0
M  V30 16653 C 1583.62 1.99193 -2.41436 0
M  V30 16654 C 1584.1 2.72714 -3.67955 0
M  V30 16655 N 1585.59 2.80256 -3.68796 0
M  V30 16656 C 1586.32 3.37732 -4.63384 0
M  V30 16657 N 1585.82 3.96212 -5.6832 0
M  V30 16658 N 1587.61 3.35602 -4.50918 0
M  V30 16659 H 1579.76 0.314928 -2.10052 0
M  V30 16660 H 1582.03 0.202087 -0.92621 0
M  V30 16661 H 1581.73 1.31699 -3.26111 0
M  V30 16662 H 1581.61 2.86796 -2.45006 0
M  V30 16663 H 1583.99 2.53113 -1.51716 0
M  V30 16664 H 1584.07 0.97919 -2.36317 0
M  V30 16665 H 1583.72 2.19464 -4.58037 0
M  V30 16666 H 1583.65 3.74376 -3.70338 0
M  V30 16667 H 1586.14 2.38742 -2.92935 0
M  V30 16668 H 1586.45 4.38153 -6.36586 0
M  V30 16669 H 1584.8 3.94615 -5.72105 0
M  V30 16670 H 1587.99 2.89147 -3.68119 0
M  V30 16671 H 1588.16 3.80099 -5.24813 0
M  V30 16672 N 1581.57 1.13606 1.09231 0
M  V30 16673 C 1582.81 0.900386 1.81717 0
M  V30 16674 C 1583.15 -0.571984 1.85586 0
M  V30 16675 O 1582.42 -1.42336 1.32554 0
M  V30 16676 C 1582.7 1.49143 3.27763 0
M  V30 16677 C 1582.56 3.03306 3.32153 0
M  V30 16678 C 1583.88 1.16129 4.24502 0
M  V30 16679 H 1581 0.328531 0.659724 0
M  V30 16680 H 1583.64 1.40467 1.27941 0
M  V30 16681 H 1581.79 1.06256 3.73687 0
M  V30 16682 H 1583.46 3.54963 2.94617 0
M  V30 16683 H 1581.7 3.38192 2.71677 0
M  V30 16684 H 1582.37 3.39761 4.35047 0
M  V30 16685 H 1584.85 1.53193 3.86874 0
M  V30 16686 H 1583.73 1.60129 5.25024 0
M  V30 16687 H 1583.99 0.0752973 4.42036 0
M  V30 16688 N 1583.05 -1.27244 0.929878 0
M  V30 16689 C 1584.46 -1.4662 0.630451 0
M  V30 16690 C 1584.66 -1.84077 -0.819633 0
M  V30 16691 O 1583.72 -1.95555 -1.59733 0
M  V30 16692 C 1585.03 -2.55709 1.58219 0
M  V30 16693 C 1586.58 -2.69569 1.59065 0
M  V30 16694 C 1587.05 -3.81818 2.52941 0
M  V30 16695 N 1588.54 -3.89195 2.51161 0
M  V30 16696 C 1589.28 -4.75474 3.20488 0
M  V30 16697 N 1588.78 -5.66225 3.99201 0
M  V30 16698 N 1590.57 -4.69222 3.09495 0
M  V30 16699 H 1582.72 -1.01216 1.86733 0
M  V30 16700 H 1584.98 -0.505737 0.801832 0
M  V30 16701 H 1584.69 -2.34985 2.61677 0
M  V30 16702 H 1584.56 -3.53141 1.32556 0
M  V30 16703 H 1586.95 -2.89672 0.563375 0
M  V30 16704 H 1587.03 -1.72616 1.88778 0
M  V30 16705 H 1586.67 -3.62467 3.55781 0
M  V30 16706 H 1586.6 -4.78202 2.20524 0
M  V30 16707 H 1589.1 -3.24305 1.93997 0
M  V30 16708 H 1589.41 -6.28925 4.4908 0
M  V30 16709 H 1587.75 -5.66013 4.03304 0
M  V30 16710 H 1590.94 -3.97322 2.47493 0
M  V30 16711 H 1591.12 -5.36244 3.63794 0
M  V30 16712 N 1584.52 -0.695628 -1.41417 0
M  V30 16713 C 1585.77 -0.223719 -2.00455 0
M  V30 16714 C 1586.09 1.18352 -1.55731 0
M  V30 16715 O 1587.29 1.7529 -2.0733 0
M  V30 16716 C 1585.75 -0.349076 -3.58203 0
M  V30 16717 C 1585.36 -1.76168 -4.11909 0
M  V30 16718 C 1587.1 0.0630563 -4.24453 0
M  V30 16719 C 1585.01 -1.83869 -5.62091 0
M  V30 16720 H 1583.94 -0.0798833 -0.749756 0
M  V30 16721 H 1586.59 -0.863834 -1.61896 0
M  V30 16722 H 1584.97 0.35929 -3.94367 0
M  V30 16723 H 1586.14 -2.49881 -3.87164 0
M  V30 16724 H 1584.46 -2.1235 -3.58185 0
M  V30 16725 H 1587.06 0.0259584 -5.34694 0
M  V30 16726 H 1587.4 1.10179 -4.01455 0
M  V30 16727 H 1587.93 -0.595036 -3.93324 0
M  V30 16728 H 1584.67 -2.85796 -5.89916 0
M  V30 16729 H 1584.19 -1.14541 -5.88762 0
M  V30 16730 H 1585.87 -1.60161 -6.26863 0
M  V30 16731 N 1586 1.51322 -0.440383 0
M  V30 16732 C 1587.25 2.02113 0.125062 0
M  V30 16733 C 1587.58 1.32436 1.42446 0
M  V30 16734 O 1586.83 0.428981 1.9094 0
M  V30 16735 C 1587.13 3.55287 0.388079 0
M  V30 16736 C 1586.8 4.43272 -0.825876 0
M  V30 16737 C 1585.46 4.67039 -1.15878 0
M  V30 16738 C 1587.81 4.94872 -1.63557 0
M  V30 16739 C 1585.14 5.39652 -2.30201 0
M  V30 16740 C 1587.49 5.68739 -2.76981 0
M  V30 16741 C 1586.15 5.90769 -3.10722 0
M  V30 16742 H 1585.42 0.739585 0.0457635 0
M  V30 16743 H 1588.07 1.82243 -0.588201 0
M  V30 16744 H 1586.38 3.73505 1.18327 0
M  V30 16745 H 1588.07 3.92124 0.839055 0
M  V30 16746 H 1584.66 4.24972 -0.556468 0
M  V30 16747 H 1588.85 4.76391 -1.39158 0
M  V30 16748 H 1584.1 5.54923 -2.56653 0
M  V30 16749 H 1588.28 6.07711 -3.40089 0
M  V30 16750 H 1585.9 6.46814 -3.9942 0
M  V30 16751 N 1587.48 0.171848 1.5666 0
M  V30 16752 C 1588.9 -0.184312 1.58532 0
M  V30 16753 C 1589.1 -1.62811 1.18721 0
M  V30 16754 O 1588.15 -2.35951 0.899066 0
M  V30 16755 C 1589.46 0.0969826 3.00544 0
M  V30 16756 C 1591.01 0.0352364 3.1298 0
M  V30 16757 C 1591.49 0.289528 4.57084 0
M  V30 16758 N 1592.98 0.237322 4.62592 0
M  V30 16759 C 1593.71 0.408247 5.71945 0
M  V30 16760 N 1593.21 0.638256 6.89854 0
M  V30 16761 N 1595 0.344115 5.61046 0
M  V30 16762 H 1587.15 1.11427 1.80825 0
M  V30 16763 H 1589.42 0.44302 0.838115 0
M  V30 16764 H 1589.12 1.09717 3.34148 0
M  V30 16765 H 1589 -0.611157 3.72216 0
M  V30 16766 H 1591.38 -0.955531 2.79202 0
M  V30 16767 H 1591.46 0.776095 2.43743 0
M  V30 16768 H 1591.11 1.27751 4.91571 0
M  V30 16769 H 1591.04 -0.471948 5.24481 0
M  V30 16770 H 1593.53 0.0652142 3.77844 0
M  V30 16771 H 1593.84 0.758116 7.69072 0
M  V30 16772 H 1592.19 0.674877 6.91716 0
M  V30 16773 H 1595.38 0.165008 4.67809 0
M  V30 16774 H 1595.55 0.480749 6.46214 0
M  V30 16775 N 1588.96 -1.5727 -0.101874 0
M  V30 16776 C 1589.92 -2.00625 -1.10826 0
M  V30 16777 C 1590.92 -0.89878 -1.33336 0
M  V30 16778 O 1592.11 -1.16442 -1.29564 0
M  V30 16779 C 1589.24 -2.36113 -2.45893 0
M  V30 16780 H 1590.44 -2.90748 -0.735238 0
M  V30 16781 H 1587.99 -1.52406 -0.346713 0
M  V30 16782 H 1588.72 -1.48923 -2.88084 0
M  V30 16783 H 1588.51 -3.169 -2.30904 0
M  V30 16784 H 1590 -2.70336 -3.1829 0
M  V30 16785 N 1590.44 0.372521 -1.53134 0
M  V30 16786 C 1591.35 1.47994 -1.8203 0
M  V30 16787 C 1592.36 1.58937 -0.708179 0
M  V30 16788 O 1593.54 1.74962 -0.997511 0
M  V30 16789 C 1590.6 2.83342 -1.99796 0
M  V30 16790 C 1589.66 2.81984 -3.23702 0
M  V30 16791 C 1588.9 4.10877 -3.40611 0
M  V30 16792 O 1589.12 5.06686 -2.61964 0
M  V30 16793 O 1588.05 4.17111 -4.33938 0
M  V30 16794 H 1591.88 1.26501 -2.761 0
M  V30 16795 H 1589.46 0.561957 -1.38428 0
M  V30 16796 H 1591.35 3.63551 -2.13092 0
M  V30 16797 H 1590.02 3.04826 -1.08916 0
M  V30 16798 H 1588.93 2.00498 -3.15834 0
M  V30 16799 H 1590.26 2.65453 -4.14482 0
M  V30 16800 N 1591.91 1.44376 0.631925 0
M  V30 16801 C 1592.86 1.51181 1.74393 0
M  V30 16802 C 1593.83 0.359599 1.62161 0
M  V30 16803 O 1595.02 0.569725 1.82096 0
M  V30 16804 C 1592.16 1.46124 3.12637 0
M  V30 16805 C 1591.27 2.71714 3.35851 0
M  V30 16806 C 1590.4 2.58496 4.64062 0
M  V30 16807 C 1589.44 3.79252 4.80452 0
M  V30 16808 N 1588.58 3.64715 5.99939 0
M  V30 16809 H 1593.42 2.4619 1.67912 0
M  V30 16810 H 1590.96 1.22184 0.819108 0
M  V30 16811 H 1592.91 1.41183 3.92585 0
M  V30 16812 H 1591.54 0.546831 3.18135 0
M  V30 16813 H 1590.6 2.86845 2.49848 0
M  V30 16814 H 1591.91 3.61351 3.43841 0
M  V30 16815 H 1591.06 2.51383 5.5217 0
M  V30 16816 H 1589.8 1.66417 4.58428 0
M  V30 16817 H 1588.81 3.8675 3.90774 0
M  V30 16818 H 1590.03 4.72367 4.879 0
M  V30 16819 H 1587.98 2.75388 5.95397 0
M  V30 16820 H 1587.89 4.47969 6.08982 0
M  V30 16821 H 1589.16 3.61493 6.90611 0
M  V30 16822 N 1593.39 -0.872258 1.31261 0
M  V30 16823 C 1594.62 -1.6632 1.23905 0
M  V30 16824 C 1595.04 -1.87109 -0.192878 0
M  V30 16825 O 1594.4 -1.4112 -1.1382 0
M  V30 16826 C 1594.45 -3.00979 1.98606 0
M  V30 16827 O 1593.55 -3.90642 1.32183 0
M  V30 16828 H 1592.89 -0.507736 0.427902 0
M  V30 16829 H 1595.42 -1.0877 1.73292 0
M  V30 16830 H 1595.43 -3.50931 2.08113 0
M  V30 16831 H 1594.11 -2.85168 3.02741 0
M  V30 16832 H 1592.68 -3.4909 1.31112 0
M  V30 16833 N 1594.87 -1.14184 -1.08627 0
M  V30 16834 C 1596.1 -0.930752 -1.84447 0
M  V30 16835 C 1596.51 0.524072 -1.81797 0
M  V30 16836 O 1595.85 1.37483 -1.21836 0
M  V30 16837 C 1595.91 -1.35125 -3.33139 0
M  V30 16838 C 1595.58 -2.82117 -3.59526 0
M  V30 16839 C 1596.57 -3.80242 -3.54559 0
M  V30 16840 C 1594.26 -3.19475 -3.87609 0
M  V30 16841 C 1596.25 -5.13734 -3.77301 0
M  V30 16842 C 1593.94 -4.53144 -4.10005 0
M  V30 16843 C 1594.94 -5.50082 -4.04844 0
M  V30 16844 O 1594.63 -6.81339 -4.26653 0
M  V30 16845 H 1594.36 -0.331385 -0.589203 0
M  V30 16846 H 1596.91 -1.52033 -1.38113 0
M  V30 16847 H 1595.14 -0.704995 -3.80219 0
M  V30 16848 H 1596.83 -1.11133 -3.9039 0
M  V30 16849 H 1597.6 -3.52726 -3.32881 0
M  V30 16850 H 1593.48 -2.44617 -3.90747 0
M  V30 16851 H 1597.02 -5.89386 -3.73188 0
M  V30 16852 H 1592.92 -4.80381 -4.31166 0
M  V30 16853 H 1593.68 -6.87563 -4.44071 0
M  V30 16854 N 1596.35 1.26749 -0.936613 0
M  V30 16855 C 1597.58 1.98059 -0.598357 0
M  V30 16856 C 1597.99 1.6979 0.825646 0
M  V30 16857 O 1597.35 0.963514 1.54992 0
M  V30 16858 C 1597.4 3.51948 -0.825519 0
M  V30 16859 O 1597.12 3.79232 -2.19351 0
M  V30 16860 C 1598.62 4.40503 -0.497186 0
M  V30 16861 H 1595.84 0.631826 -0.225914 0
M  V30 16862 H 1598.39 1.61379 -1.25607 0
M  V30 16863 H 1596.54 3.86806 -0.214479 0
M  V30 16864 H 1596.95 4.73782 -2.25014 0
M  V30 16865 H 1598.43 5.47457 -0.706779 0
M  V30 16866 H 1598.91 4.35516 0.567645 0
M  V30 16867 H 1599.51 4.11181 -1.08675 0
M  V30 16868 N 1597.83 0.703118 1.41046 0
M  V30 16869 C 1599.07 0.237638 2.01403 0
M  V30 16870 C 1599.41 -1.16217 1.55587 0
M  V30 16871 O 1598.68 -1.78593 0.770377 0
M  V30 16872 C 1598.96 0.303738 3.58817 0
M  V30 16873 C 1598.82 1.74103 4.14739 0
M  V30 16874 C 1600.14 -0.332186 4.38845 0
M  V30 16875 H 1597.25 0.0878243 0.731749 0
M  V30 16876 H 1599.9 0.893264 1.67693 0
M  V30 16877 H 1598.05 -0.254485 3.87666 0
M  V30 16878 H 1599.72 2.35368 3.96736 0
M  V30 16879 H 1597.96 2.27277 3.69496 0
M  V30 16880 H 1598.63 1.73876 5.239 0
M  V30 16881 H 1601.11 0.143312 4.15853 0
M  V30 16882 H 1599.98 -0.255429 5.48305 0
M  V30 16883 H 1600.25 -1.41397 4.18878 0
M  V30 16884 N 1599.3 -1.51086 0.448402 0
M  V30 16885 C 1600.24 -2.25799 -0.393401 0
M  V30 16886 C 1601.25 -1.30241 -0.976792 0
M  V30 16887 O 1602.44 -1.55916 -0.869051 0
M  V30 16888 C 1599.54 -3.00682 -1.56345 0
M  V30 16889 C 1598.71 -4.23421 -1.09695 0
M  V30 16890 C 1597.77 -4.8079 -2.1384 0
M  V30 16891 O 1596.8 -5.42329 -1.72823 0
M  V30 16892 N 1598 -4.65792 -3.46437 0
M  V30 16893 H 1600.76 -2.98681 0.246986 0
M  V30 16894 H 1598.32 -1.59497 0.277902 0
M  V30 16895 H 1600.32 -3.35945 -2.25662 0
M  V30 16896 H 1598.89 -2.30741 -2.10897 0
M  V30 16897 H 1598.11 -3.93526 -0.230457 0
M  V30 16898 H 1599.39 -5.03049 -0.762832 0
M  V30 16899 H 1598.79 -4.16799 -3.82486 0
M  V30 16900 H 1597.35 -5.05386 -4.11616 0
M  V30 16901 N 1600.78 -0.180154 -1.56567 0
M  V30 16902 C 1602.01 0.471692 -2.01965 0
M  V30 16903 C 1602.43 1.5542 -1.05954 0
M  V30 16904 O 1601.79 1.81255 -0.0405307 0
M  V30 16905 C 1601.84 1.01883 -3.45908 0
M  V30 16906 O 1600.94 2.13245 -3.52988 0
M  V30 16907 H 1600.28 0.11197 -0.654491 0
M  V30 16908 H 1602.81 -0.286642 -2.02582 0
M  V30 16909 H 1602.82 1.33922 -3.85395 0
M  V30 16910 H 1601.5 0.226299 -4.15284 0
M  V30 16911 H 1600.08 1.82184 -3.25367 0
M  V30 16912 N 1602.26 1.57322 0.0935319 0
M  V30 16913 C 1603.51 1.858 0.795165 0
M  V30 16914 C 1603.83 0.769078 1.79193 0
M  V30 16915 O 1603.1 -0.204511 1.9483 0
M  V30 16916 H 1601.68 0.68557 0.296653 0
M  V30 16917 H 1604.34 1.94756 0.0747892 0
M  V30 16918 H 1603.44 2.82588 1.32479 0
M  V30 16919 N 1603.74 -0.364395 1.53329 0
M  V30 16920 C 1605.15 -0.706147 1.43128 0
M  V30 16921 C 1605.35 -1.93231 0.571307 0
M  V30 16922 O 1604.41 -2.52442 0.0542079 0
M  V30 16923 C 1605.72 -0.918245 2.86337 0
M  V30 16924 C 1607.27 -1.01818 2.95976 0
M  V30 16925 C 1607.75 -1.26274 4.40249 0
M  V30 16926 N 1609.24 -1.33042 4.43683 0
M  V30 16927 C 1609.97 -1.53677 5.52423 0
M  V30 16928 N 1609.47 -1.7162 6.71207 0
M  V30 16929 N 1611.26 -1.56056 5.40003 0
M  V30 16930 H 1603.41 0.442091 2.07748 0
M  V30 16931 H 1605.68 0.135735 0.938232 0
M  V30 16932 H 1605.38 -0.0890628 3.51587 0
M  V30 16933 H 1605.26 -1.826 3.30056 0
M  V30 16934 H 1607.64 -1.83791 2.30879 0
M  V30 16935 H 1607.72 -0.0877892 2.55649 0
M  V30 16936 H 1607.37 -0.448026 5.0592 0
M  V30 16937 H 1607.3 -2.20637 4.78149 0
M  V30 16938 H 1609.79 -1.20784 3.58078 0
M  V30 16939 H 1610.1 -1.86942 7.49848 0
M  V30 16940 H 1608.45 -1.68797 6.7419 0
M  V30 16941 H 1611.64 -1.41605 4.46168 0
M  V30 16942 H 1611.81 -1.71796 6.24812 0
M  V30 16943 N 1605.22 -1.44709 -0.62426 0
M  V30 16944 C 1606.46 -1.49065 -1.38388 0
M  V30 16945 C 1606.82 -0.124063 -1.92 0
M  V30 16946 O 1606.11 0.861701 -1.71129 0
M  V30 16947 C 1606.3 -2.4919 -2.56201 0
M  V30 16948 C 1606.13 -3.9545 -2.14124 0
M  V30 16949 C 1604.9 -4.63568 -2.01079 0
M  V30 16950 C 1607.1 -4.84468 -1.72613 0
M  V30 16951 N 1605.08 -5.94622 -1.52637 0
M  V30 16952 C 1606.45 -6.0502 -1.35466 0
M  V30 16953 C 1608.51 -4.71473 -1.60054 0
M  V30 16954 C 1607.21 -7.14017 -0.870158 0
M  V30 16955 C 1609.24 -5.80502 -1.13009 0
M  V30 16956 C 1608.6 -7.00199 -0.768166 0
M  V30 16957 H 1604.7 -0.600483 -0.500943 0
M  V30 16958 H 1607.28 -1.81079 -0.715433 0
M  V30 16959 H 1605.45 -2.19155 -3.20664 0
M  V30 16960 H 1607.19 -2.43798 -3.23024 0
M  V30 16961 H 1603.94 -4.1848 -2.21747 0
M  V30 16962 H 1604.37 -6.64265 -1.30695 0
M  V30 16963 H 1609.01 -3.79362 -1.86666 0
M  V30 16964 H 1606.73 -8.05932 -0.591564 0
M  V30 16965 H 1610.31 -5.72476 -1.03741 0
M  V30 16966 H 1609.19 -7.83129 -0.409714 0
M  V30 16967 N 1606.69 0.865285 -1.31722 0
M  V30 16968 C 1607.92 1.64897 -1.24469 0
M  V30 16969 C 1608.33 1.88228 0.191553 0
M  V30 16970 O 1607.68 1.44396 1.13559 0
M  V30 16971 C 1607.74 3.0371 -1.92355 0
M  V30 16972 C 1607.4 3.03468 -3.41696 0
M  V30 16973 C 1608.4 2.81086 -4.37364 0
M  V30 16974 C 1606.08 3.2444 -3.83463 0
M  V30 16975 C 1608.08 2.79663 -5.72772 0
M  V30 16976 C 1605.76 3.22645 -5.18983 0
M  V30 16977 C 1606.76 3.00284 -6.13448 0
M  V30 16978 O 1606.45 2.98342 -7.4649 0
M  V30 16979 H 1606.18 0.520681 -0.431124 0
M  V30 16980 H 1608.74 1.08795 -1.74221 0
M  V30 16981 H 1606.97 3.61558 -1.37159 0
M  V30 16982 H 1608.66 3.64321 -1.78955 0
M  V30 16983 H 1609.42 2.6466 -4.06423 0
M  V30 16984 H 1605.3 3.40874 -3.10364 0
M  V30 16985 H 1608.84 2.62128 -6.46479 0
M  V30 16986 H 1604.74 3.38612 -5.49556 0
M  V30 16987 H 1605.51 3.14371 -7.5572 0
M  V30 16988 N 1608.17 1.14759 1.0802 0
M  V30 16989 C 1609.42 0.918248 1.80484 0
M  V30 16990 C 1609.75 -0.554986 1.86414 0
M  V30 16991 O 1609 -1.42732 1.33888 0
M  V30 16992 C 1609.3 1.4692 3.25805 0
M  V30 16993 C 1608.97 2.96176 3.39987 0
M  V30 16994 C 1607.63 3.36923 3.43564 0
M  V30 16995 C 1609.98 3.92131 3.43341 0
M  V30 16996 C 1607.31 4.72281 3.48092 0
M  V30 16997 C 1609.66 5.27351 3.49404 0
M  V30 16998 C 1608.33 5.67605 3.51256 0
M  V30 16999 H 1607.6 0.336011 0.660437 0
M  V30 17000 H 1610.24 1.43191 1.27156 0
M  V30 17001 H 1608.55 0.876571 3.81868 0
M  V30 17002 H 1610.24 1.26765 3.80436 0
M  V30 17003 H 1606.83 2.63675 3.37896 0
M  V30 17004 H 1611.02 3.61728 3.39804 0
M  V30 17005 H 1606.27 5.02823 3.4782 0
M  V30 17006 H 1610.45 6.01507 3.50946 0
M  V30 17007 H 1608.08 6.72474 3.54517 0
M  V30 17008 N 1609.65 -1.26251 0.943322 0
M  V30 17009 C 1610.56 -2.3003 0.460778 0
M  V30 17010 C 1611.58 -1.67635 -0.4663 0
M  V30 17011 O 1612.75 -1.98418 -0.345307 0
M  V30 17012 C 1609.82 -3.45691 -0.264291 0
M  V30 17013 C 1608.88 -4.23561 0.69961 0
M  V30 17014 C 1608.11 -5.33699 0.00904846 0
M  V30 17015 O 1608.33 -5.57473 -1.20748 0
M  V30 17016 O 1607.27 -5.97945 0.688839 0
M  V30 17017 H 1611.09 -2.73374 1.32289 0
M  V30 17018 H 1608.68 -1.31489 0.709297 0
M  V30 17019 H 1610.56 -4.15997 -0.672634 0
M  V30 17020 H 1609.24 -3.04373 -1.10176 0
M  V30 17021 H 1608.14 -3.55728 1.15794 0
M  V30 17022 H 1609.48 -4.68634 1.50476 0
M  V30 17023 N 1611.13 -0.710588 -1.40671 0
M  V30 17024 C 1612.38 -0.247949 -2.00976 0
M  V30 17025 C 1612.7 1.15725 -1.56327 0
M  V30 17026 O 1611.96 1.79826 -0.77208 0
M  V30 17027 C 1612.26 -0.270478 -3.56375 0
M  V30 17028 C 1611.92 -1.62528 -4.2059 0
M  V30 17029 C 1610.59 -1.99614 -4.37844 0
M  V30 17030 C 1612.94 -2.51591 -4.56455 0
M  V30 17031 C 1610.27 -3.2532 -4.88246 0
M  V30 17032 C 1612.62 -3.76644 -5.08254 0
M  V30 17033 C 1611.28 -4.13855 -5.23718 0
M  V30 17034 H 1610.55 -0.0907308 -0.735424 0
M  V30 17035 H 1613.2 -0.912636 -1.68354 0
M  V30 17036 H 1611.5 0.477777 -3.88876 0
M  V30 17037 H 1613.2 0.105243 -4.00862 0
M  V30 17038 H 1609.79 -1.32686 -4.07544 0
M  V30 17039 H 1613.98 -2.24215 -4.42766 0
M  V30 17040 H 1609.23 -3.54125 -4.98403 0
M  V30 17041 H 1613.41 -4.45832 -5.34983 0
M  V30 17042 H 1611.03 -5.1133 -5.62535 0
M  V30 17043 N 1612.61 1.50847 -0.456408 0
M  V30 17044 C 1613.52 2.31959 0.351027 0
M  V30 17045 C 1614.53 1.41697 1.00986 0
M  V30 17046 O 1615.71 1.7476 1.00105 0
M  V30 17047 C 1612.77 3.15973 1.42696 0
M  V30 17048 C 1611.84 4.22038 0.786272 0
M  V30 17049 C 1611.07 5.02036 1.81094 0
M  V30 17050 O 1611.29 4.82913 3.03564 0
M  V30 17051 O 1610.23 5.85609 1.3909 0
M  V30 17052 H 1614.05 3.02096 -0.311678 0
M  V30 17053 H 1611.64 1.47793 -0.218544 0
M  V30 17054 H 1613.52 3.68146 2.05053 0
M  V30 17055 H 1612.19 2.48579 2.0734 0
M  V30 17056 H 1611.1 3.73894 0.124148 0
M  V30 17057 H 1612.43 4.9186 0.183016 0
M  V30 17058 N 1614.09 0.188454 1.56469 0
M  V30 17059 C 1615.05 -0.721282 2.17555 0
M  V30 17060 C 1616.05 -1.14579 1.1282 0
M  V30 17061 O 1617.24 -1.05996 1.38241 0
M  V30 17062 C 1614.37 -1.9839 2.77226 0
M  V30 17063 H 1615.56 -0.189218 2.99302 0
M  V30 17064 H 1613.12 -0.0611533 1.5618 0
M  V30 17065 H 1613.85 -2.55864 1.99259 0
M  V30 17066 H 1613.64 -1.68831 3.53891 0
M  V30 17067 H 1615.13 -2.63277 3.24153 0
M  V30 17068 N 1615.56 -1.5737 -0.0851874 0
M  V30 17069 C 1616.81 -1.86864 -0.78802 0
M  V30 17070 C 1617.14 -0.778936 -1.77894 0
M  V30 17071 O 1616.42 0.212132 -1.9334 0
M  V30 17072 C 1616.7 -3.27006 -1.50795 0
M  V30 17073 C 1616.55 -4.46615 -0.534354 0
M  V30 17074 C 1617.87 -3.65187 -2.45614 0
M  V30 17075 H 1614.99 -0.679657 -0.285017 0
M  V30 17076 H 1617.63 -1.8993 -0.0514443 0
M  V30 17077 H 1615.78 -3.24522 -2.13583 0
M  V30 17078 H 1617.46 -4.61217 0.0872761 0
M  V30 17079 H 1615.7 -4.33536 0.151455 0
M  V30 17080 H 1616.37 -5.41423 -1.07544 0
M  V30 17081 H 1618.85 -3.68678 -1.92913 0
M  V30 17082 H 1617.72 -4.64158 -2.92999 0
M  V30 17083 H 1617.98 -2.944 -3.2982 0
M  V30 17084 N 1617.04 0.356258 -1.53521 0
M  V30 17085 C 1618.27 1.11828 -1.74075 0
M  V30 17086 C 1618.68 1.82753 -0.473998 0
M  V30 17087 O 1618.04 1.73899 0.553649 0
M  V30 17088 C 1618.09 2.14149 -2.91243 0
M  V30 17089 O 1617.81 1.4611 -4.13017 0
M  V30 17090 C 1619.31 3.02826 -3.23746 0
M  V30 17091 H 1616.53 0.334002 -0.581965 0
M  V30 17092 H 1619.08 0.412336 -2.003 0
M  V30 17093 H 1617.23 2.80328 -2.67386 0
M  V30 17094 H 1617.65 2.1436 -4.78696 0
M  V30 17095 H 1619.12 3.70583 -4.09112 0
M  V30 17096 H 1619.6 3.68149 -2.39505 0
M  V30 17097 H 1620.2 2.42252 -3.49563 0
M  V30 17098 N 1618.52 1.45038 0.616577 0
M  V30 17099 C 1619.75 1.52094 1.40267 0
M  V30 17100 C 1620.16 0.150558 1.88199 0
M  V30 17101 O 1619.52 -0.846258 1.61693 0
M  V30 17102 C 1619.57 2.49786 2.61322 0
M  V30 17103 O 1619.29 3.81498 2.15385 0
M  V30 17104 C 1620.79 2.66451 3.54286 0
M  V30 17105 H 1618.01 0.515378 0.429681 0
M  V30 17106 H 1620.56 1.90141 0.752768 0
M  V30 17107 H 1618.71 2.14835 3.22373 0
M  V30 17108 H 1619.13 4.34374 2.93972 0
M  V30 17109 H 1620.6 3.38802 4.35795 0
M  V30 17110 H 1621.08 1.72177 4.04044 0
M  V30 17111 H 1621.68 3.02362 2.99095 0
M  V30 17112 N 1620 -0.858287 1.32179 0
M  V30 17113 C 1621.25 -1.60902 1.2229 0
M  V30 17114 C 1621.57 -1.93797 -0.216227 0
M  V30 17115 O 1620.84 -1.59312 -1.14002 0
M  V30 17116 H 1619.42 -0.596529 0.449624 0
M  V30 17117 H 1622.08 -1.02686 1.65655 0
M  V30 17118 H 1621.17 -2.54755 1.80295 0
M  V30 17119 N 1621.48 -1.1533 -1.07409 0
M  V30 17120 C 1622.39 -0.863514 -2.1813 0
M  V30 17121 C 1623.4 0.159954 -1.73263 0
M  V30 17122 O 1624.58 -0.0139818 -2.01395 0
M  V30 17123 C 1621.64 -0.356271 -3.44865 0
M  V30 17124 C 1620.7 -1.44356 -4.04302 0
M  V30 17125 C 1619.94 -0.960429 -5.24987 0
M  V30 17126 O 1620.16 0.194227 -5.70069 0
M  V30 17127 O 1619.09 -1.74387 -5.76084 0
M  V30 17128 H 1622.92 -1.78909 -2.45408 0
M  V30 17129 H 1620.5 -0.932362 -1.16736 0
M  V30 17130 H 1622.39 -0.0798183 -4.21324 0
M  V30 17131 H 1621.06 0.541445 -3.1914 0
M  V30 17132 H 1619.97 -1.77361 -3.29384 0
M  V30 17133 H 1621.3 -2.31617 -4.34298 0
M  V30 17134 N 1622.95 1.25748 -0.950004 0
M  V30 17135 C 1623.89 2.24472 -0.410787 0
M  V30 17136 C 1624.86 1.54549 0.505309 0
M  V30 17137 O 1626.05 1.83275 0.440744 0
M  V30 17138 C 1623.18 3.36224 0.408832 0
M  V30 17139 C 1622.22 4.24151 -0.446997 0
M  V30 17140 S 1623.05 5.01549 -1.87639 0
M  V30 17141 C 1624.21 6.16771 -1.06507 0
M  V30 17142 H 1624.44 2.69863 -1.24745 0
M  V30 17143 H 1621.98 1.34752 -0.753744 0
M  V30 17144 H 1623.93 4.01049 0.875796 0
M  V30 17145 H 1622.6 2.89427 1.22027 0
M  V30 17146 H 1621.79 5.03673 0.181407 0
M  V30 17147 H 1621.39 3.64236 -0.848989 0
M  V30 17148 H 1623.68 6.76783 -0.311531 0
M  V30 17149 H 1624.63 6.83936 -1.83406 0
M  V30 17150 H 1625.03 5.61332 -0.597243 0
M  V30 17151 N 1624.43 0.718038 1.40292 0
M  V30 17152 C 1625.85 0.391848 1.54715 0
M  V30 17153 C 1626.05 -1.09911 1.68884 0
M  V30 17154 O 1625.1 -1.88518 1.6798 0
M  V30 17155 C 1626.42 1.16005 2.77423 0
M  V30 17156 C 1627.96 1.14659 2.91243 0
M  V30 17157 C 1628.44 1.897 4.16867 0
M  V30 17158 N 1629.93 1.86781 4.23872 0
M  V30 17159 C 1630.67 2.41665 5.19986 0
M  V30 17160 N 1630.16 3.05116 6.21994 0
M  V30 17161 N 1631.95 2.31794 5.12082 0
M  V30 17162 H 1624.11 1.68477 1.29342 0
M  V30 17163 H 1626.37 0.712248 0.625625 0
M  V30 17164 H 1626.07 2.21435 2.73239 0
M  V30 17165 H 1625.95 0.75328 3.69602 0
M  V30 17166 H 1628.34 0.100477 2.94929 0
M  V30 17167 H 1628.42 1.5926 2.00175 0
M  V30 17168 H 1628.06 2.94303 4.13942 0
M  V30 17169 H 1627.99 1.42518 5.06948 0
M  V30 17170 H 1630.48 1.40541 3.50794 0
M  V30 17171 H 1630.79 3.44505 6.91763 0
M  V30 17172 H 1629.14 3.09201 6.22431 0
M  V30 17173 H 1632.33 1.81879 4.31321 0
M  V30 17174 H 1632.5 2.74868 5.86815 0
M  V30 17175 N 1625.91 -1.50602 0.464402 0
M  V30 17176 C 1627.16 -2.02587 -0.0930295 0
M  V30 17177 C 1627.49 -1.34618 -1.3997 0
M  V30 17178 O 1626.76 -0.469711 -1.88743 0
M  V30 17179 C 1627.05 -3.5898 -0.283783 0
M  V30 17180 C 1626.9 -4.3753 1.04344 0
M  V30 17181 C 1628.22 -4.27602 -1.04138 0
M  V30 17182 H 1625.34 -0.73629 -0.0323356 0
M  V30 17183 H 1627.98 -1.79986 0.608687 0
M  V30 17184 H 1626.13 -3.78368 -0.881488 0
M  V30 17185 H 1627.8 -4.29729 1.67721 0
M  V30 17186 H 1626.05 -4.01536 1.64168 0
M  V30 17187 H 1626.72 -5.45201 0.863691 0
M  V30 17188 H 1629.19 -4.12649 -0.534822 0
M  V30 17189 H 1628.07 -5.36854 -1.14364 0
M  V30 17190 H 1628.33 -3.9031 -2.0763 0
M  V30 17191 N 1627.39 -0.19675 -1.56367 0
M  V30 17192 C 1628.64 0.440711 -1.97236 0
M  V30 17193 C 1628.96 1.62037 -1.08485 0
M  V30 17194 O 1628.23 1.95274 -0.156483 0
M  V30 17195 H 1626.81 0.16581 -0.728365 0
M  V30 17196 H 1629.47 -0.283867 -1.92822 0
M  V30 17197 H 1628.57 0.783731 -3.02099 0
M  V30 17198 N 1628.87 1.57413 0.0768405 0
M  V30 17199 C 1630.11 1.88144 0.772882 0
M  V30 17200 C 1630.47 0.789834 1.75441 0
M  V30 17201 O 1629.76 -0.206487 1.90484 0
M  V30 17202 C 1629.95 3.2324 1.52482 0
M  V30 17203 C 1629.78 4.45439 0.61762 0
M  V30 17204 C 1628.55 5.04649 0.256461 0
M  V30 17205 C 1630.75 5.14232 -0.0834364 0
M  V30 17206 N 1628.73 6.10374 -0.656988 0
M  V30 17207 C 1630.1 6.14087 -0.854262 0
M  V30 17208 C 1632.16 4.97657 -0.155439 0
M  V30 17209 C 1630.86 6.99155 -1.69039 0
M  V30 17210 C 1632.89 5.83248 -0.978528 0
M  V30 17211 C 1632.25 6.82637 -1.73742 0
M  V30 17212 H 1628.35 0.738071 0.258409 0
M  V30 17213 H 1630.93 1.94669 0.0346081 0
M  V30 17214 H 1629.1 3.17732 2.23385 0
M  V30 17215 H 1630.84 3.41637 2.16948 0
M  V30 17216 H 1627.59 4.69679 0.608199 0
M  V30 17217 H 1628.02 6.67891 -1.10681 0
M  V30 17218 H 1632.66 4.20739 0.416946 0
M  V30 17219 H 1630.38 7.75452 -2.27377 0
M  V30 17220 H 1633.96 5.72481 -1.03715 0
M  V30 17221 H 1632.84 7.47718 -2.36405 0
M  V30 17222 N 1630.34 -0.348112 1.53707 0
M  V30 17223 C 1631.31 -1.41018 1.80683 0
M  V30 17224 C 1632.31 -1.4582 0.67774 0
M  V30 17225 O 1633.5 -1.46275 0.94601 0
M  V30 17226 C 1630.63 -2.79988 1.94473 0
M  V30 17227 H 1631.82 -1.18365 2.75554 0
M  V30 17228 H 1629.38 -0.582244 1.4505 0
M  V30 17229 H 1630.11 -3.07931 1.0173 0
M  V30 17230 H 1629.9 -2.77899 2.76612 0
M  V30 17231 H 1631.39 -3.56868 2.16876 0
M  V30 17232 N 1631.82 -1.45363 -0.608876 0
M  V30 17233 C 1633.24 -1.29741 -0.929491 0
M  V30 17234 C 1633.44 -0.249486 -1.9995 0
M  V30 17235 O 1632.49 0.357014 -2.49963 0
M  V30 17236 C 1633.81 -2.67594 -1.37164 0
M  V30 17237 C 1635.36 -2.7548 -1.48592 0
M  V30 17238 C 1635.83 -4.13855 -1.96183 0
M  V30 17239 N 1637.32 -4.16143 -2.03419 0
M  V30 17240 C 1638.06 -5.20081 -2.41462 0
M  V30 17241 N 1637.55 -6.34365 -2.78482 0
M  V30 17242 N 1639.35 -5.07439 -2.4179 0
M  V30 17243 H 1631.5 -2.12172 0.0983838 0
M  V30 17244 H 1633.76 -0.947817 -0.0186397 0
M  V30 17245 H 1633.47 -3.45459 -0.6596 0
M  V30 17246 H 1633.34 -2.9597 -2.33841 0
M  V30 17247 H 1635.73 -1.97919 -2.18888 0
M  V30 17248 H 1635.81 -2.50819 -0.502337 0
M  V30 17249 H 1635.45 -4.91901 -1.26475 0
M  V30 17250 H 1635.38 -4.35907 -2.95453 0
M  V30 17251 H 1637.87 -3.33671 -1.77404 0
M  V30 17252 H 1638.19 -7.09469 -3.06388 0
M  V30 17253 H 1636.53 -6.37769 -2.76181 0
M  V30 17254 H 1639.72 -4.17202 -2.12273 0
M  V30 17255 H 1639.89 -5.8856 -2.71112 0
M  V30 17256 N 1633.3 0.851265 -1.32632 0
M  V30 17257 C 1634.71 1.4217 -1.21015 0
M  V30 17258 C 1635.06 1.95409 0.175972 0
M  V30 17259 O 1634.19 1.87816 1.07489 0
M  V30 17260 C 1634.78 2.58431 -2.19086 0
M  V30 17261 C 1633.34 3.11464 -2.11346 0
M  V30 17262 C 1632.49 1.84221 -2.07263 0
M  V30 17263 H 1635.44 0.65812 -1.44411 0
M  V30 17264 H 1635.46 3.35694 -1.79137 0
M  V30 17265 H 1634.97 2.19652 -3.1996 0
M  V30 17266 H 1633.07 3.54818 -1.13732 0
M  V30 17267 H 1633.19 3.72478 -3.01325 0
M  V30 17268 H 1631.55 2.0396 -1.52553 0
M  V30 17269 H 1632.33 1.47654 -3.09924 0
M  V30 17270 N 1634.78 1.15898 1.06796 0
M  V30 17271 C 1635.69 0.87507 2.17669 0
M  V30 17272 C 1636.7 -0.150763 1.73346 0
M  V30 17273 O 1637.88 0.0246621 2.01385 0
M  V30 17274 C 1634.95 0.374555 3.44671 0
M  V30 17275 C 1634.01 1.46498 4.0353 0
M  V30 17276 C 1633.24 0.988256 5.2447 0
M  V30 17277 O 1633.46 -0.163992 5.70164 0
M  V30 17278 O 1632.4 1.7744 5.75151 0
M  V30 17279 H 1636.22 1.80208 2.44456 0
M  V30 17280 H 1633.81 0.93854 1.1624 0
M  V30 17281 H 1635.69 0.102161 4.21276 0
M  V30 17282 H 1634.36 -0.524513 3.19422 0
M  V30 17283 H 1633.27 1.79105 3.28439 0
M  V30 17284 H 1634.6 2.33917 4.33063 0
M  V30 17285 N 1636.26 -1.25243 0.956659 0
M  V30 17286 C 1637.19 -2.28159 0.496574 0
M  V30 17287 C 1638.17 -1.63814 -0.458132 0
M  V30 17288 O 1639.35 -1.90897 -0.356648 0
M  V30 17289 C 1636.48 -3.46573 -0.22454 0
M  V30 17290 C 1635.44 -4.2311 0.645104 0
M  V30 17291 C 1634.76 -5.343 -0.206867 0
M  V30 17292 C 1636.06 -4.85562 1.92422 0
M  V30 17293 H 1637.76 -2.66895 1.35675 0
M  V30 17294 H 1635.3 -1.28301 0.653827 0
M  V30 17295 H 1637.26 -4.17695 -0.55755 0
M  V30 17296 H 1635.98 -3.06833 -1.11898 0
M  V30 17297 H 1634.64 -3.53774 0.961228 0
M  V30 17298 H 1634.29 -4.908 -1.10112 0
M  V30 17299 H 1633.99 -5.86423 0.371714 0
M  V30 17300 H 1635.51 -6.08253 -0.534798 0
M  V30 17301 H 1636.92 -5.48817 1.65749 0
M  V30 17302 H 1635.32 -5.47871 2.44862 0
M  V30 17303 H 1636.39 -4.07634 2.62607 0
M  V30 17304 N 1637.73 -0.725468 -1.3991 0
M  V30 17305 C 1639.15 -0.400048 -1.54505 0
M  V30 17306 C 1639.35 1.09014 -1.69464 0
M  V30 17307 O 1638.41 1.87624 -1.68977 0
M  V30 17308 C 1639.72 -1.17474 -2.76804 0
M  V30 17309 C 1641.27 -1.16202 -2.9063 0
M  V30 17310 C 1641.74 -1.91908 -4.15855 0
M  V30 17311 N 1643.23 -1.89026 -4.22875 0
M  V30 17312 C 1643.97 -2.4442 -5.18697 0
M  V30 17313 N 1643.46 -3.0841 -6.20367 0
M  V30 17314 N 1645.26 -2.34506 -5.10846 0
M  V30 17315 H 1637.41 -1.6916 -1.28447 0
M  V30 17316 H 1639.67 -0.715556 -0.621839 0
M  V30 17317 H 1639.38 -2.22881 -2.72061 0
M  V30 17318 H 1639.25 -0.772871 -3.69197 0
M  V30 17319 H 1641.64 -0.116116 -2.94871 0
M  V30 17320 H 1641.72 -1.60319 -1.99327 0
M  V30 17321 H 1641.36 -2.96494 -4.12375 0
M  V30 17322 H 1641.29 -1.45204 -5.06185 0
M  V30 17323 H 1643.78 -1.42399 -3.50044 0
M  V30 17324 H 1644.1 -3.48169 -6.89926 0
M  V30 17325 H 1642.44 -3.12497 -6.20782 0
M  V30 17326 H 1645.63 -1.84164 -4.3035 0
M  V30 17327 H 1645.81 -2.77976 -5.85349 0
M  V30 17328 N 1639.21 1.50354 -0.472382 0
M  V30 17329 C 1640.62 1.86692 -0.0175768 0
M  V30 17330 C 1640.97 1.38708 1.3876 0
M  V30 17331 O 1640.1 0.752614 2.02891 0
M  V30 17332 C 1640.69 3.38791 -0.0251205 0
M  V30 17333 C 1639.25 3.74535 0.37422 0
M  V30 17334 C 1638.4 2.74252 -0.410045 0
M  V30 17335 H 1641.35 1.43079 -0.686593 0
M  V30 17336 H 1641.37 3.72487 0.776754 0
M  V30 17337 H 1640.88 3.73684 -1.04795 0
M  V30 17338 H 1638.99 3.45243 1.40135 0
M  V30 17339 H 1639.1 4.79042 0.0746666 0
M  V30 17340 H 1637.46 2.54334 0.136417 0
M  V30 17341 H 1638.25 3.11989 -1.43241 0
M  V30 17342 N 1640.69 0.205039 1.56261 0
M  V30 17343 C 1641.97 -0.479238 1.89638 0
M  V30 17344 C 1642.35 -1.78938 1.12002 0
M  V30 17345 O 1641.7 -2.27398 0.224179 0
M  V30 17346 C 1641.91 -0.688324 3.42145 0
M  V30 17347 C 1643.25 -1.00322 4.12578 0
M  V30 17348 O 1644.28 -0.775697 3.47651 0
M  V30 17349 O 1643.14 -1.43412 5.27347 0
M  V30 17350 H 1640.23 -0.251125 0.78795 0
M  V30 17351 H 1642.78 0.245994 1.67908 0
M  V30 17352 H 1641.55 0.236479 3.90585 0
M  V30 17353 H 1641.17 -1.46565 3.696 0
M  V30 17354 N 1642.17 -1.57451 -0.0684915 0
M  V30 17355 C 1643.42 -1.87689 -0.768156 0
M  V30 17356 C 1643.75 -0.79776 -1.77058 0
M  V30 17357 O 1643.02 0.191614 -1.93554 0
M  V30 17358 C 1643.31 -3.28587 -1.47319 0
M  V30 17359 C 1643.16 -4.47156 -0.486954 0
M  V30 17360 C 1644.48 -3.67772 -2.41727 0
M  V30 17361 H 1641.6 -0.682642 -0.277793 0
M  V30 17362 H 1644.24 -1.89974 -0.0312968 0
M  V30 17363 H 1642.39 -3.26769 -2.10129 0
M  V30 17364 H 1644.06 -4.61099 0.136189 0
M  V30 17365 H 1642.3 -4.33351 0.197429 0
M  V30 17366 H 1642.98 -5.42533 -1.01795 0
M  V30 17367 H 1645.45 -3.70704 -1.88992 0
M  V30 17368 H 1644.33 -4.6724 -2.88059 0
M  V30 17369 H 1644.59 -2.97882 -3.26679 0
M  V30 17370 N 1643.65 0.339955 -1.5389 0
M  V30 17371 C 1644.56 1.441 -1.85128 0
M  V30 17372 C 1645.57 1.57399 -0.741733 0
M  V30 17373 O 1646.75 1.72807 -1.0344 0
M  V30 17374 C 1643.81 2.7904 -2.05761 0
M  V30 17375 C 1642.88 2.75055 -3.29611 0
M  V30 17376 C 1642.11 4.0356 -3.4925 0
M  V30 17377 O 1642.33 5.01015 -2.72653 0
M  V30 17378 O 1641.27 4.07813 -4.42687 0
M  V30 17379 H 1645.09 1.20616 -2.78721 0
M  V30 17380 H 1642.68 0.532468 -1.39589 0
M  V30 17381 H 1644.56 3.5895 -2.20756 0
M  V30 17382 H 1643.23 3.02447 -1.15357 0
M  V30 17383 H 1642.14 1.93753 -3.20016 0
M  V30 17384 H 1643.47 2.56602 -4.20019 0
M  V30 17385 N 1645.13 1.45684 0.601159 0
M  V30 17386 C 1646.06 1.57694 1.72206 0
M  V30 17387 C 1647.04 0.428141 1.64624 0
M  V30 17388 O 1648.22 0.65209 1.82925 0
M  V30 17389 C 1645.35 1.54941 3.10822 0
M  V30 17390 C 1644.31 2.68603 3.33222 0
M  V30 17391 C 1643.63 2.50906 4.72176 0
M  V30 17392 C 1644.93 4.10568 3.22849 0
M  V30 17393 H 1646.63 2.51521 1.62412 0
M  V30 17394 H 1644.17 1.2105 0.779929 0
M  V30 17395 H 1646.12 1.61939 3.89042 0
M  V30 17396 H 1644.85 0.576471 3.21472 0
M  V30 17397 H 1643.51 2.61043 2.57394 0
M  V30 17398 H 1643.16 1.51736 4.79568 0
M  V30 17399 H 1642.86 3.27131 4.88118 0
M  V30 17400 H 1644.38 2.59767 5.52588 0
M  V30 17401 H 1645.79 4.19336 3.90935 0
M  V30 17402 H 1644.19 4.87234 3.50318 0
M  V30 17403 H 1645.26 4.32022 2.20192 0
M  V30 17404 N 1646.6 -0.84422 1.33082 0
M  V30 17405 C 1647.85 -1.59596 1.2399 0
M  V30 17406 C 1648.17 -1.94016 -0.19566 0
M  V30 17407 O 1647.44 -1.60512 -1.12306 0
M  V30 17408 H 1646.02 -0.591727 0.455926 0
M  V30 17409 H 1648.68 -1.00924 1.66735 0
M  V30 17410 H 1647.78 -2.52829 1.82986 0
M  V30 17411 N 1648.08 -1.16463 -1.0618 0
M  V30 17412 C 1649.04 -0.874674 -2.11854 0
M  V30 17413 C 1650.04 0.130829 -1.60267 0
M  V30 17414 O 1651.23 -0.100195 -1.73912 0
M  V30 17415 C 1648.37 -0.30826 -3.39503 0
M  V30 17416 H 1649.56 -1.81149 -2.39009 0
M  V30 17417 H 1647.11 -0.973721 -1.22264 0
M  V30 17418 H 1647.85 0.636181 -3.17999 0
M  V30 17419 H 1647.63 -1.03281 -3.78253 0
M  V30 17420 H 1649.12 -0.123378 -4.17418 0
M  V30 17421 N 1649.56 1.24734 -0.963288 0
M  V30 17422 C 1650.84 1.88004 -0.539809 0
M  V30 17423 C 1651.22 1.86814 0.983035 0
M  V30 17424 O 1650.56 1.33769 1.85251 0
M  V30 17425 C 1650.77 3.30326 -1.1263 0
M  V30 17426 C 1652.12 4.07039 -1.20848 0
M  V30 17427 O 1653.15 3.3948 -1.07849 0
M  V30 17428 O 1652.01 5.27906 -1.41342 0
M  V30 17429 H 1649.1 0.807318 -0.17935 0
M  V30 17430 H 1651.65 1.3274 -1.05727 0
M  V30 17431 H 1650.42 3.25668 -2.16925 0
M  V30 17432 H 1650.04 3.93159 -0.592614 0
M  V30 17433 N 1651.04 0.732878 1.39523 0
M  V30 17434 C 1651.95 0.0930216 2.34416 0
M  V30 17435 C 1652.96 -0.724309 1.58208 0
M  V30 17436 O 1654.14 -0.653267 1.90511 0
M  V30 17437 C 1651.2 -0.805036 3.37224 0
M  V30 17438 C 1650.27 0.0243049 4.29293 0
M  V30 17439 C 1649.5 -0.830984 5.27191 0
M  V30 17440 O 1649.72 -2.06977 5.31523 0
M  V30 17441 O 1648.66 -0.260772 6.01335 0
M  V30 17442 H 1652.48 0.876179 2.90786 0
M  V30 17443 H 1650.07 0.493525 1.41013 0
M  V30 17444 H 1651.95 -1.31894 4.00228 0
M  V30 17445 H 1650.62 -1.56704 2.83241 0
M  V30 17446 H 1649.53 0.583677 3.69519 0
M  V30 17447 H 1650.86 0.748485 4.86476 0
M  V30 17448 N 1652.52 -1.50101 0.480349 0
M  V30 17449 C 1653.45 -2.31581 -0.298718 0
M  V30 17450 C 1654.43 -1.38905 -0.981798 0
M  V30 17451 O 1655.61 -1.67823 -0.977188 0
M  V30 17452 C 1652.74 -3.18891 -1.37571 0
M  V30 17453 C 1651.7 -4.20194 -0.813704 0
M  V30 17454 C 1651.02 -4.96302 -1.98968 0
M  V30 17455 C 1652.32 -5.21985 0.181295 0
M  V30 17456 H 1654.02 -2.96961 0.381349 0
M  V30 17457 H 1651.56 -1.42809 0.184842 0
M  V30 17458 H 1653.51 -3.74694 -1.92828 0
M  V30 17459 H 1652.24 -2.51414 -2.08467 0
M  V30 17460 H 1650.9 -3.65506 -0.283034 0
M  V30 17461 H 1650.55 -4.2529 -2.68584 0
M  V30 17462 H 1650.25 -5.64833 -1.61981 0
M  V30 17463 H 1651.77 -5.54943 -2.54698 0
M  V30 17464 H 1653.18 -5.72604 -0.28242 0
M  V30 17465 H 1651.58 -5.98289 0.465916 0
M  V30 17466 H 1652.65 -4.72162 1.10413 0
M  V30 17467 N 1653.99 -0.213323 -1.5615 0
M  V30 17468 C 1654.96 0.686579 -2.18675 0
M  V30 17469 C 1655.96 1.1277 -1.14628 0
M  V30 17470 O 1657.15 1.03783 -1.39909 0
M  V30 17471 C 1654.28 1.93954 -2.80347 0
M  V30 17472 H 1655.47 0.141578 -2.99566 0
M  V30 17473 H 1653.02 0.0362987 -1.56258 0
M  V30 17474 H 1653.76 2.52661 -2.03304 0
M  V30 17475 H 1653.54 1.63179 -3.56532 0
M  V30 17476 H 1655.03 2.58087 -3.283 0
M  V30 17477 N 1655.47 1.57485 0.0601405 0
M  V30 17478 C 1656.7 1.91772 0.768565 0
M  V30 17479 C 1657.11 0.808661 1.71048 0
M  V30 17480 O 1656.45 -0.226062 1.82304 0
M  V30 17481 C 1656.52 3.21623 1.6062 0
M  V30 17482 C 1656.18 4.49355 0.832411 0
M  V30 17483 C 1657.18 5.19694 0.146434 0
M  V30 17484 C 1654.86 4.95951 0.796137 0
M  V30 17485 C 1656.86 6.34887 -0.565461 0
M  V30 17486 C 1654.54 6.11047 0.0804763 0
M  V30 17487 C 1655.54 6.80367 -0.599112 0
M  V30 17488 O 1655.23 7.93266 -1.30322 0
M  V30 17489 H 1654.96 0.638161 0.222994 0
M  V30 17490 H 1657.51 2.05376 0.0311569 0
M  V30 17491 H 1655.74 3.0426 2.38668 0
M  V30 17492 H 1657.43 3.41471 2.19436 0
M  V30 17493 H 1658.2 4.84717 0.16569 0
M  V30 17494 H 1654.08 4.4186 1.31457 0
M  V30 17495 H 1657.62 6.88929 -1.09646 0
M  V30 17496 H 1653.52 6.45473 0.0591881 0
M  V30 17497 H 1654.29 8.09452 -1.21369 0
M  V30 17498 N 1656.95 -0.331789 1.54068 0
M  V30 17499 C 1658.2 -1.07228 1.72134 0
M  V30 17500 C 1658.53 -1.87936 0.489265 0
M  V30 17501 O 1657.8 -1.87592 -0.513761 0
M  V30 17502 C 1658.09 -2.00379 2.99199 0
M  V30 17503 C 1657.94 -1.23056 4.3264 0
M  V30 17504 C 1659.26 -3.00026 3.21982 0
M  V30 17505 H 1656.38 -0.388428 0.626333 0
M  V30 17506 H 1659.02 -0.34971 1.86754 0
M  V30 17507 H 1657.17 -2.61993 2.86865 0
M  V30 17508 H 1658.84 -0.639661 4.56844 0
M  V30 17509 H 1657.09 -0.532717 4.30517 0
M  V30 17510 H 1657.76 -1.91411 5.17751 0
M  V30 17511 H 1660.23 -2.48531 3.33724 0
M  V30 17512 H 1659.11 -3.62395 4.12263 0
M  V30 17513 H 1659.37 -3.72041 2.38826 0
M  V30 17514 N 1658.43 -1.46001 -0.593424 0
M  V30 17515 C 1659.68 -1.50755 -1.352 0
M  V30 17516 C 1660 -0.154929 -1.93882 0
M  V30 17517 O 1659.26 0.848161 -1.76365 0
M  V30 17518 C 1659.56 -2.54568 -2.50858 0
M  V30 17519 C 1659.22 -3.98888 -2.10236 0
M  V30 17520 C 1657.89 -4.38182 -1.98872 0
M  V30 17521 C 1660.24 -4.89591 -1.78746 0
M  V30 17522 C 1657.57 -5.66057 -1.5426 0
M  V30 17523 C 1659.92 -6.17892 -1.35617 0
M  V30 17524 C 1658.58 -6.56103 -1.22822 0
M  V30 17525 H 1657.85 -0.551652 -0.494734 0
M  V30 17526 H 1660.5 -1.79422 -0.669327 0
M  V30 17527 H 1658.8 -2.19523 -3.24526 0
M  V30 17528 H 1660.5 -2.5548 -3.09081 0
M  V30 17529 H 1657.09 -3.67822 -2.20012 0
M  V30 17530 H 1661.27 -4.59959 -1.86416 0
M  V30 17531 H 1656.53 -5.94444 -1.42988 0
M  V30 17532 H 1660.7 -6.87609 -1.10301 0
M  V30 17533 H 1658.33 -7.55086 -0.880285 0
M  V30 17534 N 1659.91 0.83715 -1.33527 0
M  V30 17535 C 1660.85 1.96849 -1.23908 0
M  V30 17536 C 1661.85 1.6882 -0.140096 0
M  V30 17537 O 1663.05 1.77411 -0.304166 0
M  V30 17538 H 1659.43 0.646232 -0.384562 0
M  V30 17539 H 1661.4 2.02087 -2.19552 0
M  V30 17540 C 1660.15 3.33102 -0.996907 0
M  V30 17541 H 1659.47 3.5521 -1.83482 0
M  V30 17542 H 1660.91 4.12757 -0.96991 0
M  V30 17543 C 1659.37 3.3556 0.30013 0
M  V30 17544 O 1659.9 3.79868 1.30626 0
M  V30 17545 N 1658.11 2.8874 0.328269 0
M  V30 17546 H 1657.65 2.52877 -0.491043 0
M  V30 17547 H 1657.61 2.90767 1.19591 0
M  V30 17548 N 1661.38 1.17024 1.05561 0
M  V30 17549 C 1662.63 0.954436 1.78143 0
M  V30 17550 C 1662.95 -0.518525 1.8798 0
M  V30 17551 O 1662.22 -1.37654 1.39385 0
M  V30 17552 H 1660.8 0.350141 0.659856 0
M  V30 17553 H 1663.47 1.4743 1.27477 0
M  V30 17554 H 1662.56 1.37955 2.79955 0
M  V30 17555 N 1662.86 -1.24221 0.969889 0
M  V30 17556 C 1663.81 -2.23043 0.472854 0
M  V30 17557 C 1664.8 -1.54585 -0.446344 0
M  V30 17558 O 1665.99 -1.74821 -0.27691 0
M  V30 17559 C 1663.12 -3.42504 -0.233578 0
M  V30 17560 C 1662.2 -4.18206 0.704577 0
M  V30 17561 N 1662.59 -4.71037 1.84276 0
M  V30 17562 C 1660.89 -4.43007 0.515795 0
M  V30 17563 C 1661.59 -5.28525 2.42974 0
M  V30 17564 N 1660.57 -5.15849 1.71467 0
M  V30 17565 H 1664.37 -2.6151 1.34126 0
M  V30 17566 H 1661.89 -1.39632 0.829251 0
M  V30 17567 H 1663.88 -4.12459 -0.606891 0
M  V30 17568 H 1662.54 -3.05557 -1.0984 0
M  V30 17569 H 1663.55 -4.67705 2.22424 0
M  V30 17570 H 1660.23 -4.16385 -0.304885 0
M  V30 17571 H 1661.62 -5.8009 3.39035 0
M  V30 17572 N 1664.34 -0.740267 -1.39132 0
M  V30 17573 C 1665.76 -0.416412 -1.54072 0
M  V30 17574 C 1665.96 1.07211 -1.70611 0
M  V30 17575 O 1665.01 1.85822 -1.70958 0
M  V30 17576 C 1666.33 -1.20403 -2.75542 0
M  V30 17577 C 1667.87 -1.19278 -2.89382 0
M  V30 17578 C 1668.35 -1.96308 -4.13796 0
M  V30 17579 N 1669.84 -1.93501 -4.20846 0
M  V30 17580 C 1670.57 -2.49907 -5.16075 0
M  V30 17581 N 1670.07 -3.14973 -6.17061 0
M  V30 17582 N 1671.86 -2.39911 -5.0833 0
M  V30 17583 H 1664.01 -1.70513 -1.26645 0
M  V30 17584 H 1666.28 -0.722111 -0.614214 0
M  V30 17585 H 1665.98 -2.25754 -2.69681 0
M  V30 17586 H 1665.86 -0.811986 -3.68357 0
M  V30 17587 H 1668.24 -0.147385 -2.94732 0
M  V30 17588 H 1668.33 -1.62424 -1.97616 0
M  V30 17589 H 1667.97 -3.00851 -4.09208 0
M  V30 17590 H 1667.9 -1.50565 -5.04617 0
M  V30 17591 H 1670.39 -1.46104 -3.48514 0
M  V30 17592 H 1670.7 -3.55467 -6.86195 0
M  V30 17593 H 1669.05 -3.19064 -6.17433 0
M  V30 17594 H 1672.24 -1.88718 -4.28373 0
M  V30 17595 H 1672.41 -2.84169 -5.82368 0
M  V30 17596 N 1665.82 1.49844 -0.488302 0
M  V30 17597 C 1667.07 2.02009 0.0605782 0
M  V30 17598 C 1667.39 1.37114 1.38653 0
M  V30 17599 O 1666.66 0.522182 1.88812 0
M  V30 17600 H 1665.24 0.746569 0.0253773 0
M  V30 17601 H 1667.9 1.84 -0.64265 0
M  V30 17602 H 1667 3.11461 0.199542 0
M  V30 17603 N 1667.3 0.221601 1.56034 0
M  V30 17604 C 1668.23 -0.720818 2.1757 0
M  V30 17605 C 1669.24 -1.15751 1.14479 0
M  V30 17606 O 1670.43 -1.08865 1.41459 0
M  V30 17607 C 1667.53 -1.98817 2.74454 0
M  V30 17608 C 1666.7 -1.70703 4.02715 0
M  V30 17609 C 1665.76 -2.82146 4.44162 0
M  V30 17610 O 1664.79 -2.50614 5.11059 0
M  V30 17611 N 1665.99 -4.11101 4.09849 0
M  V30 17612 H 1668.76 -0.194436 2.99069 0
M  V30 17613 H 1666.32 0.0405962 1.61849 0
M  V30 17614 H 1668.31 -2.72562 2.99152 0
M  V30 17615 H 1666.88 -2.42503 1.97258 0
M  V30 17616 H 1666.1 -0.806022 3.85872 0
M  V30 17617 H 1667.39 -1.49351 4.86387 0
M  V30 17618 H 1666.78 -4.39562 3.56092 0
M  V30 17619 H 1665.34 -4.81389 4.3944 0
M  V30 17620 N 1668.77 -1.57515 -0.0517878 0
M  V30 17621 C 1670.19 -1.54323 -0.407009 0
M  V30 17622 C 1670.39 -0.944629 -1.77986 0
M  V30 17623 O 1669.45 -0.555785 -2.46307 0
M  V30 17624 C 1670.76 -2.98887 -0.329703 0
M  V30 17625 C 1672.31 -3.10324 -0.408443 0
M  V30 17626 C 1672.78 -4.56576 -0.360833 0
M  V30 17627 N 1674.27 -4.61289 -0.420313 0
M  V30 17628 C 1675.01 -5.71961 -0.406007 0
M  V30 17629 N 1674.5 -6.91939 -0.34533 0
M  V30 17630 N 1676.3 -5.60263 -0.454054 0
M  V30 17631 H 1668.45 -1.94785 0.846907 0
M  V30 17632 H 1670.71 -0.892417 0.319838 0
M  V30 17633 H 1670.42 -3.4632 0.612802 0
M  V30 17634 H 1670.29 -3.59806 -1.13222 0
M  V30 17635 H 1672.68 -2.62852 -1.34138 0
M  V30 17636 H 1672.76 -2.52278 0.423018 0
M  V30 17637 H 1672.4 -5.0471 0.568335 0
M  V30 17638 H 1672.33 -5.12508 -1.2101 0
M  V30 17639 H 1674.82 -3.74958 -0.470644 0
M  V30 17640 H 1675.14 -7.72057 -0.338889 0
M  V30 17641 H 1673.48 -6.94301 -0.311715 0
M  V30 17642 H 1676.67 -4.6543 -0.499289 0
M  V30 17643 H 1676.85 -6.46508 -0.439435 0
M  V30 17644 N 1670.25 0.323614 -1.54242 0
M  V30 17645 C 1671.5 1.05935 -1.73636 0
M  V30 17646 C 1671.85 1.85684 -0.503888 0
M  V30 17647 O 1671.15 1.84861 0.503692 0
M  V30 17648 C 1671.34 2.01452 -2.95215 0
M  V30 17649 C 1671.17 1.31094 -4.30168 0
M  V30 17650 C 1669.94 1.04747 -4.94324 0
M  V30 17651 C 1672.14 0.726886 -5.09137 0
M  V30 17652 N 1670.12 0.311788 -6.13108 0
M  V30 17653 C 1671.49 0.122813 -6.19878 0
M  V30 17654 C 1673.55 0.629696 -4.93902 0
M  V30 17655 C 1672.25 -0.569019 -7.17046 0
M  V30 17656 C 1674.28 -0.0484359 -5.9138 0
M  V30 17657 C 1673.64 -0.641453 -7.01473 0
M  V30 17658 H 1669.74 0.371344 -0.688206 0
M  V30 17659 H 1672.32 0.340541 -1.91699 0
M  V30 17660 H 1670.49 2.70605 -2.78617 0
M  V30 17661 H 1672.22 2.6801 -3.03237 0
M  V30 17662 H 1668.98 1.33979 -4.54254 0
M  V30 17663 H 1669.4 -0.0419069 -6.76987 0
M  V30 17664 H 1674.04 1.0739 -4.08934 0
M  V30 17665 H 1671.76 -1.02505 -8.01572 0
M  V30 17666 H 1675.35 -0.123275 -5.81669 0
M  V30 17667 H 1674.23 -1.15786 -7.75605 0
M  V30 17668 N 1671.73 1.46313 0.585673 0
M  V30 17669 C 1672.68 1.5307 1.68978 0
M  V30 17670 C 1673.67 0.391901 1.56054 0
M  V30 17671 O 1674.86 0.64013 1.65019 0
M  V30 17672 C 1671.99 1.52113 3.07761 0
M  V30 17673 C 1671.07 2.71276 3.25991 0
M  V30 17674 N 1671.46 3.9622 3.14393 0
M  V30 17675 C 1669.76 2.67436 3.56923 0
M  V30 17676 C 1670.46 4.7587 3.34549 0
M  V30 17677 N 1669.44 4.07693 3.59565 0
M  V30 17678 H 1673.24 2.47474 1.58537 0
M  V30 17679 H 1670.75 1.41911 0.789614 0
M  V30 17680 H 1672.75 1.5504 3.86999 0
M  V30 17681 H 1671.41 0.587834 3.19335 0
M  V30 17682 H 1672.42 4.27513 2.92323 0
M  V30 17683 H 1669.1 1.83116 3.75199 0
M  V30 17684 H 1670.49 5.84831 3.3079 0
M  V30 17685 N 1673.21 -0.830057 1.33969 0
M  V30 17686 C 1674.14 -1.95557 1.27592 0
M  V30 17687 C 1675.12 -1.69395 0.154745 0
M  V30 17688 O 1676.31 -1.91094 0.345954 0
M  V30 17689 C 1673.44 -3.31881 1.02335 0
M  V30 17690 C 1672.39 -3.72464 2.10842 0
M  V30 17691 C 1671.72 -5.06692 1.70785 0
M  V30 17692 C 1673.02 -3.85315 3.52604 0
M  V30 17693 H 1674.71 -2.0115 2.21763 0
M  V30 17694 H 1672.26 -0.96639 1.06756 0
M  V30 17695 H 1674.21 -4.10197 0.965206 0
M  V30 17696 H 1672.93 -3.26568 0.0460462 0
M  V30 17697 H 1671.59 -2.96417 2.15714 0
M  V30 17698 H 1671.24 -4.97859 0.717334 0
M  V30 17699 H 1670.94 -5.34817 2.43403 0
M  V30 17700 H 1672.46 -5.87474 1.66452 0
M  V30 17701 H 1673.88 -4.5392 3.50185 0
M  V30 17702 H 1672.27 -4.24886 4.23783 0
M  V30 17703 H 1673.34 -2.87514 3.90466 0
M  V30 17704 N 1674.69 -1.17582 -1.04939 0
M  V30 17705 C 1675.94 -0.96387 -1.77634 0
M  V30 17706 C 1676.26 0.508548 -1.88252 0
M  V30 17707 O 1675.53 1.36913 -1.40113 0
M  V30 17708 H 1674.11 -0.353636 -0.65799 0
M  V30 17709 H 1676.77 -1.48104 -1.26693 0
M  V30 17710 H 1675.86 -1.39438 -2.79219 0
M  V30 17711 N 1676.17 1.23705 -0.976463 0
M  V30 17712 C 1677.39 1.96595 -0.660697 0
M  V30 17713 C 1677.82 1.71845 0.764916 0
M  V30 17714 O 1677.17 0.987506 1.52046 0
M  V30 17715 C 1677.22 3.47803 -0.95214 0
M  V30 17716 O 1676.33 4.12378 -0.0421126 0
M  V30 17717 H 1675.67 0.615591 -0.248886 0
M  V30 17718 H 1678.2 1.57247 -1.30899 0
M  V30 17719 H 1678.21 3.98236 -0.887238 0
M  V30 17720 H 1676.88 3.65144 -1.99105 0
M  V30 17721 H 1675.46 3.72552 -0.161087 0
M  V30 17722 N 1677.64 0.747635 1.38738 0
M  V30 17723 C 1678.55 0.117879 2.34304 0
M  V30 17724 C 1679.57 -0.707488 1.58967 0
M  V30 17725 O 1680.75 -0.633025 1.91193 0
M  V30 17726 C 1677.81 -0.769223 3.38059 0
M  V30 17727 C 1676.87 0.0698358 4.29243 0
M  V30 17728 C 1676.1 -0.775021 5.28043 0
M  V30 17729 O 1676.33 -2.01328 5.33688 0
M  V30 17730 O 1675.26 -0.196978 6.01578 0
M  V30 17731 H 1679.09 0.906972 2.89841 0
M  V30 17732 H 1676.67 0.508453 1.40482 0
M  V30 17733 H 1678.55 -1.27641 4.01604 0
M  V30 17734 H 1677.23 -1.53691 2.84887 0
M  V30 17735 H 1676.14 0.622836 3.68879 0
M  V30 17736 H 1677.47 0.80004 4.85654 0
M  V30 17737 N 1679.12 -1.49583 0.496242 0
M  V30 17738 C 1680.53 -1.8664 0.0472756 0
M  V30 17739 C 1680.88 -1.40898 -1.36536 0
M  V30 17740 O 1680.01 -0.784796 -2.01668 0
M  V30 17741 C 1680.6 -3.38708 0.079016 0
M  V30 17742 C 1679.16 -3.75083 -0.314587 0
M  V30 17743 C 1678.31 -2.73565 0.453624 0
M  V30 17744 H 1681.26 -1.41969 0.709269 0
M  V30 17745 H 1681.28 -3.73676 -0.717396 0
M  V30 17746 H 1680.79 -3.71969 1.10727 0
M  V30 17747 H 1678.89 -3.47429 -1.34625 0
M  V30 17748 H 1679.01 -4.791 0.00155427 0
M  V30 17749 H 1677.37 -2.54519 -0.095937 0
M  V30 17750 H 1678.15 -3.0967 1.48186 0
M  V30 17751 N 1680.6 -0.229873 -1.55915 0
M  V30 17752 C 1681.85 0.399565 -1.98519 0
M  V30 17753 C 1682.17 1.59179 -1.1177 0
M  V30 17754 O 1681.43 1.95007 -0.16454 0
M  V30 17755 C 1681.73 0.869043 -3.46673 0
M  V30 17756 C 1681.39 -0.21356 -4.50394 0
M  V30 17757 C 1680.06 -0.510939 -4.7848 0
M  V30 17758 C 1682.41 -0.945307 -5.12556 0
M  V30 17759 C 1679.74 -1.54444 -5.66007 0
M  V30 17760 C 1682.09 -1.9682 -6.01203 0
M  V30 17761 C 1680.75 -2.27241 -6.27629 0
M  V30 17762 H 1680.02 0.146211 -0.726432 0
M  V30 17763 H 1682.67 -0.334135 -1.88562 0
M  V30 17764 H 1680.97 1.68165 -3.53875 0
M  V30 17765 H 1682.67 1.36605 -3.77015 0
M  V30 17766 H 1679.26 0.0283699 -4.28591 0
M  V30 17767 H 1683.45 -0.728806 -4.9092 0
M  V30 17768 H 1678.7 -1.78566 -5.84743 0
M  V30 17769 H 1682.88 -2.54023 -6.48418 0
M  V30 17770 H 1680.5 -3.07465 -6.95248 0
M  V30 17771 N 1682.08 1.5754 0.0434337 0
M  V30 17772 C 1683.33 1.88235 0.735652 0
M  V30 17773 C 1683.65 0.825698 1.76656 0
M  V30 17774 O 1682.92 -0.142424 1.95382 0
M  V30 17775 H 1681.5 0.694661 0.274692 0
M  V30 17776 H 1684.16 1.94896 0.0127911 0
M  V30 17777 H 1683.25 2.86659 1.23421 0
M  V30 17778 N 1683.56 -0.31543 1.54411 0
M  V30 17779 C 1684.97 -0.660254 1.45302 0
M  V30 17780 C 1685.17 -1.91316 0.632493 0
M  V30 17781 O 1684.23 -2.52142 0.134493 0
M  V30 17782 C 1685.54 -0.826685 2.89113 0
M  V30 17783 C 1687.09 -0.923503 2.99066 0
M  V30 17784 C 1687.56 -1.12204 4.44043 0
M  V30 17785 N 1689.05 -1.18859 4.47691 0
M  V30 17786 C 1689.79 -1.36024 5.57032 0
M  V30 17787 N 1689.29 -1.5018 6.76327 0
M  V30 17788 N 1691.08 -1.38797 5.44694 0
M  V30 17789 H 1683.23 0.507961 2.06237 0
M  V30 17790 H 1685.49 0.165515 0.933439 0
M  V30 17791 H 1685.2 0.0228371 3.51693 0
M  V30 17792 H 1685.07 -1.72007 3.35698 0
M  V30 17793 H 1687.46 -1.76352 2.36609 0
M  V30 17794 H 1687.54 -0.00641189 2.55799 0
M  V30 17795 H 1687.18 -0.286844 5.07089 0
M  V30 17796 H 1687.11 -2.05313 4.84927 0
M  V30 17797 H 1689.61 -1.0933 3.61739 0
M  V30 17798 H 1689.92 -1.62992 7.55416 0
M  V30 17799 H 1688.26 -1.47262 6.79219 0
M  V30 17800 H 1691.45 -1.27339 4.50447 0
M  V30 17801 H 1691.63 -1.51832 6.29961 0
M  V30 17802 N 1685.03 -1.46622 -0.577906 0
M  V30 17803 C 1686.45 -1.46287 -1.16004 0
M  V30 17804 C 1686.8 -0.206307 -1.95112 0
M  V30 17805 O 1685.92 0.690275 -2.05096 0
M  V30 17806 C 1686.52 -2.65042 -2.1104 0
M  V30 17807 C 1685.08 -2.67733 -2.64567 0
M  V30 17808 C 1684.22 -2.39053 -1.40531 0
M  V30 17809 H 1687.17 -1.54432 -0.365585 0
M  V30 17810 H 1687.19 -2.40834 -2.94583 0
M  V30 17811 H 1686.71 -3.56481 -1.53436 0
M  V30 17812 H 1684.81 -1.80379 -3.26028 0
M  V30 17813 H 1684.92 -3.67836 -3.06974 0
M  V30 17814 H 1683.28 -1.89209 -1.70506 0
M  V30 17815 H 1684.07 -3.32674 -0.847509 0
M  V30 17816 N 1686.51 0.822941 -1.34408 0
M  V30 17817 C 1687.76 1.58107 -1.2796 0
M  V30 17818 C 1688.11 1.91821 0.149148 0
M  V30 17819 O 1687.41 1.57198 1.09541 0
M  V30 17820 C 1687.6 2.88915 -2.10388 0
M  V30 17821 C 1687.43 2.67979 -3.61133 0
M  V30 17822 C 1686.2 2.64714 -4.30412 0
M  V30 17823 C 1688.4 2.39495 -4.55134 0
M  V30 17824 N 1686.38 2.35323 -5.67006 0
M  V30 17825 C 1687.75 2.19799 -5.79732 0
M  V30 17826 C 1689.81 2.25223 -4.44048 0
M  V30 17827 C 1688.51 1.87276 -6.94493 0
M  V30 17828 C 1690.53 1.94096 -5.58642 0
M  V30 17829 C 1689.9 1.75223 -6.82258 0
M  V30 17830 H 1686 0.580949 -0.523472 0
M  V30 17831 H 1688.58 0.964711 -1.6912 0
M  V30 17832 H 1686.75 3.48474 -1.71525 0
M  V30 17833 H 1688.48 3.543 -1.95585 0
M  V30 17834 H 1685.24 2.78787 -3.82851 0
M  V30 17835 H 1685.66 2.23468 -6.39055 0
M  V30 17836 H 1690.3 2.38519 -3.49097 0
M  V30 17837 H 1688.02 1.72717 -7.89427 0
M  V30 17838 H 1691.61 1.83784 -5.5201 0
M  V30 17839 H 1690.49 1.51485 -7.6943 0
M  V30 17840 N 1687.99 1.18137 1.04314 0
M  V30 17841 C 1688.92 0.863879 2.12296 0
M  V30 17842 C 1689.94 -0.137469 1.62219 0
M  V30 17843 O 1691.12 0.0900306 1.78273 0
M  V30 17844 C 1688.22 0.269002 3.37831 0
M  V30 17845 C 1687.4 1.3154 4.17152 0
M  V30 17846 C 1686.46 0.736666 5.21018 0
M  V30 17847 O 1685.48 1.41075 5.5144 0
M  V30 17848 N 1686.68 -0.467037 5.78618 0
M  V30 17849 H 1689.45 1.7933 2.40127 0
M  V30 17850 H 1687.01 1.08142 1.20486 0
M  V30 17851 H 1689 -0.131671 4.04486 0
M  V30 17852 H 1687.57 -0.564386 3.07463 0
M  V30 17853 H 1686.79 1.89148 3.45856 0
M  V30 17854 H 1688.08 2.02093 4.66943 0
M  V30 17855 H 1687.48 -1.03247 5.56198 0
M  V30 17856 H 1686.04 -0.809663 6.46752 0
M  V30 17857 N 1689.47 -1.23186 0.98301 0
M  V30 17858 C 1690.88 -1.73484 0.689933 0
M  V30 17859 C 1691.23 -1.79428 -0.793724 0
M  V30 17860 O 1690.36 -1.43391 -1.62074 0
M  V30 17861 C 1690.95 -3.15068 1.24571 0
M  V30 17862 C 1689.51 -3.62812 1.00222 0
M  V30 17863 C 1688.66 -2.40988 1.37186 0
M  V30 17864 H 1691.61 -1.08672 1.15655 0
M  V30 17865 H 1691.63 -3.75425 0.619406 0
M  V30 17866 H 1691.14 -3.10709 2.32554 0
M  V30 17867 H 1689.24 -3.72549 -0.0614202 0
M  V30 17868 H 1689.35 -4.49473 1.65863 0
M  V30 17869 H 1687.72 -2.42127 0.79035 0
M  V30 17870 H 1688.5 -2.39299 2.46152 0
M  V30 17871 N 1690.95 -0.754982 -1.38339 0
M  V30 17872 C 1692.19 -0.311146 -1.9969 0
M  V30 17873 C 1692.52 1.11138 -1.60229 0
M  V30 17874 O 1691.79 1.76024 -0.859794 0
M  V30 17875 H 1690.37 -0.112052 -0.738548 0
M  V30 17876 H 1693.03 -0.969386 -1.69083 0
M  V30 17877 H 1692.12 -0.375392 -3.09834 0
M  V30 17878 N 1692.42 1.49318 -0.504168 0
M  V30 17879 C 1693.7 1.95332 0.102393 0
M  V30 17880 C 1694.08 1.44576 1.53821 0
M  V30 17881 O 1693.43 0.660894 2.18734 0
M  V30 17882 C 1693.64 3.48998 0.0117694 0
M  V30 17883 C 1694.99 4.24201 0.184101 0
M  V30 17884 O 1696.01 3.56094 0.0868056 0
M  V30 17885 O 1694.87 5.45147 0.384267 0
M  V30 17886 H 1691.96 0.821691 0.0935582 0
M  V30 17887 H 1694.51 1.5995 -0.566932 0
M  V30 17888 H 1693.28 3.78585 -0.989413 0
M  V30 17889 H 1692.91 3.91006 0.7211 0
M  V30 17890 N 1693.9 0.238138 1.5579 0
M  V30 17891 C 1695.15 -0.389608 1.99022 0
M  V30 17892 C 1695.48 -1.58226 1.12597 0
M  V30 17893 O 1694.76 -1.93595 0.187363 0
M  V30 17894 C 1695.04 -0.808025 3.50917 0
M  V30 17895 C 1694.89 0.389417 4.48111 0
M  V30 17896 C 1696.21 -1.6582 4.07666 0
M  V30 17897 H 1693.33 -0.140141 0.723553 0
M  V30 17898 H 1695.97 0.337696 1.86975 0
M  V30 17899 H 1694.12 -1.42772 3.61315 0
M  V30 17900 H 1695.79 1.02777 4.49705 0
M  V30 17901 H 1694.04 1.03404 4.21296 0
M  V30 17902 H 1694.71 0.0534549 5.51974 0
M  V30 17903 H 1697.18 -1.13518 4.00316 0
M  V30 17904 H 1696.06 -1.91984 5.14231 0
M  V30 17905 H 1696.32 -2.62712 3.55577 0
M  V30 17906 N 1695.38 -1.57561 -0.0350783 0
M  V30 17907 C 1696.63 -1.89276 -0.728172 0
M  V30 17908 C 1696.96 -0.835137 -1.75326 0
M  V30 17909 O 1696.23 0.150516 -1.93917 0
M  V30 17910 C 1696.52 -3.31638 -1.40316 0
M  V30 17911 C 1696.37 -4.48089 -0.391996 0
M  V30 17912 C 1697.69 -3.72816 -2.33872 0
M  V30 17913 H 1694.81 -0.688381 -0.26325 0
M  V30 17914 H 1697.45 -1.89998 0.00900661 0
M  V30 17915 H 1695.6 -3.31153 -2.0315 0
M  V30 17916 H 1697.27 -4.60706 0.233965 0
M  V30 17917 H 1695.52 -4.32834 0.289305 0
M  V30 17918 H 1696.19 -5.4457 -0.902641 0
M  V30 17919 H 1698.66 -3.74629 -1.81086 0
M  V30 17920 H 1697.54 -4.73245 -2.78084 0
M  V30 17921 H 1697.8 -3.04744 -3.20287 0
M  V30 17922 N 1696.86 0.307236 -1.54576 0
M  V30 17923 C 1698.11 1.04115 -1.73218 0
M  V30 17924 C 1698.43 1.88008 -0.517482 0
M  V30 17925 O 1697.7 1.90219 0.468336 0
M  V30 17926 H 1696.28 0.387388 -0.638701 0
M  V30 17927 H 1698.94 0.339727 -1.91916 0
M  V30 17928 H 1698.04 1.69784 -2.61877 0
M  V30 17929 N 1698.34 1.46926 0.570122 0
M  V30 17930 C 1699.58 1.54455 1.33876 0
M  V30 17931 C 1699.94 0.196741 1.90989 0
M  V30 17932 O 1701.14 0.146824 2.68399 0
M  V30 17933 C 1699.41 2.622 2.42871 0
M  V30 17934 S 1700.97 2.89222 3.29994 0
M  V30 17935 H 1697.79 0.545564 0.45594 0
M  V30 17936 H 1700.39 1.84234 0.654081 0
M  V30 17937 H 1699.1 3.58744 1.99325 0
M  V30 17938 H 1698.63 2.34194 3.16096 0
M  V30 17939 H 1700.64 2.25452 4.42025 0
M  V30 17940 N 1699.82 -0.815801 1.34842 0
M  V30 17941 C 1700.75 -1.93258 1.21353 0
M  V30 17942 C 1701.73 -1.6227 0.103515 0
M  V30 17943 O 1702.91 -1.86557 0.269954 0
M  V30 17944 C 1700.04 -3.27429 0.866494 0
M  V30 17945 C 1699.08 -3.77372 1.98727 0
M  V30 17946 S 1699.92 -3.96277 3.60173 0
M  V30 17947 C 1701.07 -5.33364 3.27526 0
M  V30 17948 H 1701.31 -2.04405 2.15884 0
M  V30 17949 H 1698.84 -0.972165 1.19951 0
M  V30 17950 H 1700.8 -4.04945 0.673064 0
M  V30 17951 H 1699.46 -3.14042 -0.0605998 0
M  V30 17952 H 1698.65 -4.74522 1.69837 0
M  V30 17953 H 1698.25 -3.06825 2.13855 0
M  V30 17954 H 1700.54 -6.17031 2.79783 0
M  V30 17955 H 1701.49 -5.67242 4.23842 0
M  V30 17956 H 1701.9 -4.99213 2.63527 0
M  V30 17957 N 1701.29 -1.18689 -1.03686 0
M  V30 17958 C 1702.54 -0.978948 -1.7635 0
M  V30 17959 C 1702.86 0.49195 -1.89312 0
M  V30 17960 O 1704.06 0.818501 -2.58868 0
M  V30 17961 C 1702.52 -1.70255 -3.17083 0
M  V30 17962 C 1702.13 -3.21301 -3.12201 0
M  V30 17963 C 1703.87 -1.57756 -3.94098 0
M  V30 17964 C 1701.78 -3.86284 -4.47815 0
M  V30 17965 H 1700.71 -0.362652 -0.661059 0
M  V30 17966 H 1703.36 -1.42102 -1.161 0
M  V30 17967 H 1701.74 -1.18826 -3.77752 0
M  V30 17968 H 1702.91 -3.79785 -2.6096 0
M  V30 17969 H 1701.23 -3.33984 -2.48684 0
M  V30 17970 H 1703.83 -2.03664 -4.94394 0
M  V30 17971 H 1704.17 -0.530427 -4.12907 0
M  V30 17972 H 1704.7 -2.06486 -3.40012 0
M  V30 17973 H 1701.44 -4.91061 -4.34211 0
M  V30 17974 H 1700.96 -3.32589 -4.99144 0
M  V30 17975 H 1702.64 -3.89369 -5.16721 0
M  V30 17976 N 1702.77 1.22662 -0.989529 0
M  V30 17977 C 1704.05 1.86816 -0.579566 0
M  V30 17978 C 1704.43 1.88858 0.943188 0
M  V30 17979 O 1703.78 1.37668 1.82372 0
M  V30 17980 C 1703.99 3.27863 -1.19612 0
M  V30 17981 C 1705.33 4.04384 -1.29454 0
M  V30 17982 O 1706.36 3.37116 -1.15026 0
M  V30 17983 O 1705.22 5.24789 -1.52508 0
M  V30 17984 H 1702.31 0.803332 -0.196434 0
M  V30 17985 H 1704.86 1.30467 -1.08519 0
M  V30 17986 H 1703.63 3.20993 -2.23784 0
M  V30 17987 H 1703.25 3.91813 -0.675875 0
M  V30 17988 N 1704.25 0.762308 1.37937 0
M  V30 17989 C 1705.18 0.156036 2.32978 0
M  V30 17990 C 1706.16 -0.693795 1.55308 0
M  V30 17991 O 1707.35 -0.633195 1.83587 0
M  V30 17992 C 1704.48 -0.731199 3.39515 0
M  V30 17993 C 1703.43 0.0165834 4.27997 0
M  V30 17994 C 1702.76 -0.989476 5.25465 0
M  V30 17995 C 1704.06 1.19009 5.08561 0
M  V30 17996 H 1705.75 0.949978 2.83929 0
M  V30 17997 H 1703.3 0.458269 1.36513 0
M  V30 17998 H 1705.25 -1.16507 4.04974 0
M  V30 17999 H 1703.97 -1.55756 2.87067 0
M  V30 18000 H 1702.63 0.431128 3.64056 0
M  V30 18001 H 1702.28 -1.81013 4.69301 0
M  V30 18002 H 1701.98 -0.493738 5.85522 0
M  V30 18003 H 1703.5 -1.42248 5.93799 0
M  V30 18004 H 1704.92 0.833336 5.67211 0
M  V30 18005 H 1703.31 1.61727 5.77896 0
M  V30 18006 H 1704.38 1.99879 4.41788 0
M  V30 18007 N 1705.73 -1.49049 0.51208 0
M  V30 18008 C 1706.96 -2.06885 -0.0249703 0
M  V30 18009 C 1707.37 -1.371 -1.29804 0
M  V30 18010 O 1706.73 -0.452798 -1.76794 0
M  V30 18011 C 1706.78 -3.60482 -0.27112 0
M  V30 18012 O 1706.5 -4.27643 0.951493 0
M  V30 18013 C 1708 -4.35063 -0.850568 0
M  V30 18014 H 1705.22 -0.670517 0.0254456 0
M  V30 18015 H 1707.76 -1.91682 0.712607 0
M  V30 18016 H 1705.92 -3.7535 -0.958702 0
M  V30 18017 H 1706.33 -5.19519 0.721156 0
M  V30 18018 H 1707.81 -5.43369 -0.972322 0
M  V30 18019 H 1708.28 -3.98285 -1.85111 0
M  V30 18020 H 1708.89 -4.24829 -0.200111 0
M  V30 18021 N 1707.21 -0.246397 -1.55662 0
M  V30 18022 C 1708.12 0.664125 -2.25003 0
M  V30 18023 C 1709.13 1.19368 -1.26598 0
M  V30 18024 O 1710.31 1.23006 -1.59473 0
M  V30 18025 C 1707.37 1.8446 -2.93557 0
M  V30 18026 C 1706.43 1.35456 -4.0737 0
M  V30 18027 C 1705.67 2.47877 -4.72645 0
M  V30 18028 O 1705.89 3.66594 -4.36995 0
M  V30 18029 O 1704.82 2.17663 -5.61165 0
M  V30 18030 H 1708.65 0.103277 -3.03524 0
M  V30 18031 H 1706.23 -0.0149207 -1.49393 0
M  V30 18032 H 1708.12 2.53349 -3.36737 0
M  V30 18033 H 1706.79 2.39308 -2.17976 0
M  V30 18034 H 1705.7 0.632958 -3.68706 0
M  V30 18035 H 1707.03 0.852175 -4.84767 0
M  V30 18036 N 1708.68 1.57577 0.026722 0
M  V30 18037 C 1709.63 2.07803 1.04502 0
M  V30 18038 C 1710.63 0.992308 1.37294 0
M  V30 18039 O 1711.83 1.17717 1.36171 0
M  V30 18040 H 1708.21 0.663176 0.354545 0
M  V30 18041 H 1710.18 2.92395 0.595626 0
M  V30 18042 C 1708.93 2.57478 2.33667 0
M  V30 18043 H 1708.25 3.40639 2.09296 0
M  V30 18044 H 1709.69 2.96328 3.03258 0
M  V30 18045 C 1708.15 1.47704 3.02796 0
M  V30 18046 O 1708.68 0.844611 3.9272 0
M  V30 18047 N 1706.88 1.211 2.64165 0
M  V30 18048 H 1706.43 1.72713 1.91123 0
M  V30 18049 H 1706.39 0.47866 3.10735 0
M  V30 18050 N 1710.16 -0.299034 1.54737 0
M  V30 18051 C 1711.39 -1.0529 1.78105 0
M  V30 18052 C 1711.8 -1.80868 0.541499 0
M  V30 18053 O 1711.16 -1.75834 -0.488726 0
M  V30 18054 C 1711.21 -2.03192 2.9899 0
M  V30 18055 O 1710.93 -1.30681 4.18156 0
M  V30 18056 C 1712.43 -2.90602 3.34762 0
M  V30 18057 H 1709.65 -0.312173 0.593961 0
M  V30 18058 H 1712.2 -0.337712 2.01692 0
M  V30 18059 H 1710.35 -2.70211 2.77606 0
M  V30 18060 H 1710.77 -1.96446 4.86322 0
M  V30 18061 H 1712.24 -3.55144 4.22584 0
M  V30 18062 H 1712.72 -3.59006 2.53004 0
M  V30 18063 H 1713.32 -2.29112 3.58313 0
M  V30 18064 N 1711.64 -1.47227 -0.562322 0
M  V30 18065 C 1712.89 -1.52851 -1.31604 0
M  V30 18066 C 1713.2 -0.193236 -1.94643 0
M  V30 18067 O 1714.41 -0.127429 -2.71201 0
M  V30 18068 C 1712.86 -2.69422 -2.3862 0
M  V30 18069 C 1712.47 -4.09457 -1.81794 0
M  V30 18070 C 1714.22 -2.84334 -3.15205 0
M  V30 18071 C 1712.12 -5.17337 -2.8656 0
M  V30 18072 H 1711.05 -0.568923 -0.494816 0
M  V30 18073 H 1713.7 -1.73489 -0.597819 0
M  V30 18074 H 1712.09 -2.42153 -3.13333 0
M  V30 18075 H 1713.26 -4.46606 -1.13487 0
M  V30 18076 H 1711.57 -3.99387 -1.17811 0
M  V30 18077 H 1714.17 -3.621 -3.93431 0
M  V30 18078 H 1714.51 -1.9259 -3.69073 0
M  V30 18079 H 1715.05 -3.11348 -2.47603 0
M  V30 18080 H 1711.79 -6.1094 -2.37554 0
M  V30 18081 H 1711.31 -4.8471 -3.53293 0
M  V30 18082 H 1712.99 -5.44065 -3.50146 0
M  V30 18083 N 1713.12 0.808639 -1.35273 0
M  V30 18084 C 1714.37 1.56071 -1.27768 0
M  V30 18085 C 1714.68 1.9505 0.146545 0
M  V30 18086 O 1715.89 2.69314 0.343855 0
M  V30 18087 C 1714.34 2.81648 -2.24059 0
M  V30 18088 C 1713.95 2.49915 -3.71815 0
M  V30 18089 C 1715.69 3.59658 -2.25492 0
M  V30 18090 C 1713.6 3.7177 -4.59936 0
M  V30 18091 H 1712.53 0.585811 -0.474701 0
M  V30 18092 H 1715.18 0.889051 -1.60525 0
M  V30 18093 H 1713.56 3.50514 -1.84271 0
M  V30 18094 H 1714.74 1.89068 -4.20226 0
M  V30 18095 H 1713.05 1.85154 -3.72971 0
M  V30 18096 H 1715.65 4.50162 -2.88545 0
M  V30 18097 H 1715.99 3.96835 -1.2581 0
M  V30 18098 H 1716.53 2.97751 -2.63798 0
M  V30 18099 H 1713.26 3.39704 -5.60608 0
M  V30 18100 H 1712.78 4.3185 -4.16252 0
M  V30 18101 H 1714.46 4.39022 -4.75256 0
M  V30 18102 N 1714.6 1.19237 1.03055 0
M  V30 18103 C 1715.84 0.993971 1.76427 0
M  V30 18104 C 1716.17 -0.475422 1.886 0
M  V30 18105 O 1715.43 -1.36925 1.39821 0
M  V30 18106 C 1715.73 1.60607 3.19281 0
M  V30 18107 C 1715.39 3.10329 3.27119 0
M  V30 18108 C 1714.05 3.51192 3.28965 0
M  V30 18109 C 1716.41 4.0634 3.264 0
M  V30 18110 C 1713.73 4.8662 3.27747 0
M  V30 18111 C 1716.09 5.41696 3.26723 0
M  V30 18112 C 1714.75 5.81992 3.26866 0
M  V30 18113 H 1714.02 0.36372 0.645592 0
M  V30 18114 H 1716.67 1.48455 1.20969 0
M  V30 18115 H 1714.97 1.03775 3.77807 0
M  V30 18116 H 1716.67 1.42786 3.74717 0
M  V30 18117 H 1713.26 2.77769 3.26409 0
M  V30 18118 H 1717.44 3.75814 3.24156 0
M  V30 18119 H 1712.7 5.17123 3.26181 0
M  V30 18120 H 1716.87 6.1585 3.25118 0
M  V30 18121 H 1714.5 6.86905 3.25676 0
M  V30 18122 N 1716.07 -1.22136 0.99602 0
M  V30 18123 C 1717.3 -1.94978 0.692172 0
M  V30 18124 C 1717.72 -1.73536 -0.743696 0
M  V30 18125 O 1717.07 -1.03637 -1.50219 0
M  V30 18126 C 1717.13 -3.47609 0.992498 0
M  V30 18127 O 1716.85 -3.68334 2.37195 0
M  V30 18128 C 1718.35 -4.37629 0.70679 0
M  V30 18129 H 1715.57 -0.620327 0.255802 0
M  V30 18130 H 1718.11 -1.55202 1.33164 0
M  V30 18131 H 1716.27 -3.85342 0.398785 0
M  V30 18132 H 1716.68 -4.62506 2.47362 0
M  V30 18133 H 1718.15 -5.43461 0.967173 0
M  V30 18134 H 1718.63 -4.37729 -0.359208 0
M  V30 18135 H 1719.24 -4.05528 1.2817 0
M  V30 18136 N 1717.55 -0.769612 -1.37531 0
M  V30 18137 C 1718.48 -0.168389 -2.32892 0
M  V30 18138 C 1719.46 0.685549 -1.55673 0
M  V30 18139 O 1720.65 0.62345 -1.8392 0
M  V30 18140 C 1717.78 0.713183 -3.39898 0
M  V30 18141 C 1716.73 -0.0392808 -4.27982 0
M  V30 18142 C 1716.06 0.961596 -5.25982 0
M  V30 18143 C 1717.36 -1.21704 -5.07923 0
M  V30 18144 H 1719.05 -0.965022 -2.83421 0
M  V30 18145 H 1716.6 -0.465502 -1.36268 0
M  V30 18146 H 1718.55 1.14358 -4.05586 0
M  V30 18147 H 1717.28 1.54231 -2.87889 0
M  V30 18148 H 1715.93 -0.450429 -3.63822 0
M  V30 18149 H 1715.58 1.78522 -4.70254 0
M  V30 18150 H 1715.28 0.462679 -5.85776 0
M  V30 18151 H 1716.81 1.39097 -5.94545 0
M  V30 18152 H 1718.22 -0.863405 -5.66761 0
M  V30 18153 H 1716.62 -1.6479 -5.77031 0
M  V30 18154 H 1717.69 -2.02219 -4.40722 0
M  V30 18155 N 1719.03 1.48775 -0.519977 0
M  V30 18156 C 1719.98 2.31123 0.261738 0
M  V30 18157 C 1720.97 1.40595 0.94496 0
M  V30 18158 O 1722.18 1.57552 0.870484 0
M  V30 18159 H 1718.55 0.744875 0.103272 0
M  V30 18160 H 1720.52 2.94949 -0.452514 0
M  V30 18161 C 1719.27 3.22409 1.30184 0
M  V30 18162 H 1718.6 3.92007 0.785524 0
M  V30 18163 H 1720.04 3.82932 1.82042 0
M  V30 18164 C 1718.5 2.43321 2.33016 0
M  V30 18165 O 1719.03 2.15087 3.39265 0
M  V30 18166 N 1717.23 2.04998 2.05971 0
M  V30 18167 H 1716.78 2.2816 1.19586 0
M  V30 18168 H 1716.74 1.52393 2.74998 0
M  V30 18169 N 1720.51 0.254649 1.55529 0
M  V30 18170 C 1721.76 -0.367205 1.98736 0
M  V30 18171 C 1722.08 -1.57899 1.14424 0
M  V30 18172 O 1721.35 -1.94559 0.228849 0
M  V30 18173 H 1719.93 -0.138663 0.734017 0
M  V30 18174 H 1722.59 0.355236 1.91635 0
M  V30 18175 H 1721.69 -0.671069 3.048 0
M  V30 18176 N 1721.99 -1.57589 -0.0183649 0
M  V30 18177 C 1722.9 -2.10665 -1.03235 0
M  V30 18178 C 1723.91 -1.04767 -1.38924 0
M  V30 18179 O 1725.09 -1.36565 -1.48027 0
M  V30 18180 C 1722.15 -2.58432 -2.31114 0
M  V30 18181 C 1721.21 -3.78856 -2.01908 0
M  V30 18182 C 1720.45 -4.24335 -3.2369 0
M  V30 18183 O 1720.67 -3.69266 -4.3474 0
M  V30 18184 O 1719.6 -5.16671 -3.08763 0
M  V30 18185 H 1723.43 -2.97485 -0.611254 0
M  V30 18186 H 1721.02 -1.47524 -0.236035 0
M  V30 18187 H 1722.9 -2.89438 -3.06274 0
M  V30 18188 H 1721.57 -1.74718 -2.72498 0
M  V30 18189 H 1720.48 -3.52852 -1.24282 0
M  V30 18190 H 1721.81 -4.63587 -1.65373 0
M  V30 18191 N 1723.46 0.290824 -1.54893 0
M  V30 18192 C 1724.71 1.02627 -1.74916 0
M  V30 18193 C 1725.04 1.86572 -0.538921 0
M  V30 18194 O 1724.32 1.88888 0.463844 0
M  V30 18195 C 1724.6 1.92376 -3.04407 0
M  V30 18196 C 1724.45 1.11542 -4.3575 0
M  V30 18197 C 1725.77 2.91383 -3.29824 0
M  V30 18198 H 1722.89 0.371685 -0.636411 0
M  V30 18199 H 1725.53 0.300072 -1.87615 0
M  V30 18200 H 1723.68 2.54295 -2.93711 0
M  V30 18201 H 1725.36 0.518312 -4.58379 0
M  V30 18202 H 1723.6 0.418386 -4.31778 0
M  V30 18203 H 1724.27 1.77616 -5.22644 0
M  V30 18204 H 1726.75 2.39595 -3.40196 0
M  V30 18205 H 1725.62 3.51338 -4.21726 0
M  V30 18206 H 1725.88 3.65579 -2.48606 0
M  V30 18207 N 1724.94 1.47523 0.554506 0
M  V30 18208 C 1725.87 1.63093 1.67102 0
M  V30 18209 C 1726.85 0.480298 1.63178 0
M  V30 18210 O 1728.04 0.709956 1.80757 0
M  V30 18211 C 1725.17 1.64751 3.05736 0
M  V30 18212 C 1724.12 2.79068 3.24507 0
M  V30 18213 C 1723.45 2.65801 4.63955 0
M  V30 18214 C 1724.75 4.20631 3.09623 0
M  V30 18215 H 1726.44 2.56561 1.54328 0
M  V30 18216 H 1723.99 1.2347 0.741023 0
M  V30 18217 H 1725.94 1.74234 3.83693 0
M  V30 18218 H 1724.67 0.678453 3.19475 0
M  V30 18219 H 1723.32 2.691 2.48959 0
M  V30 18220 H 1722.97 1.66917 4.74497 0
M  V30 18221 H 1722.67 3.42494 4.77464 0
M  V30 18222 H 1724.2 2.77216 5.44044 0
M  V30 18223 H 1725.61 4.31562 3.77396 0
M  V30 18224 H 1724.01 4.98133 3.3464 0
M  V30 18225 H 1725.08 4.38809 2.06336 0
M  V30 18226 N 1726.42 -0.801453 1.357 0
M  V30 18227 C 1727.35 -1.9196 1.23396 0
M  V30 18228 C 1728.33 -1.62151 0.12072 0
M  V30 18229 O 1729.52 -1.8626 0.289725 0
M  V30 18230 C 1726.64 -3.26491 0.901174 0
M  V30 18231 C 1725.69 -3.75243 2.02718 0
M  V30 18232 S 1726.52 -3.92435 3.64356 0
M  V30 18233 C 1727.68 -5.2986 3.33165 0
M  V30 18234 H 1727.91 -2.02103 2.1804 0
M  V30 18235 H 1725.44 -0.959388 1.20976 0
M  V30 18236 H 1727.4 -4.04208 0.715976 0
M  V30 18237 H 1726.06 -3.14088 -0.0272881 0
M  V30 18238 H 1725.26 -4.72694 1.7486 0
M  V30 18239 H 1724.86 -3.0454 2.17098 0
M  V30 18240 H 1727.15 -6.14029 2.86312 0
M  V30 18241 H 1728.09 -5.62715 4.29835 0
M  V30 18242 H 1728.5 -4.9639 2.68807 0
M  V30 18243 N 1727.9 -1.19782 -1.02421 0
M  V30 18244 C 1729.12 -1.02939 -1.80051 0
M  V30 18245 C 1729.55 0.417153 -1.83416 0
M  V30 18246 O 1728.91 1.3001 -1.26361 0
M  V30 18247 C 1728.95 -1.60853 -3.22736 0
M  V30 18248 O 1728.06 -0.840999 -4.03734 0
M  V30 18249 H 1727.4 -0.363537 -0.555641 0
M  V30 18250 H 1729.93 -1.58908 -1.28878 0
M  V30 18251 H 1729.94 -1.64266 -3.73471 0
M  V30 18252 H 1728.61 -2.66135 -3.19602 0
M  V30 18253 H 1727.19 -0.880482 -3.62356 0
M  V30 18254 N 1729.38 1.21606 -1.00248 0
M  V30 18255 C 1730.65 1.86191 -0.599348 0
M  V30 18256 C 1731.03 1.89847 0.923104 0
M  V30 18257 O 1730.38 1.39595 1.80902 0
M  V30 18258 C 1730.59 3.26576 -1.23082 0
M  V30 18259 C 1731.94 4.02989 -1.33736 0
M  V30 18260 O 1732.96 3.35877 -1.18595 0
M  V30 18261 O 1731.82 5.23142 -1.58065 0
M  V30 18262 H 1728.92 0.801204 -0.204943 0
M  V30 18263 H 1731.46 1.29309 -1.09897 0
M  V30 18264 H 1730.24 3.18601 -2.27176 0
M  V30 18265 H 1729.86 3.91074 -0.717394 0
M  V30 18266 N 1730.86 0.776895 1.37121 0
M  V30 18267 C 1732.08 0.353911 2.04358 0
M  V30 18268 C 1732.51 -1.01745 1.58207 0
M  V30 18269 O 1731.86 -1.653 0.744691 0
M  V30 18270 C 1731.91 0.411918 3.5824 0
M  V30 18271 O 1731.02 -0.58576 4.08219 0
M  V30 18272 H 1730.36 0.152335 0.64629 0
M  V30 18273 H 1732.89 1.05452 1.75331 0
M  V30 18274 H 1732.9 0.271043 4.07099 0
M  V30 18275 H 1731.57 1.41236 3.91185 0
M  V30 18276 H 1730.15 -0.40758 3.70666 0
M  V30 18277 N 1732.33 -1.48497 0.527859 0
M  V30 18278 C 1733.58 -2.02099 -0.00699772 0
M  V30 18279 C 1733.9 -1.40742 -1.34969 0
M  V30 18280 O 1733.17 -0.572059 -1.87361 0
M  V30 18281 H 1731.75 -0.746979 -0.00557445 0
M  V30 18282 H 1734.41 -1.82231 0.691209 0
M  V30 18283 H 1733.51 -3.11881 -0.116893 0
M  V30 18284 N 1733.81 -0.262893 -1.55392 0
M  V30 18285 C 1735.04 0.363972 -2.04181 0
M  V30 18286 C 1735.46 1.49585 -1.14044 0
M  V30 18287 O 1734.82 1.80785 -0.136553 0
M  V30 18288 C 1734.87 0.834041 -3.50822 0
M  V30 18289 O 1733.97 1.94234 -3.63795 0
M  V30 18290 H 1733.31 0.0771193 -0.659506 0
M  V30 18291 H 1735.84 -0.393623 -2.00778 0
M  V30 18292 H 1735.85 1.13304 -3.91952 0
M  V30 18293 H 1734.53 0.00584833 -4.159 0
M  V30 18294 H 1733.1 1.64681 -3.34566 0
M  V30 18295 N 1735.29 1.57597 0.0100073 0
M  V30 18296 C 1736.2 2.11209 1.02117 0
M  V30 18297 C 1737.22 1.05503 1.38366 0
M  V30 18298 O 1738.39 1.37348 1.47301 0
M  V30 18299 C 1735.46 2.59654 2.2974 0
M  V30 18300 C 1734.52 3.79921 1.99896 0
M  V30 18301 C 1733.75 4.26046 3.21435 0
M  V30 18302 O 1733.97 3.71566 4.32775 0
M  V30 18303 O 1732.91 5.18301 3.06018 0
M  V30 18304 H 1736.73 2.97805 0.595469 0
M  V30 18305 H 1734.32 1.47647 0.228208 0
M  V30 18306 H 1736.2 2.91058 3.04735 0
M  V30 18307 H 1734.88 1.76161 2.71568 0
M  V30 18308 H 1733.78 3.53506 1.22409 0
M  V30 18309 H 1735.12 4.64457 1.62912 0
M  V30 18310 N 1736.77 -0.282606 1.55045 0
M  V30 18311 C 1738 -1.03395 1.79212 0
M  V30 18312 C 1738.41 -1.80283 0.560652 0
M  V30 18313 O 1737.77 -1.76343 -0.470049 0
M  V30 18314 C 1737.82 -2.0001 3.01128 0
M  V30 18315 O 1737.54 -1.26238 4.19518 0
M  V30 18316 C 1739.04 -2.87035 3.37825 0
M  V30 18317 H 1736.26 -0.305855 0.597238 0
M  V30 18318 H 1738.8 -0.3163 2.02039 0
M  V30 18319 H 1736.96 -2.67251 2.80456 0
M  V30 18320 H 1737.37 -1.91277 4.88378 0
M  V30 18321 H 1738.85 -3.50642 4.26327 0
M  V30 18322 H 1739.32 -3.56303 2.56798 0
M  V30 18323 H 1739.93 -2.25298 3.60723 0
M  V30 18324 N 1738.25 -1.47815 -0.546675 0
M  V30 18325 C 1739.21 -1.6063 -1.63495 0
M  V30 18326 C 1740.21 -0.480661 -1.53448 0
M  V30 18327 O 1741.4 -0.746017 -1.57417 0
M  V30 18328 C 1738.53 -1.56076 -3.03073 0
M  V30 18329 H 1739.72 -2.57652 -1.53478 0
M  V30 18330 H 1737.28 -1.36162 -0.767433 0
M  V30 18331 H 1738.01 -0.604694 -3.18613 0
M  V30 18332 H 1737.8 -2.3778 -3.11774 0
M  V30 18333 H 1739.29 -1.68204 -3.82227 0
M  V30 18334 N 1739.72 0.794246 -1.36123 0
M  V30 18335 C 1740.97 1.55191 -1.30084 0
M  V30 18336 C 1741.3 1.94122 0.121259 0
M  V30 18337 O 1740.55 1.62573 1.08942 0
M  V30 18338 C 1740.85 2.84387 -2.16469 0
M  V30 18339 C 1740.52 2.64617 -3.65087 0
M  V30 18340 C 1739.18 2.58934 -4.05594 0
M  V30 18341 C 1741.53 2.46293 -4.59336 0
M  V30 18342 C 1738.86 2.32885 -5.38499 0
M  V30 18343 C 1741.21 2.21771 -5.92453 0
M  V30 18344 C 1739.88 2.14518 -6.32091 0
M  V30 18345 H 1739.15 0.567885 -0.476013 0
M  V30 18346 H 1741.79 0.916723 -1.68132 0
M  V30 18347 H 1740.1 3.52348 -1.71342 0
M  V30 18348 H 1741.8 3.42152 -2.09124 0
M  V30 18349 H 1738.39 2.69894 -3.32949 0
M  V30 18350 H 1742.57 2.49688 -4.28917 0
M  V30 18351 H 1737.83 2.25748 -5.68197 0
M  V30 18352 H 1742 2.06586 -6.65053 0
M  V30 18353 H 1739.63 1.94096 -7.35004 0
M  V30 18354 N 1741.2 1.20323 1.01785 0
M  V30 18355 C 1742.62 0.957818 1.27664 0
M  V30 18356 C 1742.82 -0.363377 1.98196 0
M  V30 18357 O 1741.87 -1.09221 2.27656 0
M  V30 18358 C 1743.19 2.13957 2.11289 0
M  V30 18359 C 1744.73 2.18041 2.2456 0
M  V30 18360 C 1745.21 3.35698 3.11562 0
M  V30 18361 N 1746.7 3.35704 3.1915 0
M  V30 18362 C 1747.44 4.2339 3.86689 0
M  V30 18363 N 1746.93 5.21251 4.56366 0
M  V30 18364 N 1748.72 4.11235 3.832 0
M  V30 18365 H 1740.88 2.05309 0.544242 0
M  V30 18366 H 1743.14 0.898335 0.302817 0
M  V30 18367 H 1742.84 3.09631 1.66798 0
M  V30 18368 H 1742.72 2.11946 3.12024 0
M  V30 18369 H 1745.11 1.22931 2.68276 0
M  V30 18370 H 1745.19 2.24101 1.23338 0
M  V30 18371 H 1744.83 4.31095 2.68551 0
M  V30 18372 H 1744.76 3.26876 4.12868 0
M  V30 18373 H 1747.25 2.64874 2.69537 0
M  V30 18374 H 1747.56 5.84485 5.05566 0
M  V30 18375 H 1745.91 5.25189 4.55195 0
M  V30 18376 H 1749.1 3.34052 3.27913 0
M  V30 18377 H 1749.27 4.79782 4.35561 0
M  V30 18378 N 1742.68 -1.21073 1.00892 0
M  V30 18379 C 1743.59 -2.27265 0.582065 0
M  V30 18380 C 1744.61 -1.69872 -0.376785 0
M  V30 18381 O 1745.78 -1.99969 -0.239644 0
M  V30 18382 C 1742.85 -3.46606 -0.0806764 0
M  V30 18383 C 1741.91 -4.19257 0.923147 0
M  V30 18384 C 1741.14 -5.32901 0.291938 0
M  V30 18385 O 1741.36 -5.6309 -0.910282 0
M  V30 18386 O 1740.3 -5.93453 1.00483 0
M  V30 18387 H 1744.12 -2.65977 1.46594 0
M  V30 18388 H 1741.71 -1.27544 0.777999 0
M  V30 18389 H 1743.59 -4.18978 -0.451177 0
M  V30 18390 H 1742.27 -3.09785 -0.93887 0
M  V30 18391 H 1741.17 -3.4909 1.34488 0
M  V30 18392 H 1742.51 -4.59999 1.75106 0
M  V30 18393 N 1744.16 -0.784156 -1.36707 0
M  V30 18394 C 1745.41 -0.350748 -1.98627 0
M  V30 18395 C 1745.72 1.08208 -1.62943 0
M  V30 18396 O 1746.93 1.6175 -2.18058 0
M  V30 18397 C 1745.38 -0.576173 -3.55258 0
M  V30 18398 C 1744.99 -2.02008 -3.99871 0
M  V30 18399 C 1746.73 -0.207008 -4.23995 0
M  V30 18400 C 1744.64 -2.19244 -5.4926 0
M  V30 18401 H 1743.57 -0.127403 -0.743158 0
M  V30 18402 H 1746.22 -0.965044 -1.56074 0
M  V30 18403 H 1744.6 0.10776 -3.95853 0
M  V30 18404 H 1745.78 -2.73998 -3.70489 0
M  V30 18405 H 1744.09 -2.34699 -3.43955 0
M  V30 18406 H 1746.69 -0.314139 -5.33776 0
M  V30 18407 H 1747.03 0.844253 -4.07649 0
M  V30 18408 H 1747.57 -0.843971 -3.88744 0
M  V30 18409 H 1744.31 -3.22734 -5.70546 0
M  V30 18410 H 1743.83 -1.51752 -5.80286 0
M  V30 18411 H 1745.5 -1.99703 -6.15408 0
M  V30 18412 N 1745.64 1.48215 -0.535727 0
M  V30 18413 C 1746.55 2.33494 0.227577 0
M  V30 18414 C 1747.56 1.4685 0.933327 0
M  V30 18415 O 1748.74 1.7982 0.907008 0
M  V30 18416 C 1745.8 3.23092 1.25747 0
M  V30 18417 C 1744.86 4.25613 0.561454 0
M  V30 18418 C 1744.1 5.1093 1.54228 0
M  V30 18419 O 1744.32 4.98325 2.77539 0
M  V30 18420 O 1743.25 5.92158 1.07852 0
M  V30 18421 H 1747.08 3.0002 -0.471375 0
M  V30 18422 H 1744.67 1.46427 -0.296579 0
M  V30 18423 H 1746.55 3.78498 1.8525 0
M  V30 18424 H 1745.22 2.5922 1.93872 0
M  V30 18425 H 1744.13 3.74026 -0.0742194 0
M  V30 18426 H 1745.46 4.92138 -0.0779649 0
M  V30 18427 N 1747.11 0.27113 1.5525 0
M  V30 18428 C 1748.36 -0.347408 1.98686 0
M  V30 18429 C 1748.68 -1.57275 1.16292 0
M  V30 18430 O 1749.88 -2.26399 1.49853 0
M  V30 18431 C 1748.34 -0.669461 3.53619 0
M  V30 18432 C 1747.95 0.535853 4.44784 0
M  V30 18433 C 1749.69 -1.25084 4.05653 0
M  V30 18434 C 1747.6 0.188607 5.91099 0
M  V30 18435 H 1746.53 -0.133581 0.742073 0
M  V30 18436 H 1749.18 0.375157 1.79624 0
M  V30 18437 H 1747.56 -1.45082 3.68466 0
M  V30 18438 H 1748.73 1.3128 4.41704 0
M  V30 18439 H 1747.05 1.03381 4.03363 0
M  V30 18440 H 1749.65 -1.52439 5.1251 0
M  V30 18441 H 1749.99 -2.18341 3.54448 0
M  V30 18442 H 1750.52 -0.531864 3.94228 0
M  V30 18443 H 1747.26 1.08894 6.46392 0
M  V30 18444 H 1746.78 -0.551653 5.97258 0
M  V30 18445 H 1748.46 -0.220603 6.46624 0
M  V30 18446 N 1748.59 -1.576 -0.00164943 0
M  V30 18447 C 1749.84 -1.9012 -0.685486 0
M  V30 18448 C 1750.16 -0.872245 -1.74404 0
M  V30 18449 O 1749.43 0.090572 -1.95691 0
M  V30 18450 H 1748.01 -0.701699 -0.256177 0
M  V30 18451 H 1750.67 -1.94861 0.0388866 0
M  V30 18452 H 1749.77 -2.89831 -1.15778 0
M  V30 18453 N 1750.07 0.274379 -1.55193 0
M  V30 18454 C 1751.35 1.02736 -1.66447 0
M  V30 18455 C 1751.73 2.04337 -0.530051 0
M  V30 18456 O 1751.08 2.23613 0.470058 0
M  V30 18457 C 1751.29 1.6854 -3.05606 0
M  V30 18458 C 1752.63 2.19754 -3.63309 0
M  V30 18459 O 1753.66 1.78529 -3.0823 0
M  V30 18460 O 1752.52 2.95364 -4.59807 0
M  V30 18461 H 1749.61 0.476462 -0.675953 0
M  V30 18462 H 1752.16 0.270347 -1.67533 0
M  V30 18463 H 1750.93 0.949086 -3.79616 0
M  V30 18464 H 1750.55 2.50931 -3.08414 0
M  V30 18465 N 1751.55 1.48103 0.538828 0
M  V30 18466 C 1752.8 1.55362 1.29256 0
M  V30 18467 C 1753.12 0.225427 1.93693 0
M  V30 18468 O 1752.39 -0.75228 1.8088 0
M  V30 18469 H 1750.97 0.57233 0.480049 0
M  V30 18470 H 1753.63 1.84514 0.627749 0
M  V30 18471 H 1752.73 2.32998 2.07649 0
M  V30 18472 N 1753.03 -0.787016 1.36542 0
M  V30 18473 C 1754.27 -1.54499 1.30906 0
M  V30 18474 C 1754.6 -1.94183 -0.110963 0
M  V30 18475 O 1753.86 -1.63149 -1.08079 0
M  V30 18476 C 1754.16 -2.83235 2.17974 0
M  V30 18477 C 1753.82 -2.62677 3.66485 0
M  V30 18478 C 1752.48 -2.56779 4.06962 0
M  V30 18479 C 1754.84 -2.43853 4.60636 0
M  V30 18480 C 1752.16 -2.30026 5.39727 0
M  V30 18481 C 1754.52 -2.18626 5.93621 0
M  V30 18482 C 1753.18 -2.11162 6.33219 0
M  V30 18483 H 1752.45 -0.565352 0.479017 0
M  V30 18484 H 1755.1 -0.907794 1.68616 0
M  V30 18485 H 1753.4 -3.51435 1.73208 0
M  V30 18486 H 1755.1 -3.41038 2.10936 0
M  V30 18487 H 1751.69 -2.68125 3.34376 0
M  V30 18488 H 1755.87 -2.4741 4.30235 0
M  V30 18489 H 1751.13 -2.22731 5.69386 0
M  V30 18490 H 1755.3 -2.03056 6.66139 0
M  V30 18491 H 1752.93 -1.90195 7.36023 0
M  V30 18492 N 1754.5 -1.20861 -1.01145 0
M  V30 18493 C 1755.43 -0.986058 -2.11658 0
M  V30 18494 C 1756.42 0.0867558 -1.69879 0
M  V30 18495 O 1757.6 -0.0717892 -1.94067 0
M  V30 18496 C 1754.73 -0.542938 -3.4303 0
M  V30 18497 C 1753.68 -1.55958 -3.98574 0
M  V30 18498 C 1753.01 -0.972917 -5.25774 0
M  V30 18499 C 1754.31 -2.94471 -4.31375 0
M  V30 18500 H 1756 -1.91035 -2.30534 0
M  V30 18501 H 1753.55 -0.919914 -1.10786 0
M  V30 18502 H 1755.5 -0.374446 -4.19733 0
M  V30 18503 H 1754.23 0.416988 -3.23927 0
M  V30 18504 H 1752.89 -1.71552 -3.23984 0
M  V30 18505 H 1752.53 -0.00490446 -5.03 0
M  V30 18506 H 1752.23 -1.65194 -5.63901 0
M  V30 18507 H 1753.76 -0.815607 -6.05128 0
M  V30 18508 H 1755.17 -2.82358 -4.98946 0
M  V30 18509 H 1753.57 -3.59327 -4.80629 0
M  V30 18510 H 1754.64 -3.45804 -3.39923 0
M  V30 18511 N 1755.98 1.20536 -1.01532 0
M  V30 18512 C 1757.39 1.71594 -0.735687 0
M  V30 18513 C 1757.74 1.81469 0.745873 0
M  V30 18514 O 1756.87 1.47638 1.58215 0
M  V30 18515 C 1757.46 3.11654 -1.3288 0
M  V30 18516 C 1756.02 3.60027 -1.09806 0
M  V30 18517 C 1755.17 2.37266 -1.43528 0
M  V30 18518 H 1758.12 1.05568 -1.18495 0
M  V30 18519 H 1758.14 3.7365 -0.718725 0
M  V30 18520 H 1757.65 3.04434 -2.4071 0
M  V30 18521 H 1755.76 3.72581 -0.0373763 0
M  V30 18522 H 1755.87 4.44918 -1.77722 0
M  V30 18523 H 1754.23 2.39947 -0.854268 0
M  V30 18524 H 1755.02 2.32688 -2.5241 0
M  V30 18525 N 1757.46 0.791395 1.36289 0
M  V30 18526 C 1758.71 0.365242 1.99484 0
M  V30 18527 C 1759.04 -1.06087 1.62663 0
M  V30 18528 O 1758.31 -1.73332 0.882396 0
M  V30 18529 C 1758.6 0.531317 3.56159 0
M  V30 18530 C 1758.45 2.00126 4.02827 0
M  V30 18531 C 1759.77 -0.0524248 4.40069 0
M  V30 18532 H 1756.89 0.134183 0.724682 0
M  V30 18533 H 1759.53 0.998102 1.61672 0
M  V30 18534 H 1757.68 -0.0074293 3.88499 0
M  V30 18535 H 1759.35 2.60122 3.80965 0
M  V30 18536 H 1757.6 2.50316 3.54294 0
M  V30 18537 H 1758.27 2.06842 5.11782 0
M  V30 18538 H 1760.74 0.407489 4.141 0
M  V30 18539 H 1759.62 0.0937898 5.4882 0
M  V30 18540 H 1759.88 -1.14472 4.27023 0
M  V30 18541 N 1758.94 -1.47929 0.54358 0
M  V30 18542 C 1760.18 -2.04393 0.0166462 0
M  V30 18543 C 1760.54 -1.41025 -1.30291 0
M  V30 18544 O 1761.74 -1.88456 -1.91671 0
M  V30 18545 C 1760.02 -3.5729 -0.0888261 0
M  V30 18546 S 1761.57 -4.35162 -0.563857 0
M  V30 18547 H 1758.39 -0.710757 0.0185863 0
M  V30 18548 H 1760.99 -1.81471 0.727226 0
M  V30 18549 H 1759.7 -4.00938 0.876155 0
M  V30 18550 H 1759.23 -3.84687 -0.823374 0
M  V30 18551 H 1761.24 -4.6138 -1.82601 0
M  V30 18552 N 1760.42 -0.27936 -1.55104 0
M  V30 18553 C 1761.64 0.342295 -2.04556 0
M  V30 18554 C 1762.07 1.48367 -1.15624 0
M  V30 18555 O 1761.43 1.8063 -0.15572 0
M  V30 18556 C 1761.47 0.796785 -3.51687 0
M  V30 18557 O 1760.58 1.90364 -3.65835 0
M  V30 18558 H 1759.92 0.07012 -0.660287 0
M  V30 18559 H 1762.45 -0.414896 -2.00349 0
M  V30 18560 H 1762.46 1.09141 -3.93131 0
M  V30 18561 H 1761.13 -0.0382637 -4.15882 0
M  V30 18562 H 1759.71 1.61123 -3.36294 0
M  V30 18563 N 1761.9 1.57599 -0.0067085 0
M  V30 18564 C 1762.83 2.11878 0.981331 0
M  V30 18565 C 1763.81 1.02949 1.35408 0
M  V30 18566 O 1764.99 1.30667 1.43665 0
M  V30 18567 C 1762.12 2.62757 2.27104 0
M  V30 18568 C 1761.08 3.76272 2.0397 0
M  V30 18569 C 1760.4 4.13491 3.39012 0
M  V30 18570 C 1761.7 5.03274 1.39688 0
M  V30 18571 H 1763.4 2.94683 0.529366 0
M  V30 18572 H 1760.94 1.41757 0.253187 0
M  V30 18573 H 1762.89 2.99359 2.96585 0
M  V30 18574 H 1761.62 1.77082 2.74426 0
M  V30 18575 H 1760.28 3.40074 1.36913 0
M  V30 18576 H 1759.93 3.24831 3.8405 0
M  V30 18577 H 1759.63 4.89972 3.24347 0
M  V30 18578 H 1761.15 4.52657 4.09797 0
M  V30 18579 H 1762.56 5.37604 1.99136 0
M  V30 18580 H 1760.96 5.84604 1.3549 0
M  V30 18581 H 1762.03 4.8351 0.366928 0
M  V30 18582 N 1763.37 -0.266145 1.55336 0
M  V30 18583 C 1764.62 -0.994862 1.75917 0
M  V30 18584 C 1764.94 -1.8657 0.567147 0
M  V30 18585 O 1764.21 -1.91394 -0.417738 0
M  V30 18586 H 1762.79 -0.370318 0.648748 0
M  V30 18587 H 1765.45 -0.288724 1.9275 0
M  V30 18588 H 1764.55 -1.62781 2.66287 0
M  V30 18589 N 1764.85 -1.48386 -0.530967 0
M  V30 18590 C 1766.26 -1.49904 -1.11291 0
M  V30 18591 C 1766.61 -0.268276 -1.94357 0
M  V30 18592 O 1765.74 0.624676 -2.07188 0
M  V30 18593 C 1766.33 -2.71622 -2.02501 0
M  V30 18594 C 1764.89 -2.76015 -2.55916 0
M  V30 18595 C 1764.04 -2.43403 -1.32855 0
M  V30 18596 H 1766.99 -1.55517 -0.316269 0
M  V30 18597 H 1767.01 -2.50084 -2.86772 0
M  V30 18598 H 1766.52 -3.61182 -1.42017 0
M  V30 18599 H 1764.62 -1.9066 -3.20124 0
M  V30 18600 H 1764.74 -3.77416 -2.95116 0
M  V30 18601 H 1763.1 -1.94537 -1.644 0
M  V30 18602 H 1763.88 -3.35202 -0.741242 0
M  V30 18603 N 1766.33 0.779763 -1.36958 0
M  V30 18604 C 1767.58 1.53499 -1.31463 0
M  V30 18605 C 1767.9 1.94728 0.102869 0
M  V30 18606 O 1767.17 1.65688 1.0452 0
M  V30 18607 H 1765.75 0.5693 -0.483638 0
M  V30 18608 H 1768.41 0.928536 -1.7136 0
M  V30 18609 H 1767.51 2.4381 -1.94841 0
M  V30 18610 N 1767.81 1.21396 1.00503 0
M  V30 18611 C 1768.74 0.930982 2.09441 0
M  V30 18612 C 1769.75 -0.0857912 1.62574 0
M  V30 18613 O 1770.94 0.146701 1.77896 0
M  V30 18614 C 1768.04 0.376344 3.36804 0
M  V30 18615 C 1767.21 1.44744 4.12756 0
M  V30 18616 C 1766.27 0.902051 5.18411 0
M  V30 18617 O 1765.3 1.58548 5.46673 0
M  V30 18618 N 1766.5 -0.282718 5.79811 0
M  V30 18619 H 1769.27 1.86879 2.343 0
M  V30 18620 H 1766.83 1.1192 1.16985 0
M  V30 18621 H 1768.82 -0.00292068 4.047 0
M  V30 18622 H 1767.39 -0.466283 3.09103 0
M  V30 18623 H 1766.61 2.00056 3.39664 0
M  V30 18624 H 1767.9 2.16846 4.60277 0
M  V30 18625 H 1767.3 -0.855 5.59201 0
M  V30 18626 H 1765.85 -0.603494 6.49 0
M  V30 18627 N 1769.29 -1.19996 1.0217 0
M  V30 18628 C 1770.53 -1.89776 0.715047 0
M  V30 18629 C 1770.86 -1.78971 -0.753862 0
M  V30 18630 O 1770.14 -1.17729 -1.54823 0
M  V30 18631 C 1770.42 -3.4098 1.15779 0
M  V30 18632 C 1770.28 -3.60693 2.68739 0
M  V30 18633 C 1771.59 -4.33953 0.733008 0
M  V30 18634 H 1768.71 -0.689148 0.261236 0
M  V30 18635 H 1771.36 -1.41287 1.27035 0
M  V30 18636 H 1769.51 -3.82407 0.68534 0
M  V30 18637 H 1771.18 -3.28484 3.23876 0
M  V30 18638 H 1769.42 -3.0399 3.09472 0
M  V30 18639 H 1770.09 -4.66704 2.94773 0
M  V30 18640 H 1772.57 -4.002 1.13925 0
M  V30 18641 H 1771.44 -5.38355 1.07077 0
M  V30 18642 H 1771.7 -4.4059 -0.365047 0
M  V30 18643 N 1770.76 -0.798611 -1.35867 0
M  V30 18644 C 1772.01 -0.374519 -1.986 0
M  V30 18645 C 1772.33 1.05984 -1.63684 0
M  V30 18646 O 1771.6 1.73199 -0.915359 0
M  V30 18647 H 1770.18 -0.135492 -0.734609 0
M  V30 18648 H 1772.84 -1.02269 -1.65913 0
M  V30 18649 H 1771.94 -0.473773 -3.08483 0
M  V30 18650 N 1772.24 1.47639 -0.551417 0
M  V30 18651 C 1773.19 2.26938 0.219798 0
M  V30 18652 C 1774.18 1.34006 0.890571 0
M  V30 18653 O 1775.37 1.584 0.789834 0
M  V30 18654 C 1772.5 3.19625 1.25279 0
M  V30 18655 C 1771.58 4.20036 0.585724 0
M  V30 18656 N 1771.97 5.0465 -0.34089 0
M  V30 18657 C 1770.27 4.38012 0.840352 0
M  V30 18658 C 1770.97 5.77129 -0.727814 0
M  V30 18659 N 1769.95 5.43535 -0.0839681 0
M  V30 18660 H 1773.75 2.8974 -0.492729 0
M  V30 18661 H 1771.26 1.58107 -0.370943 0
M  V30 18662 H 1773.26 3.75114 1.8192 0
M  V30 18663 H 1771.92 2.5838 1.96647 0
M  V30 18664 H 1772.93 5.12944 -0.71473 0
M  V30 18665 H 1769.61 3.87941 1.54298 0
M  V30 18666 H 1771 6.55196 -1.48888 0
M  V30 18667 N 1773.72 0.287581 1.54954 0
M  V30 18668 C 1774.65 -0.587855 2.25979 0
M  V30 18669 C 1775.63 -1.14884 1.25442 0
M  V30 18670 O 1776.82 -1.18067 1.54188 0
M  V30 18671 C 1773.95 -1.76618 2.99037 0
M  V30 18672 C 1772.9 -1.33617 4.06609 0
M  V30 18673 C 1772.23 -2.59859 4.67309 0
M  V30 18674 C 1773.53 -0.477219 5.20115 0
M  V30 18675 H 1775.22 0.00450183 2.994 0
M  V30 18676 H 1772.77 0.00360521 1.44 0
M  V30 18677 H 1774.72 -2.38461 3.4744 0
M  V30 18678 H 1773.44 -2.38457 2.23172 0
M  V30 18679 H 1772.1 -0.74088 3.59036 0
M  V30 18680 H 1771.75 -3.19983 3.88098 0
M  V30 18681 H 1771.45 -2.31793 5.3995 0
M  V30 18682 H 1772.97 -3.22528 5.18467 0
M  V30 18683 H 1774.39 -1.00096 5.64494 0
M  V30 18684 H 1772.79 -0.290913 5.99394 0
M  V30 18685 H 1773.86 0.500993 4.82305 0
M  V30 18686 N 1775.2 -1.57593 0.0150662 0
M  V30 18687 C 1776.15 -2.10501 -0.989557 0
M  V30 18688 C 1777.14 -1.02836 -1.34615 0
M  V30 18689 O 1778.35 -1.21286 -1.33002 0
M  V30 18690 H 1774.72 -0.672343 -0.336838 0
M  V30 18691 H 1776.69 -2.93871 -0.517893 0
M  V30 18692 C 1775.44 -2.63583 -2.26759 0
M  V30 18693 H 1774.76 -3.46069 -2.00191 0
M  V30 18694 H 1776.2 -3.04264 -2.95295 0
M  V30 18695 C 1774.66 -1.5568 -2.98773 0
M  V30 18696 O 1775.19 -0.948437 -3.90343 0
M  V30 18697 N 1773.4 -1.28062 -2.60861 0
M  V30 18698 H 1772.95 -1.77719 -1.86477 0
M  V30 18699 H 1772.9 -0.560878 -3.09357 0
M  V30 18700 N 1776.68 0.257904 -1.55475 0
M  V30 18701 C 1777.61 1.32303 -1.92401 0
M  V30 18702 C 1778.59 1.50767 -0.787617 0
M  V30 18703 O 1779.77 1.63559 -1.047 0
M  V30 18704 C 1776.9 2.67984 -2.20912 0
M  V30 18705 C 1775.86 2.64231 -3.36699 0
M  V30 18706 C 1775.18 4.03604 -3.50725 0
M  V30 18707 C 1776.48 2.22177 -4.72689 0
M  V30 18708 H 1778.18 1.01646 -2.81618 0
M  V30 18709 H 1775.72 0.487523 -1.35496 0
M  V30 18710 H 1777.68 3.42622 -2.45332 0
M  V30 18711 H 1776.4 3.00254 -1.2851 0
M  V30 18712 H 1775.06 1.92049 -3.1227 0
M  V30 18713 H 1774.71 4.33122 -2.55763 0
M  V30 18714 H 1774.41 4.01983 -4.28583 0
M  V30 18715 H 1775.93 4.79959 -3.77455 0
M  V30 18716 H 1777.34 2.86543 -4.96554 0
M  V30 18717 H 1775.74 2.3169 -5.5357 0
M  V30 18718 H 1776.81 1.17326 -4.70492 0
M  V30 18719 N 1778.15 1.48666 0.52309 0
M  V30 18720 C 1779.4 1.56724 1.27601 0
M  V30 18721 C 1779.72 0.245958 1.93443 0
M  V30 18722 O 1778.99 -0.733053 1.81668 0
M  V30 18723 H 1777.57 0.57739 0.473952 0
M  V30 18724 H 1780.24 1.85169 0.608144 0
M  V30 18725 H 1779.33 2.35188 2.05166 0
M  V30 18726 N 1779.63 -0.772489 1.37369 0
M  V30 18727 C 1780.56 -1.89487 1.28948 0
M  V30 18728 C 1781.58 -1.61499 0.205434 0
M  V30 18729 O 1782.77 -1.7243 0.461519 0
M  V30 18730 C 1779.87 -3.24698 0.970798 0
M  V30 18731 C 1779.04 -3.80337 2.16015 0
M  V30 18732 C 1778.1 -4.94022 1.81187 0
M  V30 18733 O 1777.12 -5.09647 2.53473 0
M  V30 18734 N 1778.33 -5.75562 0.755549 0
M  V30 18735 H 1781.09 -1.97228 2.25658 0
M  V30 18736 H 1778.65 -0.951562 1.30984 0
M  V30 18737 H 1780.64 -3.98268 0.71866 0
M  V30 18738 H 1779.21 -3.12464 0.0922825 0
M  V30 18739 H 1778.43 -2.98554 2.57409 0
M  V30 18740 H 1779.72 -4.14242 2.95434 0
M  V30 18741 H 1779.12 -5.65486 0.155691 0
M  V30 18742 H 1777.68 -6.49362 0.563268 0
M  V30 18743 N 1781.11 -1.21927 -0.998575 0
M  V30 18744 C 1782.39 -0.949034 -1.71034 0
M  V30 18745 C 1782.77 0.537429 -2.04144 0
M  V30 18746 O 1782.12 1.50398 -1.72026 0
M  V30 18747 C 1782.33 -1.84076 -2.96508 0
M  V30 18748 C 1783.67 -2.09345 -3.69405 0
M  V30 18749 O 1784.7 -1.81477 -3.06504 0
M  V30 18750 O 1783.56 -2.56513 -4.82559 0
M  V30 18751 H 1780.65 -0.356423 -0.746252 0
M  V30 18752 H 1783.2 -1.32886 -1.05543 0
M  V30 18753 H 1781.97 -2.84647 -2.68499 0
M  V30 18754 H 1781.59 -1.46215 -3.69739 0
M  V30 18755 N 1782.59 1.19452 -1.02805 0
M  V30 18756 C 1783.83 1.89394 -0.725101 0
M  V30 18757 C 1784.17 1.79368 0.744361 0
M  V30 18758 O 1783.44 1.18548 1.54196 0
M  V30 18759 C 1783.73 3.40361 -1.17586 0
M  V30 18760 C 1783.58 3.59263 -2.70648 0
M  V30 18761 C 1784.9 4.33558 -0.756011 0
M  V30 18762 H 1782.02 0.687753 -0.264887 0
M  V30 18763 H 1784.66 1.40611 -1.27783 0
M  V30 18764 H 1782.81 3.82038 -0.70561 0
M  V30 18765 H 1784.48 3.26762 -3.25614 0
M  V30 18766 H 1782.72 3.02344 -3.1108 0
M  V30 18767 H 1783.39 4.65135 -2.97244 0
M  V30 18768 H 1785.87 3.9959 -1.16046 0
M  V30 18769 H 1784.75 5.37779 -1.09931 0
M  V30 18770 H 1785.01 4.40778 0.341677 0
M  V30 18771 N 1784.07 0.805805 1.35442 0
M  V30 18772 C 1785.29 0.397179 2.03561 0
M  V30 18773 C 1785.72 -0.983665 1.6033 0
M  V30 18774 O 1785.07 -1.63683 0.779586 0
M  V30 18775 C 1785.12 0.487813 3.57285 0
M  V30 18776 O 1784.23 -0.499039 4.09369 0
M  V30 18777 H 1783.57 0.166009 0.642913 0
M  V30 18778 H 1786.1 1.09147 1.73055 0
M  V30 18779 H 1786.11 0.357334 4.06432 0
M  V30 18780 H 1784.78 1.49501 3.88101 0
M  V30 18781 H 1783.36 -0.328864 3.71447 0
M  V30 18782 N 1785.54 -1.47344 0.559239 0
M  V30 18783 C 1786.77 -2.07364 0.0388864 0
M  V30 18784 C 1787.19 -1.40886 -1.2463 0
M  V30 18785 O 1786.55 -0.48454 -1.74705 0
M  V30 18786 C 1786.6 -3.60336 -0.137894 0
M  V30 18787 O 1785.7 -3.94555 -1.2 0
M  V30 18788 H 1785.05 -0.661942 0.0522363 0
M  V30 18789 H 1787.58 -1.89333 0.7755 0
M  V30 18790 H 1787.59 -4.06483 -0.351462 0
M  V30 18791 H 1786.26 -4.08118 0.800776 0
M  V30 18792 H 1784.84 -3.6015 -0.966757 0
M  V30 18793 N 1787.02 -0.295795 -1.54799 0
M  V30 18794 C 1787.95 0.575863 -2.26288 0
M  V30 18795 C 1788.93 1.14217 -1.26049 0
M  V30 18796 O 1790.12 1.17248 -1.54812 0
M  V30 18797 C 1787.25 1.7503 -2.9997 0
M  V30 18798 C 1786.2 1.31459 -4.07311 0
M  V30 18799 C 1785.53 2.57377 -4.6868 0
M  V30 18800 C 1786.83 0.449629 -5.20361 0
M  V30 18801 H 1788.52 -0.0203797 -2.99393 0
M  V30 18802 H 1786.07 -0.0112418 -1.43996 0
M  V30 18803 H 1788.02 2.36615 -3.487 0
M  V30 18804 H 1786.75 2.3727 -2.24434 0
M  V30 18805 H 1785.4 0.721829 -3.59423 0
M  V30 18806 H 1785.05 3.1792 -3.89789 0
M  V30 18807 H 1784.75 2.28927 -5.41171 0
M  V30 18808 H 1786.28 3.19774 -5.2017 0
M  V30 18809 H 1787.69 0.971014 -5.65017 0
M  V30 18810 H 1786.09 0.259121 -5.9954 0
M  V30 18811 H 1787.16 -0.526564 -4.82032 0
M  V30 18812 N 1788.5 1.57583 -0.0234236 0
M  V30 18813 C 1789.92 1.56089 0.332916 0
M  V30 18814 C 1790.12 1.02847 1.73276 0
M  V30 18815 O 1789.17 0.672668 2.43375 0
M  V30 18816 C 1790.49 3.0012 0.186725 0
M  V30 18817 C 1792.03 3.11919 0.259918 0
M  V30 18818 C 1792.51 4.57778 0.142583 0
M  V30 18819 N 1794 4.62769 0.199748 0
M  V30 18820 C 1794.74 5.73247 0.132655 0
M  V30 18821 N 1794.23 6.92798 0.0148037 0
M  V30 18822 N 1796.02 5.61791 0.186228 0
M  V30 18823 H 1788.18 1.90523 -0.938877 0
M  V30 18824 H 1790.44 0.876141 -0.362052 0
M  V30 18825 H 1790.14 3.43002 -0.777338 0
M  V30 18826 H 1790.02 3.64798 0.959267 0
M  V30 18827 H 1792.41 2.68952 1.21444 0
M  V30 18828 H 1792.49 2.49972 -0.542901 0
M  V30 18829 H 1792.13 5.01424 -0.808491 0
M  V30 18830 H 1792.06 5.17698 0.964194 0
M  V30 18831 H 1794.55 3.76776 0.291211 0
M  V30 18832 H 1794.86 7.72794 -0.0298548 0
M  V30 18833 H 1793.21 6.94997 -0.0198993 0
M  V30 18834 H 1796.4 4.67282 0.276658 0
M  V30 18835 H 1796.57 6.47869 0.130478 0
M  V30 18836 N 1789.98 -0.249655 1.5561 0
M  V30 18837 C 1791.23 -0.97808 1.77313 0
M  V30 18838 C 1791.55 -1.85423 0.587253 0
M  V30 18839 O 1790.81 -1.90928 -0.429527 0
M  V30 18840 C 1791.11 -1.87138 3.0449 0
M  V30 18841 C 1790.77 -1.15081 4.35967 0
M  V30 18842 C 1789.44 -0.95166 4.71696 0
M  V30 18843 C 1791.79 -0.639877 5.17257 0
M  V30 18844 C 1789.12 -0.229227 5.86252 0
M  V30 18845 C 1791.47 0.0690756 6.32562 0
M  V30 18846 C 1790.13 0.279731 6.66914 0
M  V30 18847 H 1789.4 -0.357905 0.648834 0
M  V30 18848 H 1792.05 -0.248402 1.89882 0
M  V30 18849 H 1790.35 -2.66802 2.86921 0
M  V30 18850 H 1792.05 -2.43662 3.18481 0
M  V30 18851 H 1788.64 -1.31597 4.07897 0
M  V30 18852 H 1792.83 -0.78129 4.90112 0
M  V30 18853 H 1788.08 -0.0555172 6.11375 0
M  V30 18854 H 1792.26 0.472628 6.94794 0
M  V30 18855 H 1789.88 0.841482 7.55528 0
M  V30 18856 N 1791.46 -1.48941 -0.515198 0
M  V30 18857 C 1792.7 -1.5771 -1.27019 0
M  V30 18858 C 1793.03 -0.257484 -1.92788 0
M  V30 18859 O 1792.29 0.753481 -1.80613 0
M  V30 18860 C 1792.59 -2.67508 -2.37011 0
M  V30 18861 C 1792.25 -4.09471 -1.88796 0
M  V30 18862 C 1790.91 -4.48108 -1.75365 0
M  V30 18863 C 1793.27 -4.98378 -1.52543 0
M  V30 18864 C 1790.59 -5.73438 -1.24038 0
M  V30 18865 C 1792.95 -6.24212 -1.02673 0
M  V30 18866 C 1791.61 -6.61691 -0.878703 0
M  V30 18867 H 1790.88 -0.577101 -0.464796 0
M  V30 18868 H 1793.53 -1.82718 -0.573279 0
M  V30 18869 H 1791.83 -2.36417 -3.12433 0
M  V30 18870 H 1793.53 -2.71505 -2.95104 0
M  V30 18871 H 1790.12 -3.78967 -2.00205 0
M  V30 18872 H 1794.3 -4.69194 -1.61773 0
M  V30 18873 H 1789.56 -6.01188 -1.11277 0
M  V30 18874 H 1793.73 -6.9249 -0.73697 0
M  V30 18875 H 1791.36 -7.58691 -0.478792 0
M  V30 18876 N 1792.94 0.765193 -1.37777 0
M  V30 18877 C 1793.9 1.8603 -1.33886 0
M  V30 18878 C 1794.9 1.58974 -0.241614 0
M  V30 18879 O 1796.09 1.66935 -0.497843 0
M  V30 18880 C 1793.22 3.2329 -1.08151 0
M  V30 18881 H 1794.41 1.9089 -2.31303 0
M  V30 18882 H 1791.97 0.965653 -1.22902 0
M  V30 18883 H 1792.7 3.24103 -0.112926 0
M  V30 18884 H 1792.49 3.4432 -1.8758 0
M  V30 18885 H 1793.98 4.03367 -1.08095 0
M  V30 18886 N 1794.41 1.22455 0.992094 0
M  V30 18887 C 1795.66 1.04373 1.72596 0
M  V30 18888 C 1795.98 -0.421349 1.91008 0
M  V30 18889 O 1797.18 -0.72186 2.61728 0
M  V30 18890 C 1795.64 1.81906 3.10545 0
M  V30 18891 C 1795.25 3.32667 3.00061 0
M  V30 18892 C 1796.99 1.72274 3.87972 0
M  V30 18893 C 1794.9 4.02638 4.3317 0
M  V30 18894 H 1793.83 0.386937 0.647144 0
M  V30 18895 H 1796.48 1.46313 1.10746 0
M  V30 18896 H 1794.86 1.32764 3.73081 0
M  V30 18897 H 1796.03 3.89208 2.46685 0
M  V30 18898 H 1794.35 3.42984 2.36117 0
M  V30 18899 H 1796.95 2.21872 4.86494 0
M  V30 18900 H 1797.29 0.68331 4.10654 0
M  V30 18901 H 1797.82 2.18963 3.32115 0
M  V30 18902 H 1794.56 5.06838 4.15687 0
M  V30 18903 H 1794.08 3.50885 4.86456 0
M  V30 18904 H 1795.76 4.08279 5.01914 0
M  V30 18905 N 1795.89 -1.18905 1.03437 0
M  V30 18906 C 1797.13 -1.90424 0.74284 0
M  V30 18907 C 1797.5 -1.78157 -0.715837 0
M  V30 18908 O 1798.7 -2.44323 -1.12069 0
M  V30 18909 C 1796.97 -3.37067 1.18831 0
M  V30 18910 S 1798.53 -4.26745 1.02146 0
M  V30 18911 H 1795.34 -0.657626 0.270275 0
M  V30 18912 H 1797.95 -1.43717 1.32535 0
M  V30 18913 H 1796.65 -3.43522 2.24545 0
M  V30 18914 H 1796.18 -3.88808 0.599328 0
M  V30 18915 H 1798.2 -4.96158 -0.0647961 0
M  V30 18916 N 1797.37 -0.812977 -1.35013 0
M  V30 18917 C 1798.62 -0.395562 -1.98191 0
M  V30 18918 C 1798.94 1.04242 -1.64799 0
M  V30 18919 O 1798.21 1.72219 -0.933678 0
M  V30 18920 H 1796.79 -0.143276 -0.733131 0
M  V30 18921 H 1799.45 -1.04023 -1.64819 0
M  V30 18922 H 1798.55 -0.506466 -3.07963 0
M  V30 18923 N 1798.85 1.47045 -0.567045 0
M  V30 18924 C 1799.78 2.32929 0.163191 0
M  V30 18925 C 1800.76 1.44393 0.899142 0
M  V30 18926 O 1801.94 1.73235 0.87768 0
M  V30 18927 C 1799.07 3.26369 1.18745 0
M  V30 18928 C 1798.03 4.24223 0.567335 0
M  V30 18929 C 1797.35 5.07058 1.69693 0
M  V30 18930 C 1798.65 5.2004 -0.485319 0
M  V30 18931 H 1800.35 2.94233 -0.553837 0
M  V30 18932 H 1797.89 1.41488 -0.267789 0
M  V30 18933 H 1799.85 3.85299 1.70654 0
M  V30 18934 H 1798.57 2.6314 1.93455 0
M  V30 18935 H 1797.23 3.66534 0.0694525 0
M  V30 18936 H 1796.88 4.40226 2.43331 0
M  V30 18937 H 1796.58 5.73316 1.28774 0
M  V30 18938 H 1798.1 5.68848 2.2191 0
M  V30 18939 H 1799.52 5.73277 -0.0519049 0
M  V30 18940 H 1797.91 5.94554 -0.813942 0
M  V30 18941 H 1798.98 4.64921 -1.37754 0
M  V30 18942 N 1800.33 0.304 1.5464 0
M  V30 18943 C 1801.26 -0.604475 2.21085 0
M  V30 18944 C 1802.27 -1.0952 1.20454 0
M  V30 18945 O 1803.46 -1.01214 1.47031 0
M  V30 18946 C 1800.56 -1.8399 2.84607 0
M  V30 18947 C 1799.73 -1.49116 4.11197 0
M  V30 18948 C 1798.79 -2.58205 4.58494 0
M  V30 18949 O 1797.82 -2.23171 5.23625 0
M  V30 18950 N 1799.02 -3.88798 4.31065 0
M  V30 18951 H 1801.78 -0.035633 2.99679 0
M  V30 18952 H 1799.35 0.126332 1.61406 0
M  V30 18953 H 1801.34 -2.56322 3.13179 0
M  V30 18954 H 1799.91 -2.31706 2.09836 0
M  V30 18955 H 1799.13 -0.600347 3.89602 0
M  V30 18956 H 1800.42 -1.23358 4.93619 0
M  V30 18957 H 1799.81 -4.20068 3.78892 0
M  V30 18958 H 1798.37 -4.57419 4.6434 0
M  V30 18959 N 1801.8 -1.57568 0.0317802 0
M  V30 18960 C 1802.71 -2.13842 -0.964811 0
M  V30 18961 C 1803.73 -1.09134 -1.3552 0
M  V30 18962 O 1804.91 -1.41205 -1.43608 0
M  V30 18963 C 1801.97 -2.65654 -2.22775 0
M  V30 18964 C 1801.03 -3.85087 -1.89753 0
M  V30 18965 C 1800.26 -4.34419 -3.10026 0
M  V30 18966 O 1800.49 -3.8291 -4.22772 0
M  V30 18967 O 1799.42 -5.26233 -2.92169 0
M  V30 18968 H 1803.25 -2.99279 -0.516302 0
M  V30 18969 H 1800.83 -1.482 -0.188982 0
M  V30 18970 H 1802.71 -2.99035 -2.96911 0
M  V30 18971 H 1801.39 -1.83299 -2.66802 0
M  V30 18972 H 1800.3 -3.56628 -1.12994 0
M  V30 18973 H 1801.63 -4.68613 -1.50541 0
M  V30 18974 N 1803.28 0.241399 -1.5574 0
M  V30 18975 C 1804.53 0.96675 -1.77478 0
M  V30 18976 C 1804.85 1.85644 -0.596757 0
M  V30 18977 O 1804.12 1.92035 0.387236 0
M  V30 18978 H 1802.7 0.35995 -0.654557 0
M  V30 18979 H 1805.36 0.258023 -1.93185 0
M  V30 18980 H 1804.46 1.58524 -2.68843 0
M  V30 18981 N 1804.76 1.49212 0.507292 0
M  V30 18982 C 1806.01 1.58381 1.26181 0
M  V30 18983 C 1806.34 0.267704 1.92649 0
M  V30 18984 O 1805.59 -0.743892 1.8101 0
M  V30 18985 C 1805.89 2.68761 2.35589 0
M  V30 18986 C 1805.56 4.10467 1.86622 0
M  V30 18987 C 1804.22 4.49031 1.72986 0
M  V30 18988 C 1806.57 4.99179 1.49898 0
M  V30 18989 C 1803.9 5.74088 1.20995 0
M  V30 18990 C 1806.25 6.24748 0.993611 0
M  V30 18991 C 1804.91 6.62148 0.8436 0
M  V30 18992 H 1804.18 0.579558 0.461729 0
M  V30 18993 H 1806.83 1.83019 0.563581 0
M  V30 18994 H 1805.14 2.3807 3.11175 0
M  V30 18995 H 1806.83 2.73066 2.9366 0
M  V30 18996 H 1803.42 3.80023 1.98193 0
M  V30 18997 H 1807.61 4.70046 1.59282 0
M  V30 18998 H 1802.86 6.0177 1.08087 0
M  V30 18999 H 1807.04 6.92871 0.700235 0
M  V30 19000 H 1804.66 7.58934 0.43855 0
M  V30 19001 N 1806.24 -0.757876 1.38181 0
M  V30 19002 C 1807.15 -1.90234 1.37289 0
M  V30 19003 C 1808.16 -1.71883 0.270567 0
M  V30 19004 O 1809.34 -1.94881 0.508279 0
M  V30 19005 C 1806.41 -3.25546 1.19251 0
M  V30 19006 C 1805.47 -3.56452 2.39249 0
M  V30 19007 C 1804.7 -4.85308 2.22063 0
M  V30 19008 O 1804.92 -5.57373 1.2121 0
M  V30 19009 O 1803.86 -5.15594 3.10558 0
M  V30 19010 H 1807.68 -1.9394 2.33711 0
M  V30 19011 H 1805.27 -0.902559 1.19056 0
M  V30 19012 H 1807.15 -4.06454 1.11235 0
M  V30 19013 H 1805.82 -3.22661 0.259109 0
M  V30 19014 H 1804.73 -2.75723 2.52839 0
M  V30 19015 H 1806.06 -3.64094 3.31205 0
M  V30 19016 N 1807.72 -1.22979 -0.985586 0
M  V30 19017 C 1809.13 -1.05448 -1.5407 0
M  V30 19018 C 1809.48 0.379808 -1.92489 0
M  V30 19019 O 1808.6 1.26582 -1.75516 0
M  V30 19020 C 1809.2 -1.90794 -2.7997 0
M  V30 19021 C 1807.76 -1.77538 -3.31899 0
M  V30 19022 C 1806.9 -1.86814 -2.04929 0
M  V30 19023 H 1809.86 -1.36718 -0.80585 0
M  V30 19024 H 1809.88 -1.42967 -3.5262 0
M  V30 19025 H 1809.39 -2.95177 -2.51977 0
M  V30 19026 H 1807.49 -0.759177 -3.64784 0
M  V30 19027 H 1807.6 -2.60627 -4.02008 0
M  V30 19028 H 1805.97 -1.30336 -2.18826 0
M  V30 19029 H 1806.75 -2.92742 -1.79324 0
M  V30 19030 N 1809.19 1.18355 -1.04066 0
M  V30 19031 C 1810.44 1.88335 -0.744046 0
M  V30 19032 C 1810.77 1.80353 0.728219 0
M  V30 19033 O 1810.02 1.19839 1.54717 0
M  V30 19034 C 1810.32 3.38203 -1.15557 0
M  V30 19035 C 1809.99 3.66389 -2.62812 0
M  V30 19036 C 1808.65 3.73791 -3.03041 0
M  V30 19037 C 1811 3.78773 -3.58023 0
M  V30 19038 C 1808.33 3.91056 -4.37369 0
M  V30 19039 C 1810.68 3.97554 -4.92071 0
M  V30 19040 C 1809.35 4.03192 -5.3197 0
M  V30 19041 H 1808.62 0.689168 -0.272266 0
M  V30 19042 H 1811.26 1.40087 -1.30568 0
M  V30 19043 H 1809.57 3.8843 -0.512741 0
M  V30 19044 H 1811.27 3.90691 -0.903428 0
M  V30 19045 H 1807.86 3.61244 -2.30652 0
M  V30 19046 H 1812.04 3.72386 -3.28089 0
M  V30 19047 H 1807.3 3.93665 -4.67801 0
M  V30 19048 H 1811.47 4.06078 -5.65751 0
M  V30 19049 H 1809.1 4.16323 -6.36066 0
M  V30 19050 N 1810.67 0.820125 1.3458 0
M  V30 19051 C 1811.64 0.245462 2.27882 0
M  V30 19052 C 1812.64 -0.575025 1.50167 0
M  V30 19053 O 1813.83 -0.391536 1.69743 0
M  V30 19054 C 1810.96 -0.656199 3.34525 0
M  V30 19055 H 1812.15 1.06853 2.80218 0
M  V30 19056 H 1809.7 0.591777 1.44664 0
M  V30 19057 H 1810.44 -1.50244 2.87398 0
M  V30 19058 H 1810.22 -0.0693951 3.92039 0
M  V30 19059 H 1811.71 -1.05216 4.04128 0
M  V30 19060 N 1812.15 -1.46743 0.574835 0
M  V30 19061 C 1813.4 -2.01625 0.0551724 0
M  V30 19062 C 1813.71 -1.4528 -1.3097 0
M  V30 19063 O 1814.92 -1.91932 -1.92026 0
M  V30 19064 C 1813.37 -3.59868 0.0480708 0
M  V30 19065 C 1812.98 -4.25207 1.41078 0
M  V30 19066 C 1814.73 -4.22436 -0.41806 0
M  V30 19067 C 1812.63 -5.75507 1.36183 0
M  V30 19068 H 1811.56 -0.753812 0.0168558 0
M  V30 19069 H 1814.21 -1.68557 0.725313 0
M  V30 19070 H 1812.6 -3.89976 -0.688076 0
M  V30 19071 H 1813.77 -4.06718 2.16603 0
M  V30 19072 H 1812.09 -3.747 1.81628 0
M  V30 19073 H 1814.68 -5.32601 -0.473353 0
M  V30 19074 H 1815.03 -3.90826 -1.43391 0
M  V30 19075 H 1815.56 -3.96925 0.263775 0
M  V30 19076 H 1812.3 -6.11765 2.35423 0
M  V30 19077 H 1811.82 -5.96282 0.648655 0
M  V30 19078 H 1813.5 -6.38068 1.07137 0
M  V30 19079 N 1813.63 -0.312197 -1.54477 0
M  V30 19080 C 1814.58 0.57453 -2.25393 0
M  V30 19081 C 1815.57 1.12789 -1.26392 0
M  V30 19082 O 1816.78 1.07724 -1.44207 0
M  V30 19083 H 1813.15 0.203904 -0.723828 0
M  V30 19084 H 1815.12 -0.0459918 -2.98365 0
M  V30 19085 C 1813.87 1.72942 -3.01639 0
M  V30 19086 H 1813.19 1.31286 -3.7763 0
M  V30 19087 H 1814.63 2.3257 -3.54524 0
M  V30 19088 C 1813.09 2.64026 -2.09266 0
M  V30 19089 O 1813.62 3.65431 -1.66803 0
M  V30 19090 N 1811.83 2.32007 -1.74989 0
M  V30 19091 H 1811.38 1.49588 -2.09717 0
M  V30 19092 H 1811.33 2.93213 -1.1346 0
M  V30 19093 N 1815.11 1.57549 -0.040136 0
M  V30 19094 C 1816.04 2.06413 0.973089 0
M  V30 19095 C 1817.02 0.962235 1.31072 0
M  V30 19096 O 1818.2 1.23337 1.42549 0
M  V30 19097 C 1815.33 2.49541 2.29013 0
M  V30 19098 C 1814.37 3.70858 2.10634 0
M  V30 19099 S 1815.21 5.17013 1.39493 0
M  V30 19100 C 1816.36 5.63445 2.72544 0
M  V30 19101 H 1816.6 2.92032 0.557186 0
M  V30 19102 H 1814.13 1.53441 0.171846 0
M  V30 19103 H 1816.09 2.75052 3.04723 0
M  V30 19104 H 1814.75 1.64247 2.67734 0
M  V30 19105 H 1813.94 3.98918 3.08027 0
M  V30 19106 H 1813.54 3.45555 1.43065 0
M  V30 19107 H 1815.84 5.68357 3.68749 0
M  V30 19108 H 1816.78 6.62826 2.49134 0
M  V30 19109 H 1817.19 4.91133 2.78296 0
M  V30 19110 N 1816.58 -0.233136 1.55866 0
M  V30 19111 C 1817.52 -1.31202 1.87932 0
M  V30 19112 C 1818.53 -1.43619 0.766642 0
M  V30 19113 O 1819.72 -1.44723 1.04487 0
M  V30 19114 C 1816.82 -2.68904 2.06262 0
M  V30 19115 C 1815.99 -2.78581 3.37211 0
M  V30 19116 C 1815.05 -3.97219 3.45114 0
M  V30 19117 O 1814.08 -3.861 4.18229 0
M  V30 19118 N 1815.28 -5.11009 2.7541 0
M  V30 19119 H 1818.04 -1.04025 2.81067 0
M  V30 19120 H 1815.6 -0.423209 1.56271 0
M  V30 19121 H 1817.6 -3.46631 2.08876 0
M  V30 19122 H 1816.17 -2.8873 1.19807 0
M  V30 19123 H 1815.39 -1.87422 3.46795 0
M  V30 19124 H 1816.67 -2.82008 4.23496 0
M  V30 19125 H 1816.07 -5.22936 2.15764 0
M  V30 19126 H 1814.63 -5.8682 2.837 0
M  V30 19127 N 1818.06 -1.49479 -0.499372 0
M  V30 19128 C 1819.48 -1.36278 -0.830692 0
M  V30 19129 C 1819.68 -0.397116 -1.97548 0
M  V30 19130 O 1818.74 0.170614 -2.51923 0
M  V30 19131 C 1820.05 -2.77031 -1.16937 0
M  V30 19132 C 1821.6 -2.85744 -1.27748 0
M  V30 19133 C 1822.07 -4.27267 -1.64944 0
M  V30 19134 N 1823.56 -4.30086 -1.7199 0
M  V30 19135 C 1824.3 -5.36559 -2.02218 0
M  V30 19136 N 1823.79 -6.53275 -2.30659 0
M  V30 19137 N 1825.59 -5.23976 -2.03483 0
M  V30 19138 H 1817.74 -2.10858 0.255497 0
M  V30 19139 H 1820 -0.946588 0.0517184 0
M  V30 19140 H 1819.71 -3.494 -0.401529 0
M  V30 19141 H 1819.58 -3.12501 -2.11242 0
M  V30 19142 H 1821.97 -2.13611 -2.03604 0
M  V30 19143 H 1822.05 -2.53854 -0.314901 0
M  V30 19144 H 1821.69 -4.99927 -0.896384 0
M  V30 19145 H 1821.62 -4.56622 -2.62305 0
M  V30 19146 H 1824.11 -3.45911 -1.52164 0
M  V30 19147 H 1824.43 -7.30241 -2.52918 0
M  V30 19148 H 1822.77 -6.56498 -2.28112 0
M  V30 19149 H 1825.96 -4.31799 -1.80741 0
M  V30 19150 H 1826.14 -6.07049 -2.26707 0
M  V30 19151 N 1819.54 0.750537 -1.38581 0
M  V30 19152 C 1820.95 1.32802 -1.31227 0
M  V30 19153 C 1821.3 1.96176 0.0305372 0
M  V30 19154 O 1820.43 1.95272 0.932614 0
M  V30 19155 C 1821.02 2.41468 -2.37652 0
M  V30 19156 C 1819.58 2.94929 -2.33867 0
M  V30 19157 C 1818.73 1.68339 -2.20357 0
M  V30 19158 H 1821.68 0.549187 -1.48895 0
M  V30 19159 H 1821.7 3.21481 -2.03544 0
M  V30 19160 H 1821.21 1.95313 -3.35372 0
M  V30 19161 H 1819.31 3.45404 -1.39738 0
M  V30 19162 H 1819.43 3.491 -3.28125 0
M  V30 19163 H 1817.79 1.92082 -1.67262 0
M  V30 19164 H 1818.57 1.24258 -3.20023 0
M  V30 19165 N 1821.02 1.235 0.979051 0
M  V30 19166 C 1822.27 1.06949 1.72307 0
M  V30 19167 C 1822.6 -0.392491 1.90192 0
M  V30 19168 O 1821.87 -1.29054 1.45518 0
M  V30 19169 C 1822.16 1.79705 3.12055 0
M  V30 19170 C 1822.01 3.33583 3.01732 0
M  V30 19171 C 1823.33 1.56062 4.11501 0
M  V30 19172 H 1820.45 0.389917 0.625407 0
M  V30 19173 H 1823.09 1.52022 1.1397 0
M  V30 19174 H 1821.24 1.4139 3.61858 0
M  V30 19175 H 1822.91 3.81428 2.59443 0
M  V30 19176 H 1821.15 3.62547 2.38206 0
M  V30 19177 H 1821.83 3.79681 4.00683 0
M  V30 19178 H 1824.3 1.8937 3.70511 0
M  V30 19179 H 1823.18 2.09442 5.07371 0
M  V30 19180 H 1823.44 0.496276 4.39306 0
M  V30 19181 N 1822.5 -1.17802 1.04693 0
M  V30 19182 C 1823.73 -1.91867 0.774246 0
M  V30 19183 C 1824.14 -1.76534 -0.669425 0
M  V30 19184 O 1823.5 -1.09915 -1.45688 0
M  V30 19185 C 1823.55 -3.43086 1.13904 0
M  V30 19186 O 1823.27 -3.57943 2.52604 0
M  V30 19187 C 1824.77 -4.34238 0.891767 0
M  V30 19188 H 1821.99 -0.60892 0.281882 0
M  V30 19189 H 1824.53 -1.49414 1.39627 0
M  V30 19190 H 1822.69 -3.83304 0.561863 0
M  V30 19191 H 1823.1 -4.51599 2.66756 0
M  V30 19192 H 1824.58 -5.3887 1.1968 0
M  V30 19193 H 1825.05 -4.38858 -0.17323 0
M  V30 19194 H 1825.66 -3.99727 1.45254 0
M  V30 19195 N 1823.98 -0.827251 -1.34143 0
M  V30 19196 C 1825.2 -0.430502 -2.02372 0
M  V30 19197 C 1825.62 0.964846 -1.62284 0
M  V30 19198 O 1824.98 1.62512 -0.830421 0
M  V30 19199 C 1825.03 -0.528077 -3.57622 0
M  V30 19200 O 1824.75 -1.86843 -3.96259 0
M  V30 19201 C 1826.25 -0.126784 -4.43119 0
M  V30 19202 H 1823.47 -0.172244 -0.648516 0
M  V30 19203 H 1826.01 -1.11661 -1.71325 0
M  V30 19204 H 1824.17 0.109991 -3.87244 0
M  V30 19205 H 1824.58 -1.84573 -4.90951 0
M  V30 19206 H 1826.06 -0.246133 -5.51451 0
M  V30 19207 H 1826.53 0.930138 -4.29238 0
M  V30 19208 H 1827.14 -0.738824 -4.18833 0
M  V30 19209 N 1825.45 1.46436 -0.582609 0
M  V30 19210 C 1826.7 2.03256 -0.0765831 0
M  V30 19211 C 1827.05 1.44604 1.26915 0
M  V30 19212 O 1826.35 0.601721 1.81906 0
M  V30 19213 C 1826.54 3.57368 0.0476745 0
M  V30 19214 C 1826.37 4.30966 -1.28446 0
M  V30 19215 C 1825.14 4.69878 -1.85858 0
M  V30 19216 C 1827.34 4.64509 -2.20762 0
M  V30 19217 N 1825.32 5.28225 -3.12812 0
M  V30 19218 C 1826.69 5.23426 -3.32304 0
M  V30 19219 C 1828.75 4.4644 -2.20444 0
M  V30 19220 C 1827.45 5.6618 -4.43658 0
M  V30 19221 C 1829.48 4.90211 -3.30828 0
M  V30 19222 C 1828.84 5.49198 -4.4109 0
M  V30 19223 H 1824.94 0.778788 -0.0707993 0
M  V30 19224 H 1827.52 1.7859 -0.775486 0
M  V30 19225 H 1825.69 3.81748 0.715745 0
M  V30 19226 H 1827.42 4.00834 0.558076 0
M  V30 19227 H 1824.18 4.52634 -1.39352 0
M  V30 19228 H 1824.6 5.61921 -3.7759 0
M  V30 19229 H 1829.24 4.0017 -1.36469 0
M  V30 19230 H 1826.96 6.11429 -5.28375 0
M  V30 19231 H 1830.55 4.77982 -3.317 0
M  V30 19232 H 1829.43 5.82448 -5.25095 0
M  V30 19233 N 1826.93 0.320385 1.54309 0
M  V30 19234 C 1828.18 -0.283143 2.00511 0
M  V30 19235 C 1828.51 -1.52391 1.2086 0
M  V30 19236 O 1827.76 -1.93716 0.277955 0
M  V30 19237 C 1828.06 -0.665444 3.5115 0
M  V30 19238 C 1827.73 0.475789 4.48383 0
M  V30 19239 C 1826.39 0.789037 4.74687 0
M  V30 19240 C 1828.74 1.24253 5.06172 0
M  V30 19241 C 1826.07 1.87181 5.5604 0
M  V30 19242 C 1828.42 2.31537 5.88705 0
M  V30 19243 C 1827.08 2.63447 6.13312 0
M  V30 19244 H 1826.35 -0.103609 0.733721 0
M  V30 19245 H 1829 0.443504 1.86294 0
M  V30 19246 H 1827.31 -1.47247 3.63078 0
M  V30 19247 H 1829 -1.14391 3.84338 0
M  V30 19248 H 1825.59 0.221559 4.28027 0
M  V30 19249 H 1829.78 1.01379 4.85835 0
M  V30 19250 H 1825.03 2.12354 5.73337 0
M  V30 19251 H 1829.21 2.91395 6.32504 0
M  V30 19252 H 1826.83 3.47477 6.76139 0
M  V30 19253 N 1828.41 -1.57525 0.0484906 0
M  V30 19254 C 1829.63 -1.97309 -0.639062 0
M  V30 19255 C 1830.06 -0.925753 -1.63742 0
M  V30 19256 O 1829.42 0.111304 -1.80958 0
M  V30 19257 C 1829.47 -3.36168 -1.30475 0
M  V30 19258 O 1828.57 -3.33903 -2.42038 0
M  V30 19259 H 1827.91 -0.642824 -0.166351 0
M  V30 19260 H 1830.44 -2.0427 0.116095 0
M  V30 19261 H 1830.45 -3.72835 -1.65705 0
M  V30 19262 H 1829.13 -4.11933 -0.573057 0
M  V30 19263 H 1827.7 -3.08978 -2.08775 0
M  V30 19264 N 1829.89 0.224867 -1.55988 0
M  V30 19265 C 1830.83 1.27865 -1.92144 0
M  V30 19266 C 1831.8 1.46741 -0.778228 0
M  V30 19267 O 1832.99 1.60364 -1.03383 0
M  V30 19268 C 1830.13 2.62468 -2.24063 0
M  V30 19269 C 1829.24 2.51419 -3.51301 0
M  V30 19270 C 1828.38 3.78523 -3.72684 0
M  V30 19271 C 1827.42 3.62182 -4.93448 0
M  V30 19272 N 1826.55 4.81228 -5.11237 0
M  V30 19273 H 1831.39 0.96331 -2.82001 0
M  V30 19274 H 1828.93 0.464362 -1.39578 0
M  V30 19275 H 1830.89 3.40848 -2.4058 0
M  V30 19276 H 1829.52 2.92105 -1.37384 0
M  V30 19277 H 1828.57 1.64491 -3.42997 0
M  V30 19278 H 1829.88 2.35263 -4.39833 0
M  V30 19279 H 1829.04 4.65346 -3.89279 0
M  V30 19280 H 1827.78 3.976 -2.82428 0
M  V30 19281 H 1826.78 2.73743 -4.76807 0
M  V30 19282 H 1828.01 3.44579 -5.85186 0
M  V30 19283 H 1825.95 5.00625 -4.23923 0
M  V30 19284 H 1825.87 4.67787 -5.93895 0
M  V30 19285 H 1827.14 5.69487 -5.32264 0
M  V30 19286 N 1831.37 1.49742 0.491438 0
M  V30 19287 C 1832.61 1.59395 1.24248 0
M  V30 19288 C 1832.93 0.286934 1.92877 0
M  V30 19289 O 1832.2 -0.694353 1.83182 0
M  V30 19290 H 1830.78 0.587313 0.461598 0
M  V30 19291 H 1833.45 1.86417 0.56873 0
M  V30 19292 H 1832.54 2.39487 2.00131 0
M  V30 19293 N 1832.84 -0.743177 1.38977 0
M  V30 19294 C 1833.77 -1.87047 1.3977 0
M  V30 19295 C 1834.76 -1.68068 0.262161 0
M  V30 19296 O 1835.94 -1.88507 0.466782 0
M  V30 19297 C 1833.07 -3.24701 1.23234 0
M  V30 19298 C 1832.02 -3.58302 2.34102 0
M  V30 19299 C 1831.35 -4.94805 2.02663 0
M  V30 19300 C 1832.65 -3.62111 3.76395 0
M  V30 19301 H 1834.34 -1.8664 2.34107 0
M  V30 19302 H 1831.89 -0.896541 1.12686 0
M  V30 19303 H 1833.84 -4.03228 1.22412 0
M  V30 19304 H 1832.57 -3.25614 0.253638 0
M  V30 19305 H 1831.23 -2.82099 2.34128 0
M  V30 19306 H 1830.87 -4.92289 1.0325 0
M  V30 19307 H 1830.57 -5.18254 2.76922 0
M  V30 19308 H 1832.1 -5.75699 2.03477 0
M  V30 19309 H 1833.51 -4.30731 3.78343 0
M  V30 19310 H 1831.91 -3.97075 4.49946 0
M  V30 19311 H 1832.98 -2.62099 4.07961 0
M  V30 19312 N 1834.32 -1.24018 -0.972487 0
M  V30 19313 C 1835.73 -1.07076 -1.52943 0
M  V30 19314 C 1836.08 0.35937 -1.92881 0
M  V30 19315 O 1835.21 1.24713 -1.76849 0
M  V30 19316 C 1835.8 -1.93753 -2.7793 0
M  V30 19317 C 1834.36 -1.81048 -3.29998 0
M  V30 19318 C 1833.51 -1.88977 -2.02936 0
M  V30 19319 H 1836.46 -1.37565 -0.791304 0
M  V30 19320 H 1836.48 -1.46699 -3.51084 0
M  V30 19321 H 1835.99 -2.97833 -2.48832 0
M  V30 19322 H 1834.1 -0.797825 -3.63958 0
M  V30 19323 H 1834.21 -2.64876 -3.99221 0
M  V30 19324 H 1832.57 -1.32649 -2.17431 0
M  V30 19325 H 1833.36 -2.94627 -1.76209 0
M  V30 19326 N 1835.8 1.17245 -1.05316 0
M  V30 19327 C 1836.73 2.20844 -0.613228 0
M  V30 19328 C 1837.75 1.5955 0.323671 0
M  V30 19329 O 1838.93 1.78121 0.116209 0
M  V30 19330 C 1836.03 3.38679 0.122482 0
M  V30 19331 C 1835.21 4.29541 -0.825429 0
M  V30 19332 C 1834.27 5.26038 -0.130752 0
M  V30 19333 O 1833.29 5.64032 -0.765248 0
M  V30 19334 N 1834.49 5.69369 1.13136 0
M  V30 19335 H 1837.26 2.5921 -1.50434 0
M  V30 19336 H 1834.82 1.32156 -0.935221 0
M  V30 19337 H 1836.81 4.00267 0.597368 0
M  V30 19338 H 1835.38 2.989 0.915278 0
M  V30 19339 H 1834.6 3.65366 -1.47991 0
M  V30 19340 H 1835.89 4.87138 -1.46882 0
M  V30 19341 H 1835.29 5.40576 1.66716 0
M  V30 19342 H 1833.85 6.33095 1.55029 0
M  V30 19343 N 1837.28 0.834353 1.33702 0
M  V30 19344 C 1838.53 0.427887 1.97928 0
M  V30 19345 C 1838.85 -1.0118 1.66111 0
M  V30 19346 O 1838.11 -1.72144 0.930848 0
M  V30 19347 C 1838.41 0.590236 3.52493 0
M  V30 19348 C 1838.07 1.99735 4.04249 0
M  V30 19349 C 1836.74 2.38224 4.18094 0
M  V30 19350 C 1839.09 2.91665 4.3195 0
M  V30 19351 C 1836.42 3.67957 4.56973 0
M  V30 19352 C 1838.77 4.20874 4.72279 0
M  V30 19353 C 1837.43 4.59326 4.8433 0
M  V30 19354 H 1836.7 0.156575 0.724269 0
M  V30 19355 H 1839.35 1.06051 1.59454 0
M  V30 19356 H 1837.65 -0.125718 3.91598 0
M  V30 19357 H 1839.35 0.256094 4.00181 0
M  V30 19358 H 1835.94 1.6884 3.93943 0
M  V30 19359 H 1840.12 2.63168 4.20781 0
M  V30 19360 H 1835.38 3.9756 4.64495 0
M  V30 19361 H 1839.55 4.92187 4.92671 0
M  V30 19362 H 1837.18 5.59901 5.14213 0
M  V30 19363 N 1838.76 -1.46125 0.590367 0
M  V30 19364 C 1839.67 -2.34177 -0.140761 0
M  V30 19365 C 1840.68 -1.50213 -0.878181 0
M  V30 19366 O 1841.86 -1.83063 -0.839644 0
M  V30 19367 C 1838.92 -3.27537 -1.13669 0
M  V30 19368 C 1837.98 -4.27403 -0.403103 0
M  V30 19369 C 1837.22 -5.16302 -1.35159 0
M  V30 19370 O 1837.44 -5.08283 -2.58853 0
M  V30 19371 O 1836.37 -5.95753 -0.858003 0
M  V30 19372 H 1840.2 -2.98063 0.582401 0
M  V30 19373 H 1837.79 -1.45225 0.35072 0
M  V30 19374 H 1839.67 -3.85112 -1.71074 0
M  V30 19375 H 1838.34 -2.66237 -1.84118 0
M  V30 19376 H 1837.25 -3.73493 0.212986 0
M  V30 19377 H 1838.58 -4.9151 0.260565 0
M  V30 19378 N 1840.23 -0.328564 -1.54137 0
M  V30 19379 C 1841.65 0.158467 -1.86026 0
M  V30 19380 C 1842 1.51216 -1.25012 0
M  V30 19381 O 1841.12 2.09081 -0.558029 0
M  V30 19382 C 1841.72 0.294317 -3.37519 0
M  V30 19383 C 1840.28 0.72557 -3.69341 0
M  V30 19384 C 1839.42 -0.149724 -2.76895 0
M  V30 19385 H 1842.37 -0.548678 -1.48913 0
M  V30 19386 H 1842.39 1.12438 -3.63508 0
M  V30 19387 H 1841.91 -0.691071 -3.81898 0
M  V30 19388 H 1840.01 1.72052 -3.30498 0
M  V30 19389 H 1840.12 0.525853 -4.76205 0
M  V30 19390 H 1838.48 0.375531 -2.51916 0
M  V30 19391 H 1839.27 -1.13197 -3.24101 0
M  V30 19392 N 1841.71 1.57497 -0.0568439 0
M  V30 19393 C 1842.96 1.932 0.61658 0
M  V30 19394 C 1843.29 0.935936 1.70158 0
M  V30 19395 O 1842.57 -0.0372005 1.94464 0
M  V30 19396 C 1842.85 3.39254 1.20742 0
M  V30 19397 C 1842.7 4.49612 0.130081 0
M  V30 19398 C 1844.02 3.85817 2.11738 0
M  V30 19399 H 1841.14 0.702558 0.222668 0
M  V30 19400 H 1843.78 1.89622 -0.119765 0
M  V30 19401 H 1841.93 3.42434 1.83497 0
M  V30 19402 H 1843.6 4.58559 -0.502172 0
M  V30 19403 H 1841.85 4.30411 -0.541167 0
M  V30 19404 H 1842.52 5.48906 0.583606 0
M  V30 19405 H 1844.99 3.8455 1.58936 0
M  V30 19406 H 1843.87 4.88653 2.50019 0
M  V30 19407 H 1844.13 3.22899 3.01974 0
M  V30 19408 N 1843.19 -0.216591 1.56105 0
M  V30 19409 C 1844.6 -0.783161 1.6948 0
M  V30 19410 C 1844.95 -1.84776 0.659716 0
M  V30 19411 O 1844.08 -2.1558 -0.188184 0
M  V30 19412 C 1844.67 -1.42733 3.07267 0
M  V30 19413 C 1843.23 -1.94123 3.2248 0
M  V30 19414 C 1842.38 -0.803216 2.65412 0
M  V30 19415 H 1845.33 0.00814542 1.58698 0
M  V30 19416 H 1845.35 -2.29627 3.034 0
M  V30 19417 H 1844.86 -0.652264 3.8258 0
M  V30 19418 H 1842.96 -2.74416 2.52045 0
M  V30 19419 H 1843.08 -2.1178 4.29751 0
M  V30 19420 H 1841.44 -1.21185 2.24023 0
M  V30 19421 H 1842.22 -0.0407398 3.43276 0
M  V30 19422 N 1844.67 -1.5 -0.48349 0
M  V30 19423 C 1845.6 -1.70879 -1.5913 0
M  V30 19424 C 1846.58 -0.557606 -1.60701 0
M  V30 19425 O 1847.76 -0.79539 -1.77164 0
M  V30 19426 C 1844.89 -1.7915 -2.97527 0
M  V30 19427 C 1843.85 -2.94233 -3.10823 0
M  V30 19428 C 1843.17 -2.87634 -4.50745 0
M  V30 19429 C 1844.47 -4.34925 -2.89202 0
M  V30 19430 H 1846.17 -2.63632 -1.41911 0
M  V30 19431 H 1843.71 -1.26865 -0.68127 0
M  V30 19432 H 1845.67 -1.92342 -3.74943 0
M  V30 19433 H 1844.39 -0.830106 -3.15875 0
M  V30 19434 H 1843.05 -2.80672 -2.35837 0
M  V30 19435 H 1842.7 -1.89365 -4.65993 0
M  V30 19436 H 1842.4 -3.64885 -4.60579 0
M  V30 19437 H 1843.92 -3.02857 -5.30198 0
M  V30 19438 H 1845.34 -4.49076 -3.56376 0
M  V30 19439 H 1843.73 -5.13531 -3.10492 0
M  V30 19440 H 1844.8 -4.48154 -1.85165 0
M  V30 19441 N 1846.15 0.735796 -1.39369 0
M  V30 19442 C 1847.06 1.88026 -1.40298 0
M  V30 19443 C 1848.07 1.71431 -0.297878 0
M  V30 19444 O 1849.25 1.94047 -0.539219 0
M  V30 19445 C 1846.31 3.23607 -1.24415 0
M  V30 19446 C 1845.37 3.52601 -2.4489 0
M  V30 19447 C 1844.61 4.81714 -2.29755 0
M  V30 19448 O 1844.83 5.55374 -1.30061 0
M  V30 19449 O 1843.76 5.10588 -3.18722 0
M  V30 19450 H 1847.59 1.90197 -2.36767 0
M  V30 19451 H 1845.18 0.883504 -1.20476 0
M  V30 19452 H 1847.06 4.04633 -1.17688 0
M  V30 19453 H 1845.73 3.22208 -0.310409 0
M  V30 19454 H 1844.64 2.71665 -2.57194 0
M  V30 19455 H 1845.97 3.58778 -3.36955 0
M  V30 19456 N 1847.63 1.24532 0.965897 0
M  V30 19457 C 1848.58 1.00627 2.04593 0
M  V30 19458 C 1849.56 -0.0529299 1.60813 0
M  V30 19459 O 1850.75 0.16102 1.76266 0
M  V30 19460 C 1847.88 0.614939 3.37748 0
M  V30 19461 C 1846.97 1.71031 3.88084 0
M  V30 19462 N 1847.36 2.94339 4.11337 0
M  V30 19463 C 1845.66 1.58823 4.16763 0
M  V30 19464 C 1846.36 3.65361 4.52644 0
M  V30 19465 N 1845.33 2.92931 4.57922 0
M  V30 19466 H 1849.13 1.94256 2.20549 0
M  V30 19467 H 1846.65 1.14685 1.14983 0
M  V30 19468 H 1848.65 0.424907 4.14729 0
M  V30 19469 H 1847.31 -0.314149 3.23177 0
M  V30 19470 H 1848.32 3.305 3.98736 0
M  V30 19471 H 1844.99 0.727304 4.11116 0
M  V30 19472 H 1846.38 4.71145 4.79032 0
M  V30 19473 N 1849.1 -1.16685 1.05936 0
M  V30 19474 C 1850.51 -1.68745 0.798866 0
M  V30 19475 C 1850.87 -1.84113 -0.678008 0
M  V30 19476 O 1849.99 -1.53408 -1.52627 0
M  V30 19477 C 1850.59 -3.06508 1.44356 0
M  V30 19478 C 1849.14 -3.55704 1.23092 0
M  V30 19479 C 1848.29 -2.31776 1.52235 0
M  V30 19480 H 1851.24 -1.01097 1.22332 0
M  V30 19481 H 1851.26 -3.70725 0.856908 0
M  V30 19482 H 1850.78 -2.95291 2.51843 0
M  V30 19483 H 1848.88 -3.72186 0.175632 0
M  V30 19484 H 1848.99 -4.38015 1.94112 0
M  V30 19485 H 1847.35 -2.36611 0.942734 0
M  V30 19486 H 1848.14 -2.2316 2.60873 0
M  V30 19487 N 1850.58 -0.841432 -1.33258 0
M  V30 19488 C 1851.53 -0.248505 -2.26642 0
M  V30 19489 C 1852.52 0.59799 -1.49375 0
M  V30 19490 O 1853.71 0.449539 -1.71196 0
M  V30 19491 C 1850.84 0.573322 -3.38479 0
M  V30 19492 C 1849.92 -0.284825 -4.23142 0
M  V30 19493 N 1850.31 -1.36477 -4.8704 0
M  V30 19494 C 1848.61 -0.072296 -4.45941 0
M  V30 19495 C 1849.31 -1.89162 -5.50084 0
M  V30 19496 N 1848.29 -1.19272 -5.30354 0
M  V30 19497 H 1852.09 -1.07432 -2.73561 0
M  V30 19498 H 1849.6 -0.686153 -1.47193 0
M  V30 19499 H 1851.6 1.01441 -4.0437 0
M  V30 19500 H 1850.26 1.39708 -2.93107 0
M  V30 19501 H 1851.27 -1.74767 -4.87521 0
M  V30 19502 H 1847.95 0.717812 -4.11283 0
M  V30 19503 H 1849.34 -2.79613 -6.10955 0
M  V30 19504 N 1852.06 1.4581 -0.598108 0
M  V30 19505 C 1853.29 2.06379 -0.0955533 0
M  V30 19506 C 1853.7 1.44497 1.22137 0
M  V30 19507 O 1853.04 0.549997 1.75273 0
M  V30 19508 C 1853.1 3.59271 0.128433 0
M  V30 19509 C 1852.77 4.43434 -1.10523 0
M  V30 19510 C 1853.76 4.79008 -2.02107 0
M  V30 19511 C 1851.45 4.84334 -1.3314 0
M  V30 19512 C 1853.44 5.54326 -3.14644 0
M  V30 19513 C 1851.13 5.59408 -2.45979 0
M  V30 19514 C 1852.13 5.9432 -3.3656 0
M  V30 19515 O 1851.82 6.67874 -4.47437 0
M  V30 19516 H 1851.55 0.673187 -0.0616108 0
M  V30 19517 H 1854.1 1.88191 -0.823012 0
M  V30 19518 H 1852.33 3.75824 0.910679 0
M  V30 19519 H 1854.02 4.01714 0.581406 0
M  V30 19520 H 1854.79 4.47976 -1.85856 0
M  V30 19521 H 1850.67 4.566 -0.635381 0
M  V30 19522 H 1854.21 5.81495 -3.8537 0
M  V30 19523 H 1850.11 5.89854 -2.62187 0
M  V30 19524 H 1850.87 6.86314 -4.45999 0
M  V30 19525 N 1853.54 0.336733 1.53961 0
M  V30 19526 C 1854.45 -0.531812 2.28493 0
M  V30 19527 C 1855.46 -1.11784 1.33343 0
M  V30 19528 O 1856.64 -1.13499 1.66373 0
M  V30 19529 C 1853.7 -1.67031 3.03812 0
M  V30 19530 C 1852.77 -1.11475 4.14574 0
M  V30 19531 C 1852 -2.19898 4.86292 0
M  V30 19532 O 1852.22 -3.40492 4.57625 0
M  V30 19533 O 1851.16 -1.84576 5.72901 0
M  V30 19534 H 1854.98 0.0738624 3.0361 0
M  V30 19535 H 1852.57 0.101996 1.49051 0
M  V30 19536 H 1854.45 -2.33286 3.50936 0
M  V30 19537 H 1853.12 -2.26192 2.31558 0
M  V30 19538 H 1852.03 -0.416915 3.7177 0
M  V30 19539 H 1853.36 -0.568092 4.88911 0
M  V30 19540 N 1855.02 -1.57465 0.0651956 0
M  V30 19541 C 1856.26 -1.93524 -0.606325 0
M  V30 19542 C 1856.59 -0.944947 -1.6966 0
M  V30 19543 O 1855.87 0.0268871 -1.94481 0
M  V30 19544 C 1856.15 -3.3989 -1.18941 0
M  V30 19545 C 1856.01 -4.49675 -0.106235 0
M  V30 19546 C 1857.32 -3.86935 -2.09689 0
M  V30 19547 H 1854.44 -0.703729 -0.218939 0
M  V30 19548 H 1857.09 -1.89556 0.12982 0
M  V30 19549 H 1855.24 -3.43402 -1.81679 0
M  V30 19550 H 1856.91 -4.58286 0.526483 0
M  V30 19551 H 1855.15 -4.30118 0.563985 0
M  V30 19552 H 1855.82 -5.49208 -0.554488 0
M  V30 19553 H 1858.3 -3.85387 -1.56895 0
M  V30 19554 H 1857.17 -4.89972 -2.47424 0
M  V30 19555 H 1857.43 -3.24496 -3.00258 0
M  V30 19556 N 1856.49 0.20831 -1.56217 0
M  V30 19557 C 1857.72 0.951404 -1.84291 0
M  V30 19558 C 1858.14 1.76616 -0.647168 0
M  V30 19559 O 1857.5 1.7674 0.404081 0
M  V30 19560 C 1857.55 1.83403 -3.10477 0
M  V30 19561 O 1856.65 2.93113 -2.90101 0
M  V30 19562 H 1855.99 0.268668 -0.607218 0
M  V30 19563 H 1858.52 0.217618 -2.03439 0
M  V30 19564 H 1858.53 2.24127 -3.40927 0
M  V30 19565 H 1857.21 1.23528 -3.97132 0
M  V30 19566 H 1855.79 2.5624 -2.70916 0
M  V30 19567 N 1857.97 1.50255 0.475528 0
M  V30 19568 C 1859.39 1.37582 0.808907 0
M  V30 19569 C 1859.59 0.428494 1.96891 0
M  V30 19570 O 1858.64 -0.130513 2.52162 0
M  V30 19571 C 1859.96 2.78856 1.12515 0
M  V30 19572 C 1861.5 2.8774 1.23186 0
M  V30 19573 C 1861.98 4.29838 1.58126 0
M  V30 19574 N 1863.47 4.32767 1.65126 0
M  V30 19575 C 1864.21 5.39708 1.93656 0
M  V30 19576 N 1863.7 6.56862 2.20237 0
M  V30 19577 N 1865.49 5.27147 1.95121 0
M  V30 19578 H 1857.65 2.10425 -0.28901 0
M  V30 19579 H 1859.91 0.945646 -0.0667713 0
M  V30 19580 H 1859.61 3.49995 0.345892 0
M  V30 19581 H 1859.49 3.15822 2.06244 0
M  V30 19582 H 1861.88 2.16823 2.0018 0
M  V30 19583 H 1861.96 2.54323 0.274475 0
M  V30 19584 H 1861.6 5.0129 0.816737 0
M  V30 19585 H 1861.53 4.60737 2.55007 0
M  V30 19586 H 1864.02 3.48288 1.46642 0
M  V30 19587 H 1864.33 7.34173 2.41268 0
M  V30 19588 H 1862.68 6.60044 2.17639 0
M  V30 19589 H 1865.87 4.3462 1.73849 0
M  V30 19590 H 1866.04 6.10578 2.17021 0
M  V30 19591 N 1859.45 -0.728395 1.39758 0
M  V30 19592 C 1860.7 -1.49028 1.37544 0
M  V30 19593 C 1861.03 -1.94182 -0.0265175 0
M  V30 19594 O 1860.3 -1.67257 -0.992737 0
M  V30 19595 C 1860.59 -2.72535 2.35365 0
M  V30 19596 C 1860.44 -2.33358 3.84531 0
M  V30 19597 C 1861.76 -3.74656 2.30914 0
M  V30 19598 H 1858.88 -0.540587 0.500934 0
M  V30 19599 H 1861.52 -0.832335 1.70799 0
M  V30 19600 H 1859.67 -3.28674 2.07137 0
M  V30 19601 H 1861.34 -1.828 4.23535 0
M  V30 19602 H 1859.58 -1.65508 4.00986 0
M  V30 19603 H 1860.26 -3.21832 4.48473 0
M  V30 19604 H 1862.73 -3.28117 2.55888 0
M  V30 19605 H 1861.61 -4.58729 3.01428 0
M  V30 19606 H 1861.87 -4.22047 1.31639 0
M  V30 19607 N 1860.93 -1.25042 -0.959279 0
M  V30 19608 C 1862.2 -1.00297 -1.67928 0
M  V30 19609 C 1862.58 0.47221 -2.05751 0
M  V30 19610 O 1861.93 1.44849 -1.76723 0
M  V30 19611 C 1862.14 -1.93416 -2.90502 0
M  V30 19612 C 1863.49 -2.20992 -3.62557 0
M  V30 19613 O 1864.51 -1.91136 -3.00575 0
M  V30 19614 O 1863.37 -2.71735 -4.74154 0
M  V30 19615 H 1860.47 -0.379984 -0.734535 0
M  V30 19616 H 1863.01 -1.36177 -1.01262 0
M  V30 19617 H 1861.79 -2.93045 -2.59308 0
M  V30 19618 H 1861.41 -1.57904 -3.649 0
M  V30 19619 N 1862.41 1.16121 -1.06553 0
M  V30 19620 C 1863.65 1.86346 -0.782279 0
M  V30 19621 C 1863.98 1.82255 0.693395 0
M  V30 19622 O 1863.25 1.2579 1.50179 0
M  V30 19623 H 1861.83 0.689921 -0.286388 0
M  V30 19624 H 1864.49 1.40805 -1.34758 0
M  V30 19625 H 1863.58 2.91712 -1.10954 0
M  V30 19626 N 1863.88 0.848487 1.3281 0
M  V30 19627 C 1865.11 0.462643 2.01661 0
M  V30 19628 C 1865.53 -0.938906 1.63799 0
M  V30 19629 O 1864.88 -1.61171 0.85617 0
M  V30 19630 C 1864.94 0.584905 3.56737 0
M  V30 19631 O 1864.66 1.93124 3.93236 0
M  V30 19632 C 1866.16 0.197265 4.42861 0
M  V30 19633 H 1863.38 0.18254 0.645694 0
M  V30 19634 H 1865.92 1.14372 1.69527 0
M  V30 19635 H 1864.08 -0.0483701 3.8737 0
M  V30 19636 H 1864.49 1.92361 4.87952 0
M  V30 19637 H 1865.96 0.333833 5.5099 0
M  V30 19638 H 1866.44 -0.861732 4.30663 0
M  V30 19639 H 1867.05 0.805363 4.17605 0
M  V30 19640 N 1865.36 -1.4549 0.605832 0
M  V30 19641 C 1866.61 -2.02551 0.100487 0
M  V30 19642 C 1866.94 -1.47346 -1.26502 0
M  V30 19643 O 1866.22 -0.647471 -1.83407 0
M  V30 19644 C 1866.5 -3.60051 0.0596664 0
M  V30 19645 C 1866.35 -4.25592 1.45572 0
M  V30 19646 C 1867.67 -4.35581 -0.629073 0
M  V30 19647 H 1864.79 -0.73602 0.0379904 0
M  V30 19648 H 1867.43 -1.73365 0.777468 0
M  V30 19649 H 1865.58 -3.85047 -0.516838 0
M  V30 19650 H 1867.25 -4.11787 2.07916 0
M  V30 19651 H 1865.5 -3.84061 2.01692 0
M  V30 19652 H 1866.17 -5.34487 1.37941 0
M  V30 19653 H 1868.64 -4.15868 -0.139076 0
M  V30 19654 H 1867.52 -5.4531 -0.626735 0
M  V30 19655 H 1867.78 -4.08323 -1.69483 0
M  V30 19656 N 1866.84 -0.344893 -1.5378 0
M  V30 19657 C 1868.12 0.306554 -1.93183 0
M  V30 19658 C 1868.5 1.68127 -1.27658 0
M  V30 19659 O 1867.85 2.24456 -0.428003 0
M  V30 19660 C 1868.06 0.377484 -3.46953 0
M  V30 19661 C 1869.4 0.627685 -4.19935 0
M  V30 19662 O 1870.43 0.459544 -3.53223 0
M  V30 19663 O 1869.29 0.953511 -5.38117 0
M  V30 19664 H 1866.38 0.179163 -0.80736 0
M  V30 19665 H 1868.93 -0.396168 -1.65011 0
M  V30 19666 H 1867.7 -0.587175 -3.86869 0
M  V30 19667 H 1867.32 1.12694 -3.81295 0
M  V30 19668 N 1868.32 1.57428 -0.0735454 0
M  V30 19669 C 1869.55 1.97883 0.604148 0
M  V30 19670 C 1869.96 0.951968 1.63043 0
M  V30 19671 O 1869.32 -0.0611641 1.82397 0
M  V30 19672 C 1869.37 3.38414 1.27116 0
M  V30 19673 O 1869.09 4.37166 0.285951 0
M  V30 19674 C 1870.59 3.93753 2.03651 0
M  V30 19675 H 1867.81 0.650747 0.163613 0
M  V30 19676 H 1870.36 2.03975 -0.146466 0
M  V30 19677 H 1868.51 3.33403 1.97285 0
M  V30 19678 H 1868.92 5.18896 0.764698 0
M  V30 19679 H 1870.4 4.94298 2.45711 0
M  V30 19680 H 1870.88 3.30391 2.89376 0
M  V30 19681 H 1871.48 4.0217 1.38345 0
M  V30 19682 N 1869.8 -0.200022 1.56326 0
M  V30 19683 C 1871.21 -0.765141 1.70301 0
M  V30 19684 C 1871.56 -1.84066 0.679277 0
M  V30 19685 O 1870.68 -2.15768 -0.165308 0
M  V30 19686 C 1871.28 -1.39466 3.08763 0
M  V30 19687 C 1869.84 -1.90692 3.2452 0
M  V30 19688 C 1868.98 -0.77502 2.66249 0
M  V30 19689 H 1871.94 0.024977 1.5868 0
M  V30 19690 H 1871.96 -2.26396 3.05819 0
M  V30 19691 H 1871.47 -0.61165 3.8325 0
M  V30 19692 H 1869.57 -2.71728 2.54941 0
M  V30 19693 H 1869.68 -2.0721 4.31973 0
M  V30 19694 H 1868.05 -1.18802 2.25296 0
M  V30 19695 H 1868.83 -0.00432851 3.433 0
M  V30 19696 N 1871.27 -1.50505 -0.467553 0
M  V30 19697 C 1872.69 -1.54489 -1.04833 0
M  V30 19698 C 1873.04 -0.350468 -1.93044 0
M  V30 19699 O 1872.16 0.536238 -2.09651 0
M  V30 19700 C 1872.76 -2.79967 -1.90799 0
M  V30 19701 C 1871.32 -2.86621 -2.43979 0
M  V30 19702 C 1870.46 -2.48819 -1.22412 0
M  V30 19703 H 1873.41 -1.56718 -0.250025 0
M  V30 19704 H 1873.43 -2.62022 -2.75907 0
M  V30 19705 H 1872.95 -3.66881 -1.2657 0
M  V30 19706 H 1871.05 -2.04066 -3.11749 0
M  V30 19707 H 1871.16 -3.89594 -2.78843 0
M  V30 19708 H 1869.52 -2.01335 -1.56001 0
M  V30 19709 H 1870.31 -3.38044 -0.598405 0
M  V30 19710 N 1872.75 0.720973 -1.40142 0
M  V30 19711 C 1873.99 1.49327 -1.39573 0
M  V30 19712 C 1874.36 1.91999 0.00451559 0
M  V30 19713 O 1875.56 2.68459 0.135289 0
M  V30 19714 C 1873.83 2.69014 -2.35301 0
M  V30 19715 S 1875.39 3.58489 -2.53043 0
M  V30 19716 H 1872.21 0.510609 -0.494773 0
M  V30 19717 H 1874.81 0.843571 -1.76364 0
M  V30 19718 H 1873.51 2.35827 -3.35878 0
M  V30 19719 H 1873.04 3.389 -1.99775 0
M  V30 19720 H 1875.06 4.6322 -1.77882 0
M  V30 19721 N 1874.23 1.25549 0.952634 0
M  V30 19722 C 1875.16 1.08592 2.06712 0
M  V30 19723 C 1876.14 -0.00560571 1.70099 0
M  V30 19724 O 1877.33 0.164299 1.93504 0
M  V30 19725 C 1874.46 0.705984 3.40049 0
M  V30 19726 C 1873.41 1.74797 3.90679 0
M  V30 19727 C 1872.74 1.22266 5.20533 0
M  V30 19728 C 1874.04 3.14717 4.16834 0
M  V30 19729 H 1875.73 2.01816 2.21157 0
M  V30 19730 H 1873.28 0.971723 1.06271 0
M  V30 19731 H 1875.23 0.57428 4.17469 0
M  V30 19732 H 1873.95 -0.261964 3.25548 0
M  V30 19733 H 1872.61 1.86815 3.1543 0
M  V30 19734 H 1872.26 0.244887 5.02404 0
M  V30 19735 H 1871.96 1.9191 5.55377 0
M  V30 19736 H 1873.48 1.10339 6.00548 0
M  V30 19737 H 1874.9 3.05842 4.84906 0
M  V30 19738 H 1873.3 3.81849 4.62938 0
M  V30 19739 H 1874.37 3.61629 3.23037 0
M  V30 19740 N 1875.71 -1.15554 1.07168 0
M  V30 19741 C 1877.12 -1.38284 0.796841 0
M  V30 19742 C 1877.32 -1.92366 -0.599782 0
M  V30 19743 O 1876.38 -2.1282 -1.35883 0
M  V30 19744 C 1877.69 -2.35553 1.8691 0
M  V30 19745 C 1879.24 -2.4922 1.89364 0
M  V30 19746 C 1879.72 -3.49778 2.95668 0
M  V30 19747 N 1881.21 -3.57312 2.94759 0
M  V30 19748 C 1881.94 -4.34934 3.73657 0
M  V30 19749 N 1881.44 -5.15905 4.624 0
M  V30 19750 N 1883.23 -4.30004 3.62012 0
M  V30 19751 H 1875.38 -0.787905 1.97246 0
M  V30 19752 H 1877.65 -0.40896 0.855252 0
M  V30 19753 H 1877.35 -2.02927 2.87252 0
M  V30 19754 H 1877.23 -3.3531 1.72763 0
M  V30 19755 H 1879.61 -2.81145 0.896745 0
M  V30 19756 H 1879.69 -1.49468 2.07589 0
M  V30 19757 H 1879.34 -3.18588 3.95556 0
M  V30 19758 H 1879.27 -4.4928 2.74691 0
M  V30 19759 H 1881.76 -2.99518 2.30429 0
M  V30 19760 H 1882.07 -5.72373 5.19238 0
M  V30 19761 H 1880.42 -5.15218 4.6645 0
M  V30 19762 H 1883.61 -3.65811 2.92061 0
M  V30 19763 H 1883.78 -4.90251 4.23743 0
M  V30 19764 N 1877.19 -0.855519 -1.32358 0
M  V30 19765 C 1878.12 -0.316159 -2.3135 0
M  V30 19766 C 1879.1 0.585159 -1.59718 0
M  V30 19767 O 1880.28 0.505221 -1.87513 0
M  V30 19768 C 1877.41 0.495577 -3.43746 0
M  V30 19769 C 1876.37 -0.311382 -4.26866 0
M  V30 19770 C 1875.69 0.625144 -5.31033 0
M  V30 19771 C 1876.99 -1.5376 -4.99154 0
M  V30 19772 H 1878.69 -1.14331 -2.7671 0
M  V30 19773 H 1876.23 -0.551221 -1.33032 0
M  V30 19774 H 1878.19 0.883325 -4.12038 0
M  V30 19775 H 1876.91 1.3561 -2.97115 0
M  V30 19776 H 1875.57 -0.680895 -3.60221 0
M  V30 19777 H 1875.22 1.48254 -4.80656 0
M  V30 19778 H 1874.92 0.0892112 -5.87532 0
M  V30 19779 H 1876.44 1.01005 -6.02188 0
M  V30 19780 H 1877.86 -1.2221 -5.60123 0
M  V30 19781 H 1876.25 -2.01153 -5.65382 0
M  V30 19782 H 1877.32 -2.29838 -4.26969 0
M  V30 19783 N 1878.67 1.45167 -0.61354 0
M  V30 19784 C 1879.89 2.06565 -0.117608 0
M  V30 19785 C 1880.31 1.45716 1.20051 0
M  V30 19786 O 1879.67 0.573512 1.73254 0
M  V30 19787 C 1879.72 3.61493 0.0221474 0
M  V30 19788 O 1879.44 4.20072 -1.24383 0
M  V30 19789 C 1880.94 4.39889 0.548841 0
M  V30 19790 H 1878.16 0.667172 -0.0715756 0
M  V30 19791 H 1880.7 1.86318 -0.84296 0
M  V30 19792 H 1878.86 3.81063 0.697854 0
M  V30 19793 H 1879.27 5.13317 -1.07733 0
M  V30 19794 H 1880.75 5.48776 0.595696 0
M  V30 19795 H 1881.22 4.1009 1.57234 0
M  V30 19796 H 1881.83 4.25198 -0.0930203 0
M  V30 19797 N 1880.14 0.353044 1.53595 0
M  V30 19798 C 1881.09 -0.515504 2.22096 0
M  V30 19799 C 1882.08 -1.05861 1.2117 0
M  V30 19800 O 1883.27 -0.990737 1.46674 0
M  V30 19801 C 1880.4 -1.66112 3.00436 0
M  V30 19802 C 1879.48 -1.1315 4.08727 0
M  V30 19803 N 1879.88 -0.323846 5.04762 0
M  V30 19804 C 1878.17 -1.4075 4.23209 0
M  V30 19805 C 1878.87 -0.0353104 5.81689 0
M  V30 19806 N 1877.85 -0.629542 5.39942 0
M  V30 19807 H 1881.65 0.108512 2.937 0
M  V30 19808 H 1879.17 0.1604 1.61606 0
M  V30 19809 H 1881.16 -2.29541 3.48018 0
M  V30 19810 H 1879.82 -2.28832 2.3036 0
M  V30 19811 H 1880.83 0.0358889 5.17888 0
M  V30 19812 H 1877.51 -2.0384 3.64357 0
M  V30 19813 H 1878.9 0.616806 6.69063 0
M  V30 19814 N 1881.62 -1.57387 0.0818932 0
M  V30 19815 C 1883.04 -1.57217 -0.274755 0
M  V30 19816 C 1883.24 -1.09207 -1.6934 0
M  V30 19817 O 1882.29 -0.762532 -2.40711 0
M  V30 19818 C 1883.61 -3.00606 -0.075209 0
M  V30 19819 C 1885.15 -3.12669 -0.143973 0
M  V30 19820 C 1885.63 -4.57992 0.0274161 0
M  V30 19821 N 1887.12 -4.63192 -0.0278563 0
M  V30 19822 C 1887.86 -5.73344 0.0801936 0
M  V30 19823 N 1887.35 -6.92376 0.242334 0
M  V30 19824 N 1889.14 -5.62096 0.0224057 0
M  V30 19825 H 1881.3 -1.86907 1.00894 0
M  V30 19826 H 1883.56 -0.8621 0.39432 0
M  V30 19827 H 1883.26 -3.39881 0.904105 0
M  V30 19828 H 1883.14 -3.68107 -0.823213 0
M  V30 19829 H 1885.53 -2.73274 -1.11378 0
M  V30 19830 H 1885.61 -2.47785 0.635303 0
M  V30 19831 H 1885.25 -4.98078 0.994034 0
M  V30 19832 H 1885.18 -5.2092 -0.77139 0
M  V30 19833 H 1887.67 -3.77598 -0.151172 0
M  V30 19834 H 1887.98 -7.72151 0.316652 0
M  V30 19835 H 1886.33 -6.94444 0.277829 0
M  V30 19836 H 1889.52 -4.67987 -0.103039 0
M  V30 19837 H 1889.69 -6.47907 0.110065 0
M  V30 19838 N 1883.1 0.191729 -1.56429 0
M  V30 19839 C 1884.33 0.927708 -1.84936 0
M  V30 19840 C 1884.74 1.76708 -0.664809 0
M  V30 19841 O 1884.1 1.78783 0.366436 0
M  V30 19842 C 1884.15 1.82113 -3.12277 0
M  V30 19843 O 1883.87 1.01564 -4.26165 0
M  V30 19844 C 1885.37 2.6685 -3.53986 0
M  V30 19845 H 1882.59 0.270514 -0.614055 0
M  V30 19846 H 1885.14 0.197968 -2.0354 0
M  V30 19847 H 1883.29 2.50445 -2.9556 0
M  V30 19848 H 1883.71 1.62478 -4.987 0
M  V30 19849 H 1885.18 3.25189 -4.46045 0
M  V30 19850 H 1885.66 3.40725 -2.77134 0
M  V30 19851 H 1886.26 2.03884 -3.73245 0
M  V30 19852 N 1884.58 1.50751 0.459565 0
M  V30 19853 C 1885.82 1.63522 1.20963 0
M  V30 19854 C 1886.18 0.33668 1.89431 0
M  V30 19855 O 1885.47 -0.666172 1.79646 0
M  V30 19856 C 1885.67 2.7612 2.26919 0
M  V30 19857 C 1885.49 4.16798 1.68848 0
M  V30 19858 C 1884.26 4.83044 1.48313 0
M  V30 19859 C 1886.46 5.00651 1.177 0
M  V30 19860 N 1884.44 6.07902 0.856055 0
M  V30 19861 C 1885.82 6.16327 0.673854 0
M  V30 19862 C 1887.87 4.86341 1.06664 0
M  V30 19863 C 1886.57 7.19265 0.0712186 0
M  V30 19864 C 1888.6 5.89466 0.477928 0
M  V30 19865 C 1887.96 7.04398 -0.0147835 0
M  V30 19866 H 1884.06 0.652437 0.431103 0
M  V30 19867 H 1886.64 1.87909 0.509752 0
M  V30 19868 H 1884.82 2.53436 2.94321 0
M  V30 19869 H 1886.55 2.78188 2.93927 0
M  V30 19870 H 1883.3 4.40532 1.73864 0
M  V30 19871 H 1883.73 6.74675 0.560599 0
M  V30 19872 H 1888.37 3.97758 1.43348 0
M  V30 19873 H 1886.09 8.07514 -0.307801 0
M  V30 19874 H 1889.67 5.80459 0.394746 0
M  V30 19875 H 1888.55 7.82831 -0.463183 0
M  V30 19876 N 1886.06 -0.713531 1.40522 0
M  V30 19877 C 1887.3 -1.47052 1.38637 0
M  V30 19878 C 1887.62 -1.94998 -0.00984474 0
M  V30 19879 O 1886.89 -1.70486 -0.964959 0
M  V30 19880 H 1885.47 -0.545577 0.51025 0
M  V30 19881 H 1888.14 -0.84572 1.75595 0
M  V30 19882 H 1887.23 -2.34237 2.06251 0
M  V30 19883 N 1887.53 -1.26053 -0.945962 0
M  V30 19884 C 1888.76 -1.14181 -1.7314 0
M  V30 19885 C 1889.18 0.299663 -1.85698 0
M  V30 19886 O 1888.54 1.21711 -1.34373 0
M  V30 19887 C 1888.59 -1.81052 -3.11854 0
M  V30 19888 O 1887.69 -1.09606 -3.97568 0
M  V30 19889 H 1887.03 -0.398138 -0.531397 0
M  V30 19890 H 1889.56 -1.66782 -1.18511 0
M  V30 19891 H 1889.57 -1.87685 -3.62269 0
M  V30 19892 H 1888.25 -2.85921 -3.0203 0
M  V30 19893 H 1886.83 -1.10915 -3.56023 0
M  V30 19894 N 1889.01 1.14984 -1.07779 0
M  V30 19895 C 1889.94 2.19494 -0.659934 0
M  V30 19896 C 1890.96 1.60201 0.289756 0
M  V30 19897 O 1892.15 1.78328 0.0784004 0
M  V30 19898 C 1889.25 3.38862 0.0506161 0
M  V30 19899 C 1888.42 4.27693 -0.916355 0
M  V30 19900 C 1887.48 5.25642 -0.242303 0
M  V30 19901 O 1886.5 5.62282 -0.884715 0
M  V30 19902 N 1887.71 5.7164 1.01033 0
M  V30 19903 H 1890.47 2.5596 -1.55899 0
M  V30 19904 H 1888.03 1.30143 -0.963043 0
M  V30 19905 H 1890.02 4.01444 0.512331 0
M  V30 19906 H 1888.59 3.00775 0.851671 0
M  V30 19907 H 1887.81 3.62145 -1.55708 0
M  V30 19908 H 1889.1 4.83913 -1.57182 0
M  V30 19909 H 1888.5 5.43991 1.55212 0
M  V30 19910 H 1887.06 6.36241 1.41565 0
M  V30 19911 N 1890.49 0.862526 1.31902 0
M  V30 19912 C 1891.44 0.301807 2.30634 0
M  V30 19913 C 1892.43 -0.579086 1.59195 0
M  V30 19914 O 1893.64 -0.466014 1.73863 0
M  V30 19915 H 1890.01 0.078905 0.747849 0
M  V30 19916 H 1891.98 1.1486 2.75408 0
M  V30 19917 C 1890.73 -0.48822 3.44255 0
M  V30 19918 H 1890.06 0.18033 3.99393 0
M  V30 19919 H 1891.5 -0.846013 4.15474 0
M  V30 19920 C 1889.95 -1.67656 2.92221 0
M  V30 19921 O 1890.48 -2.77577 2.90369 0
M  V30 19922 N 1888.69 -1.50622 2.48518 0
M  V30 19923 H 1888.24 -0.612021 2.50224 0
M  V30 19924 H 1888.2 -2.30275 2.14058 0
M  V30 19925 N 1891.97 -1.4484 0.62123 0
M  V30 19926 C 1893.19 -2.07012 0.126801 0
M  V30 19927 C 1893.62 -1.46046 -1.18542 0
M  V30 19928 O 1892.98 -0.558202 -1.72493 0
M  V30 19929 C 1893.02 -3.60597 0.0150611 0
M  V30 19930 O 1892.13 -3.9929 -1.03157 0
M  V30 19931 H 1891.47 -0.659131 0.0802646 0
M  V30 19932 H 1894 -1.85874 0.855105 0
M  V30 19933 H 1894.01 -4.07608 -0.178742 0
M  V30 19934 H 1892.68 -4.04354 0.973153 0
M  V30 19935 H 1891.26 -3.63927 -0.813135 0
M  V30 19936 N 1893.45 -0.361184 -1.53405 0
M  V30 19937 C 1894.38 0.479368 -2.28526 0
M  V30 19938 C 1895.36 1.08768 -1.3078 0
M  V30 19939 O 1896.54 1.10576 -1.59645 0
M  V30 19940 C 1893.67 1.6215 -3.07123 0
M  V30 19941 C 1892.63 1.14065 -4.12521 0
M  V30 19942 C 1891.95 2.37267 -4.79175 0
M  V30 19943 C 1893.25 0.228522 -5.218 0
M  V30 19944 H 1894.95 -0.147344 -2.99037 0
M  V30 19945 H 1892.49 -0.0723051 -1.43818 0
M  V30 19946 H 1894.45 2.21612 -3.58422 0
M  V30 19947 H 1893.17 2.27538 -2.34295 0
M  V30 19948 H 1891.83 0.568735 -3.62162 0
M  V30 19949 H 1891.48 3.01102 -4.02923 0
M  V30 19950 H 1891.18 2.05768 -5.50394 0
M  V30 19951 H 1892.7 2.97424 -5.33265 0
M  V30 19952 H 1894.11 0.730497 -5.68627 0
M  V30 19953 H 1892.51 0.00460259 -6.001 0
M  V30 19954 H 1893.58 -0.730537 -4.79365 0
M  V30 19955 N 1894.92 1.57341 -0.0902386 0
M  V30 19956 C 1896.17 1.94464 0.575461 0
M  V30 19957 C 1896.5 0.971819 1.68135 0
M  V30 19958 O 1895.78 0.00405665 1.945 0
M  V30 19959 C 1896.06 3.41739 1.13518 0
M  V30 19960 C 1895.91 4.49787 0.0346821 0
M  V30 19961 C 1897.23 3.90222 2.03506 0
M  V30 19962 H 1894.35 0.707123 0.207716 0
M  V30 19963 H 1896.99 1.89325 -0.15996 0
M  V30 19964 H 1895.14 3.46249 1.76192 0
M  V30 19965 H 1896.82 4.5739 -0.599326 0
M  V30 19966 H 1895.06 4.29166 -0.632342 0
M  V30 19967 H 1895.73 5.50021 0.467044 0
M  V30 19968 H 1898.21 3.87834 1.50744 0
M  V30 19969 H 1897.08 4.93846 2.39598 0
M  V30 19970 H 1897.34 3.29232 2.95057 0
M  V30 19971 N 1896.4 -0.183431 1.56529 0
M  V30 19972 C 1897.31 -1.24746 1.98684 0
M  V30 19973 C 1898.33 -1.49139 0.8963 0
M  V30 19974 O 1899.5 -1.61525 1.20298 0
M  V30 19975 C 1896.57 -2.56927 2.32786 0
M  V30 19976 C 1895.63 -2.40503 3.55607 0
M  V30 19977 C 1894.86 -3.66381 3.88073 0
M  V30 19978 O 1895.09 -4.71048 3.21668 0
M  V30 19979 O 1894.02 -3.61214 4.81465 0
M  V30 19980 H 1897.85 -0.919676 2.8944 0
M  V30 19981 H 1895.43 -0.389352 1.44237 0
M  V30 19982 H 1897.31 -3.34923 2.55744 0
M  V30 19983 H 1895.99 -2.89309 1.45196 0
M  V30 19984 H 1894.9 -1.6058 3.37883 0
M  V30 19985 H 1896.23 -2.1305 4.43701 0
M  V30 19986 N 1897.88 -1.50992 -0.451564 0
M  V30 19987 C 1898.81 -1.65941 -1.56648 0
M  V30 19988 C 1899.79 -0.507159 -1.54488 0
M  V30 19989 O 1900.98 -0.729186 -1.73825 0
M  V30 19990 C 1898.1 -1.65995 -2.95234 0
M  V30 19991 C 1897.15 -2.87016 -3.15474 0
M  V30 19992 S 1897.98 -4.48044 -2.93287 0
M  V30 19993 C 1899.14 -4.5082 -4.3418 0
M  V30 19994 H 1899.37 -2.60247 -1.43731 0
M  V30 19995 H 1896.9 -1.40499 -0.640276 0
M  V30 19996 H 1898.86 -1.6671 -3.75124 0
M  V30 19997 H 1897.52 -0.728911 -3.05525 0
M  V30 19998 H 1896.72 -2.83413 -4.16765 0
M  V30 19999 H 1896.32 -2.83969 -2.43388 0
M  V30 20000 H 1898.61 -4.25585 -5.27147 0
M  V30 20001 H 1899.55 -5.52554 -4.4282 0
M  V30 20002 H 1899.96 -3.80301 -4.17171 0
M  V30 20003 N 1899.36 0.706069 -1.40899 0
M  V30 20004 C 1900.29 1.83275 -1.44681 0
M  V30 20005 C 1901.27 1.67313 -0.306629 0
M  V30 20006 O 1902.45 1.87203 -0.516597 0
M  V30 20007 C 1899.58 3.21319 -1.318 0
M  V30 20008 C 1898.54 3.51969 -2.4352 0
M  V30 20009 C 1897.86 4.89258 -2.1571 0
M  V30 20010 C 1899.16 3.52004 -3.85864 0
M  V30 20011 H 1900.86 1.80367 -2.38973 0
M  V30 20012 H 1898.4 0.866349 -1.15023 0
M  V30 20013 H 1900.36 3.99841 -1.3306 0
M  V30 20014 H 1899.08 3.24827 -0.339879 0
M  V30 20015 H 1897.74 2.75792 -2.41525 0
M  V30 20016 H 1897.39 4.89378 -1.16266 0
M  V30 20017 H 1897.09 5.1073 -2.90566 0
M  V30 20018 H 1898.61 5.70102 -2.18669 0
M  V30 20019 H 1900.03 4.20548 -3.8963 0
M  V30 20020 H 1898.42 3.85005 -4.60316 0
M  V30 20021 H 1899.49 2.51191 -4.14766 0
M  V30 20022 N 1900.84 1.26553 0.939264 0
M  V30 20023 C 1902.08 1.1221 1.68568 0
M  V30 20024 C 1902.41 -0.334213 1.91607 0
M  V30 20025 O 1901.67 -1.26177 1.49593 0
M  V30 20026 C 1901.97 1.83848 3.06488 0
M  V30 20027 C 1901.63 3.33739 3.03198 0
M  V30 20028 C 1900.29 3.74626 3.02008 0
M  V30 20029 C 1902.65 4.29432 2.9536 0
M  V30 20030 C 1899.97 5.0959 2.90748 0
M  V30 20031 C 1902.33 5.64439 2.85641 0
M  V30 20032 C 1900.99 6.04635 2.82795 0
M  V30 20033 H 1900.26 0.410606 0.616833 0
M  V30 20034 H 1902.91 1.57019 1.09623 0
M  V30 20035 H 1901.21 1.31514 3.69068 0
M  V30 20036 H 1902.91 1.70189 3.63093 0
M  V30 20037 H 1899.5 3.01216 3.04905 0
M  V30 20038 H 1903.68 3.98824 2.95386 0
M  V30 20039 H 1898.94 5.39894 2.86923 0
M  V30 20040 H 1903.11 6.3827 2.7854 0
M  V30 20041 H 1900.74 7.09171 2.73826 0
M  V30 20042 N 1902.31 -1.14411 1.08387 0
M  V30 20043 C 1903.24 -2.21619 0.735327 0
M  V30 20044 C 1904.23 -1.67744 -0.282132 0
M  V30 20045 O 1905.41 -1.936 -0.152547 0
M  V30 20046 C 1902.54 -3.47003 0.143628 0
M  V30 20047 C 1901.49 -4.13903 1.08941 0
M  V30 20048 C 1900.82 -5.33487 0.359941 0
M  V30 20049 C 1902.12 -4.62463 2.42746 0
M  V30 20050 H 1903.81 -2.51031 1.63168 0
M  V30 20051 H 1901.36 -1.20658 0.785981 0
M  V30 20052 H 1903.31 -4.21251 -0.112217 0
M  V30 20053 H 1902.04 -3.16955 -0.787856 0
M  V30 20054 H 1900.7 -3.4161 1.33035 0
M  V30 20055 H 1900.34 -4.99699 -0.57534 0
M  V30 20056 H 1900.04 -5.79192 0.990451 0
M  V30 20057 H 1901.57 -6.10497 0.112145 0
M  V30 20058 H 1902.98 -5.28185 2.22919 0
M  V30 20059 H 1901.38 -5.18869 3.01488 0
M  V30 20060 H 1902.45 -3.77542 3.04286 0
M  V30 20061 N 1903.79 -0.869509 -1.31443 0
M  V30 20062 C 1905.21 -0.561369 -1.49402 0
M  V30 20063 C 1905.41 0.90461 -1.80053 0
M  V30 20064 O 1904.46 1.68681 -1.87891 0
M  V30 20065 C 1905.78 -1.46118 -2.62812 0
M  V30 20066 C 1907.33 -1.46317 -2.76695 0
M  V30 20067 C 1907.8 -2.34855 -3.93201 0
M  V30 20068 N 1909.29 -2.32732 -4.00487 0
M  V30 20069 C 1910.03 -2.97959 -4.89906 0
M  V30 20070 N 1909.52 -3.72353 -5.8423 0
M  V30 20071 N 1911.32 -2.8727 -4.83149 0
M  V30 20072 H 1903.47 -1.81808 -1.09816 0
M  V30 20073 H 1905.73 -0.777367 -0.542591 0
M  V30 20074 H 1905.44 -2.5043 -2.46936 0
M  V30 20075 H 1905.31 -1.15938 -3.5894 0
M  V30 20076 H 1907.7 -0.427634 -2.91985 0
M  V30 20077 H 1907.78 -1.8052 -1.81235 0
M  V30 20078 H 1907.42 -3.38485 -3.78669 0
M  V30 20079 H 1907.35 -1.97976 -4.87968 0
M  V30 20080 H 1909.84 -1.78657 -3.33002 0
M  V30 20081 H 1910.16 -4.19253 -6.4919 0
M  V30 20082 H 1908.5 -3.76461 -5.8421 0
M  V30 20083 H 1911.69 -2.28689 -4.08435 0
M  V30 20084 H 1911.86 -3.38383 -5.52631 0
M  V30 20085 N 1905.27 1.44508 -0.628902 0
M  V30 20086 C 1906.2 2.33412 0.0642512 0
M  V30 20087 C 1907.18 1.48077 0.837091 0
M  V30 20088 O 1908.37 1.76802 0.803415 0
M  V30 20089 C 1905.5 3.31112 1.04795 0
M  V30 20090 C 1904.45 4.26248 0.386897 0
M  V30 20091 C 1903.78 5.13799 1.48035 0
M  V30 20092 C 1905.08 5.17514 -0.705449 0
M  V30 20093 H 1906.77 2.91619 -0.678133 0
M  V30 20094 H 1904.32 1.40225 -0.327558 0
M  V30 20095 H 1906.27 3.9219 1.54159 0
M  V30 20096 H 1904.99 2.71109 1.8212 0
M  V30 20097 H 1903.65 3.66499 -0.0860697 0
M  V30 20098 H 1903.3 4.5015 2.24441 0
M  V30 20099 H 1903 5.78262 1.04342 0
M  V30 20100 H 1904.52 5.77748 1.97583 0
M  V30 20101 H 1905.94 5.7254 -0.295004 0
M  V30 20102 H 1904.34 5.90567 -1.06538 0
M  V30 20103 H 1905.41 4.5866 -1.57349 0
M  V30 20104 N 1906.75 0.369315 1.53212 0
M  V30 20105 C 1907.97 -0.222451 2.06204 0
M  V30 20106 C 1908.4 -1.41373 1.24077 0
M  V30 20107 O 1907.76 -1.79415 0.260767 0
M  V30 20108 C 1907.81 -0.590386 3.55734 0
M  V30 20109 O 1906.91 -1.68711 3.76311 0
M  V30 20110 H 1906.25 -0.0315041 0.663252 0
M  V30 20111 H 1908.78 0.531 1.97589 0
M  V30 20112 H 1908.79 -0.860345 3.98826 0
M  V30 20113 H 1907.47 0.28067 4.14952 0
M  V30 20114 H 1906.04 -1.41242 3.45116 0
M  V30 20115 N 1908.23 -1.57291 0.0985816 0
M  V30 20116 C 1909.16 -2.17239 -0.856131 0
M  V30 20117 C 1910.14 -1.10669 -1.29176 0
M  V30 20118 O 1911.32 -1.38821 -1.35803 0
M  V30 20119 C 1908.45 -2.75551 -2.11398 0
M  V30 20120 C 1907.41 -3.87524 -1.81685 0
M  V30 20121 C 1906.73 -4.32553 -3.14327 0
M  V30 20122 C 1908.03 -5.10562 -1.10108 0
M  V30 20123 H 1909.73 -2.97268 -0.356657 0
M  V30 20124 H 1907.27 -1.42992 -0.170108 0
M  V30 20125 H 1909.23 -3.16141 -2.78627 0
M  V30 20126 H 1907.95 -1.92781 -2.63634 0
M  V30 20127 H 1906.61 -3.47478 -1.16853 0
M  V30 20128 H 1906.26 -3.46669 -3.64458 0
M  V30 20129 H 1905.96 -5.08049 -2.95228 0
M  V30 20130 H 1907.48 -4.7578 -3.82709 0
M  V30 20131 H 1908.9 -5.483 -1.67453 0
M  V30 20132 H 1907.29 -5.91509 -1.01176 0
M  V30 20133 H 1908.36 -4.84827 -0.0844041 0
M  V30 20134 N 1909.71 0.175127 -1.56624 0
M  V30 20135 C 1911.12 0.737951 -1.71497 0
M  V30 20136 C 1911.47 1.82962 -0.708475 0
M  V30 20137 O 1910.59 2.16003 0.13096 0
M  V30 20138 C 1911.19 1.34536 -3.10943 0
M  V30 20139 C 1909.75 1.85505 -3.27513 0
M  V30 20140 C 1908.89 0.732564 -2.67449 0
M  V30 20141 H 1911.84 -0.0502185 -1.58621 0
M  V30 20142 H 1911.87 2.21502 -3.09382 0
M  V30 20143 H 1911.38 0.5506 -3.84174 0
M  V30 20144 H 1909.48 2.67637 -2.59232 0
M  V30 20145 H 1909.59 2.00311 -4.35215 0
M  V30 20146 H 1907.96 1.15203 -2.27157 0
M  V30 20147 H 1908.74 -0.050288 -3.43263 0
M  V30 20148 N 1911.18 1.5123 0.44355 0
M  V30 20149 C 1912.43 1.63833 1.19527 0
M  V30 20150 C 1912.76 0.350544 1.9101 0
M  V30 20151 O 1912.04 -0.649546 1.83333 0
M  V30 20152 C 1912.32 2.83747 2.21719 0
M  V30 20153 C 1912.17 4.22484 1.5436 0
M  V30 20154 C 1913.49 2.99184 3.22765 0
M  V30 20155 H 1910.61 0.596256 0.433184 0
M  V30 20156 H 1913.25 1.83697 0.485321 0
M  V30 20157 H 1911.4 2.66942 2.82267 0
M  V30 20158 H 1913.08 4.50944 0.971976 0
M  V30 20159 H 1911.32 4.25469 0.846069 0
M  V30 20160 H 1911.99 5.0237 2.28754 0
M  V30 20161 H 1914.47 3.14659 2.72266 0
M  V30 20162 H 1913.34 3.84663 3.91569 0
M  V30 20163 H 1913.6 2.10984 3.88508 0
M  V30 20164 N 1912.66 -0.698586 1.41271 0
M  V30 20165 C 1913.59 -1.82385 1.38811 0
M  V30 20166 C 1914.61 -1.60183 0.290752 0
M  V30 20167 O 1915.8 -1.69742 0.552272 0
M  V30 20168 C 1912.9 -3.19095 1.14155 0
M  V30 20169 C 1912.07 -3.68352 2.35872 0
M  V30 20170 C 1911.13 -4.83723 2.07119 0
M  V30 20171 O 1910.15 -4.95495 2.80132 0
M  V30 20172 N 1911.36 -5.70748 1.05958 0
M  V30 20173 H 1914.12 -1.84989 2.35795 0
M  V30 20174 H 1911.68 -0.880792 1.35844 0
M  V30 20175 H 1913.67 -3.93899 0.928763 0
M  V30 20176 H 1912.24 -3.11535 0.257783 0
M  V30 20177 H 1911.46 -2.8449 2.72872 0
M  V30 20178 H 1912.75 -3.97999 3.16977 0
M  V30 20179 H 1912.15 -5.63865 0.455223 0
M  V30 20180 H 1910.71 -6.45463 0.906689 0
M  V30 20181 N 1914.14 -1.27049 -0.93254 0
M  V30 20182 C 1915.39 -1.13103 -1.6797 0
M  V30 20183 C 1915.71 0.324047 -1.91782 0
M  V30 20184 O 1914.97 1.25381 -1.5026 0
M  V30 20185 C 1915.27 -1.8547 -3.05509 0
M  V30 20186 C 1914.93 -3.35342 -3.01424 0
M  V30 20187 C 1913.6 -3.76222 -3.00017 0
M  V30 20188 C 1915.95 -4.30993 -2.93078 0
M  V30 20189 C 1913.28 -5.11125 -2.88041 0
M  V30 20190 C 1915.63 -5.65946 -2.82644 0
M  V30 20191 C 1914.29 -6.06126 -2.79585 0
M  V30 20192 H 1913.56 -0.413872 -0.614647 0
M  V30 20193 H 1916.21 -1.57598 -1.08789 0
M  V30 20194 H 1914.51 -1.33469 -3.68366 0
M  V30 20195 H 1916.21 -1.72112 -3.62186 0
M  V30 20196 H 1912.8 -3.02828 -3.03303 0
M  V30 20197 H 1916.99 -4.00385 -2.93267 0
M  V30 20198 H 1912.24 -5.41408 -2.84056 0
M  V30 20199 H 1916.42 -6.39738 -2.75151 0
M  V30 20200 H 1914.04 -7.10613 -2.70061 0
M  V30 20201 N 1915.62 1.13835 -1.08993 0
M  V30 20202 C 1916.57 2.17155 -0.694818 0
M  V30 20203 C 1917.55 1.58291 0.28858 0
M  V30 20204 O 1918.74 1.76719 0.0996503 0
M  V30 20205 C 1915.87 3.43117 -0.112138 0
M  V30 20206 C 1914.96 4.08998 -1.12168 0
M  V30 20207 N 1915.35 4.50111 -2.30724 0
M  V30 20208 C 1913.65 4.35572 -0.958807 0
M  V30 20209 C 1914.35 5.01403 -2.94907 0
M  V30 20210 N 1913.32 4.95984 -2.22487 0
M  V30 20211 H 1917.13 2.46691 -1.59752 0
M  V30 20212 H 1914.64 1.30583 -0.965503 0
M  V30 20213 H 1916.64 4.16472 0.188914 0
M  V30 20214 H 1915.3 3.15056 0.785468 0
M  V30 20215 H 1916.31 4.42959 -2.68343 0
M  V30 20216 H 1912.99 4.1734 -0.11551 0
M  V30 20217 H 1914.38 5.43044 -3.95667 0
M  V30 20218 N 1917.1 0.876467 1.3098 0
M  V30 20219 C 1918.03 0.294228 2.27304 0
M  V30 20220 C 1919.04 -0.546404 1.53357 0
M  V30 20221 O 1920.23 -0.367339 1.74679 0
M  V30 20222 C 1917.33 -0.600972 3.33529 0
M  V30 20223 C 1916.5 0.208678 4.36902 0
M  V30 20224 C 1915.56 -0.615677 5.22586 0
M  V30 20225 O 1914.59 -0.0413981 5.69185 0
M  V30 20226 N 1915.79 -1.92644 5.47603 0
M  V30 20227 H 1918.55 1.12201 2.77905 0
M  V30 20228 H 1916.12 0.738597 1.44071 0
M  V30 20229 H 1918.11 -1.15831 3.8777 0
M  V30 20230 H 1916.68 -1.32943 2.82922 0
M  V30 20231 H 1915.9 0.947462 3.82644 0
M  V30 20232 H 1917.19 0.763998 5.03031 0
M  V30 20233 H 1916.58 -2.41605 5.11511 0
M  V30 20234 H 1915.14 -2.43141 6.04752 0
M  V30 20235 N 1918.57 -1.44173 0.636557 0
M  V30 20236 C 1919.52 -2.27834 -0.087113 0
M  V30 20237 C 1920.51 -1.3897 -0.810926 0
M  V30 20238 O 1921.7 -1.62736 -0.696139 0
M  V30 20239 C 1918.83 -3.26385 -1.06431 0
M  V30 20240 C 1917.91 -4.22736 -0.339835 0
M  V30 20241 N 1918.31 -5.01804 0.634535 0
M  V30 20242 C 1916.6 -4.42166 -0.583549 0
M  V30 20243 C 1917.3 -5.71904 1.06306 0
M  V30 20244 N 1916.28 -5.42121 0.400722 0
M  V30 20245 H 1920.08 -2.86375 0.660817 0
M  V30 20246 H 1917.6 -1.55675 0.462493 0
M  V30 20247 H 1919.59 -3.85083 -1.5974 0
M  V30 20248 H 1918.25 -2.69405 -1.81248 0
M  V30 20249 H 1919.26 -5.07905 1.01258 0
M  V30 20250 H 1915.94 -3.96277 -1.31417 0
M  V30 20251 H 1917.33 -6.45401 1.86835 0
M  V30 20252 N 1920.05 -0.377435 -1.53014 0
M  V30 20253 C 1921.3 0.20853 -2.01423 0
M  V30 20254 C 1921.63 1.47801 -1.26433 0
M  V30 20255 O 1920.88 1.92551 -0.34966 0
M  V30 20256 C 1921.18 0.534659 -3.53378 0
M  V30 20257 C 1920.85 -0.641876 -4.46308 0
M  V30 20258 C 1919.51 -0.964671 -4.71431 0
M  V30 20259 C 1921.86 -1.42954 -5.01212 0
M  V30 20260 C 1919.19 -2.07689 -5.4871 0
M  V30 20261 C 1921.54 -2.53227 -5.79706 0
M  V30 20262 C 1920.2 -2.86028 -6.03112 0
M  V30 20263 H 1919.47 0.0763064 -0.737061 0
M  V30 20264 H 1922.12 -0.51234 -1.84519 0
M  V30 20265 H 1920.43 1.3367 -3.68293 0
M  V30 20266 H 1922.12 1.00048 -3.88319 0
M  V30 20267 H 1918.71 -0.380266 -4.2691 0
M  V30 20268 H 1922.9 -1.1934 -4.81738 0
M  V30 20269 H 1918.15 -2.33487 -5.65061 0
M  V30 20270 H 1922.33 -3.14669 -6.21254 0
M  V30 20271 H 1919.95 -3.72332 -6.62777 0
M  V30 20272 N 1921.53 1.57237 -0.106922 0
M  V30 20273 C 1922.95 1.57634 0.249708 0
M  V30 20274 C 1923.15 1.11888 1.67581 0
M  V30 20275 O 1922.2 0.80073 2.39467 0
M  V30 20276 C 1923.52 3.00688 0.0273757 0
M  V30 20277 C 1925.06 3.12858 0.0942116 0
M  V30 20278 C 1925.54 4.5789 -0.100275 0
M  V30 20279 N 1927.03 4.63177 -0.045837 0
M  V30 20280 C 1927.76 5.73144 -0.171398 0
M  V30 20281 N 1927.26 6.91903 -0.352455 0
M  V30 20282 N 1929.05 5.61989 -0.111827 0
M  V30 20283 H 1921.2 1.85278 -1.03855 0
M  V30 20284 H 1923.47 0.855717 -0.407985 0
M  V30 20285 H 1923.17 3.38399 -0.958063 0
M  V30 20286 H 1923.05 3.6937 0.764546 0
M  V30 20287 H 1925.43 2.75012 1.07016 0
M  V30 20288 H 1925.52 2.46743 -0.674643 0
M  V30 20289 H 1925.16 4.96433 -1.07315 0
M  V30 20290 H 1925.09 5.22081 0.688418 0
M  V30 20291 H 1927.58 3.7779 0.0910806 0
M  V30 20292 H 1927.89 7.7155 -0.439454 0
M  V30 20293 H 1926.24 6.93915 -0.388274 0
M  V30 20294 H 1929.43 4.68091 0.0285732 0
M  V30 20295 H 1929.6 6.47649 -0.213127 0
M  V30 20296 N 1923.01 -0.166818 1.56715 0
M  V30 20297 C 1924.25 -0.889157 1.84047 0
M  V30 20298 C 1924.61 -1.79232 0.688478 0
M  V30 20299 O 1925.81 -2.5526 0.842361 0
M  V30 20300 C 1924.08 -1.66005 3.16508 0
M  V30 20301 S 1925.64 -2.43054 3.65336 0
M  V30 20302 H 1922.46 -0.297718 0.645666 0
M  V30 20303 H 1925.06 -0.150479 1.9492 0
M  V30 20304 H 1923.77 -0.987677 3.98338 0
M  V30 20305 H 1923.3 -2.44002 3.08588 0
M  V30 20306 H 1925.31 -3.67847 3.33021 0
M  V30 20307 N 1924.49 -1.51463 -0.435524 0
M  V30 20308 C 1925.71 -1.68031 -1.20719 0
M  V30 20309 C 1926.13 -0.378427 -1.84969 0
M  V30 20310 O 1925.49 0.643234 -1.70789 0
M  V30 20311 C 1925.54 -2.79726 -2.28989 0
M  V30 20312 O 1925.26 -4.0487 -1.67367 0
M  V30 20313 C 1926.76 -3.07578 -3.19234 0
M  V30 20314 H 1923.98 -0.56383 -0.363781 0
M  V30 20315 H 1926.52 -1.97888 -0.515825 0
M  V30 20316 H 1924.68 -2.52463 -2.93839 0
M  V30 20317 H 1925.09 -4.66915 -2.38937 0
M  V30 20318 H 1926.57 -3.89309 -3.91334 0
M  V30 20319 H 1927.04 -2.20059 -3.80093 0
M  V30 20320 H 1927.65 -3.36507 -2.60083 0
M  V30 20321 N 1925.96 0.691085 -1.4164 0
M  V30 20322 C 1926.93 1.78671 -1.43559 0
M  V30 20323 C 1927.93 1.5747 -0.325543 0
M  V30 20324 O 1929.12 1.64061 -0.585631 0
M  V30 20325 C 1926.25 3.17102 -1.25135 0
M  V30 20326 H 1927.44 1.78361 -2.41096 0
M  V30 20327 H 1925 0.899148 -1.27848 0
M  V30 20328 H 1925.73 3.23049 -0.284567 0
M  V30 20329 H 1925.52 3.33893 -2.05567 0
M  V30 20330 H 1927.01 3.97071 -1.29324 0
M  V30 20331 N 1927.44 1.27542 0.925789 0
M  V30 20332 C 1928.69 1.13767 1.67038 0
M  V30 20333 C 1929.01 -0.316603 1.92413 0
M  V30 20334 O 1928.28 -1.22124 1.53175 0
M  V30 20335 H 1926.86 0.41803 0.61908 0
M  V30 20336 H 1929.52 1.60097 1.11153 0
M  V30 20337 H 1928.62 1.66818 2.63777 0
M  V30 20338 N 1928.92 -1.13255 1.09595 0
M  V30 20339 C 1929.88 -2.16909 0.740481 0
M  V30 20340 C 1930.88 -1.59135 -0.230794 0
M  V30 20341 O 1932.07 -1.74198 -0.00875551 0
M  V30 20342 C 1929.21 -3.40767 0.0953504 0
M  V30 20343 H 1930.4 -2.49869 1.65848 0
M  V30 20344 H 1927.95 -1.28113 0.895358 0
M  V30 20345 H 1928.69 -3.13398 -0.833794 0
M  V30 20346 H 1928.47 -3.83972 0.794247 0
M  V30 20347 H 1929.96 -4.17372 -0.137892 0
M  V30 20348 N 1930.4 -0.883401 -1.30514 0
M  V30 20349 C 1931.63 -0.515948 -2.00364 0
M  V30 20350 C 1932.04 0.895148 -1.6623 0
M  V30 20351 O 1931.4 1.58844 -0.898601 0
M  V30 20352 C 1931.45 -0.679282 -3.55061 0
M  V30 20353 O 1931.17 -2.03482 -3.87978 0
M  V30 20354 C 1932.67 -0.314612 -4.42182 0
M  V30 20355 H 1929.89 -0.199595 -0.640627 0
M  V30 20356 H 1932.44 -1.18827 -1.66435 0
M  V30 20357 H 1930.59 -0.0543511 -3.87362 0
M  V30 20358 H 1931 -2.0523 -4.82681 0
M  V30 20359 H 1932.48 -0.4798 -5.49911 0
M  V30 20360 H 1932.96 0.747247 -4.32797 0
M  V30 20361 H 1933.56 -0.9158 -4.15323 0
M  V30 20362 N 1931.88 1.43833 -0.644194 0
M  V30 20363 C 1933.29 1.85218 -0.23478 0
M  V30 20364 C 1933.64 1.53918 1.2167 0
M  V30 20365 O 1932.76 0.983677 1.92751 0
M  V30 20366 C 1933.36 3.36195 -0.419327 0
M  V30 20367 C 1931.92 3.76345 -0.0643105 0
M  V30 20368 C 1931.06 2.67614 -0.726506 0
M  V30 20369 H 1934.02 1.34114 -0.84848 0
M  V30 20370 H 1934.04 3.78997 0.33787 0
M  V30 20371 H 1933.55 3.58944 -1.47582 0
M  V30 20372 H 1931.65 3.59209 0.989939 0
M  V30 20373 H 1931.76 4.76654 -0.483481 0
M  V30 20374 H 1930.13 2.54193 -0.160575 0
M  V30 20375 H 1930.91 2.93193 -1.78585 0
M  V30 20376 N 1933.35 0.385544 1.52811 0
M  V30 20377 C 1934.28 -0.442951 2.2926 0
M  V30 20378 C 1935.27 -1.06674 1.32494 0
M  V30 20379 O 1936.45 -1.08022 1.61384 0
M  V30 20380 C 1933.58 -1.57243 3.09664 0
M  V30 20381 C 1932.53 -1.07488 4.14283 0
M  V30 20382 C 1931.86 -2.29614 4.82889 0
M  V30 20383 C 1933.16 -0.145479 5.22097 0
M  V30 20384 H 1934.85 0.1949 2.98765 0
M  V30 20385 H 1932.4 0.0951762 1.43685 0
M  V30 20386 H 1934.35 -2.15882 3.61902 0
M  V30 20387 H 1933.08 -2.23781 2.37885 0
M  V30 20388 H 1931.74 -0.511047 3.6302 0
M  V30 20389 H 1931.38 -2.94653 4.07662 0
M  V30 20390 H 1931.08 -1.96985 5.53598 0
M  V30 20391 H 1932.61 -2.88902 5.37929 0
M  V30 20392 H 1934.02 -0.639941 5.69717 0
M  V30 20393 H 1932.42 0.0908687 6.00031 0
M  V30 20394 H 1933.49 0.806707 4.78142 0
M  V30 20395 N 1934.83 -1.57178 0.115259 0
M  V30 20396 C 1935.8 -2.13953 -0.821982 0
M  V30 20397 C 1936.8 -1.07352 -1.19717 0
M  V30 20398 O 1937.99 -1.33146 -1.12329 0
M  V30 20399 C 1935.12 -2.6767 -2.11106 0
M  V30 20400 H 1936.31 -2.98094 -0.328631 0
M  V30 20401 H 1933.86 -1.55725 -0.133942 0
M  V30 20402 H 1934.6 -1.87106 -2.6488 0
M  V30 20403 H 1934.38 -3.4563 -1.85155 0
M  V30 20404 H 1935.87 -3.11519 -2.78111 0
M  V30 20405 N 1936.31 0.158505 -1.56801 0
M  V30 20406 C 1937.72 0.71972 -1.7227 0
M  V30 20407 C 1938.07 1.822 -0.72784 0
M  V30 20408 O 1937.2 2.1613 0.108043 0
M  V30 20409 C 1937.79 1.31231 -3.12352 0
M  V30 20410 C 1936.35 1.82021 -3.29462 0
M  V30 20411 C 1935.5 0.704157 -2.68211 0
M  V30 20412 H 1938.45 -0.0670395 -1.58558 0
M  V30 20413 H 1938.47 2.18208 -3.11714 0
M  V30 20414 H 1937.98 0.509823 -3.84737 0
M  V30 20415 H 1936.08 2.64873 -2.62056 0
M  V30 20416 H 1936.2 1.95684 -4.37315 0
M  V30 20417 H 1934.56 1.12787 -2.28366 0
M  V30 20418 H 1935.34 -0.0866929 -3.43191 0
M  V30 20419 N 1937.79 1.51692 0.427485 0
M  V30 20420 C 1939.2 1.57214 1.007 0
M  V30 20421 C 1939.55 0.401527 1.92047 0
M  V30 20422 O 1938.68 -0.480464 2.10999 0
M  V30 20423 C 1939.27 2.84927 1.83309 0
M  V30 20424 C 1937.83 2.92989 2.36294 0
M  V30 20425 C 1936.98 2.51977 1.15772 0
M  V30 20426 H 1939.93 1.57326 0.208386 0
M  V30 20427 H 1939.95 2.69245 2.68863 0
M  V30 20428 H 1939.46 3.70108 1.16799 0
M  V30 20429 H 1937.56 2.1226 3.06229 0
M  V30 20430 H 1937.68 3.9685 2.68416 0
M  V30 20431 H 1936.04 2.054 1.50608 0
M  V30 20432 H 1936.82 3.39512 0.508568 0
M  V30 20433 N 1939.27 -0.683564 1.42004 0
M  V30 20434 C 1940.52 -1.44078 1.41725 0
M  V30 20435 C 1940.84 -1.94975 0.0315193 0
M  V30 20436 O 1940.11 -1.72494 -0.928579 0
M  V30 20437 H 1938.69 -0.534631 0.521707 0
M  V30 20438 H 1941.35 -0.808284 1.77349 0
M  V30 20439 H 1940.44 -2.29809 2.11174 0
M  V30 20440 N 1940.75 -1.28031 -0.919012 0
M  V30 20441 C 1941.68 -1.14034 -2.03761 0
M  V30 20442 C 1942.66 -0.039495 -1.70054 0
M  V30 20443 O 1943.84 -0.215546 -1.93 0
M  V30 20444 C 1940.97 -0.795894 -3.38057 0
M  V30 20445 C 1939.93 -1.85093 -3.85907 0
M  V30 20446 C 1939.25 -1.36024 -5.17109 0
M  V30 20447 C 1940.55 -3.25658 -4.08343 0
M  V30 20448 H 1942.25 -2.07609 -2.15729 0
M  V30 20449 H 1939.79 -0.999558 -1.03657 0
M  V30 20450 H 1941.74 -0.684762 -4.15799 0
M  V30 20451 H 1940.47 0.175558 -3.26128 0
M  V30 20452 H 1939.13 -1.95112 -3.10366 0
M  V30 20453 H 1938.78 -0.378004 -5.01578 0
M  V30 20454 H 1938.48 -2.06568 -5.50094 0
M  V30 20455 H 1940 -1.26223 -5.97411 0
M  V30 20456 H 1941.41 -3.1859 -4.76627 0
M  V30 20457 H 1939.81 -3.93989 -4.52651 0
M  V30 20458 H 1940.88 -3.70066 -3.13335 0
M  V30 20459 N 1942.22 1.12672 -1.10194 0
M  V30 20460 C 1943.16 2.18045 -0.706344 0
M  V30 20461 C 1944.17 1.60779 0.25571 0
M  V30 20462 O 1945.36 1.78454 0.0405568 0
M  V30 20463 C 1942.46 3.38893 -0.021273 0
M  V30 20464 C 1941.63 4.25654 -1.00687 0
M  V30 20465 C 1940.69 5.2501 -0.353745 0
M  V30 20466 O 1939.72 5.60279 -1.00378 0
M  V30 20467 N 1940.92 5.73655 0.888851 0
M  V30 20468 H 1943.68 2.52596 -1.61293 0
M  V30 20469 H 1941.24 1.28071 -0.990431 0
M  V30 20470 H 1943.24 4.0244 0.427064 0
M  V30 20471 H 1941.81 3.02513 0.787681 0
M  V30 20472 H 1941.03 3.5876 -1.63354 0
M  V30 20473 H 1942.31 4.8047 -1.67411 0
M  V30 20474 H 1941.71 5.4716 1.43638 0
M  V30 20475 H 1940.27 6.39101 1.28038 0
M  V30 20476 N 1943.7 0.89031 1.30043 0
M  V30 20477 C 1945.11 0.561241 1.78065 0
M  V30 20478 C 1945.46 -0.922791 1.73144 0
M  V30 20479 O 1944.59 -1.72124 1.31157 0
M  V30 20480 C 1945.18 1.01201 3.23332 0
M  V30 20481 C 1943.74 0.734261 3.69169 0
M  V30 20482 C 1942.89 1.19199 2.50373 0
M  V30 20483 H 1945.84 1.074 1.16838 0
M  V30 20484 H 1945.86 0.343251 3.78949 0
M  V30 20485 H 1945.37 2.09213 3.26881 0
M  V30 20486 H 1943.47 -0.33365 3.71103 0
M  V30 20487 H 1943.59 1.32556 4.60397 0
M  V30 20488 H 1941.95 0.6112 2.47258 0
M  V30 20489 H 1942.73 2.27997 2.56656 0
M  V30 20490 N 1945.18 -1.43489 0.651812 0
M  V30 20491 C 1946.59 -1.85091 0.2446 0
M  V30 20492 C 1946.94 -1.54561 -1.20852 0
M  V30 20493 O 1946.07 -0.993885 -1.92226 0
M  V30 20494 C 1946.66 -3.35968 0.43715 0
M  V30 20495 C 1945.22 -3.76306 0.0842681 0
M  V30 20496 C 1944.37 -2.67225 0.740688 0
M  V30 20497 H 1947.32 -1.33662 0.855581 0
M  V30 20498 H 1947.34 -3.79171 -0.317766 0
M  V30 20499 H 1946.85 -3.58157 1.49484 0
M  V30 20500 H 1944.95 -3.59729 -0.970875 0
M  V30 20501 H 1945.07 -4.76391 0.508752 0
M  V30 20502 H 1943.43 -2.54105 0.174053 0
M  V30 20503 H 1944.21 -2.92242 1.80137 0
M  V30 20504 N 1946.66 -0.393643 -1.52605 0
M  V30 20505 C 1947.62 0.427358 -2.25181 0
M  V30 20506 C 1948.62 0.986595 -1.26976 0
M  V30 20507 O 1949.81 0.867913 -1.51039 0
M  V30 20508 C 1946.94 1.60001 -3.01019 0
M  V30 20509 H 1948.14 -0.208101 -2.99177 0
M  V30 20510 H 1945.69 -0.145844 -1.55618 0
M  V30 20511 H 1946.42 2.27278 -2.31334 0
M  V30 20512 H 1946.21 1.20567 -3.73103 0
M  V30 20513 H 1947.7 2.18115 -3.56112 0
M  V30 20514 N 1948.14 1.57115 -0.123593 0
M  V30 20515 C 1949.05 2.19104 0.838493 0
M  V30 20516 C 1950.06 1.1685 1.28927 0
M  V30 20517 O 1951.24 1.49337 1.35131 0
M  V30 20518 C 1948.3 2.78191 2.06908 0
M  V30 20519 C 1947.36 3.95495 1.66979 0
M  V30 20520 C 1946.6 4.51755 2.84171 0
M  V30 20521 O 1946.82 4.06908 3.99728 0
M  V30 20522 O 1945.75 5.42372 2.60991 0
M  V30 20523 H 1949.58 3.0178 0.340935 0
M  V30 20524 H 1947.16 1.4905 0.102255 0
M  V30 20525 H 1949.05 3.15837 2.78971 0
M  V30 20526 H 1947.72 1.98542 2.55661 0
M  V30 20527 H 1946.63 3.62609 0.920091 0
M  V30 20528 H 1947.96 4.76593 1.22963 0
M  V30 20529 N 1949.61 -0.150187 1.56883 0
M  V30 20530 C 1950.89 -0.891842 1.74085 0
M  V30 20531 C 1951.27 -1.99479 0.690751 0
M  V30 20532 O 1950.62 -2.26641 -0.290877 0
M  V30 20533 C 1950.83 -1.43722 3.18033 0
M  V30 20534 C 1952.18 -1.90188 3.79623 0
M  V30 20535 O 1953.2 -1.53471 3.21442 0
M  V30 20536 O 1952.06 -2.57892 4.81824 0
M  V30 20537 H 1949.15 -0.421241 0.711678 0
M  V30 20538 H 1951.7 -0.136362 1.69151 0
M  V30 20539 H 1950.47 -0.644422 3.85957 0
M  V30 20540 H 1950.09 -2.2563 3.27379 0
M  V30 20541 N 1951.09 -1.51916 -0.419434 0
M  V30 20542 C 1952 -1.77393 -1.53522 0
M  V30 20543 C 1953.02 -0.65897 -1.61039 0
M  V30 20544 O 1954.19 -0.943237 -1.77947 0
M  V30 20545 C 1951.26 -1.90988 -2.89352 0
M  V30 20546 C 1950.32 -3.14878 -2.91805 0
M  V30 20547 C 1949.55 -3.27815 -4.21157 0
M  V30 20548 O 1949.78 -2.4626 -5.14502 0
M  V30 20549 O 1948.71 -4.20906 -4.30258 0
M  V30 20550 H 1952.54 -2.72079 -1.34932 0
M  V30 20551 H 1950.12 -1.36635 -0.604259 0
M  V30 20552 H 1952 -2.01812 -3.69932 0
M  V30 20553 H 1950.68 -0.994906 -3.08031 0
M  V30 20554 H 1949.59 -3.0952 -2.10115 0
M  V30 20555 H 1950.92 -4.06123 -2.78073 0
M  V30 20556 N 1952.57 0.676023 -1.42365 0
M  V30 20557 C 1953.53 1.77138 -1.45446 0
M  V30 20558 C 1954.53 1.57116 -0.342226 0
M  V30 20559 O 1955.72 1.63431 -0.602999 0
M  V30 20560 C 1952.86 3.15757 -1.28492 0
M  V30 20561 H 1954.05 1.75794 -2.42974 0
M  V30 20562 H 1951.6 0.885538 -1.28794 0
M  V30 20563 H 1952.34 3.22729 -0.318815 0
M  V30 20564 H 1952.12 3.31694 -2.09097 0
M  V30 20565 H 1953.61 3.95677 -1.33528 0
M  V30 20566 N 1954.05 1.28517 0.912209 0
M  V30 20567 C 1955.46 1.06257 1.19087 0
M  V30 20568 C 1955.66 -0.194098 2.00563 0
M  V30 20569 O 1954.72 -0.895341 2.36093 0
M  V30 20570 C 1956.03 2.31094 1.92396 0
M  V30 20571 C 1957.58 2.36288 2.05273 0
M  V30 20572 C 1958.06 3.60896 2.8199 0
M  V30 20573 N 1959.55 3.61545 2.89551 0
M  V30 20574 C 1960.28 4.54639 3.49416 0
M  V30 20575 N 1959.78 5.58053 4.10547 0
M  V30 20576 N 1961.57 4.42231 3.46969 0
M  V30 20577 H 1953.72 2.09183 0.368283 0
M  V30 20578 H 1955.99 0.920767 0.225593 0
M  V30 20579 H 1955.69 3.22653 1.39956 0
M  V30 20580 H 1955.57 2.37627 2.92939 0
M  V30 20581 H 1957.95 1.45225 2.56893 0
M  V30 20582 H 1958.03 2.33748 1.03901 0
M  V30 20583 H 1957.68 4.52304 2.31049 0
M  V30 20584 H 1957.61 3.6069 3.8368 0
M  V30 20585 H 1960.1 2.86764 2.46119 0
M  V30 20586 H 1960.41 6.25229 4.54212 0
M  V30 20587 H 1958.76 5.61877 4.09047 0
M  V30 20588 H 1961.95 3.60641 2.98422 0
M  V30 20589 H 1962.12 5.1497 3.93332 0
M  V30 20590 N 1955.53 -1.12086 1.1079 0
M  V30 20591 C 1956.49 -2.16111 0.763446 0
M  V30 20592 C 1957.49 -1.59371 -0.213903 0
M  V30 20593 O 1958.68 -1.74197 0.00972099 0
M  V30 20594 C 1955.81 -3.40646 0.131488 0
M  V30 20595 H 1957 -2.48096 1.68489 0
M  V30 20596 H 1954.56 -1.27156 0.908896 0
M  V30 20597 H 1955.29 -3.14265 -0.800507 0
M  V30 20598 H 1955.08 -3.83108 0.834928 0
M  V30 20599 H 1956.57 -4.17495 -0.0936165 0
M  V30 20600 N 1957 -0.897194 -1.29569 0
M  V30 20601 C 1957.97 -0.377906 -2.26063 0
M  V30 20602 C 1958.97 0.486495 -1.53264 0
M  V30 20603 O 1960.16 0.291905 -1.71737 0
M  V30 20604 C 1957.29 0.460046 -3.37782 0
M  V30 20605 H 1958.48 -1.23009 -2.73512 0
M  V30 20606 H 1956.04 -0.675114 -1.40968 0
M  V30 20607 H 1956.77 1.33232 -2.95668 0
M  V30 20608 H 1956.56 -0.159293 -3.91776 0
M  V30 20609 H 1958.05 0.814753 -4.09575 0
M  V30 20610 N 1958.48 1.43142 -0.659413 0
M  V30 20611 C 1959.39 2.34582 0.0288714 0
M  V30 20612 C 1960.41 1.54232 0.805512 0
M  V30 20613 O 1961.58 1.8686 0.751347 0
M  V30 20614 C 1958.65 3.32587 0.97912 0
M  V30 20615 C 1957.71 4.2884 0.198725 0
M  V30 20616 C 1956.94 5.22163 1.10371 0
M  V30 20617 O 1957.17 5.20054 2.34308 0
M  V30 20618 O 1956.1 5.99168 0.572785 0
M  V30 20619 H 1959.93 2.94945 -0.723947 0
M  V30 20620 H 1957.51 1.43386 -0.419609 0
M  V30 20621 H 1959.39 3.92836 1.52505 0
M  V30 20622 H 1958.07 2.74719 1.71206 0
M  V30 20623 H 1956.98 3.72052 -0.390942 0
M  V30 20624 H 1958.31 4.89707 -0.494774 0
M  V30 20625 N 1959.96 0.40173 1.52394 0
M  V30 20626 C 1961.37 -0.0695308 1.8657 0
M  V30 20627 C 1961.72 -1.4508 1.32084 0
M  V30 20628 O 1960.85 -2.06181 0.657149 0
M  V30 20629 C 1961.44 -0.132947 3.38539 0
M  V30 20630 C 1960 -0.548527 3.72382 0
M  V30 20631 C 1959.15 0.281664 2.75866 0
M  V30 20632 H 1962.1 0.619102 1.46126 0
M  V30 20633 H 1962.12 -0.949667 3.68458 0
M  V30 20634 H 1961.63 0.872493 3.78166 0
M  V30 20635 H 1959.73 -1.56088 3.3833 0
M  V30 20636 H 1959.85 -0.29805 4.78172 0
M  V30 20637 H 1958.21 -0.254911 2.53421 0
M  V30 20638 H 1958.99 1.28531 3.18331 0
M  V30 20639 N 1961.44 -1.57047 0.131923 0
M  V30 20640 C 1962.72 -1.87196 -0.567179 0
M  V30 20641 C 1963.1 -1.03533 -1.83968 0
M  V30 20642 O 1962.44 -0.117858 -2.28196 0
M  V30 20643 C 1962.65 -3.38561 -0.847179 0
M  V30 20644 C 1964 -4.07449 -1.19459 0
M  V30 20645 O 1965.03 -3.43654 -0.937026 0
M  V30 20646 O 1963.88 -5.20083 -1.67856 0
M  V30 20647 H 1960.98 -0.775378 -0.287608 0
M  V30 20648 H 1963.52 -1.68872 0.167401 0
M  V30 20649 H 1962.3 -3.91263 0.05402 0
M  V30 20650 H 1961.92 -3.62361 -1.63647 0
M  V30 20651 N 1962.92 0.141865 -1.5696 0
M  V30 20652 C 1964.33 0.701408 -1.73024 0
M  V30 20653 C 1964.68 1.81418 -0.747124 0
M  V30 20654 O 1963.8 2.16233 0.0851134 0
M  V30 20655 C 1964.4 1.2791 -3.13727 0
M  V30 20656 C 1962.96 1.78516 -3.31374 0
M  V30 20657 C 1962.1 0.67567 -2.68942 0
M  V30 20658 H 1965.06 -0.083853 -1.58478 0
M  V30 20659 H 1965.08 2.1489 -3.14011 0
M  V30 20660 H 1964.59 0.468988 -3.85256 0
M  V30 20661 H 1962.69 2.62078 -2.6485 0
M  V30 20662 H 1962.8 1.91034 -4.39366 0
M  V30 20663 H 1961.17 1.10358 -2.2955 0
M  V30 20664 H 1961.95 -0.123088 -3.43079 0
M  V30 20665 N 1964.39 1.52136 0.411372 0
M  V30 20666 C 1965.67 1.56646 1.17138 0
M  V30 20667 C 1966.05 0.346143 2.08243 0
M  V30 20668 O 1965.4 -0.66715 2.18544 0
M  V30 20669 C 1965.61 2.89399 1.95063 0
M  V30 20670 C 1966.96 3.42316 2.51207 0
M  V30 20671 O 1967.98 2.91123 2.05245 0
M  V30 20672 O 1966.84 4.31703 3.35104 0
M  V30 20673 H 1963.93 0.63088 0.534715 0
M  V30 20674 H 1966.48 1.64463 0.418334 0
M  V30 20675 H 1965.25 3.69666 1.28308 0
M  V30 20676 H 1964.88 2.84864 2.77377 0
M  V30 20677 N 1965.87 -0.668464 1.42721 0
M  V30 20678 C 1967.1 -1.45448 1.46726 0
M  V30 20679 C 1967.51 -1.89035 0.0790078 0
M  V30 20680 O 1966.85 -1.59123 -0.917912 0
M  V30 20681 C 1966.92 -2.73153 2.33726 0
M  V30 20682 C 1966.58 -2.51602 3.81504 0
M  V30 20683 C 1967.58 -2.15798 4.72998 0
M  V30 20684 C 1965.26 -2.664 4.25836 0
M  V30 20685 C 1967.26 -1.95067 6.06818 0
M  V30 20686 C 1964.94 -2.45285 5.59713 0
M  V30 20687 C 1965.94 -2.09672 6.50021 0
M  V30 20688 O 1965.63 -1.88765 7.81424 0
M  V30 20689 H 1965.36 -0.453831 0.501013 0
M  V30 20690 H 1967.92 -0.8282 1.87963 0
M  V30 20691 H 1966.15 -3.38286 1.87349 0
M  V30 20692 H 1967.83 -3.35056 2.29112 0
M  V30 20693 H 1968.6 -2.03955 4.40031 0
M  V30 20694 H 1964.48 -2.93097 3.5583 0
M  V30 20695 H 1968.02 -1.67193 6.77268 0
M  V30 20696 H 1963.92 -2.56725 5.92252 0
M  V30 20697 H 1964.69 -2.03313 7.92847 0
M  V30 20698 N 1967.35 -1.28999 -0.905381 0
M  V30 20699 C 1968.26 -1.15513 -2.04191 0
M  V30 20700 C 1969.28 -0.0797116 -1.73817 0
M  V30 20701 O 1970.45 -0.290664 -1.99292 0
M  V30 20702 C 1967.52 -0.826901 -3.36695 0
M  V30 20703 C 1966.58 -1.98557 -3.80623 0
M  V30 20704 C 1965.81 -1.6729 -5.06803 0
M  V30 20705 O 1966.04 -0.591168 -5.67328 0
M  V30 20706 O 1964.97 -2.51914 -5.46647 0
M  V30 20707 H 1968.8 -2.10942 -2.18488 0
M  V30 20708 H 1966.38 -1.08397 -1.02813 0
M  V30 20709 H 1968.26 -0.658165 -4.16228 0
M  V30 20710 H 1966.94 0.0976541 -3.23553 0
M  V30 20711 H 1965.84 -2.20951 -3.0188 0
M  V30 20712 H 1967.18 -2.89112 -3.9834 0
M  V30 20713 N 1968.83 1.11497 -1.11383 0
M  V30 20714 C 1969.78 2.19602 -0.766658 0
M  V30 20715 C 1970.77 1.67668 0.241612 0
M  V30 20716 O 1971.98 1.79717 0.100956 0
M  V30 20717 H 1968.35 0.715952 -0.230037 0
M  V30 20718 H 1970.32 2.46131 -1.68707 0
M  V30 20719 C 1969.07 3.46968 -0.225442 0
M  V30 20720 H 1968.4 3.87284 -0.992544 0
M  V30 20721 H 1969.84 4.23995 -0.0207066 0
M  V30 20722 C 1968.29 3.20311 1.04414 0
M  V30 20723 O 1968.82 3.40956 2.12395 0
M  V30 20724 N 1967.03 2.7405 0.966692 0
M  V30 20725 H 1966.58 2.5745 0.0878667 0
M  V30 20726 H 1966.54 2.56591 1.81682 0
M  V30 20727 N 1970.31 0.904053 1.29092 0
M  V30 20728 C 1971.24 0.401805 2.30017 0
M  V30 20729 C 1972.22 -0.525477 1.6178 0
M  V30 20730 O 1973.4 -0.435279 1.89259 0
M  V30 20731 C 1970.53 -0.367656 3.45348 0
M  V30 20732 C 1969.49 0.469596 4.25416 0
M  V30 20733 C 1968.81 -0.427624 5.32987 0
M  V30 20734 C 1970.11 1.7218 4.93104 0
M  V30 20735 H 1971.81 1.24523 2.72276 0
M  V30 20736 H 1969.35 0.600215 1.30895 0
M  V30 20737 H 1971.31 -0.729791 4.15033 0
M  V30 20738 H 1970.03 -1.2449 3.01944 0
M  V30 20739 H 1968.69 0.814119 3.57446 0
M  V30 20740 H 1968.34 -1.30313 4.85827 0
M  V30 20741 H 1968.04 0.128909 5.87459 0
M  V30 20742 H 1969.56 -0.785855 6.05522 0
M  V30 20743 H 1970.98 1.42914 5.55201 0
M  V30 20744 H 1969.37 2.21999 5.57527 0
M  V30 20745 H 1970.44 2.45526 4.18145 0
M  V30 20746 N 1971.79 -1.4279 0.666995 0
M  V30 20747 C 1973.2 -1.56027 0.335817 0
M  V30 20748 C 1973.4 -1.64812 -1.15928 0
M  V30 20749 O 1972.46 -1.61074 -1.94451 0
M  V30 20750 C 1973.77 -2.81425 1.05928 0
M  V30 20751 C 1975.32 -2.95187 1.04085 0
M  V30 20752 C 1975.79 -4.23435 1.74548 0
M  V30 20753 N 1977.28 -4.3033 1.71379 0
M  V30 20754 C 1978.02 -5.2836 2.22762 0
M  V30 20755 N 1977.52 -6.32589 2.82494 0
M  V30 20756 N 1979.31 -5.20106 2.13182 0
M  V30 20757 H 1971.46 -1.35332 1.63704 0
M  V30 20758 H 1973.72 -0.650895 0.689231 0
M  V30 20759 H 1973.43 -2.81044 2.1144 0
M  V30 20760 H 1973.3 -3.72077 0.619546 0
M  V30 20761 H 1975.69 -2.95099 -0.00591289 0
M  V30 20762 H 1975.77 -2.05786 1.5194 0
M  V30 20763 H 1975.41 -4.24283 2.79189 0
M  V30 20764 H 1975.34 -5.11756 1.24149 0
M  V30 20765 H 1977.84 -3.55633 1.27803 0
M  V30 20766 H 1978.15 -7.03733 3.19343 0
M  V30 20767 H 1976.49 -6.33173 2.86561 0
M  V30 20768 H 1979.68 -4.37597 1.66211 0
M  V30 20769 H 1979.86 -5.96343 2.53534 0
M  V30 20770 N 1973.26 -0.409806 -1.52179 0
M  V30 20771 C 1974.68 -0.0607174 -1.59484 0
M  V30 20772 C 1974.88 1.42703 -1.42261 0
M  V30 20773 O 1973.94 2.19394 -1.24991 0
M  V30 20774 C 1975.25 -0.556238 -2.95511 0
M  V30 20775 C 1976.8 -0.514272 -3.08746 0
M  V30 20776 C 1977.27 -0.986314 -4.47254 0
M  V30 20777 N 1978.76 -0.943162 -4.53496 0
M  V30 20778 C 1979.5 -1.27959 -5.5894 0
M  V30 20779 N 1978.99 -1.6875 -6.71934 0
M  V30 20780 N 1980.79 -1.19951 -5.49152 0
M  V30 20781 H 1972.94 -1.37813 -1.61621 0
M  V30 20782 H 1975.2 -0.566181 -0.760357 0
M  V30 20783 H 1974.91 -1.5961 -3.13397 0
M  V30 20784 H 1974.78 0.033749 -3.77185 0
M  V30 20785 H 1977.17 0.516546 -2.90544 0
M  V30 20786 H 1977.25 -1.14032 -2.28977 0
M  V30 20787 H 1976.89 -2.01546 -4.66199 0
M  V30 20788 H 1976.82 -0.337071 -5.2552 0
M  V30 20789 H 1979.31 -0.64326 -3.72385 0
M  V30 20790 H 1979.63 -1.9273 -7.48381 0
M  V30 20791 H 1977.97 -1.72654 -6.73213 0
M  V30 20792 H 1981.16 -0.879693 -4.5976 0
M  V30 20793 H 1981.34 -1.465 -6.31222 0
M  V30 20794 N 1974.74 1.56975 -0.14025 0
M  V30 20795 C 1975.97 2.00699 0.522938 0
M  V30 20796 C 1976.39 1.01964 1.58066 0
M  V30 20797 O 1975.75 -0.0056107 1.81299 0
M  V30 20798 C 1975.8 3.43203 1.10653 0
M  V30 20799 O 1974.9 3.47447 2.22159 0
M  V30 20800 H 1974.24 0.65143 0.12859 0
M  V30 20801 H 1976.77 2.03246 -0.234993 0
M  V30 20802 H 1976.78 3.81862 1.43686 0
M  V30 20803 H 1975.46 4.14573 0.331913 0
M  V30 20804 H 1974.03 3.20625 1.90405 0
M  V30 20805 N 1976.22 -0.133539 1.57033 0
M  V30 20806 C 1977.18 -1.14845 1.98351 0
M  V30 20807 C 1978.18 -1.3512 0.871734 0
M  V30 20808 O 1979.37 -1.31884 1.13808 0
M  V30 20809 C 1976.5 -2.506 2.31111 0
M  V30 20810 H 1977.7 -0.793667 2.89207 0
M  V30 20811 H 1975.25 -0.377348 1.51677 0
M  V30 20812 H 1975.99 -2.91026 1.43089 0
M  V30 20813 H 1975.77 -2.37242 3.12184 0
M  V30 20814 H 1977.26 -3.23672 2.63868 0
M  V30 20815 N 1977.7 -1.52352 -0.403298 0
M  V30 20816 C 1978.95 -1.66368 -1.14744 0
M  V30 20817 C 1979.27 -0.398899 -1.90876 0
M  V30 20818 O 1978.54 0.586372 -1.86918 0
M  V30 20819 H 1977.12 -0.613226 -0.426571 0
M  V30 20820 H 1979.78 -1.89416 -0.459075 0
M  V30 20821 H 1978.87 -2.50748 -1.85828 0
M  V30 20822 N 1979.18 0.660885 -1.43074 0
M  V30 20823 C 1980.42 1.41805 -1.43999 0
M  V30 20824 C 1980.74 1.949 -0.0625341 0
M  V30 20825 O 1980.01 1.7395 0.901019 0
M  V30 20826 H 1978.59 0.526263 -0.530147 0
M  V30 20827 H 1981.26 0.779967 -1.78613 0
M  V30 20828 H 1980.35 2.2642 -2.14803 0
M  V30 20829 N 1980.65 1.29477 0.898527 0
M  V30 20830 C 1981.9 1.187 1.65172 0
M  V30 20831 C 1982.26 -0.258703 1.90653 0
M  V30 20832 O 1981.55 -1.1836 1.5067 0
M  V30 20833 C 1981.74 1.93505 3.00484 0
M  V30 20834 C 1981.57 3.45202 2.88211 0
M  V30 20835 C 1980.34 4.14554 2.88917 0
M  V30 20836 C 1982.54 4.40679 2.65155 0
M  V30 20837 N 1980.52 5.52607 2.67393 0
M  V30 20838 C 1981.89 5.662 2.52622 0
M  V30 20839 C 1983.95 4.30429 2.50271 0
M  V30 20840 C 1982.65 6.82634 2.26722 0
M  V30 20841 C 1984.68 5.46616 2.25754 0
M  V30 20842 C 1984.04 6.7111 2.13988 0
M  V30 20843 H 1980.14 0.48936 0.60996 0
M  V30 20844 H 1982.72 1.6332 1.05993 0
M  V30 20845 H 1980.89 1.51297 3.5772 0
M  V30 20846 H 1982.62 1.74984 3.64915 0
M  V30 20847 H 1979.38 3.66265 3.00244 0
M  V30 20848 H 1979.8 6.25216 2.59681 0
M  V30 20849 H 1984.45 3.34871 2.58111 0
M  V30 20850 H 1982.16 7.78246 2.17621 0
M  V30 20851 H 1985.75 5.40585 2.1508 0
M  V30 20852 H 1984.63 7.59497 1.9528 0
M  V30 20853 N 1982.13 -1.10905 1.11972 0
M  V30 20854 C 1983.36 -1.87095 0.894991 0
M  V30 20855 C 1983.78 -1.79875 -0.550144 0
M  V30 20856 O 1983.14 -1.16517 -1.38901 0
M  V30 20857 C 1983.19 -3.33634 1.36825 0
M  V30 20858 O 1982.29 -4.08802 0.543553 0
M  V30 20859 H 1981.63 -0.580734 0.321938 0
M  V30 20860 H 1984.16 -1.40152 1.49059 0
M  V30 20861 H 1984.17 -3.84482 1.36519 0
M  V30 20862 H 1982.85 -3.38205 2.42054 0
M  V30 20863 H 1981.43 -3.67824 0.613185 0
M  V30 20864 N 1983.61 -0.910886 -1.2861 0
M  V30 20865 C 1984.52 -0.402088 -2.31129 0
M  V30 20866 C 1985.54 0.508811 -1.66394 0
M  V30 20867 O 1986.71 0.395691 -1.97475 0
M  V30 20868 C 1983.78 0.352182 -3.44907 0
M  V30 20869 C 1982.84 -0.59159 -4.25204 0
M  V30 20870 C 1982.07 0.126778 -5.33549 0
M  V30 20871 O 1982.29 1.34897 -5.54219 0
M  V30 20872 O 1981.23 -0.536442 -5.99505 0
M  V30 20873 H 1985.05 -1.25289 -2.76652 0
M  V30 20874 H 1982.64 -0.675604 -1.33251 0
M  V30 20875 H 1984.52 0.778285 -4.14151 0
M  V30 20876 H 1983.2 1.17886 -3.01471 0
M  V30 20877 H 1982.1 -1.06703 -3.5856 0
M  V30 20878 H 1983.44 -1.38501 -4.72312 0
M  V30 20879 N 1985.09 1.42434 -0.674558 0
M  V30 20880 C 1986.05 2.29199 -0.00527063 0
M  V30 20881 C 1987.05 1.43313 0.729245 0
M  V30 20882 O 1988.24 1.64704 0.567284 0
M  V30 20883 C 1985.37 3.25805 1.0032 0
M  V30 20884 H 1986.57 2.89874 -0.768954 0
M  V30 20885 H 1984.12 1.5007 -0.436898 0
M  V30 20886 H 1984.85 2.70068 1.79538 0
M  V30 20887 H 1984.64 3.89152 0.479902 0
M  V30 20888 H 1986.13 3.90875 1.46993 0
M  V30 20889 N 1986.57 0.417871 1.51959 0
M  V30 20890 C 1987.48 -0.409946 2.3099 0
M  V30 20891 C 1988.49 -1.04559 1.39081 0
M  V30 20892 O 1989.67 -1.0452 1.72155 0
M  V30 20893 C 1986.73 -1.50691 3.12239 0
M  V30 20894 C 1985.79 -0.893424 4.199 0
M  V30 20895 C 1985.03 -1.93812 4.97265 0
M  V30 20896 O 1985.25 -3.15756 4.75031 0
M  V30 20897 O 1984.18 -1.53948 5.81879 0
M  V30 20898 H 1988.01 0.234696 3.02792 0
M  V30 20899 H 1985.6 0.180861 1.48301 0
M  V30 20900 H 1987.48 -2.14355 3.62808 0
M  V30 20901 H 1986.15 -2.136 2.43222 0
M  V30 20902 H 1985.06 -0.219262 3.73457 0
M  V30 20903 H 1986.39 -0.308133 4.91235 0
M  V30 20904 N 1988.04 -1.56898 0.148573 0
M  V30 20905 C 1988.99 -2.1813 -0.807596 0
M  V30 20906 C 1989.99 -1.13875 -1.25415 0
M  V30 20907 O 1991.19 -1.32122 -1.22245 0
M  V30 20908 H 1987.57 -0.698471 -0.278644 0
M  V30 20909 H 1989.54 -2.97203 -0.266972 0
M  V30 20910 C 1988.29 -2.81852 -2.03604 0
M  V30 20911 H 1987.61 -3.6179 -1.70141 0
M  V30 20912 H 1989.05 -3.28196 -2.68446 0
M  V30 20913 C 1987.51 -1.80441 -2.84504 0
M  V30 20914 O 1988.04 -1.27584 -3.809 0
M  V30 20915 N 1986.25 -1.49709 -2.49069 0
M  V30 20916 H 1985.79 -1.92884 -1.70744 0
M  V30 20917 H 1985.75 -0.821041 -3.0349 0
M  V30 20918 N 1989.52 0.125209 -1.57102 0
M  V30 20919 C 1990.77 0.832437 -1.8416 0
M  V30 20920 C 1991.09 1.80706 -0.732819 0
M  V30 20921 O 1990.36 1.94378 0.243723 0
M  V30 20922 H 1988.94 0.310405 -0.679454 0
M  V30 20923 H 1991.6 0.114013 -1.94566 0
M  V30 20924 H 1990.7 1.38145 -2.79861 0
M  V30 20925 N 1991 1.52564 0.395213 0
M  V30 20926 C 1991.95 1.769 1.48239 0
M  V30 20927 C 1992.92 0.611965 1.54416 0
M  V30 20928 O 1994.1 0.851019 1.7077 0
M  V30 20929 C 1991.24 1.93809 2.85538 0
M  V30 20930 C 1990.36 3.2149 2.88562 0
M  V30 20931 C 1989.49 3.28751 4.17248 0
M  V30 20932 C 1988.53 4.5058 4.143 0
M  V30 20933 N 1987.67 4.55156 5.34581 0
M  V30 20934 H 1992.51 2.69683 1.26788 0
M  V30 20935 H 1990.04 1.33618 0.615189 0
M  V30 20936 H 1992 2.01597 3.6526 0
M  V30 20937 H 1990.63 1.04394 3.05453 0
M  V30 20938 H 1989.68 3.22805 2.01249 0
M  V30 20939 H 1991 4.11262 2.82251 0
M  V30 20940 H 1990.15 3.35687 5.0537 0
M  V30 20941 H 1988.89 2.36943 4.26274 0
M  V30 20942 H 1987.89 4.43775 3.24567 0
M  V30 20943 H 1989.12 5.43698 4.06902 0
M  V30 20944 H 1987.06 3.66237 5.44248 0
M  V30 20945 H 1986.98 5.38791 5.30321 0
M  V30 20946 H 1988.25 4.6634 6.24618 0
M  V30 20947 N 1992.48 -0.653289 1.43422 0
M  V30 20948 C 1993.39 -1.79526 1.51022 0
M  V30 20949 C 1994.4 -1.69403 0.39732 0
M  V30 20950 O 1995.58 -1.90574 0.651437 0
M  V30 20951 C 1992.65 -3.15803 1.43071 0
M  V30 20952 C 1991.71 -3.37723 2.65031 0
M  V30 20953 C 1990.94 -4.67499 2.5745 0
M  V30 20954 O 1991.16 -5.46846 1.6222 0
M  V30 20955 O 1990.1 -4.91137 3.47948 0
M  V30 20956 H 1993.92 -1.76069 2.47454 0
M  V30 20957 H 1991.51 -0.81176 1.25423 0
M  V30 20958 H 1993.39 -3.97083 1.41079 0
M  V30 20959 H 1992.06 -3.1985 0.497738 0
M  V30 20960 H 1990.97 -2.56208 2.72595 0
M  V30 20961 H 1992.3 -3.38523 3.573 0
M  V30 20962 N 1993.96 -1.29952 -0.891648 0
M  V30 20963 C 1995.2 -1.18155 -1.63963 0
M  V30 20964 C 1995.53 0.265477 -1.93184 0
M  V30 20965 O 1994.8 1.1802 -1.56359 0
M  V30 20966 H 1993.38 -0.434297 -0.607779 0
M  V30 20967 H 1996.04 -1.62988 -1.06869 0
M  V30 20968 H 1995.13 -1.73753 -2.59261 0
M  V30 20969 N 1995.44 1.1031 -1.12559 0
M  V30 20970 C 1996.66 1.86078 -0.90458 0
M  V30 20971 C 1997.08 1.80726 0.546224 0
M  V30 20972 O 1996.44 1.1969 1.3777 0
M  V30 20973 C 1996.49 3.34425 -1.37268 0
M  V30 20974 O 1996.21 3.39691 -2.76661 0
M  V30 20975 C 1997.71 4.27063 -1.18879 0
M  V30 20976 H 1994.93 0.588055 -0.32316 0
M  V30 20977 H 1997.47 1.39441 -1.49588 0
M  V30 20978 H 1995.63 3.78523 -0.824578 0
M  V30 20979 H 1996.04 4.3215 -2.97232 0
M  V30 20980 H 1997.52 5.29345 -1.56518 0
M  V30 20981 H 1997.99 4.39009 -0.129502 0
M  V30 20982 H 1998.6 3.88771 -1.72445 0
M  V30 20983 N 1996.91 0.917694 1.28125 0
M  V30 20984 C 1997.88 0.413823 2.25433 0
M  V30 20985 C 1998.88 -0.46205 1.54019 0
M  V30 20986 O 2000.07 -0.264546 1.7218 0
M  V30 20987 C 1997.2 -0.406249 3.38471 0
M  V30 20988 H 1998.39 1.27345 2.7152 0
M  V30 20989 H 1995.94 0.697455 1.39876 0
M  V30 20990 H 1996.68 -1.28511 2.97751 0
M  V30 20991 H 1996.46 0.221601 3.91473 0
M  V30 20992 H 1997.95 -0.749491 4.10819 0
M  V30 20993 N 1998.39 -1.42074 0.682102 0
M  V30 20994 C 1999.34 -2.30799 0.00831535 0
M  V30 20995 C 2000.31 -1.46368 -0.785221 0
M  V30 20996 O 2001.49 -1.75184 -0.755989 0
M  V30 20997 C 1998.63 -3.32283 -0.931784 0
M  V30 20998 C 1997.75 -4.318 -0.131295 0
M  V30 20999 C 1996.88 -5.20357 -1.06781 0
M  V30 21000 C 1995.92 -6.1155 -0.259435 0
M  V30 21001 N 1995.06 -6.92634 -1.14904 0
M  V30 21002 H 1999.9 -2.87861 0.770715 0
M  V30 21003 H 1997.43 -1.41786 0.391799 0
M  V30 21004 H 1999.39 -3.89657 -1.49074 0
M  V30 21005 H 1998.02 -2.76802 -1.66073 0
M  V30 21006 H 1997.07 -3.76484 0.54439 0
M  V30 21007 H 1998.39 -4.96328 0.495998 0
M  V30 21008 H 1997.54 -5.82499 -1.69645 0
M  V30 21009 H 1996.28 -4.56024 -1.72898 0
M  V30 21010 H 1995.28 -5.48469 0.382368 0
M  V30 21011 H 1996.51 -6.77934 0.397744 0
M  V30 21012 H 1994.46 -6.30922 -1.79648 0
M  V30 21013 H 1994.37 -7.53795 -0.577001 0
M  V30 21014 H 1995.64 -7.59257 -1.76492 0
M  V30 21015 N 1999.87 -0.425924 -1.51735 0
M  V30 21016 C 2000.78 0.39769 -2.31205 0
M  V30 21017 C 2001.8 1.0382 -1.39633 0
M  V30 21018 O 2002.97 1.03606 -1.72707 0
M  V30 21019 C 2000.04 1.49033 -3.13033 0
M  V30 21020 C 1999.1 0.871143 -4.20368 0
M  V30 21021 C 1998.33 1.91172 -4.98286 0
M  V30 21022 O 1998.55 3.13232 -4.76699 0
M  V30 21023 O 1997.49 1.5086 -5.82688 0
M  V30 21024 H 2001.31 -0.25075 -3.02663 0
M  V30 21025 H 1998.9 -0.188723 -1.48203 0
M  V30 21026 H 2000.78 2.12428 -3.6394 0
M  V30 21027 H 1999.46 2.12307 -2.44351 0
M  V30 21028 H 1998.36 0.199453 -3.73568 0
M  V30 21029 H 1999.7 0.282077 -4.91391 0
M  V30 21030 N 2001.35 1.56817 -0.156891 0
M  V30 21031 C 2002.6 1.96051 0.490764 0
M  V30 21032 C 2002.92 1.04326 1.64746 0
M  V30 21033 O 2002.19 0.106736 1.95609 0
M  V30 21034 H 2000.77 0.72391 0.184293 0
M  V30 21035 H 2003.43 1.93482 -0.234704 0
M  V30 21036 H 2002.52 3.00007 0.86036 0
M  V30 21037 N 2002.83 -0.116876 1.57166 0
M  V30 21038 C 2003.79 -1.12735 1.99558 0
M  V30 21039 C 2004.79 -1.34188 0.886016 0
M  V30 21040 O 2005.98 -1.30669 1.15201 0
M  V30 21041 C 2003.11 -2.48135 2.33756 0
M  V30 21042 H 2004.3 -0.762948 2.90033 0
M  V30 21043 H 2001.86 -0.36124 1.52068 0
M  V30 21044 H 2002.59 -2.89492 1.46167 0
M  V30 21045 H 2002.38 -2.33918 3.14682 0
M  V30 21046 H 2003.87 -3.20855 2.67286 0
M  V30 21047 N 2004.3 -1.52772 -0.387116 0
M  V30 21048 C 2005.71 -1.59829 -0.964966 0
M  V30 21049 C 2006.07 -0.452304 -1.90915 0
M  V30 21050 O 2005.19 0.424353 -2.12199 0
M  V30 21051 C 2005.79 -2.89687 -1.7569 0
M  V30 21052 C 2004.34 -2.99151 -2.28442 0
M  V30 21053 C 2003.49 -2.54957 -1.0905 0
M  V30 21054 H 2006.44 -1.57823 -0.1666 0
M  V30 21055 H 2006.46 -2.76279 -2.6163 0
M  V30 21056 H 2005.98 -3.73074 -1.06945 0
M  V30 21057 H 2004.08 -2.20305 -3.00494 0
M  V30 21058 H 2004.19 -4.03827 -2.578 0
M  V30 21059 H 2002.55 -2.09321 -1.45109 0
M  V30 21060 H 2003.34 -3.40741 -0.418373 0
M  V30 21061 N 2005.78 0.645673 -1.43767 0
M  V30 21062 C 2007.03 1.4027 -1.45495 0
M  V30 21063 C 2007.35 1.94822 -0.0832023 0
M  V30 21064 O 2006.62 1.74895 0.882519 0
M  V30 21065 H 2005.2 0.520611 -0.535699 0
M  V30 21066 H 2007.86 0.760978 -1.7943 0
M  V30 21067 H 2006.96 2.24129 -2.17192 0
M  V30 21068 N 2007.26 1.30423 0.884744 0
M  V30 21069 C 2008.51 1.19023 1.63334 0
M  V30 21070 C 2008.83 -0.255228 1.93322 0
M  V30 21071 O 2008.1 -1.17189 1.56983 0
M  V30 21072 H 2006.68 0.437514 0.605467 0
M  V30 21073 H 2009.34 1.63552 1.06003 0
M  V30 21074 H 2008.44 1.75125 2.58336 0
M  V30 21075 N 2008.74 -1.09711 1.13142 0
M  V30 21076 C 2009.97 -1.85595 0.914436 0
M  V30 21077 C 2010.38 -1.81013 -0.536632 0
M  V30 21078 O 2009.74 -1.20419 -1.37134 0
M  V30 21079 C 2009.79 -3.33692 1.39039 0
M  V30 21080 O 2009.51 -3.38219 2.78459 0
M  V30 21081 C 2011.01 -4.26427 1.21142 0
M  V30 21082 H 2008.23 -0.586333 0.326274 0
M  V30 21083 H 2010.77 -1.38646 1.50325 0
M  V30 21084 H 2008.93 -3.7808 0.844641 0
M  V30 21085 H 2009.34 -4.30567 2.9952 0
M  V30 21086 H 2010.82 -5.28508 1.59323 0
M  V30 21087 H 2011.29 -4.38934 0.152782 0
M  V30 21088 H 2011.9 -3.87851 1.74505 0
M  V30 21089 N 2010.22 -0.924476 -1.27637 0
M  V30 21090 C 2011.63 -0.608255 -1.76514 0
M  V30 21091 C 2011.98 0.87656 -1.7553 0
M  V30 21092 O 2011.1 1.68587 -1.35674 0
M  V30 21093 C 2011.7 -1.09738 -3.20536 0
M  V30 21094 C 2010.26 -0.831881 -3.67092 0
M  V30 21095 C 2009.4 -1.25795 -2.47125 0
M  V30 21096 H 2012.36 -1.1046 -1.13949 0
M  V30 21097 H 2012.38 -0.443602 -3.77905 0
M  V30 21098 H 2011.89 -2.17806 -3.21219 0
M  V30 21099 H 2009.99 0.235141 -3.71857 0
M  V30 21100 H 2010.1 -1.44716 -4.56721 0
M  V30 21101 H 2008.47 -0.676541 -2.4555 0
M  V30 21102 H 2009.25 -2.34721 -2.50521 0
M  V30 21103 N 2011.69 1.41711 -0.689627 0
M  V30 21104 C 2012.63 2.29192 0.018551 0
M  V30 21105 C 2013.64 1.44471 0.750468 0
M  V30 21106 O 2014.83 1.68037 0.602159 0
M  V30 21107 C 2011.93 3.22215 1.05027 0
M  V30 21108 C 2011.1 4.35665 0.389181 0
M  V30 21109 C 2010.16 5.09304 1.3227 0
M  V30 21110 O 2009.19 5.63301 0.817347 0
M  V30 21111 N 2010.39 5.16209 2.65533 0
M  V30 21112 H 2013.15 2.90611 -0.732482 0
M  V30 21113 H 2010.71 1.52798 -0.535191 0
M  V30 21114 H 2012.71 3.68347 1.67638 0
M  V30 21115 H 2011.28 2.62145 1.7029 0
M  V30 21116 H 2010.5 3.91991 -0.416702 0
M  V30 21117 H 2011.78 5.08751 -0.070752 0
M  V30 21118 H 2011.18 4.73777 3.09115 0
M  V30 21119 H 2009.74 5.65938 3.23354 0
M  V30 21120 N 2013.17 0.433965 1.51507 0
M  V30 21121 C 2014.14 -0.367505 2.26234 0
M  V30 21122 C 2015.14 -0.952583 1.29547 0
M  V30 21123 O 2016.33 -0.827563 1.53287 0
M  V30 21124 C 2013.46 -1.51964 3.05155 0
M  V30 21125 H 2014.65 0.28735 2.9852 0
M  V30 21126 H 2012.2 0.187052 1.55177 0
M  V30 21127 H 2012.94 -2.21064 2.37278 0
M  V30 21128 H 2012.72 -1.10632 3.76169 0
M  V30 21129 H 2014.21 -2.08597 3.61769 0
M  V30 21130 N 2014.65 -1.56732 0.165206 0
M  V30 21131 C 2015.9 -1.96308 -0.48036 0
M  V30 21132 C 2016.22 -1.05198 -1.6419 0
M  V30 21133 O 2015.49 -0.117108 -1.9555 0
M  V30 21134 H 2014.07 -0.724877 -0.180451 0
M  V30 21135 H 2016.73 -1.93354 0.244961 0
M  V30 21136 H 2015.83 -3.00459 -0.844437 0
M  V30 21137 N 2016.13 0.10854 -1.57226 0
M  V30 21138 C 2017.38 0.812858 -1.85033 0
M  V30 21139 C 2017.7 1.79919 -0.751944 0
M  V30 21140 O 2016.97 1.94626 0.223093 0
M  V30 21141 H 2015.55 0.303181 -0.682708 0
M  V30 21142 H 2018.21 0.0933699 -1.94676 0
M  V30 21143 H 2017.31 1.35169 -2.81311 0
M  V30 21144 N 2017.61 1.52975 0.379009 0
M  V30 21145 C 2018.52 1.81401 1.48764 0
M  V30 21146 C 2019.53 0.701435 1.59235 0
M  V30 21147 O 2020.71 0.990085 1.75383 0
M  V30 21148 C 2017.77 1.98593 2.84186 0
M  V30 21149 C 2016.83 3.22504 2.83354 0
M  V30 21150 C 2016.07 3.38866 4.12317 0
M  V30 21151 O 2016.29 2.59814 5.07792 0
M  V30 21152 O 2015.22 4.32165 4.18947 0
M  V30 21153 H 2019.05 2.75561 1.27671 0
M  V30 21154 H 2016.64 1.38189 0.56782 0
M  V30 21155 H 2018.52 2.11549 3.64451 0
M  V30 21156 H 2017.19 1.07622 3.05285 0
M  V30 21157 H 2016.1 3.14982 2.01835 0
M  V30 21158 H 2017.43 4.13353 2.67208 0
M  V30 21159 N 2019.08 -0.63804 1.44107 0
M  V30 21160 C 2020.05 -1.7322 1.50092 0
M  V30 21161 C 2021.05 -1.56153 0.383763 0
M  V30 21162 O 2022.24 -1.61774 0.646118 0
M  V30 21163 C 2019.37 -3.1224 1.36818 0
M  V30 21164 H 2020.56 -1.6929 2.4755 0
M  V30 21165 H 2018.12 -0.851079 1.31097 0
M  V30 21166 H 2018.85 -3.2177 0.404269 0
M  V30 21167 H 2018.64 -3.26033 2.17818 0
M  V30 21168 H 2020.13 -3.91997 1.43972 0
M  V30 21169 N 2020.56 -1.3089 -0.877815 0
M  V30 21170 C 2021.49 -1.13694 -1.99013 0
M  V30 21171 C 2022.51 -0.0781797 -1.62612 0
M  V30 21172 O 2023.7 -0.324906 -1.75518 0
M  V30 21173 C 2020.8 -0.713232 -3.3131 0
M  V30 21174 C 2019.97 -1.8553 -3.96103 0
M  V30 21175 C 2019.03 -1.41895 -5.06707 0
M  V30 21176 O 2018.05 -2.12734 -5.27952 0
M  V30 21177 N 2019.26 -0.301958 -5.79714 0
M  V30 21178 H 2022.02 -2.09499 -2.14313 0
M  V30 21179 H 2019.58 -1.2312 -1.05133 0
M  V30 21180 H 2021.57 -0.404189 -4.02677 0
M  V30 21181 H 2020.14 0.152987 -3.12225 0
M  V30 21182 H 2019.36 -2.33208 -3.17817 0
M  V30 21183 H 2020.65 -2.62046 -4.3613 0
M  V30 21184 H 2020.05 0.288154 -5.64966 0
M  V30 21185 H 2018.61 -0.0524068 -6.51779 0
M  V30 21186 N 2022.04 1.0911 -1.13723 0
M  V30 21187 C 2023.45 1.62841 -0.913213 0
M  V30 21188 C 2023.8 1.88346 0.549566 0
M  V30 21189 O 2022.93 1.63558 1.41696 0
M  V30 21190 C 2023.52 2.95835 -1.65127 0
M  V30 21191 C 2022.08 3.46379 -1.47304 0
M  V30 21192 C 2021.23 2.20738 -1.6784 0
M  V30 21193 H 2024.18 0.924297 -1.29006 0
M  V30 21194 H 2024.2 3.63942 -1.11026 0
M  V30 21195 H 2023.71 2.77241 -2.71587 0
M  V30 21196 H 2021.81 3.70092 -0.431605 0
M  V30 21197 H 2021.93 4.23603 -2.23825 0
M  V30 21198 H 2020.29 2.29554 -1.10349 0
M  V30 21199 H 2021.07 2.04659 -2.75626 0
M  V30 21200 N 2023.52 0.931232 1.27145 0
M  V30 21201 C 2024.48 0.43771 2.24982 0
M  V30 21202 C 2025.48 -0.445689 1.545 0
M  V30 21203 O 2026.67 -0.24627 1.7245 0
M  V30 21204 C 2023.8 -0.370327 3.38883 0
M  V30 21205 H 2025 1.30217 2.70154 0
M  V30 21206 H 2022.55 0.712252 1.39128 0
M  V30 21207 H 2023.28 -1.25346 2.99097 0
M  V30 21208 H 2023.07 0.263109 3.91216 0
M  V30 21209 H 2024.56 -0.705876 4.11591 0
M  V30 21210 N 2025 -1.41343 0.697132 0
M  V30 21211 C 2026.41 -1.5528 0.368838 0
M  V30 21212 C 2026.61 -1.67234 -1.12406 0
M  V30 21213 O 2025.67 -1.65163 -1.90991 0
M  V30 21214 C 2026.98 -2.79114 1.11873 0
M  V30 21215 C 2028.53 -2.92913 1.10323 0
M  V30 21216 C 2029.01 -4.19637 1.83491 0
M  V30 21217 N 2030.5 -4.26598 1.80468 0
M  V30 21218 C 2031.23 -5.23516 2.33919 0
M  V30 21219 N 2030.73 -6.26455 2.95849 0
M  V30 21220 N 2032.52 -5.15467 2.24166 0
M  V30 21221 H 2024.67 -1.31829 1.66538 0
M  V30 21222 H 2026.93 -0.636129 0.702882 0
M  V30 21223 H 2026.64 -2.76496 2.17354 0
M  V30 21224 H 2026.51 -3.70679 0.69833 0
M  V30 21225 H 2028.9 -2.95046 0.0566834 0
M  V30 21226 H 2028.98 -2.02517 1.56271 0
M  V30 21227 H 2028.63 -4.18265 2.88126 0
M  V30 21228 H 2028.56 -5.09008 1.34976 0
M  V30 21229 H 2031.05 -3.52842 1.35318 0
M  V30 21230 H 2031.36 -6.96801 3.34198 0
M  V30 21231 H 2029.71 -6.26952 2.99927 0
M  V30 21232 H 2032.9 -4.33973 1.75456 0
M  V30 21233 H 2033.07 -5.90831 2.66126 0
M  V30 21234 N 2026.48 -0.441993 -1.51275 0
M  V30 21235 C 2027.44 0.355502 -2.26426 0
M  V30 21236 C 2028.44 0.945699 -1.30051 0
M  V30 21237 O 2029.63 0.819422 -1.53724 0
M  V30 21238 C 2026.76 1.50344 -3.05957 0
M  V30 21239 H 2027.95 -0.303177 -2.98364 0
M  V30 21240 H 2025.51 -0.195279 -1.55075 0
M  V30 21241 H 2026.24 2.19803 -2.38447 0
M  V30 21242 H 2026.03 1.08636 -3.7675 0
M  V30 21243 H 2027.52 2.06676 -3.6287 0
M  V30 21244 N 2027.95 1.56642 -0.173515 0
M  V30 21245 C 2028.86 2.2166 0.768363 0
M  V30 21246 C 2029.88 1.20892 1.25144 0
M  V30 21247 O 2031.06 1.53561 1.30311 0
M  V30 21248 C 2028.12 2.84632 1.97953 0
M  V30 21249 C 2027.18 4.00608 1.54312 0
M  V30 21250 C 2026.41 4.60567 2.69655 0
M  V30 21251 O 2026.64 4.19419 3.8658 0
M  V30 21252 O 2025.57 5.50401 2.43604 0
M  V30 21253 H 2029.4 3.02712 0.244753 0
M  V30 21254 H 2026.98 1.493 0.0547846 0
M  V30 21255 H 2028.86 3.24553 2.68782 0
M  V30 21256 H 2027.54 2.06575 2.49215 0
M  V30 21257 H 2026.45 3.65352 0.804264 0
M  V30 21258 H 2027.78 4.80264 1.07738 0
M  V30 21259 N 2029.43 -0.1002 1.57281 0
M  V30 21260 C 2030.38 -1.14082 2.02702 0
M  V30 21261 C 2031.37 -1.41773 0.927183 0
M  V30 21262 O 2032.58 -1.41514 1.11237 0
M  V30 21263 H 2028.95 -0.385095 0.645915 0
M  V30 21264 H 2030.93 -0.731375 2.89298 0
M  V30 21265 C 2029.67 -2.45424 2.46297 0
M  V30 21266 H 2029 -2.24959 3.30505 0
M  V30 21267 H 2030.44 -3.16752 2.81859 0
M  V30 21268 C 2028.9 -3.09356 1.33418 0
M  V30 21269 O 2029.43 -3.96233 0.660494 0
M  V30 21270 N 2027.63 -2.69526 1.08646 0
M  V30 21271 H 2027.18 -1.98972 1.63609 0
M  V30 21272 H 2027.14 -3.1263 0.333186 0
M  V30 21273 N 2030.91 -1.53174 -0.370891 0
M  V30 21274 C 2031.82 -1.82187 -1.478 0
M  V30 21275 C 2032.84 -0.70987 -1.58861 0
M  V30 21276 O 2034.01 -0.999372 -1.74856 0
M  V30 21277 C 2031.08 -2.00097 -2.83129 0
M  V30 21278 C 2030.14 -3.24002 -2.8164 0
M  V30 21279 C 2029.37 -3.41048 -4.10514 0
M  V30 21280 O 2029.59 -2.62503 -5.06407 0
M  V30 21281 O 2028.53 -4.34381 -4.16649 0
M  V30 21282 H 2032.35 -2.76234 -1.26207 0
M  V30 21283 H 2029.94 -1.38488 -0.560483 0
M  V30 21284 H 2031.82 -2.13479 -3.63324 0
M  V30 21285 H 2030.5 -1.0924 -3.0471 0
M  V30 21286 H 2029.4 -3.16048 -2.00162 0
M  V30 21287 H 2030.74 -4.14764 -2.65012 0
M  V30 21288 N 2032.39 0.630389 -1.44443 0
M  V30 21289 C 2033.33 1.74232 -1.51367 0
M  V30 21290 C 2034.3 1.62122 -0.361324 0
M  V30 21291 O 2035.49 1.82035 -0.571662 0
M  V30 21292 C 2032.63 3.12481 -1.46457 0
M  V30 21293 C 2031.74 3.35561 -2.72071 0
M  V30 21294 C 2030.88 4.63787 -2.58989 0
M  V30 21295 C 2029.92 4.80048 -3.79764 0
M  V30 21296 N 2029.05 5.99551 -3.65354 0
M  V30 21297 H 2033.89 1.6765 -2.46368 0
M  V30 21298 H 2031.43 0.817807 -1.22272 0
M  V30 21299 H 2033.39 3.92435 -1.41601 0
M  V30 21300 H 2032.02 3.18076 -0.550216 0
M  V30 21301 H 2031.07 2.49543 -2.8711 0
M  V30 21302 H 2032.38 3.43456 -3.61717 0
M  V30 21303 H 2031.54 5.51902 -2.51971 0
M  V30 21304 H 2030.28 4.58251 -1.66905 0
M  V30 21305 H 2029.28 3.90362 -3.87166 0
M  V30 21306 H 2030.51 4.87397 -4.72886 0
M  V30 21307 H 2028.45 5.95104 -2.76021 0
M  V30 21308 H 2028.37 6.08505 -4.48617 0
M  V30 21309 H 2029.64 6.90226 -3.62228 0
M  V30 21310 N 2033.87 1.31354 0.870861 0
M  V30 21311 C 2035.14 1.11627 1.6062 0
M  V30 21312 C 2035.52 -0.329351 2.08515 0
M  V30 21313 O 2034.87 -1.3233 1.86282 0
M  V30 21314 C 2035.08 2.12968 2.76488 0
M  V30 21315 C 2036.43 2.45442 3.46473 0
M  V30 21316 O 2037.45 2.11388 2.86694 0
M  V30 21317 O 2036.31 3.03753 4.54309 0
M  V30 21318 H 2033.41 0.429682 0.706614 0
M  V30 21319 H 2035.95 1.42829 0.916402 0
M  V30 21320 H 2034.72 3.10212 2.38504 0
M  V30 21321 H 2034.35 1.82666 3.53156 0
M  V30 21322 N 2035.34 -1.08505 1.143 0
M  V30 21323 C 2036.31 -2.13573 0.831813 0
M  V30 21324 C 2037.31 -1.59971 -0.163092 0
M  V30 21325 O 2038.5 -1.74078 0.0651356 0
M  V30 21326 C 2035.63 -3.40056 0.239795 0
M  V30 21327 H 2036.82 -2.4261 1.76297 0
M  V30 21328 H 2034.37 -1.24201 0.94889 0
M  V30 21329 H 2035.11 -3.16652 -0.700121 0
M  V30 21330 H 2034.89 -3.80257 0.956388 0
M  V30 21331 H 2036.38 -4.17582 0.0392538 0
M  V30 21332 N 2036.82 -0.937962 -1.26649 0
M  V30 21333 C 2038.05 -0.600464 -1.97995 0
M  V30 21334 C 2038.46 0.823838 -1.69877 0
M  V30 21335 O 2037.82 1.5489 -0.965163 0
M  V30 21336 C 2037.87 -0.829264 -3.5186 0
M  V30 21337 O 2037.59 -2.19754 -3.78998 0
M  V30 21338 C 2039.09 -0.501874 -4.4045 0
M  V30 21339 H 2036.31 -0.226587 -0.631585 0
M  V30 21340 H 2038.86 -1.25779 -1.61245 0
M  V30 21341 H 2037.01 -0.218596 -3.86783 0
M  V30 21342 H 2037.43 -2.25518 -4.73542 0
M  V30 21343 H 2038.9 -0.712605 -5.47381 0
M  V30 21344 H 2039.38 0.56301 -4.35576 0
M  V30 21345 H 2039.98 -1.09113 -4.11065 0
M  V30 21346 N 2038.3 1.40971 -0.704618 0
M  V30 21347 C 2039.53 2.05399 -0.248738 0
M  V30 21348 C 2039.94 1.53056 1.10541 0
M  V30 21349 O 2039.3 0.682534 1.69256 0
M  V30 21350 C 2039.35 3.60902 -0.207794 0
M  V30 21351 O 2039.07 4.11311 -1.50846 0
M  V30 21352 C 2040.57 4.42489 0.267977 0
M  V30 21353 H 2037.79 0.661269 -0.11386 0
M  V30 21354 H 2040.34 1.8058 -0.959745 0
M  V30 21355 H 2038.49 3.84729 0.4541 0
M  V30 21356 H 2038.91 5.05426 -1.4016 0
M  V30 21357 H 2040.38 5.51454 0.245489 0
M  V30 21358 H 2040.86 4.1926 1.30836 0
M  V30 21359 H 2041.46 4.23746 -0.363242 0
M  V30 21360 N 2039.78 0.45001 1.51039 0
M  V30 21361 C 2040.69 -0.360857 2.31808 0
M  V30 21362 C 2041.7 -1.01585 1.41267 0
M  V30 21363 O 2042.88 -1.00845 1.74334 0
M  V30 21364 C 2039.95 -1.44034 3.15365 0
M  V30 21365 C 2039.01 -0.804156 4.21701 0
M  V30 21366 C 2038.24 -1.83221 5.01264 0
M  V30 21367 O 2038.46 -3.05609 4.81622 0
M  V30 21368 O 2037.4 -1.41571 5.85014 0
M  V30 21369 H 2041.22 0.298869 3.02226 0
M  V30 21370 H 2038.81 0.212277 1.47884 0
M  V30 21371 H 2040.69 -2.06611 3.67273 0
M  V30 21372 H 2039.36 -2.08392 2.47698 0
M  V30 21373 H 2038.27 -0.139997 3.73838 0
M  V30 21374 H 2039.6 -0.203865 4.91778 0
M  V30 21375 N 2041.26 -1.56548 0.18182 0
M  V30 21376 C 2042.2 -2.18468 -0.744342 0
M  V30 21377 C 2043.17 -1.12785 -1.21938 0
M  V30 21378 O 2044.36 -1.4098 -1.28566 0
M  V30 21379 C 2041.5 -2.83772 -1.96386 0
M  V30 21380 C 2040.61 -4.03945 -1.53142 0
M  V30 21381 C 2039.75 -4.57144 -2.70542 0
M  V30 21382 C 2038.79 -5.69704 -2.23839 0
M  V30 21383 N 2037.92 -6.17367 -3.34369 0
M  V30 21384 H 2042.76 -2.97262 -0.209544 0
M  V30 21385 H 2040.3 -1.46814 -0.0916937 0
M  V30 21386 H 2042.26 -3.19797 -2.67929 0
M  V30 21387 H 2040.89 -2.07564 -2.47219 0
M  V30 21388 H 2039.94 -3.73671 -0.712347 0
M  V30 21389 H 2041.25 -4.85393 -1.14868 0
M  V30 21390 H 2040.41 -4.95405 -3.50226 0
M  V30 21391 H 2039.14 -3.74775 -3.12082 0
M  V30 21392 H 2038.15 -5.30984 -1.42604 0
M  V30 21393 H 2039.37 -6.53882 -1.83345 0
M  V30 21394 H 2037.32 -5.37924 -3.75465 0
M  V30 21395 H 2037.24 -6.93832 -3.00221 0
M  V30 21396 H 2038.51 -6.6028 -4.14307 0
M  V30 21397 N 2042.73 0.0918577 -1.57332 0
M  V30 21398 C 2043.68 1.13005 -2.03304 0
M  V30 21399 C 2044.68 1.4128 -0.934688 0
M  V30 21400 O 2045.88 1.40923 -1.11986 0
M  V30 21401 H 2042.26 0.381664 -0.647948 0
M  V30 21402 H 2044.23 0.716022 -2.89682 0
M  V30 21403 C 2042.98 2.44114 -2.47595 0
M  V30 21404 H 2042.3 2.23203 -3.31694 0
M  V30 21405 H 2043.74 3.15252 -2.83535 0
M  V30 21406 C 2042.2 3.08644 -1.35057 0
M  V30 21407 O 2042.73 3.95877 -0.681498 0
M  V30 21408 N 2040.94 2.68946 -1.10074 0
M  V30 21409 H 2040.48 1.98101 -1.64662 0
M  V30 21410 H 2040.44 3.12448 -0.349761 0
M  V30 21411 N 2044.21 1.53368 0.362763 0
M  V30 21412 C 2045.16 1.80005 1.44454 0
M  V30 21413 C 2046.13 0.644581 1.53083 0
M  V30 21414 O 2047.31 0.887051 1.68926 0
M  V30 21415 C 2044.45 1.99822 2.81363 0
M  V30 21416 C 2043.57 3.27539 2.81678 0
M  V30 21417 C 2042.7 3.37528 4.10181 0
M  V30 21418 C 2041.74 4.59266 4.04649 0
M  V30 21419 N 2040.88 4.66393 5.24806 0
M  V30 21420 H 2045.72 2.72311 1.2104 0
M  V30 21421 H 2043.26 1.34893 0.586708 0
M  V30 21422 H 2045.21 2.09299 3.60901 0
M  V30 21423 H 2043.84 1.10849 3.0317 0
M  V30 21424 H 2042.9 3.27001 1.94356 0
M  V30 21425 H 2044.21 4.17156 2.73464 0
M  V30 21426 H 2043.36 3.46331 4.98136 0
M  V30 21427 H 2042.1 2.45932 4.21152 0
M  V30 21428 H 2041.11 4.5056 3.15081 0
M  V30 21429 H 2042.33 5.52206 3.95278 0
M  V30 21430 H 2040.28 3.77699 5.36358 0
M  V30 21431 H 2040.19 5.49919 5.18773 0
M  V30 21432 H 2041.46 4.79484 6.14586 0
M  V30 21433 N 2045.69 -0.62272 1.44776 0
M  V30 21434 C 2046.64 -1.73427 1.52288 0
M  V30 21435 C 2047.61 -1.61928 0.369917 0
M  V30 21436 O 2048.79 -1.81729 0.581308 0
M  V30 21437 C 2045.93 -3.117 1.48112 0
M  V30 21438 C 2045.05 -3.34114 2.73847 0
M  V30 21439 C 2044.18 -4.62407 2.61445 0
M  V30 21440 C 2043.22 -4.78027 3.82304 0
M  V30 21441 N 2042.36 -5.97605 3.68528 0
M  V30 21442 H 2047.2 -1.66341 2.47254 0
M  V30 21443 H 2044.73 -0.811311 1.22704 0
M  V30 21444 H 2046.69 -3.91678 1.4368 0
M  V30 21445 H 2045.32 -3.1778 0.567076 0
M  V30 21446 H 2044.37 -2.48017 2.8843 0
M  V30 21447 H 2045.69 -3.41533 3.63533 0
M  V30 21448 H 2044.84 -5.50558 2.54894 0
M  V30 21449 H 2043.58 -4.5736 1.69333 0
M  V30 21450 H 2042.58 -3.88303 3.89231 0
M  V30 21451 H 2043.81 -4.84883 4.75464 0
M  V30 21452 H 2041.75 -5.93631 2.79173 0
M  V30 21453 H 2041.67 -6.06118 4.51838 0
M  V30 21454 H 2042.94 -6.88295 3.65883 0
M  V30 21455 N 2047.17 -1.31814 -0.863883 0
M  V30 21456 C 2048.58 -1.10603 -1.15061 0
M  V30 21457 C 2048.78 0.119526 -2.01145 0
M  V30 21458 O 2047.84 0.807099 -2.39253 0
M  V30 21459 C 2049.15 -2.38075 -1.83686 0
M  V30 21460 C 2050.7 -2.43744 -1.96361 0
M  V30 21461 C 2051.18 -3.71113 -2.68401 0
M  V30 21462 N 2052.67 -3.72042 -2.75933 0
M  V30 21463 C 2053.4 -4.67294 -3.32301 0
M  V30 21464 N 2052.9 -5.72905 -3.89553 0
M  V30 21465 N 2054.69 -4.54804 -3.30317 0
M  V30 21466 H 2046.84 -2.10406 -0.290393 0
M  V30 21467 H 2049.11 -0.928505 -0.191264 0
M  V30 21468 H 2048.81 -3.27625 -1.27885 0
M  V30 21469 H 2048.69 -2.48336 -2.83917 0
M  V30 21470 H 2051.07 -1.54659 -2.51326 0
M  V30 21471 H 2051.15 -2.37443 -0.951544 0
M  V30 21472 H 2050.8 -4.60567 -2.14103 0
M  V30 21473 H 2050.73 -3.74682 -3.70028 0
M  V30 21474 H 2053.22 -2.95701 -2.35307 0
M  V30 21475 H 2053.53 -6.41656 -4.30694 0
M  V30 21476 H 2051.88 -5.76671 -3.87911 0
M  V30 21477 H 2055.07 -3.71468 -2.84832 0
M  V30 21478 H 2055.24 -5.29213 -3.73948 0
M  V30 21479 N 2048.65 1.07897 -1.14873 0
M  V30 21480 C 2049.89 1.8003 -0.918351 0
M  V30 21481 C 2050.22 1.86897 0.556293 0
M  V30 21482 O 2049.49 1.36584 1.40434 0
M  V30 21483 H 2048.07 0.666777 -0.336776 0
M  V30 21484 H 2050.73 1.30421 -1.44832 0
M  V30 21485 H 2049.82 2.82678 -1.32287 0
M  V30 21486 N 2050.12 0.944665 1.2615 0
M  V30 21487 C 2051.37 0.594093 1.93589 0
M  V30 21488 C 2051.7 -0.867382 1.74088 0
M  V30 21489 O 2050.95 -1.63636 1.07339 0
M  V30 21490 C 2051.25 0.886852 3.46222 0
M  V30 21491 C 2050.92 2.33276 3.85867 0
M  V30 21492 C 2049.58 2.72801 3.964 0
M  V30 21493 C 2051.93 3.27224 4.05677 0
M  V30 21494 C 2049.26 4.05362 4.24144 0
M  V30 21495 C 2051.61 4.59386 4.34911 0
M  V30 21496 C 2050.28 4.98721 4.4366 0
M  V30 21497 H 2049.55 0.217394 0.708393 0
M  V30 21498 H 2052.19 1.19183 1.49892 0
M  V30 21499 H 2050.5 0.206616 3.91255 0
M  V30 21500 H 2052.2 0.594328 3.96571 0
M  V30 21501 H 2048.79 2.01619 3.78216 0
M  V30 21502 H 2052.97 2.97883 3.96963 0
M  V30 21503 H 2048.23 4.35496 4.29131 0
M  V30 21504 H 2052.4 5.32171 4.49185 0
M  V30 21505 H 2050.03 6.01466 4.64911 0
M  V30 21506 N 2051.6 -1.40596 0.712085 0
M  V30 21507 C 2052.53 -2.33389 0.0719438 0
M  V30 21508 C 2053.51 -1.52706 -0.749334 0
M  V30 21509 O 2054.7 -1.81185 -0.698968 0
M  V30 21510 C 2051.83 -3.36659 -0.853122 0
M  V30 21511 C 2050.78 -4.27778 -0.137724 0
M  V30 21512 C 2050.11 -5.21556 -1.17827 0
M  V30 21513 C 2051.41 -5.12521 1.00597 0
M  V30 21514 H 2053.1 -2.87169 0.847002 0
M  V30 21515 H 2050.65 -1.38077 0.408756 0
M  V30 21516 H 2052.6 -4.00511 -1.31031 0
M  V30 21517 H 2051.33 -2.81266 -1.66004 0
M  V30 21518 H 2049.98 -3.65374 0.299603 0
M  V30 21519 H 2049.63 -4.6247 -1.97814 0
M  V30 21520 H 2049.33 -5.83361 -0.704503 0
M  V30 21521 H 2050.86 -5.88285 -1.63563 0
M  V30 21522 H 2052.27 -5.69847 0.62831 0
M  V30 21523 H 2050.67 -5.83351 1.40789 0
M  V30 21524 H 2051.74 -4.48706 1.83822 0
M  V30 21525 N 2053.08 -0.458013 -1.50798 0
M  V30 21526 C 2054.33 0.101466 -2.02246 0
M  V30 21527 C 2054.66 1.40891 -1.34089 0
M  V30 21528 O 2053.91 1.90427 -0.451235 0
M  V30 21529 C 2054.21 0.346589 -3.55716 0
M  V30 21530 C 2053.88 -0.877551 -4.42278 0
M  V30 21531 C 2052.54 -1.21321 -4.65655 0
M  V30 21532 C 2054.89 -1.69321 -4.9293 0
M  V30 21533 C 2052.22 -2.36483 -5.36929 0
M  V30 21534 C 2054.57 -2.836 -5.65468 0
M  V30 21535 C 2053.23 -3.17596 -5.87102 0
M  V30 21536 H 2052.5 0.0371291 -0.740069 0
M  V30 21537 H 2055.15 -0.609429 -1.81544 0
M  V30 21538 H 2053.46 1.1396 -3.74861 0
M  V30 21539 H 2055.15 0.793236 -3.93076 0
M  V30 21540 H 2051.74 -0.606027 -4.24294 0
M  V30 21541 H 2055.93 -1.44708 -4.74735 0
M  V30 21542 H 2051.18 -2.63111 -5.5189 0
M  V30 21543 H 2055.36 -3.47158 -6.037 0
M  V30 21544 H 2052.98 -4.06941 -6.42108 0
M  V30 21545 N 2054.56 1.56449 -0.190119 0
M  V30 21546 C 2055.51 2.1886 0.732745 0
M  V30 21547 C 2056.48 1.1343 1.21338 0
M  V30 21548 O 2057.66 1.4166 1.27817 0
M  V30 21549 C 2054.8 2.84809 1.94878 0
M  V30 21550 C 2053.91 4.04751 1.50998 0
M  V30 21551 C 2053.05 4.58572 2.68114 0
M  V30 21552 C 2052.09 5.70883 2.20815 0
M  V30 21553 N 2051.23 6.19132 3.3109 0
M  V30 21554 H 2056.07 2.97369 0.193776 0
M  V30 21555 H 2053.6 1.46861 0.0839065 0
M  V30 21556 H 2055.56 3.21213 2.66229 0
M  V30 21557 H 2054.19 2.08872 2.46115 0
M  V30 21558 H 2053.24 3.74043 0.69252 0
M  V30 21559 H 2054.55 4.85996 1.12292 0
M  V30 21560 H 2053.71 4.97256 3.47594 0
M  V30 21561 H 2052.45 3.76425 3.1009 0
M  V30 21562 H 2051.45 5.31733 1.39786 0
M  V30 21563 H 2052.68 6.54845 1.79875 0
M  V30 21564 H 2050.62 5.39908 3.72607 0
M  V30 21565 H 2050.54 6.95415 2.96538 0
M  V30 21566 H 2051.81 6.62468 4.108 0
M  V30 21567 N 2056.04 -0.0835127 1.57379 0
M  V30 21568 C 2057 -1.08477 2.01905 0
M  V30 21569 C 2058 -1.32278 0.91428 0
M  V30 21570 O 2059.19 -1.28196 1.17947 0
M  V30 21571 C 2056.32 -2.43121 2.38967 0
M  V30 21572 H 2057.52 -0.701256 2.91586 0
M  V30 21573 H 2055.07 -0.328903 1.528 0
M  V30 21574 H 2055.8 -2.86326 1.52275 0
M  V30 21575 H 2055.59 -2.2719 3.19573 0
M  V30 21576 H 2057.08 -3.15113 2.74032 0
M  V30 21577 N 2057.52 -1.53558 -0.354624 0
M  V30 21578 C 2058.46 -1.80769 -1.43497 0
M  V30 21579 C 2059.43 -0.65269 -1.52739 0
M  V30 21580 O 2060.62 -0.895997 -1.68453 0
M  V30 21581 C 2057.76 -2.01311 -2.80299 0
M  V30 21582 C 2056.87 -3.29028 -2.79937 0
M  V30 21583 C 2056.01 -3.39698 -4.08385 0
M  V30 21584 C 2055.04 -4.61406 -4.02208 0
M  V30 21585 N 2054.18 -4.6917 -5.22326 0
M  V30 21586 H 2059.02 -2.72949 -1.19594 0
M  V30 21587 H 2056.56 -1.35202 -0.579546 0
M  V30 21588 H 2058.52 -2.1121 -3.59786 0
M  V30 21589 H 2057.15 -1.12456 -3.02578 0
M  V30 21590 H 2056.2 -3.28027 -1.92619 0
M  V30 21591 H 2057.51 -4.186 -2.71248 0
M  V30 21592 H 2056.66 -3.48968 -4.96292 0
M  V30 21593 H 2055.4 -2.48162 -4.19842 0
M  V30 21594 H 2054.41 -4.52225 -3.12687 0
M  V30 21595 H 2055.63 -5.54295 -3.92344 0
M  V30 21596 H 2053.58 -3.80538 -5.34347 0
M  V30 21597 H 2053.5 -5.52662 -5.15849 0
M  V30 21598 H 2054.76 -4.82736 -6.12034 0
M  V30 21599 N 2058.99 0.615033 -1.45104 0
M  V30 21600 C 2059.94 1.72617 -1.53206 0
M  V30 21601 C 2060.91 1.6173 -0.378499 0
M  V30 21602 O 2062.1 1.81418 -0.590937 0
M  V30 21603 C 2059.24 3.1091 -1.49763 0
M  V30 21604 C 2058.35 3.32657 -2.75615 0
M  V30 21605 C 2057.48 4.61014 -2.63894 0
M  V30 21606 C 2056.52 4.75993 -3.84834 0
M  V30 21607 N 2055.66 5.95642 -3.71692 0
M  V30 21608 H 2060.5 1.65028 -2.48133 0
M  V30 21609 H 2058.04 0.804792 -1.23132 0
M  V30 21610 H 2059.99 3.90911 -1.45755 0
M  V30 21611 H 2058.62 3.17475 -0.583921 0
M  V30 21612 H 2057.68 2.46484 -2.89741 0
M  V30 21613 H 2058.99 3.39601 -3.65339 0
M  V30 21614 H 2058.14 5.49198 -2.5781 0
M  V30 21615 H 2056.88 4.56455 -1.71756 0
M  V30 21616 H 2055.89 3.86234 -3.91284 0
M  V30 21617 H 2057.11 4.82354 -4.78028 0
M  V30 21618 H 2055.06 5.92143 -2.82318 0
M  V30 21619 H 2054.97 6.03713 -4.55046 0
M  V30 21620 H 2056.24 6.86345 -3.69528 0
M  V30 21621 N 2060.47 1.3227 0.85688 0
M  V30 21622 C 2061.72 1.22885 1.61329 0
M  V30 21623 C 2062.05 -0.209425 1.93067 0
M  V30 21624 O 2061.33 -1.14596 1.57156 0
M  V30 21625 C 2061.61 2.0863 2.93506 0
M  V30 21626 C 2061.46 3.60824 2.68563 0
M  V30 21627 C 2062.78 1.94573 3.94752 0
M  V30 21628 H 2059.9 0.447751 0.585395 0
M  V30 21629 H 2062.54 1.62193 0.989615 0
M  V30 21630 H 2060.69 1.75236 3.46734 0
M  V30 21631 H 2062.36 4.0442 2.21906 0
M  V30 21632 H 2060.61 3.83601 2.02566 0
M  V30 21633 H 2061.28 4.16143 3.6267 0
M  V30 21634 H 2063.75 2.23822 3.50775 0
M  V30 21635 H 2062.63 2.56848 4.85098 0
M  V30 21636 H 2062.89 0.912736 4.32575 0
M  V30 21637 N 2061.95 -1.07287 1.15444 0
M  V30 21638 C 2062.91 -2.12679 0.854419 0
M  V30 21639 C 2063.91 -1.60135 -0.146116 0
M  V30 21640 O 2065.1 -1.73999 0.0835953 0
M  V30 21641 C 2062.23 -3.39782 0.275849 0
M  V30 21642 H 2063.43 -2.40726 1.7886 0
M  V30 21643 H 2060.98 -1.23187 0.96201 0
M  V30 21644 H 2061.72 -3.17377 -0.666496 0
M  V30 21645 H 2061.5 -3.79222 0.996665 0
M  V30 21646 H 2062.99 -4.17516 0.0835417 0
M  V30 21647 N 2063.43 -0.951342 -1.25647 0
M  V30 21648 C 2064.36 -0.413176 -2.24428 0
M  V30 21649 C 2065.34 0.503664 -1.54603 0
M  V30 21650 O 2066.52 0.438794 -1.83322 0
M  V30 21651 C 2063.65 0.405254 -3.36267 0
M  V30 21652 C 2062.7 -0.45151 -4.24103 0
M  V30 21653 S 2063.53 -1.88173 -5.01349 0
M  V30 21654 C 2064.68 -1.07164 -6.16658 0
M  V30 21655 H 2064.92 -1.25033 -2.6973 0
M  V30 21656 H 2062.45 -0.755177 -1.34672 0
M  V30 21657 H 2064.41 0.871528 -4.01142 0
M  V30 21658 H 2063.07 1.21719 -2.89557 0
M  V30 21659 H 2062.26 0.176047 -5.03692 0
M  V30 21660 H 2061.86 -0.852865 -3.64146 0
M  V30 21661 H 2064.16 -0.318733 -6.7675 0
M  V30 21662 H 2065.1 -1.84134 -6.8374 0
M  V30 21663 H 2065.51 -0.603216 -5.61268 0
M  V30 21664 N 2064.91 1.40216 -0.719531 0
M  V30 21665 C 2065.84 2.28192 -0.0185278 0
M  V30 21666 C 2066.82 1.43553 0.763632 0
M  V30 21667 O 2068 1.72961 0.749443 0
M  V30 21668 C 2065.13 3.24179 0.981108 0
M  V30 21669 C 2064.17 4.25518 0.289289 0
M  V30 21670 S 2065.01 5.26351 -0.985661 0
M  V30 21671 C 2066.16 6.25899 0.011772 0
M  V30 21672 H 2066.4 2.87299 -0.764643 0
M  V30 21673 H 2063.93 1.45709 -0.510709 0
M  V30 21674 H 2065.89 3.80005 1.55262 0
M  V30 21675 H 2064.55 2.64122 1.69995 0
M  V30 21676 H 2063.74 4.93045 1.04512 0
M  V30 21677 H 2063.34 3.73411 -0.209776 0
M  V30 21678 H 2065.63 6.72054 0.857313 0
M  V30 21679 H 2066.58 7.0529 -0.630218 0
M  V30 21680 H 2066.99 5.63238 0.377261 0
M  V30 21681 N 2066.38 0.466004 1.50553 0
M  V30 21682 C 2067.61 -0.0885768 2.0671 0
M  V30 21683 C 2068.03 -1.33958 1.33044 0
M  V30 21684 O 2067.38 -1.78102 0.398219 0
M  V30 21685 C 2067.43 -0.381842 3.59478 0
M  V30 21686 O 2067.16 0.81954 4.30366 0
M  V30 21687 C 2068.66 -0.98395 4.32242 0
M  V30 21688 H 2065.88 0.00481473 0.670983 0
M  V30 21689 H 2068.42 0.653327 1.93783 0
M  V30 21690 H 2066.58 -1.07367 3.72224 0
M  V30 21691 H 2066.99 0.56106 5.21491 0
M  V30 21692 H 2068.46 -1.13895 5.40122 0
M  V30 21693 H 2068.94 -1.97271 3.92404 0
M  V30 21694 H 2069.55 -0.330654 4.24013 0
M  V30 21695 N 2067.86 -1.56346 0.198413 0
M  V30 21696 C 2068.79 -2.16476 -0.753037 0
M  V30 21697 C 2069.81 -1.12748 -1.17438 0
M  V30 21698 O 2071 -1.39827 -1.10953 0
M  V30 21699 C 2068.1 -2.71472 -2.0287 0
M  V30 21700 C 2067.27 -4.00136 -1.76663 0
M  V30 21701 C 2066.33 -4.39925 -2.88708 0
M  V30 21702 O 2065.35 -5.07283 -2.58173 0
M  V30 21703 N 2066.56 -4.03701 -4.1714 0
M  V30 21704 H 2069.32 -2.98747 -0.238812 0
M  V30 21705 H 2066.88 -1.61892 0.0165651 0
M  V30 21706 H 2068.87 -2.95073 -2.76973 0
M  V30 21707 H 2067.44 -1.93637 -2.45405 0
M  V30 21708 H 2066.66 -3.84633 -0.863216 0
M  V30 21709 H 2067.95 -4.84116 -1.56555 0
M  V30 21710 H 2067.35 -3.49528 -4.448 0
M  V30 21711 H 2065.91 -4.32245 -4.8786 0
M  V30 21712 N 2069.34 0.0751653 -1.57421 0
M  V30 21713 C 2070.75 0.627391 -1.75843 0
M  V30 21714 C 2071.1 1.78086 -0.823397 0
M  V30 21715 O 2070.23 2.16399 -0.00667483 0
M  V30 21716 C 2070.82 1.14489 -3.18869 0
M  V30 21717 C 2069.38 1.64301 -3.38648 0
M  V30 21718 C 2068.53 0.560994 -2.71566 0
M  V30 21719 H 2071.48 -0.150994 -1.5798 0
M  V30 21720 H 2071.5 2.01378 -3.22842 0
M  V30 21721 H 2071.01 0.305165 -3.86898 0
M  V30 21722 H 2069.11 2.50609 -2.75728 0
M  V30 21723 H 2069.23 1.72227 -4.47073 0
M  V30 21724 H 2067.59 1.00523 -2.34024 0
M  V30 21725 H 2068.37 -0.268489 -3.42248 0
M  V30 21726 N 2070.82 1.53744 0.346476 0
M  V30 21727 C 2072.23 1.62331 0.922251 0
M  V30 21728 C 2072.58 0.502763 1.89649 0
M  V30 21729 O 2071.71 -0.367943 2.13249 0
M  V30 21730 C 2072.3 2.94243 1.67948 0
M  V30 21731 C 2070.86 3.05102 2.20431 0
M  V30 21732 C 2070.01 2.57759 1.02252 0
M  V30 21733 H 2072.96 1.58209 0.124698 0
M  V30 21734 H 2072.98 2.83118 2.54213 0
M  V30 21735 H 2072.49 3.75779 0.970157 0
M  V30 21736 H 2070.59 2.28194 2.94547 0
M  V30 21737 H 2070.7 4.1052 2.47003 0
M  V30 21738 H 2069.07 2.13095 1.39508 0
M  V30 21739 H 2069.85 3.41731 0.327885 0
M  V30 21740 N 2072.3 -0.607329 1.45428 0
M  V30 21741 C 2073.26 -1.69997 1.53732 0
M  V30 21742 C 2074.26 -1.55304 0.416799 0
M  V30 21743 O 2075.45 -1.60367 0.680287 0
M  V30 21744 C 2072.58 -3.09267 1.43411 0
M  V30 21745 H 2073.77 -1.64001 2.51085 0
M  V30 21746 H 2071.33 -0.82308 1.32872 0
M  V30 21747 H 2072.06 -3.2084 0.47243 0
M  V30 21748 H 2071.85 -3.2134 2.24685 0
M  V30 21749 H 2073.34 -3.88855 1.52255 0
M  V30 21750 N 2073.77 -1.32722 -0.849853 0
M  V30 21751 C 2075 -1.26568 -1.63671 0
M  V30 21752 C 2075.42 0.165453 -1.88074 0
M  V30 21753 O 2074.77 1.1041 -1.45313 0
M  V30 21754 C 2074.83 -2.027 -2.99324 0
M  V30 21755 O 2074.55 -3.40229 -2.75999 0
M  V30 21756 C 2076.05 -2.03626 -3.93766 0
M  V30 21757 H 2073.27 -0.436491 -0.509624 0
M  V30 21758 H 2075.81 -1.74922 -1.05937 0
M  V30 21759 H 2073.97 -1.58056 -3.53691 0
M  V30 21760 H 2074.38 -3.79256 -3.62305 0
M  V30 21761 H 2075.85 -2.61369 -4.862 0
M  V30 21762 H 2076.33 -1.02373 -4.27102 0
M  V30 21763 H 2076.94 -2.48239 -3.45337 0
M  V30 21764 N 2075.25 1.06673 -1.16011 0
M  V30 21765 C 2076.66 1.60868 -0.947549 0
M  V30 21766 C 2077.01 1.89469 0.509491 0
M  V30 21767 O 2076.14 1.66526 1.38195 0
M  V30 21768 C 2076.73 2.92266 -1.71365 0
M  V30 21769 C 2075.29 3.43177 -1.54618 0
M  V30 21770 C 2074.44 2.17128 -1.72484 0
M  V30 21771 H 2077.39 0.896725 -1.30937 0
M  V30 21772 H 2077.41 3.61505 -1.1872 0
M  V30 21773 H 2076.92 2.71417 -2.77406 0
M  V30 21774 H 2075.03 3.69093 -0.51001 0
M  V30 21775 H 2075.14 4.1876 -2.3276 0
M  V30 21776 H 2073.5 2.27162 -1.15193 0
M  V30 21777 H 2074.29 1.98766 -2.79905 0
M  V30 21778 N 2076.73 0.957992 1.25141 0
M  V30 21779 C 2077.96 0.631888 1.97015 0
M  V30 21780 C 2078.37 -0.796708 1.71167 0
M  V30 21781 O 2077.73 -1.53335 0.989683 0
M  V30 21782 C 2077.78 0.885137 3.50496 0
M  V30 21783 O 2077.5 2.25756 3.75454 0
M  V30 21784 C 2079 0.571882 4.39596 0
M  V30 21785 H 2076.22 0.236606 0.6279 0
M  V30 21786 H 2078.77 1.28328 1.59224 0
M  V30 21787 H 2076.92 0.280102 3.86386 0
M  V30 21788 H 2077.34 2.33023 4.69894 0
M  V30 21789 H 2078.81 0.799598 5.46178 0
M  V30 21790 H 2079.29 -0.493643 4.36417 0
M  V30 21791 H 2079.89 1.15639 4.09277 0
M  V30 21792 N 2078.21 -1.39832 0.726957 0
M  V30 21793 C 2079.14 -2.333 0.0966938 0
M  V30 21794 C 2080.12 -1.53492 -0.733095 0
M  V30 21795 O 2081.3 -1.81916 -0.679712 0
M  V30 21796 C 2078.43 -3.37545 -0.817367 0
M  V30 21797 C 2077.39 -4.279 -0.0923447 0
M  V30 21798 C 2076.71 -5.22777 -1.12288 0
M  V30 21799 C 2078.01 -5.11425 1.06028 0
M  V30 21800 H 2079.71 -2.86255 0.877412 0
M  V30 21801 H 2077.25 -1.37635 0.423378 0
M  V30 21802 H 2079.21 -4.01878 -1.26776 0
M  V30 21803 H 2077.93 -2.83011 -1.63011 0
M  V30 21804 H 2076.59 -3.65035 0.338339 0
M  V30 21805 H 2076.24 -4.64542 -1.92898 0
M  V30 21806 H 2075.94 -5.84076 -0.64259 0
M  V30 21807 H 2077.46 -5.89987 -1.57314 0
M  V30 21808 H 2078.88 -5.69148 0.688715 0
M  V30 21809 H 2077.27 -5.81825 1.46968 0
M  V30 21810 H 2078.34 -4.46731 1.88571 0
M  V30 21811 N 2079.69 -0.473982 -1.50304 0
M  V30 21812 C 2081.1 -0.0195635 -1.8669 0
M  V30 21813 C 2081.45 1.38613 -1.38856 0
M  V30 21814 O 2080.57 2.02811 -0.754772 0
M  V30 21815 C 2081.17 -0.0287258 -3.38788 0
M  V30 21816 C 2079.73 0.370234 -3.74575 0
M  V30 21817 C 2078.87 -0.412963 -2.74208 0
M  V30 21818 H 2081.83 -0.688116 -1.43006 0
M  V30 21819 H 2081.85 0.772789 -3.7257 0
M  V30 21820 H 2081.36 -1.05193 -3.73572 0
M  V30 21821 H 2079.46 1.39768 -3.45392 0
M  V30 21822 H 2079.57 0.0695687 -4.79049 0
M  V30 21823 H 2077.94 0.13371 -2.54349 0
M  V30 21824 H 2078.72 -1.43573 -3.11836 0
M  V30 21825 N 2081.16 1.56239 -0.206702 0
M  V30 21826 C 2082.58 1.58903 0.148953 0
M  V30 21827 C 2082.78 1.22319 1.60126 0
M  V30 21828 O 2081.84 0.951402 2.3389 0
M  V30 21829 C 2083.15 3.00253 -0.163906 0
M  V30 21830 C 2084.7 3.12824 -0.104945 0
M  V30 21831 C 2085.17 4.56326 -0.391273 0
M  V30 21832 N 2086.66 4.61948 -0.340308 0
M  V30 21833 C 2087.4 5.70894 -0.535549 0
M  V30 21834 N 2086.89 6.88261 -0.791765 0
M  V30 21835 N 2088.69 5.6014 -0.469005 0
M  V30 21836 H 2080.84 1.78298 -1.15428 0
M  V30 21837 H 2083.1 0.828039 -0.46158 0
M  V30 21838 H 2082.81 3.31621 -1.17133 0
M  V30 21839 H 2082.68 3.73485 0.528093 0
M  V30 21840 H 2085.07 2.81261 0.893101 0
M  V30 21841 H 2085.15 2.41953 -0.830197 0
M  V30 21842 H 2084.79 4.88603 -1.38669 0
M  V30 21843 H 2084.72 5.25402 0.355001 0
M  V30 21844 H 2087.21 3.77605 -0.149364 0
M  V30 21845 H 2087.53 7.67193 -0.929241 0
M  V30 21846 H 2085.87 6.90041 -0.828792 0
M  V30 21847 H 2089.06 4.67325 -0.269173 0
M  V30 21848 H 2089.24 6.44983 -0.624576 0
M  V30 21849 N 2082.64 -0.0668159 1.57458 0
M  V30 21850 C 2083.57 -1.0791 2.07069 0
M  V30 21851 C 2084.55 -1.40063 0.965207 0
M  V30 21852 O 2085.74 -1.49604 1.23823 0
M  V30 21853 C 2082.87 -2.39113 2.51877 0
M  V30 21854 C 2081.82 -2.213 3.66347 0
M  V30 21855 C 2081.15 -3.57931 3.97227 0
M  V30 21856 C 2082.45 -1.63013 4.9621 0
M  V30 21857 H 2084.14 -0.666254 2.91893 0
M  V30 21858 H 2081.69 -0.319039 1.40421 0
M  V30 21859 H 2083.64 -3.10226 2.85198 0
M  V30 21860 H 2082.37 -2.82387 1.64088 0
M  V30 21861 H 2081.02 -1.52628 3.33317 0
M  V30 21862 H 2080.67 -3.98784 3.06562 0
M  V30 21863 H 2080.37 -3.4685 4.74309 0
M  V30 21864 H 2081.9 -4.30467 4.33048 0
M  V30 21865 H 2083.31 -2.23997 5.27729 0
M  V30 21866 H 2081.71 -1.62614 5.77648 0
M  V30 21867 H 2082.78 -0.592078 4.81272 0
M  V30 21868 N 2084.12 -1.53926 -0.338317 0
M  V30 21869 C 2085.53 -1.62818 -0.913629 0
M  V30 21870 C 2085.88 -0.512813 -1.8938 0
M  V30 21871 O 2085.01 0.356629 -2.13441 0
M  V30 21872 C 2085.6 -2.9513 -1.66385 0
M  V30 21873 C 2084.16 -3.06267 -2.1881 0
M  V30 21874 C 2083.31 -2.58298 -1.00884 0
M  V30 21875 H 2086.26 -1.58273 -0.116306 0
M  V30 21876 H 2086.28 -2.84463 -2.52708 0
M  V30 21877 H 2085.79 -3.76288 -0.950215 0
M  V30 21878 H 2083.89 -2.29753 -2.93333 0
M  V30 21879 H 2084.01 -4.11824 -2.44822 0
M  V30 21880 H 2082.37 -2.13832 -1.38376 0
M  V30 21881 H 2083.15 -3.419 -0.309757 0
M  V30 21882 N 2085.6 0.599608 -1.45748 0
M  V30 21883 C 2086.55 1.70431 -1.51451 0
M  V30 21884 C 2087.53 1.56421 -0.376992 0
M  V30 21885 O 2088.73 1.65623 -0.624354 0
M  V30 21886 C 2085.85 3.09198 -1.49169 0
M  V30 21887 C 2084.94 3.28565 -2.68153 0
M  V30 21888 N 2085.33 3.1816 -3.93202 0
M  V30 21889 C 2083.63 3.59458 -2.64018 0
M  V30 21890 C 2084.33 3.39074 -4.72656 0
M  V30 21891 N 2083.31 3.63439 -4.04243 0
M  V30 21892 H 2087.11 1.60891 -2.4595 0
M  V30 21893 H 2084.62 0.803119 -1.41152 0
M  V30 21894 H 2086.62 3.88461 -1.5134 0
M  V30 21895 H 2085.28 3.19881 -0.557335 0
M  V30 21896 H 2086.29 2.96389 -4.24704 0
M  V30 21897 H 2082.97 3.7693 -1.79528 0
M  V30 21898 H 2084.36 3.36356 -5.81648 0
M  V30 21899 N 2087.08 1.33171 0.842803 0
M  V30 21900 C 2088.35 1.15008 1.58216 0
M  V30 21901 C 2088.73 -0.285047 2.09167 0
M  V30 21902 O 2088.08 -1.28349 1.89047 0
M  V30 21903 C 2088.29 2.18785 2.71908 0
M  V30 21904 C 2089.64 2.52736 3.41188 0
M  V30 21905 O 2090.66 2.17422 2.82146 0
M  V30 21906 O 2089.52 3.13321 4.47763 0
M  V30 21907 H 2086.62 0.444573 0.69734 0
M  V30 21908 H 2089.16 1.44741 0.8859 0
M  V30 21909 H 2087.94 3.15201 2.31871 0
M  V30 21910 H 2087.56 1.90116 3.49202 0
M  V30 21911 N 2088.56 -1.06056 1.16576 0
M  V30 21912 C 2089.8 -1.79164 0.950155 0
M  V30 21913 C 2090.13 -1.87092 -0.520588 0
M  V30 21914 O 2089.41 -1.36429 -1.38627 0
M  V30 21915 C 2089.69 -3.23525 1.58125 0
M  V30 21916 C 2089.55 -3.23663 3.1235 0
M  V30 21917 C 2090.86 -4.21138 1.27792 0
M  V30 21918 H 2087.98 -0.650413 0.3466 0
M  V30 21919 H 2090.63 -1.24019 1.43942 0
M  V30 21920 H 2088.78 -3.70615 1.16521 0
M  V30 21921 H 2090.45 -2.84716 3.62953 0
M  V30 21922 H 2088.69 -2.62248 3.45555 0
M  V30 21923 H 2089.36 -4.25512 3.51629 0
M  V30 21924 H 2091.84 -3.82502 1.63803 0
M  V30 21925 H 2090.71 -5.20408 1.74547 0
M  V30 21926 H 2090.97 -4.4166 0.197169 0
M  V30 21927 N 2090.03 -0.964615 -1.24631 0
M  V30 21928 C 2091.28 -0.625742 -1.92905 0
M  V30 21929 C 2091.61 0.836529 -1.75259 0
M  V30 21930 O 2090.89 1.60146 -1.10379 0
M  V30 21931 C 2091.17 -0.997473 -3.46009 0
M  V30 21932 C 2091.02 -2.51621 -3.72836 0
M  V30 21933 C 2092.34 -0.529778 -4.369 0
M  V30 21934 H 2089.46 -0.228804 -0.700584 0
M  V30 21935 H 2092.1 -1.20306 -1.47059 0
M  V30 21936 H 2090.25 -0.506207 -3.85188 0
M  V30 21937 H 2091.93 -3.082 -3.43235 0
M  V30 21938 H 2090.17 -2.94954 -3.18095 0
M  V30 21939 H 2090.84 -2.72681 -4.79947 0
M  V30 21940 H 2093.32 -0.951326 -4.05079 0
M  V30 21941 H 2092.19 -0.818472 -5.42764 0
M  V30 21942 H 2092.45 0.570178 -4.38408 0
M  V30 21943 N 2091.51 1.39445 -0.734362 0
M  V30 21944 C 2092.92 1.8335 -0.352097 0
M  V30 21945 C 2093.27 1.61344 1.11635 0
M  V30 21946 O 2092.4 1.10427 1.86105 0
M  V30 21947 C 2092.99 3.32848 -0.632286 0
M  V30 21948 C 2091.55 3.75174 -0.303522 0
M  V30 21949 C 2090.7 2.62452 -0.895228 0
M  V30 21950 H 2093.65 1.28446 -0.932054 0
M  V30 21951 H 2093.67 3.80378 0.0961584 0
M  V30 21952 H 2093.18 3.48832 -1.70111 0
M  V30 21953 H 2091.28 3.64777 0.759492 0
M  V30 21954 H 2091.4 4.72615 -0.785637 0
M  V30 21955 H 2089.76 2.52658 -0.321907 0
M  V30 21956 H 2090.54 2.81242 -1.9687 0
M  V30 21957 N 2092.99 0.481946 1.5005 0
M  V30 21958 C 2093.95 -0.295344 2.27289 0
M  V30 21959 C 2094.95 -0.910886 1.32512 0
M  V30 21960 O 2096.14 -0.778377 1.55843 0
M  V30 21961 C 2093.27 -1.42179 3.09835 0
M  V30 21962 H 2094.47 0.382176 2.97455 0
M  V30 21963 H 2092.02 0.236325 1.54503 0
M  V30 21964 H 2092.76 -2.13404 2.44191 0
M  V30 21965 H 2092.54 -0.986087 3.79498 0
M  V30 21966 H 2094.03 -1.96982 3.68223 0
M  V30 21967 N 2094.47 -1.56127 0.214985 0
M  V30 21968 C 2095.74 -1.8994 -0.467153 0
M  V30 21969 C 2096.12 -1.13139 -1.78221 0
M  V30 21970 O 2095.47 -0.238654 -2.2725 0
M  V30 21971 C 2095.68 -3.42576 -0.666524 0
M  V30 21972 C 2097.03 -4.13209 -0.976927 0
M  V30 21973 O 2098.05 -3.48138 -0.753545 0
M  V30 21974 O 2096.91 -5.2825 -1.40052 0
M  V30 21975 H 2094.01 -0.789533 -0.246102 0
M  V30 21976 H 2096.55 -1.67748 0.256681 0
M  V30 21977 H 2095.33 -3.90426 0.261344 0
M  V30 21978 H 2094.95 -3.70526 -1.44209 0
M  V30 21979 N 2095.95 0.0584645 -1.57492 0
M  V30 21980 C 2096.89 1.08667 -2.05655 0
M  V30 21981 C 2097.89 1.39265 -0.964446 0
M  V30 21982 O 2099.09 1.38515 -1.1495 0
M  V30 21983 H 2095.47 0.367834 -0.655898 0
M  V30 21984 H 2097.44 0.654416 -2.91136 0
M  V30 21985 C 2096.19 2.38807 -2.52718 0
M  V30 21986 H 2095.51 2.16117 -3.36353 0
M  V30 21987 H 2096.95 3.09167 -2.90158 0
M  V30 21988 C 2095.41 3.0571 -1.41573 0
M  V30 21989 O 2095.94 3.94342 -0.765316 0
M  V30 21990 N 2094.15 2.66551 -1.15754 0
M  V30 21991 H 2093.69 1.94564 -1.68827 0
M  V30 21992 H 2093.65 3.11636 -0.415957 0
M  V30 21993 N 2097.42 1.54103 0.330149 0
M  V30 21994 C 2098.84 1.44666 0.674089 0
M  V30 21995 C 2099.04 0.614208 1.91911 0
M  V30 21996 O 2098.1 0.110427 2.52258 0
M  V30 21997 C 2099.41 2.88311 0.854235 0
M  V30 21998 C 2100.96 2.98171 0.951998 0
M  V30 21999 C 2101.43 4.42952 1.16436 0
M  V30 22000 N 2102.92 4.46536 1.23125 0
M  V30 22001 C 2103.66 5.55709 1.41333 0
M  V30 22002 N 2103.15 6.74863 1.56626 0
M  V30 22003 N 2104.95 5.43345 1.43988 0
M  V30 22004 H 2097.1 2.06712 -0.488258 0
M  V30 22005 H 2099.36 0.934976 -0.1566 0
M  V30 22006 H 2099.07 3.51698 0.0107232 0
M  V30 22007 H 2098.94 3.34042 1.75202 0
M  V30 22008 H 2101.33 2.34916 1.78602 0
M  V30 22009 H 2101.41 2.55781 0.0308205 0
M  V30 22010 H 2101.05 5.06793 0.335219 0
M  V30 22011 H 2100.98 4.82946 2.09931 0
M  V30 22012 H 2103.47 3.60679 1.12777 0
M  V30 22013 H 2103.79 7.53826 1.70193 0
M  V30 22014 H 2102.13 6.77783 1.53737 0
M  V30 22015 H 2105.32 4.49211 1.31632 0
M  V30 22016 H 2105.5 6.28484 1.57836 0
M  V30 22017 N 2098.9 -0.59187 1.46064 0
M  V30 22018 C 2100.18 -1.35177 1.41374 0
M  V30 22019 C 2100.56 -2.10898 0.09244 0
M  V30 22020 O 2099.91 -2.08901 -0.925879 0
M  V30 22021 C 2100.12 -2.28545 2.63758 0
M  V30 22022 C 2101.47 -2.90662 3.09517 0
M  V30 22023 O 2102.49 -2.38861 2.64242 0
M  V30 22024 O 2101.35 -3.84728 3.88133 0
M  V30 22025 H 2098.44 -0.606905 0.561778 0
M  V30 22026 H 2100.99 -0.61365 1.58216 0
M  V30 22027 H 2099.76 -1.71959 3.51491 0
M  V30 22028 H 2099.38 -3.09711 2.49328 0
M  V30 22029 N 2100.38 -1.33616 -0.835729 0
M  V30 22030 C 2101.66 -1.15846 -1.57604 0
M  V30 22031 C 2102.04 0.273951 -2.09315 0
M  V30 22032 O 2101.39 1.27345 -1.89725 0
M  V30 22033 C 2101.6 -2.20224 -2.70744 0
M  V30 22034 C 2102.94 -2.54542 -3.39843 0
M  V30 22035 O 2103.97 -2.18915 -2.80989 0
M  V30 22036 O 2102.83 -3.15692 -4.46095 0
M  V30 22037 H 2099.92 -0.448265 -0.694973 0
M  V30 22038 H 2102.47 -1.45209 -0.878211 0
M  V30 22039 H 2101.24 -3.16426 -2.30196 0
M  V30 22040 H 2100.86 -1.91965 -3.48188 0
M  V30 22041 N 2101.86 1.05436 -1.17136 0
M  V30 22042 C 2103.27 1.59854 -0.964558 0
M  V30 22043 C 2103.62 1.89999 0.489367 0
M  V30 22044 O 2102.75 1.67983 1.36421 0
M  V30 22045 C 2103.34 2.90432 -1.74455 0
M  V30 22046 C 2101.9 3.41518 -1.58249 0
M  V30 22047 C 2101.05 2.15286 -1.74777 0
M  V30 22048 H 2104 0.882787 -1.31881 0
M  V30 22049 H 2104.02 3.60225 -1.22548 0
M  V30 22050 H 2103.53 2.6846 -2.80269 0
M  V30 22051 H 2101.63 3.68531 -0.549129 0
M  V30 22052 H 2101.74 4.16267 -2.37188 0
M  V30 22053 H 2100.11 2.25927 -1.17596 0
M  V30 22054 H 2100.89 1.95787 -2.81997 0
M  V30 22055 N 2103.34 0.971211 1.24118 0
M  V30 22056 C 2104.25 0.511904 2.28947 0
M  V30 22057 C 2105.26 -0.428843 1.68633 0
M  V30 22058 O 2106.44 -0.301023 1.99138 0
M  V30 22059 C 2103.5 -0.187222 3.46194 0
M  V30 22060 C 2102.56 0.793786 4.21898 0
M  V30 22061 C 2101.8 0.12793 5.33547 0
M  V30 22062 O 2102.02 -1.08301 5.60024 0
M  V30 22063 O 2100.95 0.821863 5.96263 0
M  V30 22064 H 2104.78 1.38346 2.70359 0
M  V30 22065 H 2102.37 0.738411 1.29876 0
M  V30 22066 H 2104.25 -0.579802 4.17392 0
M  V30 22067 H 2102.92 -1.03369 3.06752 0
M  V30 22068 H 2101.83 1.23689 3.53061 0
M  V30 22069 H 2103.16 1.60877 4.65166 0
M  V30 22070 N 2104.81 -1.39054 0.741747 0
M  V30 22071 C 2106.06 -1.99612 0.289503 0
M  V30 22072 C 2106.38 -1.59538 -1.13168 0
M  V30 22073 O 2107.58 -2.12981 -1.68379 0
M  V30 22074 C 2106.04 -3.56862 0.466657 0
M  V30 22075 C 2105.65 -4.05894 1.89616 0
M  V30 22076 C 2107.39 -4.24431 0.0765289 0
M  V30 22077 C 2105.3 -5.55742 2.0225 0
M  V30 22078 H 2104.23 -0.746725 0.10449 0
M  V30 22079 H 2106.88 -1.58968 0.916594 0
M  V30 22080 H 2105.26 -3.95335 -0.229437 0
M  V30 22081 H 2106.43 -3.78739 2.62475 0
M  V30 22082 H 2104.75 -3.5101 2.24011 0
M  V30 22083 H 2107.35 -5.3449 0.149851 0
M  V30 22084 H 2107.69 -4.04861 -0.969208 0
M  V30 22085 H 2108.22 -3.91156 0.724031 0
M  V30 22086 H 2104.96 -5.80201 3.05036 0
M  V30 22087 H 2104.48 -5.84678 1.33836 0
M  V30 22088 H 2106.16 -6.21258 1.80685 0
M  V30 22089 N 2106.29 -0.489897 -1.49792 0
M  V30 22090 C 2107.54 0.0603289 -2.0161 0
M  V30 22091 C 2107.85 1.39071 -1.37545 0
M  V30 22092 O 2109.06 2.02698 -1.80626 0
M  V30 22093 C 2107.52 0.157998 -3.59553 0
M  V30 22094 C 2107.12 -1.16507 -4.32585 0
M  V30 22095 C 2108.87 0.65918 -4.19351 0
M  V30 22096 C 2106.78 -1.03017 -5.82358 0
M  V30 22097 H 2105.71 0.0263203 -0.75354 0
M  V30 22098 H 2108.36 -0.627641 -1.72432 0
M  V30 22099 H 2106.74 0.910172 -3.85398 0
M  V30 22100 H 2107.91 -1.92967 -4.1845 0
M  V30 22101 H 2106.23 -1.59883 -3.84482 0
M  V30 22102 H 2108.82 0.77744 -5.29018 0
M  V30 22103 H 2109.17 1.65527 -3.81977 0
M  V30 22104 H 2109.7 -0.0361409 -3.97784 0
M  V30 22105 H 2106.44 -2.00019 -6.24238 0
M  V30 22106 H 2105.96 -0.306276 -5.99018 0
M  V30 22107 H 2107.64 -0.704383 -6.43154 0
M  V30 22108 N 2107.77 1.56011 -0.223262 0
M  V30 22109 C 2108.7 2.23355 0.680795 0
M  V30 22110 C 2109.68 1.20584 1.19973 0
M  V30 22111 O 2110.87 1.49174 1.24342 0
M  V30 22112 C 2108 2.91478 1.88833 0
M  V30 22113 C 2106.95 4.00736 1.50316 0
M  V30 22114 C 2106.28 4.56164 2.7896 0
M  V30 22115 C 2107.58 5.17697 0.69188 0
M  V30 22116 H 2109.27 2.99162 0.119304 0
M  V30 22117 H 2106.82 1.43891 0.055942 0
M  V30 22118 H 2108.77 3.37282 2.52623 0
M  V30 22119 H 2107.49 2.13121 2.47481 0
M  V30 22120 H 2106.15 3.55665 0.888708 0
M  V30 22121 H 2105.8 3.74535 3.35757 0
M  V30 22122 H 2105.5 5.29903 2.53922 0
M  V30 22123 H 2107.02 5.04687 3.43691 0
M  V30 22124 H 2108.44 5.59872 1.23353 0
M  V30 22125 H 2106.84 5.97679 0.538515 0
M  V30 22126 H 2107.91 4.83964 -0.301131 0
M  V30 22127 N 2109.25 -0.0501116 1.5752 0
M  V30 22128 C 2110.2 -1.07575 2.06229 0
M  V30 22129 C 2111.19 -1.38752 0.971818 0
M  V30 22130 O 2112.4 -1.37904 1.15683 0
M  V30 22131 H 2108.77 -0.364351 0.657839 0
M  V30 22132 H 2110.74 -0.638967 2.91479 0
M  V30 22133 C 2109.49 -2.37464 2.53981 0
M  V30 22134 H 2108.81 -2.1433 3.37495 0
M  V30 22135 H 2110.25 -3.07624 2.91793 0
M  V30 22136 C 2108.71 -3.04955 1.43192 0
M  V30 22137 O 2109.24 -3.93931 0.786218 0
M  V30 22138 N 2107.45 -2.65933 1.17165 0
M  V30 22139 H 2107 -1.93666 1.69856 0
M  V30 22140 H 2106.95 -3.11411 0.432478 0
M  V30 22141 N 2110.73 -1.54276 -0.321972 0
M  V30 22142 C 2111.95 -1.76523 -1.07923 0
M  V30 22143 C 2112.37 -0.514589 -1.81652 0
M  V30 22144 O 2111.73 0.514775 -1.75089 0
M  V30 22145 C 2111.78 -2.95941 -2.07609 0
M  V30 22146 O 2111.5 -4.1617 -1.36874 0
M  V30 22147 C 2113 -3.30411 -2.95539 0
M  V30 22148 H 2110.22 -0.589261 -0.320956 0
M  V30 22149 H 2112.76 -2.01169 -0.367616 0
M  V30 22150 H 2110.92 -2.73564 -2.74302 0
M  V30 22151 H 2111.33 -4.83352 -2.03644 0
M  V30 22152 H 2112.81 -4.17265 -3.61378 0
M  V30 22153 H 2113.28 -2.47647 -3.62723 0
M  V30 22154 H 2113.89 -3.54872 -2.34405 0
M  V30 22155 N 2112.2 0.584116 -1.46376 0
M  V30 22156 C 2113.43 1.36845 -1.55181 0
M  V30 22157 C 2113.85 1.87817 -0.192443 0
M  V30 22158 O 2113.2 1.63538 0.81003 0
M  V30 22159 C 2113.26 2.55694 -2.55545 0
M  V30 22160 O 2112.98 2.06834 -3.86201 0
M  V30 22161 C 2114.48 3.48263 -2.74277 0
M  V30 22162 H 2111.7 0.418095 -0.524822 0
M  V30 22163 H 2114.24 0.710227 -1.91771 0
M  V30 22164 H 2112.4 3.17508 -2.21963 0
M  V30 22165 H 2112.81 2.84224 -4.40814 0
M  V30 22166 H 2114.28 4.2814 -3.48426 0
M  V30 22167 H 2114.76 4.00109 -1.81134 0
M  V30 22168 H 2115.37 2.92285 -3.08949 0
M  V30 22169 N 2113.68 1.34058 0.828631 0
M  V30 22170 C 2114.91 1.29156 1.61636 0
M  V30 22171 C 2115.33 -0.135511 1.88313 0
M  V30 22172 O 2114.68 -1.08084 1.47051 0
M  V30 22173 C 2114.73 2.07436 2.96062 0
M  V30 22174 O 2114.46 3.44577 2.70552 0
M  V30 22175 C 2115.96 2.09865 3.90476 0
M  V30 22176 H 2113.18 0.444543 0.502615 0
M  V30 22177 H 2115.72 1.76585 1.0314 0
M  V30 22178 H 2113.88 1.63663 3.51131 0
M  V30 22179 H 2114.29 3.84972 3.56225 0
M  V30 22180 H 2115.76 2.69071 4.8198 0
M  V30 22181 H 2116.24 1.09155 4.2542 0
M  V30 22182 H 2116.85 2.53702 3.41344 0
M  V30 22183 N 2115.16 -1.04814 1.17694 0
M  V30 22184 C 2116.39 -1.81287 0.990891 0
M  V30 22185 C 2116.8 -1.83422 -0.464018 0
M  V30 22186 O 2116.14 -1.2629 -1.33403 0
M  V30 22187 C 2116.2 -3.28516 1.46005 0
M  V30 22188 C 2115.87 -3.50056 2.93785 0
M  V30 22189 C 2116.87 -3.41866 3.91693 0
M  V30 22190 C 2114.55 -3.76896 3.32046 0
M  V30 22191 C 2116.54 -3.60206 5.25861 0
M  V30 22192 C 2114.23 -3.94884 4.66379 0
M  V30 22193 C 2115.23 -3.86539 5.63095 0
M  V30 22194 O 2114.92 -4.04021 6.94998 0
M  V30 22195 H 2114.65 -0.577989 0.350578 0
M  V30 22196 H 2117.2 -1.3304 1.56491 0
M  V30 22197 H 2115.43 -3.77696 0.829622 0
M  V30 22198 H 2117.12 -3.86525 1.23908 0
M  V30 22199 H 2117.89 -3.21104 3.6348 0
M  V30 22200 H 2113.77 -3.82493 2.57332 0
M  V30 22201 H 2117.31 -3.53609 6.01337 0
M  V30 22202 H 2113.21 -4.15139 4.94297 0
M  V30 22203 H 2113.98 -4.21225 7.01792 0
M  V30 22204 N 2116.64 -0.977779 -1.23601 0
M  V30 22205 C 2117.87 -0.662189 -1.957 0
M  V30 22206 C 2118.28 0.77446 -1.72623 0
M  V30 22207 O 2117.62 1.53247 -1.01297 0
M  V30 22208 C 2117.68 -0.869464 -3.48827 0
M  V30 22209 C 2117.35 -2.28768 -3.95619 0
M  V30 22210 C 2118.34 -3.26617 -4.04497 0
M  V30 22211 C 2116.03 -2.61807 -4.28675 0
M  V30 22212 C 2118.02 -4.55586 -4.45781 0
M  V30 22213 C 2115.71 -3.91 -4.69641 0
M  V30 22214 C 2116.71 -4.87701 -4.7816 0
M  V30 22215 O 2116.4 -6.14587 -5.18206 0
M  V30 22216 H 2116.13 -0.245256 -0.629941 0
M  V30 22217 H 2118.68 -1.31105 -1.58116 0
M  V30 22218 H 2116.91 -0.163432 -3.86354 0
M  V30 22219 H 2118.6 -0.551434 -4.02137 0
M  V30 22220 H 2119.37 -3.02422 -3.79165 0
M  V30 22221 H 2115.25 -1.87252 -4.21257 0
M  V30 22222 H 2118.79 -5.31065 -4.52345 0
M  V30 22223 H 2114.69 -4.14991 -4.94422 0
M  V30 22224 H 2115.45 -6.18301 -5.36326 0
M  V30 22225 N 2118.12 1.38658 -0.749111 0
M  V30 22226 C 2119.35 2.04208 -0.313503 0
M  V30 22227 C 2119.76 1.56615 1.06153 0
M  V30 22228 O 2119.1 0.732462 1.68466 0
M  V30 22229 C 2119.16 3.58611 -0.252636 0
M  V30 22230 C 2118.82 4.29241 -1.56847 0
M  V30 22231 C 2119.82 4.5492 -2.51683 0
M  V30 22232 C 2117.51 4.67517 -1.83667 0
M  V30 22233 C 2119.5 5.17901 -3.71561 0
M  V30 22234 C 2117.19 5.30223 -3.0382 0
M  V30 22235 C 2118.19 5.5535 -3.97587 0
M  V30 22236 O 2117.87 6.16752 -5.15628 0
M  V30 22237 H 2117.61 0.662881 -0.132533 0
M  V30 22238 H 2120.16 1.7842 -1.01762 0
M  V30 22239 H 2118.39 3.83353 0.507689 0
M  V30 22240 H 2120.08 4.05612 0.152857 0
M  V30 22241 H 2120.84 4.25783 -2.32237 0
M  V30 22242 H 2116.72 4.47308 -1.1152 0
M  V30 22243 H 2120.27 5.37429 -4.44765 0
M  V30 22244 H 2116.16 5.58783 -3.2316 0
M  V30 22245 H 2116.93 6.35241 -5.1615 0
M  V30 22246 N 2119.6 0.497834 1.49531 0
M  V30 22247 C 2120.82 -0.0468921 2.07347 0
M  V30 22248 C 2121.25 -1.30349 1.35612 0
M  V30 22249 O 2120.6 -1.76559 0.411884 0
M  V30 22250 C 2120.65 -0.286776 3.59458 0
M  V30 22251 O 2119.76 -1.36212 3.89256 0
M  V30 22252 H 2119.1 0.0248202 0.663536 0
M  V30 22253 H 2121.63 0.696547 1.92378 0
M  V30 22254 H 2121.64 -0.519243 4.04682 0
M  V30 22255 H 2120.31 0.631334 4.1108 0
M  V30 22256 H 2118.89 -1.11485 3.55845 0
M  V30 22257 N 2121.07 -1.5589 0.231532 0
M  V30 22258 C 2122.32 -1.98855 -0.398041 0
M  V30 22259 C 2122.65 -1.11925 -1.58702 0
M  V30 22260 O 2121.93 -0.179155 -1.93673 0
M  V30 22261 C 2122.21 -3.50572 -0.822893 0
M  V30 22262 C 2122.06 -4.48272 0.370417 0
M  V30 22263 C 2123.38 -4.0696 -1.67547 0
M  V30 22264 H 2120.5 -0.722953 -0.143207 0
M  V30 22265 H 2123.14 -1.87116 0.329767 0
M  V30 22266 H 2121.29 -3.60706 -1.44303 0
M  V30 22267 H 2122.97 -4.50137 1.0087 0
M  V30 22268 H 2121.21 -4.2173 1.01617 0
M  V30 22269 H 2121.88 -5.51992 0.0300558 0
M  V30 22270 H 2124.36 -3.99831 -1.15214 0
M  V30 22271 H 2123.23 -5.13412 -1.94162 0
M  V30 22272 H 2123.49 -3.5446 -2.64217 0
M  V30 22273 N 2122.55 0.0417572 -1.57545 0
M  V30 22274 C 2123.97 0.397174 -1.54579 0
M  V30 22275 C 2124.17 1.77381 -0.955943 0
M  V30 22276 O 2123.22 2.45948 -0.571457 0
M  V30 22277 C 2124.54 0.310665 -2.99091 0
M  V30 22278 C 2126.08 0.388675 -3.10577 0
M  V30 22279 C 2126.56 0.331754 -4.56797 0
M  V30 22280 N 2128.05 0.390933 -4.61547 0
M  V30 22281 C 2128.79 0.36958 -5.72208 0
M  V30 22282 N 2128.28 0.301264 -6.92145 0
M  V30 22283 N 2130.07 0.41837 -5.60541 0
M  V30 22284 H 2122.23 -0.859292 -1.94242 0
M  V30 22285 H 2124.49 -0.325513 -0.890362 0
M  V30 22286 H 2124.19 -0.634841 -3.45923 0
M  V30 22287 H 2124.07 1.10929 -3.6052 0
M  V30 22288 H 2126.46 1.32461 -2.63701 0
M  V30 22289 H 2126.54 -0.439073 -2.52004 0
M  V30 22290 H 2126.18 -0.60046 -5.04338 0
M  V30 22291 H 2126.11 1.17744 -5.13268 0
M  V30 22292 H 2128.6 0.44676 -3.7525 0
M  V30 22293 H 2128.91 0.289723 -7.72257 0
M  V30 22294 H 2127.26 0.2675 -6.94485 0
M  V30 22295 H 2130.45 0.469643 -4.65738 0
M  V30 22296 H 2130.62 0.398261 -6.46775 0
M  V30 22297 N 2124.03 1.54445 0.313786 0
M  V30 22298 C 2125.28 1.73373 1.05212 0
M  V30 22299 C 2125.61 0.511165 1.87352 0
M  V30 22300 O 2124.88 -0.491833 1.88179 0
M  V30 22301 C 2125.17 3.01517 1.96874 0
M  V30 22302 C 2125.02 4.34046 1.17999 0
M  V30 22303 C 2126.34 3.25462 2.96248 0
M  V30 22304 H 2123.46 0.630823 0.381092 0
M  V30 22305 H 2126.1 1.87149 0.327891 0
M  V30 22306 H 2124.25 2.89903 2.58628 0
M  V30 22307 H 2125.92 4.57559 0.586302 0
M  V30 22308 H 2124.16 4.31109 0.482437 0
M  V30 22309 H 2124.84 5.19949 1.85355 0
M  V30 22310 H 2127.31 3.36602 2.44619 0
M  V30 22311 H 2126.19 4.16464 3.57559 0
M  V30 22312 H 2126.45 2.43151 3.69229 0
M  V30 22313 N 2125.51 -0.576345 1.46683 0
M  V30 22314 C 2126.75 -1.33432 1.52323 0
M  V30 22315 C 2127.08 -1.93688 0.177545 0
M  V30 22316 O 2126.34 -1.77343 -0.827521 0
M  V30 22317 C 2126.64 -2.4787 2.57479 0
M  V30 22318 C 2126.3 -2.05566 4.01314 0
M  V30 22319 C 2124.96 -1.93745 4.40473 0
M  V30 22320 C 2127.32 -1.7302 4.91644 0
M  V30 22321 C 2124.64 -1.47644 5.67819 0
M  V30 22322 C 2127 -1.28396 6.19433 0
M  V30 22323 C 2125.66 -1.15156 6.57492 0
M  V30 22324 H 2124.93 -0.488262 0.557388 0
M  V30 22325 H 2127.58 -0.648342 1.80191 0
M  V30 22326 H 2125.88 -3.21942 2.23295 0
M  V30 22327 H 2127.58 -3.06078 2.5907 0
M  V30 22328 H 2124.17 -2.15704 3.70364 0
M  V30 22329 H 2128.35 -1.81036 4.62104 0
M  V30 22330 H 2123.61 -1.36041 5.96073 0
M  V30 22331 H 2127.78 -1.02268 6.8885 0
M  V30 22332 H 2125.41 -0.792103 7.56062 0
M  V30 22333 N 2126.99 -1.34495 -0.82151 0
M  V30 22334 C 2127.95 -1.2608 -1.91407 0
M  V30 22335 C 2128.95 -0.175671 -1.59838 0
M  V30 22336 O 2130.14 -0.428389 -1.6885 0
M  V30 22337 C 2127.27 -0.9469 -3.27485 0
M  V30 22338 H 2128.46 -2.23212 -2.00291 0
M  V30 22339 H 2126.02 -1.18804 -1.01565 0
M  V30 22340 H 2126.75 0.0211878 -3.24293 0
M  V30 22341 H 2126.54 -1.73181 -3.51782 0
M  V30 22342 H 2128.03 -0.913228 -4.07492 0
M  V30 22343 N 2128.46 1.04188 -1.18248 0
M  V30 22344 C 2129.71 1.77017 -0.975161 0
M  V30 22345 C 2130.03 1.88572 0.496551 0
M  V30 22346 O 2129.3 1.40982 1.36018 0
M  V30 22347 H 2127.88 0.655725 -0.357818 0
M  V30 22348 H 2130.55 1.25748 -1.48908 0
M  V30 22349 H 2129.64 2.78326 -1.41213 0
M  V30 22350 N 2129.94 0.98432 1.23081 0
M  V30 22351 C 2130.87 0.48581 2.23992 0
M  V30 22352 C 2131.89 -0.414468 1.57436 0
M  V30 22353 O 2133.08 -0.217976 1.77164 0
M  V30 22354 C 2130.18 -0.316143 3.37422 0
M  V30 22355 C 2129.35 0.578204 4.33561 0
M  V30 22356 C 2128.41 -0.170568 5.25923 0
M  V30 22357 O 2127.43 0.441138 5.67488 0
M  V30 22358 N 2128.64 -1.45541 5.61959 0
M  V30 22359 H 2131.4 1.3535 2.67396 0
M  V30 22360 H 2128.96 0.858041 1.37293 0
M  V30 22361 H 2130.95 -0.825504 3.96191 0
M  V30 22362 H 2129.52 -1.08487 2.93171 0
M  V30 22363 H 2128.74 1.26835 3.73238 0
M  V30 22364 H 2130.03 1.18757 4.94747 0
M  V30 22365 H 2129.43 -1.97385 5.30147 0
M  V30 22366 H 2127.99 -1.91013 6.23183 0
M  V30 22367 N 2131.42 -1.38259 0.756453 0
M  V30 22368 C 2132.33 -2.34224 0.132796 0
M  V30 22369 C 2133.35 -1.59415 -0.697351 0
M  V30 22370 O 2134.52 -1.91592 -0.620838 0
M  V30 22371 C 2131.59 -3.38542 -0.747682 0
M  V30 22372 C 2130.65 -4.2919 0.097166 0
M  V30 22373 C 2129.88 -5.28526 -0.741383 0
M  V30 22374 O 2130.1 -5.34959 -1.97926 0
M  V30 22375 O 2129.04 -6.01691 -0.158669 0
M  V30 22376 H 2132.86 -2.89257 0.925409 0
M  V30 22377 H 2130.45 -1.40155 0.517388 0
M  V30 22378 H 2132.33 -4.02409 -1.25081 0
M  V30 22379 H 2131.01 -2.8586 -1.51874 0
M  V30 22380 H 2129.91 -3.68475 0.646311 0
M  V30 22381 H 2131.25 -4.85135 0.830947 0
M  V30 22382 N 2132.9 -0.505757 -1.49264 0
M  V30 22383 C 2134.31 -0.0591588 -1.86606 0
M  V30 22384 C 2134.66 1.35636 -1.41765 0
M  V30 22385 O 2133.79 2.01164 -0.797622 0
M  V30 22386 C 2134.38 -0.100581 -3.38651 0
M  V30 22387 C 2132.94 0.290698 -3.75276 0
M  V30 22388 C 2132.09 -0.471033 -2.7327 0
M  V30 22389 H 2135.04 -0.718294 -1.41514 0
M  V30 22390 H 2135.06 0.693588 -3.74125 0
M  V30 22391 H 2134.57 -1.13093 -3.71257 0
M  V30 22392 H 2132.67 1.3241 -3.48279 0
M  V30 22393 H 2132.78 -0.0320604 -4.79089 0
M  V30 22394 H 2131.15 0.0797288 -2.54575 0
M  V30 22395 H 2131.93 -1.50155 -3.0872 0
M  V30 22396 N 2134.38 1.55765 -0.239796 0
M  V30 22397 C 2135.6 2.03618 0.394243 0
M  V30 22398 C 2136.03 1.1181 1.51261 0
M  V30 22399 O 2135.38 0.1097 1.80968 0
M  V30 22400 C 2135.43 3.49545 0.886029 0
M  V30 22401 O 2134.54 3.60872 1.99613 0
M  V30 22402 H 2133.88 0.658289 0.0869012 0
M  V30 22403 H 2136.41 2.0134 -0.363774 0
M  V30 22404 H 2136.42 3.90226 1.1911 0
M  V30 22405 H 2135.09 4.15845 0.0675883 0
M  V30 22406 H 2133.67 3.32085 1.6963 0
M  V30 22407 N 2135.85 -0.0334016 1.57565 0
M  V30 22408 C 2137.09 -0.729978 1.90921 0
M  V30 22409 C 2137.46 -1.72752 0.8379 0
M  V30 22410 O 2138.66 -2.47203 1.05566 0
M  V30 22411 C 2136.93 -1.38584 3.29438 0
M  V30 22412 S 2138.49 -2.11217 3.8462 0
M  V30 22413 H 2135.31 -0.241926 0.668575 0
M  V30 22414 H 2137.91 0.0152577 1.95494 0
M  V30 22415 H 2136.61 -0.64653 4.05275 0
M  V30 22416 H 2136.14 -2.16971 3.28157 0
M  V30 22417 H 2138.16 -3.383 3.62998 0
M  V30 22418 N 2137.33 -1.54609 -0.305591 0
M  V30 22419 C 2138.58 -1.73929 -1.04291 0
M  V30 22420 C 2138.91 -0.521093 -1.87078 0
M  V30 22421 O 2138.19 0.481847 -1.88437 0
M  V30 22422 C 2138.47 -3.02557 -1.95272 0
M  V30 22423 C 2138.32 -4.34666 -1.15695 0
M  V30 22424 C 2139.64 -3.27028 -2.94517 0
M  V30 22425 H 2136.76 -0.632835 -0.377741 0
M  V30 22426 H 2139.4 -1.87321 -0.317961 0
M  V30 22427 H 2137.55 -2.91271 -2.57087 0
M  V30 22428 H 2139.22 -4.57863 -0.562028 0
M  V30 22429 H 2137.47 -4.31359 -0.459568 0
M  V30 22430 H 2138.14 -5.20925 -1.82595 0
M  V30 22431 H 2140.61 -3.37894 -2.42831 0
M  V30 22432 H 2139.49 -4.18355 -3.55346 0
M  V30 22433 H 2139.75 -2.45106 -3.67934 0
M  V30 22434 N 2138.81 0.568558 -1.46987 0
M  V30 22435 C 2140.06 1.32596 -1.5424 0
M  V30 22436 C 2140.41 1.91386 -0.197273 0
M  V30 22437 O 2139.7 1.74294 0.795739 0
M  V30 22438 C 2139.9 2.46501 -2.5879 0
M  V30 22439 C 2139.73 1.98871 -4.03337 0
M  V30 22440 C 2138.5 1.83234 -4.70907 0
M  V30 22441 C 2140.7 1.53991 -4.90705 0
M  V30 22442 N 2138.68 1.29824 -6.00016 0
M  V30 22443 C 2140.05 1.12269 -6.09751 0
M  V30 22444 C 2142.1 1.41938 -4.7724 0
M  V30 22445 C 2140.81 0.596928 -7.16819 0
M  V30 22446 C 2142.83 0.907644 -5.84394 0
M  V30 22447 C 2142.19 0.500286 -7.02621 0
M  V30 22448 H 2138.29 0.477653 -0.61917 0
M  V30 22449 H 2140.88 0.645779 -1.83678 0
M  V30 22450 H 2139.05 3.12064 -2.31238 0
M  V30 22451 H 2140.78 3.13481 -2.55953 0
M  V30 22452 H 2137.54 2.05608 -4.26641 0
M  V30 22453 H 2137.96 1.0524 -6.6877 0
M  V30 22454 H 2142.6 1.72047 -3.86212 0
M  V30 22455 H 2140.32 0.283446 -8.07603 0
M  V30 22456 H 2143.91 0.8181 -5.76019 0
M  V30 22457 H 2142.79 0.110434 -7.84122 0
M  V30 22458 N 2140.29 1.34929 0.814366 0
M  V30 22459 C 2141.25 1.27093 1.90736 0
M  V30 22460 C 2142.25 0.184145 1.59742 0
M  V30 22461 O 2143.44 0.437337 1.68621 0
M  V30 22462 C 2140.57 0.964254 3.26979 0
M  V30 22463 H 2141.77 2.24271 1.99105 0
M  V30 22464 H 2139.32 1.19341 1.00933 0
M  V30 22465 H 2140.05 -0.0039895 3.243 0
M  V30 22466 H 2139.84 1.75045 3.50859 0
M  V30 22467 H 2141.33 0.934826 4.07002 0
M  V30 22468 N 2141.77 -1.0356 1.18799 0
M  V30 22469 C 2143.01 -1.76497 0.984535 0
M  V30 22470 C 2143.34 -1.88833 -0.486544 0
M  V30 22471 O 2142.61 -1.41702 -1.35268 0
M  V30 22472 H 2141.19 -0.653818 0.36129 0
M  V30 22473 H 2143.85 -1.24956 1.49573 0
M  V30 22474 H 2142.94 -2.77573 1.42687 0
M  V30 22475 N 2143.25 -0.990834 -1.22557 0
M  V30 22476 C 2144.49 -0.676169 -1.91832 0
M  V30 22477 C 2144.85 0.782981 -1.75747 0
M  V30 22478 O 2144.14 1.55864 -1.11432 0
M  V30 22479 C 2144.33 -1.01474 -3.42692 0
M  V30 22480 C 2144.16 -2.50525 -3.73453 0
M  V30 22481 C 2142.93 -3.16896 -3.93579 0
M  V30 22482 C 2145.13 -3.48636 -3.78097 0
M  V30 22483 N 2143.11 -4.55445 -4.11634 0
M  V30 22484 C 2144.48 -4.72635 -4.01268 0
M  V30 22485 C 2146.54 -3.42972 -3.60936 0
M  V30 22486 C 2145.24 -5.91661 -4.0906 0
M  V30 22487 C 2147.27 -4.61372 -3.69986 0
M  V30 22488 C 2146.63 -5.8417 -3.93605 0
M  V30 22489 H 2142.73 -0.298668 -0.722718 0
M  V30 22490 H 2145.31 -1.27042 -1.47541 0
M  V30 22491 H 2143.48 -0.449081 -3.85795 0
M  V30 22492 H 2145.22 -0.656274 -3.99343 0
M  V30 22493 H 2141.97 -2.67369 -3.9091 0
M  V30 22494 H 2142.39 -5.27304 -4.24594 0
M  V30 22495 H 2147.04 -2.4905 -3.41663 0
M  V30 22496 H 2144.75 -6.85988 -4.27137 0
M  V30 22497 H 2148.34 -4.58576 -3.58049 0
M  V30 22498 H 2147.22 -6.74257 -4.00434 0
M  V30 22499 N 2144.72 1.37856 -0.763775 0
M  V30 22500 C 2145.97 2.00179 -0.324977 0
M  V30 22501 C 2146.3 1.60492 1.09343 0
M  V30 22502 O 2145.58 0.847295 1.75075 0
M  V30 22503 C 2145.86 3.57157 -0.459452 0
M  V30 22504 C 2145.71 4.06777 -1.9197 0
M  V30 22505 C 2147.03 4.39874 0.141077 0
M  V30 22506 H 2144.15 0.727238 -0.119555 0
M  V30 22507 H 2146.79 1.6365 -0.965327 0
M  V30 22508 H 2144.94 3.88405 0.0857008 0
M  V30 22509 H 2146.62 3.86128 -2.52394 0
M  V30 22510 H 2144.86 3.59266 -2.43127 0
M  V30 22511 H 2145.53 5.15845 -1.96489 0
M  V30 22512 H 2148.01 4.14837 -0.323975 0
M  V30 22513 H 2146.88 5.48897 0.0168029 0
M  V30 22514 H 2147.14 4.2463 1.23052 0
M  V30 22515 N 2146.2 0.513665 1.48994 0
M  V30 22516 C 2147.43 -0.0227686 2.06887 0
M  V30 22517 C 2147.84 -1.29658 1.37238 0
M  V30 22518 O 2147.2 -1.76745 0.454679 0
M  V30 22519 C 2147.25 -0.267284 3.60511 0
M  V30 22520 O 2146.97 0.956043 4.27541 0
M  V30 22521 C 2148.47 -0.845937 4.35154 0
M  V30 22522 H 2145.69 0.0261591 0.67049 0
M  V30 22523 H 2148.24 0.714646 1.91607 0
M  V30 22524 H 2146.39 -0.954707 3.75452 0
M  V30 22525 H 2146.81 0.726684 5.19442 0
M  V30 22526 H 2148.28 -0.966539 5.43472 0
M  V30 22527 H 2148.76 -1.84687 3.98481 0
M  V30 22528 H 2149.36 -0.19559 4.2485 0
M  V30 22529 N 2147.68 -1.55636 0.248053 0
M  V30 22530 C 2149.09 -1.84952 -0.254884 0
M  V30 22531 C 2149.44 -1.16988 -1.57506 0
M  V30 22532 O 2148.57 -0.448668 -2.11698 0
M  V30 22533 C 2149.16 -3.35535 -0.469244 0
M  V30 22534 C 2147.72 -3.65073 -0.916445 0
M  V30 22535 C 2146.87 -2.77299 0.00568866 0
M  V30 22536 H 2149.82 -1.51563 0.470584 0
M  V30 22537 H 2149.84 -3.57176 -1.31169 0
M  V30 22538 H 2149.35 -3.84972 0.491761 0
M  V30 22539 H 2147.45 -3.21114 -1.88988 0
M  V30 22540 H 2147.57 -4.72831 -0.772508 0
M  V30 22541 H 2145.93 -2.49626 -0.505882 0
M  V30 22542 H 2146.71 -3.29543 0.962088 0
M  V30 22543 N 2149.16 0.0250451 -1.5758 0
M  V30 22544 C 2150.43 0.750684 -1.80621 0
M  V30 22545 C 2150.81 1.93359 -0.847083 0
M  V30 22546 O 2150.16 2.28236 0.109857 0
M  V30 22547 C 2150.37 1.17995 -3.28448 0
M  V30 22548 C 2151.72 1.5942 -3.93536 0
M  V30 22549 O 2152.74 1.27442 -3.32621 0
M  V30 22550 O 2151.6 2.18788 -5.00793 0
M  V30 22551 H 2148.7 0.363355 -0.742901 0
M  V30 22552 H 2151.24 0.00151411 -1.697 0
M  V30 22553 H 2150.02 0.335683 -3.89857 0
M  V30 22554 H 2149.64 1.98901 -3.44273 0
M  V30 22555 N 2150.64 1.54769 0.297388 0
M  V30 22556 C 2151.87 1.77959 1.04948 0
M  V30 22557 C 2152.27 0.54095 1.81302 0
M  V30 22558 O 2151.62 -0.498902 1.76796 0
M  V30 22559 C 2151.68 2.93664 2.07368 0
M  V30 22560 C 2151.34 4.3162 1.50177 0
M  V30 22561 C 2152.34 5.11516 0.929935 0
M  V30 22562 C 2150.02 4.78229 1.53631 0
M  V30 22563 C 2152.02 6.36142 0.400253 0
M  V30 22564 C 2149.71 6.02817 1.00276 0
M  V30 22565 C 2150.7 6.81609 0.435703 0
M  V30 22566 O 2150.39 8.0385 -0.0897463 0
M  V30 22567 H 2150.12 0.597144 0.316852 0
M  V30 22568 H 2152.68 2.02548 0.341093 0
M  V30 22569 H 2150.91 2.64708 2.81898 0
M  V30 22570 H 2152.6 3.04398 2.68509 0
M  V30 22571 H 2153.36 4.76649 0.896125 0
M  V30 22572 H 2149.24 4.16926 1.96707 0
M  V30 22573 H 2152.79 6.97587 -0.0430005 0
M  V30 22574 H 2148.68 6.37169 1.03373 0
M  V30 22575 H 2149.45 8.18497 0.0232118 0
M  V30 22576 N 2152.11 -0.560755 1.47286 0
M  V30 22577 C 2153.06 -1.66355 1.55916 0
M  V30 22578 C 2154.05 -1.55367 0.418332 0
M  V30 22579 O 2155.24 -1.63909 0.668047 0
M  V30 22580 C 2152.37 -3.05134 1.57315 0
M  V30 22581 C 2151.45 -3.2134 2.7677 0
M  V30 22582 N 2151.85 -3.07623 4.01499 0
M  V30 22583 C 2150.14 -3.52332 2.73456 0
M  V30 22584 C 2150.84 -3.26423 4.8148 0
M  V30 22585 N 2149.82 -3.52594 4.13737 0
M  V30 22586 H 2153.62 -1.54314 2.50129 0
M  V30 22587 H 2151.14 -0.765413 1.43231 0
M  V30 22588 H 2153.13 -3.84312 1.61587 0
M  V30 22589 H 2151.79 -3.18291 0.64195 0
M  V30 22590 H 2152.8 -2.85025 4.32413 0
M  V30 22591 H 2149.48 -3.72037 1.89458 0
M  V30 22592 H 2150.87 -3.20816 5.90362 0
M  V30 22593 N 2153.59 -1.35359 -0.807199 0
M  V30 22594 C 2154.52 -1.24083 -1.92707 0
M  V30 22595 C 2155.54 -0.164267 -1.61969 0
M  V30 22596 O 2156.73 -0.417487 -1.73549 0
M  V30 22597 C 2153.83 -0.88785 -3.27063 0
M  V30 22598 C 2153 -2.06266 -3.85711 0
M  V30 22599 C 2152.06 -1.68555 -4.98473 0
M  V30 22600 O 2151.08 -2.40421 -5.15933 0
M  V30 22601 N 2152.29 -0.608828 -5.77298 0
M  V30 22602 H 2155.05 -2.20565 -2.02907 0
M  V30 22603 H 2152.61 -1.2852 -0.984589 0
M  V30 22604 H 2154.6 -0.61707 -3.99968 0
M  V30 22605 H 2153.17 -0.0127324 -3.12597 0
M  V30 22606 H 2152.39 -2.49727 -3.05008 0
M  V30 22607 H 2153.68 -2.84796 -4.21626 0
M  V30 22608 H 2153.08 -0.0117274 -5.65699 0
M  V30 22609 H 2151.64 -0.397827 -6.50585 0
M  V30 22610 N 2155.07 1.02928 -1.19346 0
M  V30 22611 C 2156.02 2.09544 -0.898634 0
M  V30 22612 C 2157 1.60321 0.136393 0
M  V30 22613 O 2158.2 1.76865 -0.0692414 0
M  V30 22614 C 2155.32 3.40486 -0.438666 0
M  V30 22615 C 2154.41 3.96444 -1.50641 0
M  V30 22616 N 2154.8 4.26071 -2.72575 0
M  V30 22617 C 2153.1 4.2445 -1.3696 0
M  V30 22618 C 2153.8 4.71011 -3.41355 0
M  V30 22619 N 2152.78 4.7252 -2.68749 0
M  V30 22620 H 2156.58 2.30342 -1.82538 0
M  V30 22621 H 2154.09 1.20785 -1.08557 0
M  V30 22622 H 2156.09 4.16376 -0.208902 0
M  V30 22623 H 2154.75 3.21109 0.481599 0
M  V30 22624 H 2155.76 4.15365 -3.09341 0
M  V30 22625 H 2152.44 4.14339 -0.512767 0
M  V30 22626 H 2153.83 5.02859 -4.45626 0
M  V30 22627 N 2156.55 0.997319 1.2203 0
M  V30 22628 C 2157.82 0.59145 1.86444 0
M  V30 22629 C 2158.2 -0.931144 1.89454 0
M  V30 22630 O 2157.55 -1.81492 1.38827 0
M  V30 22631 C 2157.76 1.21697 3.27095 0
M  V30 22632 C 2159.11 1.32027 4.03552 0
M  V30 22633 O 2160.13 1.1717 3.36377 0
M  V30 22634 O 2158.99 1.55846 5.23807 0
M  V30 22635 H 2156.09 0.201545 0.802065 0
M  V30 22636 H 2158.63 1.09348 1.29773 0
M  V30 22637 H 2157.41 2.25823 3.19562 0
M  V30 22638 H 2157.03 0.70081 3.91375 0
M  V30 22639 N 2158.03 -1.37449 0.771075 0
M  V30 22640 C 2158.96 -2.27966 0.103207 0
M  V30 22641 C 2159.94 -1.46288 -0.709827 0
M  V30 22642 O 2161.12 -1.75624 -0.684734 0
M  V30 22643 C 2158.25 -3.27597 -0.860115 0
M  V30 22644 C 2157.29 -4.26298 -0.131162 0
M  V30 22645 S 2158.13 -5.2233 1.18033 0
M  V30 22646 C 2159.28 -6.25511 0.220534 0
M  V30 22647 H 2159.52 -2.84263 0.870745 0
M  V30 22648 H 2157.05 -1.43713 0.564436 0
M  V30 22649 H 2159.01 -3.85506 -1.41052 0
M  V30 22650 H 2157.67 -2.70249 -1.60076 0
M  V30 22651 H 2156.86 -4.96584 -0.86141 0
M  V30 22652 H 2156.46 -3.72375 0.34822 0
M  V30 22653 H 2158.76 -6.74773 -0.607294 0
M  V30 22654 H 2159.7 -7.02465 0.891548 0
M  V30 22655 H 2160.11 -5.6425 -0.167959 0
M  V30 22656 N 2159.5 -0.52156 -1.4872 0
M  V30 22657 C 2160.73 0.013899 -2.07395 0
M  V30 22658 C 2161.15 1.28175 -1.37669 0
M  V30 22659 O 2160.51 1.75882 -0.439921 0
M  V30 22660 C 2160.56 0.229553 -3.59869 0
M  V30 22661 O 2159.66 1.30002 -3.91374 0
M  V30 22662 H 2159.01 -0.0353734 -0.663057 0
M  V30 22663 H 2161.54 -0.727065 -1.91246 0
M  V30 22664 H 2161.55 0.454795 -4.05457 0
M  V30 22665 H 2160.22 -0.696653 -4.10024 0
M  V30 22666 H 2158.8 1.0581 -3.57573 0
M  V30 22667 N 2160.98 1.55502 -0.256304 0
M  V30 22668 C 2162.23 1.99168 0.365812 0
M  V30 22669 C 2162.56 1.14455 1.57259 0
M  V30 22670 O 2161.81 0.197615 1.947 0
M  V30 22671 C 2162.11 3.48098 0.810077 0
M  V30 22672 C 2161.78 4.49967 -0.289975 0
M  V30 22673 C 2160.44 4.77544 -0.592079 0
M  V30 22674 C 2162.79 5.10877 -1.03217 0
M  V30 22675 C 2160.12 5.63304 -1.64029 0
M  V30 22676 C 2162.47 5.97775 -2.06996 0
M  V30 22677 C 2161.14 6.23681 -2.37861 0
M  V30 22678 H 2160.41 0.728809 0.13386 0
M  V30 22679 H 2163.05 1.87968 -0.366092 0
M  V30 22680 H 2161.36 3.56679 1.62134 0
M  V30 22681 H 2163.05 3.79279 1.30186 0
M  V30 22682 H 2159.64 4.28577 -0.0443795 0
M  V30 22683 H 2163.83 4.89612 -0.812025 0
M  V30 22684 H 2159.08 5.81628 -1.88465 0
M  V30 22685 H 2163.26 6.44013 -2.64992 0
M  V30 22686 H 2160.89 6.89929 -3.19221 0
M  V30 22687 N 2162.46 -0.0166879 1.57591 0
M  V30 22688 C 2163.74 -0.741095 1.81017 0
M  V30 22689 C 2164.12 -1.92907 0.857326 0
M  V30 22690 O 2163.47 -2.28291 -0.0977513 0
M  V30 22691 C 2163.68 -1.16252 3.29069 0
M  V30 22692 C 2165.02 -1.57331 3.94376 0
M  V30 22693 O 2166.05 -1.25676 3.33292 0
M  V30 22694 O 2164.91 -2.16129 5.01947 0
M  V30 22695 H 2162 -0.35941 0.744818 0
M  V30 22696 H 2164.55 0.00748551 1.69698 0
M  V30 22697 H 2163.32 -0.315003 3.9003 0
M  V30 22698 H 2162.94 -1.97072 3.45323 0
M  V30 22699 N 2163.94 -1.54924 -0.289176 0
M  V30 22700 C 2164.87 -1.89696 -1.36153 0
M  V30 22701 C 2165.85 -0.757081 -1.52323 0
M  V30 22702 O 2167.03 -1.01384 -1.65635 0
M  V30 22703 C 2164.16 -2.15468 -2.7238 0
M  V30 22704 C 2163.12 -3.31307 -2.70961 0
M  V30 22705 C 2162.44 -3.42522 -4.10588 0
M  V30 22706 C 2163.74 -4.68117 -2.31655 0
M  V30 22707 H 2165.44 -2.79513 -1.07299 0
M  V30 22708 H 2162.98 -1.34486 -0.514723 0
M  V30 22709 H 2164.94 -2.3838 -3.47495 0
M  V30 22710 H 2163.66 -1.22435 -3.02783 0
M  V30 22711 H 2162.32 -3.08337 -1.98302 0
M  V30 22712 H 2161.97 -2.46985 -4.38187 0
M  V30 22713 H 2161.67 -4.20397 -4.10537 0
M  V30 22714 H 2163.19 -3.67708 -4.87466 0
M  V30 22715 H 2164.61 -4.9068 -2.96489 0
M  V30 22716 H 2163 -5.4879 -2.42796 0
M  V30 22717 H 2164.07 -4.68033 -1.26781 0
M  V30 22718 N 2165.42 0.552936 -1.47582 0
M  V30 22719 C 2166.64 1.34003 -1.58297 0
M  V30 22720 C 2167.07 1.86625 -0.23511 0
M  V30 22721 O 2166.42 1.63197 0.789702 0
M  V30 22722 C 2166.47 2.48288 -2.61506 0
M  V30 22723 O 2165.58 3.50647 -2.17073 0
M  V30 22724 H 2164.92 0.397855 -0.531608 0
M  V30 22725 H 2167.45 0.667783 -1.93395 0
M  V30 22726 H 2167.46 2.94798 -2.8206 0
M  V30 22727 H 2166.13 2.09345 -3.59371 0
M  V30 22728 H 2164.71 3.10413 -2.06636 0
M  V30 22729 N 2166.89 1.35785 0.800009 0
M  V30 22730 C 2167.84 1.29246 1.91217 0
M  V30 22731 C 2168.81 0.16314 1.65297 0
M  V30 22732 O 2170 0.347924 1.87601 0
M  V30 22733 C 2167.14 1.07697 3.27865 0
M  V30 22734 C 2166.25 2.2961 3.65928 0
M  V30 22735 C 2165.38 2.01158 4.91639 0
M  V30 22736 C 2164.42 3.19089 5.22349 0
M  V30 22737 N 2163.56 2.90371 6.39241 0
M  V30 22738 H 2168.4 2.24348 1.96142 0
M  V30 22739 H 2165.94 1.11515 0.959316 0
M  V30 22740 H 2167.9 0.93233 4.06649 0
M  V30 22741 H 2166.53 0.162546 3.2239 0
M  V30 22742 H 2165.58 2.54915 2.82351 0
M  V30 22743 H 2166.89 3.1765 3.84578 0
M  V30 22744 H 2166.04 1.83563 5.78264 0
M  V30 22745 H 2164.78 1.10413 4.75037 0
M  V30 22746 H 2163.79 3.37255 4.34211 0
M  V30 22747 H 2165.01 4.10645 5.40877 0
M  V30 22748 H 2162.96 2.02227 6.24052 0
M  V30 22749 H 2162.88 3.71946 6.58173 0
M  V30 22750 H 2164.14 2.76331 7.28877 0
M  V30 22751 N 2168.37 -1.02294 1.19891 0
M  V30 22752 C 2169.62 -1.76051 1.00667 0
M  V30 22753 C 2169.95 -1.88654 -0.460802 0
M  V30 22754 O 2169.23 -1.4077 -1.34216 0
M  V30 22755 C 2169.51 -3.18331 1.68338 0
M  V30 22756 C 2169.36 -3.13562 3.22489 0
M  V30 22757 C 2170.68 -4.16859 1.41125 0
M  V30 22758 H 2167.8 -0.639057 0.367117 0
M  V30 22759 H 2170.44 -1.19377 1.47815 0
M  V30 22760 H 2168.59 -3.6672 1.28252 0
M  V30 22761 H 2170.26 -2.73025 3.71827 0
M  V30 22762 H 2168.51 -2.51121 3.53724 0
M  V30 22763 H 2169.18 -4.1411 3.64989 0
M  V30 22764 H 2171.65 -3.77097 1.75889 0
M  V30 22765 H 2170.53 -5.14592 1.91015 0
M  V30 22766 H 2170.79 -4.40809 0.33758 0
M  V30 22767 N 2169.85 -1.00378 -1.21499 0
M  V30 22768 C 2171.27 -0.71638 -1.42619 0
M  V30 22769 C 2171.47 0.70891 -1.88618 0
M  V30 22770 O 2170.52 1.47842 -2.04693 0
M  V30 22771 C 2171.84 -1.7312 -2.45866 0
M  V30 22772 C 2173.38 -1.74788 -2.5965 0
M  V30 22773 C 2173.86 -2.75162 -3.66128 0
M  V30 22774 N 2175.35 -2.73823 -3.73598 0
M  V30 22775 C 2176.08 -3.48149 -4.55609 0
M  V30 22776 N 2175.58 -4.32111 -5.41527 0
M  V30 22777 N 2177.37 -3.36805 -4.50021 0
M  V30 22778 H 2169.52 -1.92412 -0.899518 0
M  V30 22779 H 2171.79 -0.830441 -0.457244 0
M  V30 22780 H 2171.49 -2.75165 -2.19036 0
M  V30 22781 H 2171.37 -1.53287 -3.44649 0
M  V30 22782 H 2173.75 -0.734346 -2.85817 0
M  V30 22783 H 2173.84 -1.98693 -1.61105 0
M  V30 22784 H 2173.48 -3.76671 -3.40707 0
M  V30 22785 H 2173.41 -2.48523 -4.64267 0
M  V30 22786 H 2175.9 -2.12907 -3.12216 0
M  V30 22787 H 2176.21 -4.85624 -6.01156 0
M  V30 22788 H 2174.56 -4.36194 -5.41073 0
M  V30 22789 H 2177.75 -2.70643 -3.81929 0
M  V30 22790 H 2177.92 -3.94986 -5.13702 0
M  V30 22791 N 2171.33 1.37038 -0.778354 0
M  V30 22792 C 2172.57 1.99823 -0.34619 0
M  V30 22793 C 2172.91 1.61643 1.07634 0
M  V30 22794 O 2172.18 0.865817 1.74166 0
M  V30 22795 C 2172.47 3.56649 -0.497307 0
M  V30 22796 C 2172.32 4.04718 -1.96273 0
M  V30 22797 C 2173.64 4.39999 0.0944148 0
M  V30 22798 H 2170.76 0.725929 -0.127262 0
M  V30 22799 H 2173.4 1.62617 -0.98263 0
M  V30 22800 H 2171.55 3.88475 0.0445004 0
M  V30 22801 H 2173.22 3.8343 -2.56475 0
M  V30 22802 H 2171.46 3.56667 -2.46924 0
M  V30 22803 H 2172.13 5.13732 -2.01949 0
M  V30 22804 H 2174.61 4.1447 -0.367956 0
M  V30 22805 H 2173.49 5.48884 -0.0414159 0
M  V30 22806 H 2173.75 4.25911 1.18542 0
M  V30 22807 N 2172.81 0.529439 1.48441 0
M  V30 22808 C 2174.05 -0.00486384 2.02799 0
M  V30 22809 C 2174.39 -1.33985 1.40576 0
M  V30 22810 O 2173.66 -1.86523 0.551326 0
M  V30 22811 C 2173.94 -0.127443 3.59874 0
M  V30 22812 C 2173.8 1.23268 4.3258 0
M  V30 22813 C 2175.12 -0.854486 4.31725 0
M  V30 22814 H 2172.24 -0.00029358 0.737 0
M  V30 22815 H 2174.88 0.686364 1.7717 0
M  V30 22816 H 2173.03 -0.716153 3.81842 0
M  V30 22817 H 2174.7 1.86245 4.22031 0
M  V30 22818 H 2172.94 1.8147 3.94019 0
M  V30 22819 H 2173.61 1.09991 5.40931 0
M  V30 22820 H 2176.09 -0.354911 4.14584 0
M  V30 22821 H 2174.97 -0.909151 5.41318 0
M  V30 22822 H 2175.23 -1.90464 3.98968 0
M  V30 22823 N 2174.29 -1.55364 0.264547 0
M  V30 22824 C 2175.51 -2.03764 -0.358889 0
M  V30 22825 C 2175.93 -1.14327 -1.50249 0
M  V30 22826 O 2175.29 -0.161219 -1.81787 0
M  V30 22827 C 2175.34 -3.51366 -0.849959 0
M  V30 22828 O 2175.06 -4.37397 0.248086 0
M  V30 22829 C 2176.56 -4.15606 -1.54229 0
M  V30 22830 H 2173.78 -0.66582 -0.0832187 0
M  V30 22831 H 2176.32 -2.00677 0.39356 0
M  V30 22832 H 2174.48 -3.5493 -1.55253 0
M  V30 22833 H 2174.89 -5.24345 -0.127661 0
M  V30 22834 H 2176.37 -5.20522 -1.83742 0
M  V30 22835 H 2176.84 -3.63145 -2.47027 0
M  V30 22836 H 2177.45 -4.16015 -0.883843 0
M  V30 22837 N 2175.76 0.00833021 -1.57598 0
M  V30 22838 C 2177.01 0.695941 -1.90485 0
M  V30 22839 C 2177.34 1.73883 -0.864775 0
M  V30 22840 O 2176.62 1.94144 0.11758 0
M  V30 22841 C 2176.9 1.34667 -3.33971 0
M  V30 22842 C 2176.75 0.315885 -4.48689 0
M  V30 22843 C 2178.07 2.2751 -3.76732 0
M  V30 22844 H 2175.19 0.251528 -0.69275 0
M  V30 22845 H 2177.83 -0.0412539 -1.89955 0
M  V30 22846 H 2175.98 1.975 -3.34553 0
M  V30 22847 H 2177.66 -0.312127 -4.60243 0
M  V30 22848 H 2175.9 -0.362729 -4.32281 0
M  V30 22849 H 2176.57 0.810081 -5.46024 0
M  V30 22850 H 2179.05 1.74702 -3.77649 0
M  V30 22851 H 2177.92 2.70011 -4.77897 0
M  V30 22852 H 2178.18 3.15068 -3.10136 0
M  V30 22853 N 2177.24 1.55075 0.280956 0
M  V30 22854 C 2178.47 1.79322 1.03205 0
M  V30 22855 C 2178.88 0.56257 1.80224 0
M  V30 22856 O 2178.24 -0.468172 1.76393 0
M  V30 22857 C 2178.29 3.01341 1.99689 0
M  V30 22858 O 2178.01 4.19652 1.25792 0
M  V30 22859 C 2179.51 3.38131 2.86675 0
M  V30 22860 H 2176.73 0.597563 0.30522 0
M  V30 22861 H 2179.28 2.02073 0.31415 0
M  V30 22862 H 2177.43 2.8074 2.66953 0
M  V30 22863 H 2177.85 4.88582 1.90757 0
M  V30 22864 H 2179.32 4.267 3.50188 0
M  V30 22865 H 2179.8 2.57177 3.56029 0
M  V30 22866 H 2180.4 3.60962 2.24914 0
M  V30 22867 N 2178.72 -0.545102 1.47873 0
M  V30 22868 C 2179.65 -1.66719 1.55821 0
M  V30 22869 C 2180.63 -1.57357 0.409558 0
M  V30 22870 O 2181.81 -1.78045 0.619059 0
M  V30 22871 C 2178.94 -3.05037 1.47208 0
M  V30 22872 C 2177.99 -3.32805 2.66726 0
M  V30 22873 S 2178.82 -3.20731 4.28826 0
M  V30 22874 C 2179.98 -4.61522 4.22787 0
M  V30 22875 H 2180.21 -1.59724 2.5075 0
M  V30 22876 H 2177.74 -0.726882 1.3622 0
M  V30 22877 H 2179.7 -3.84815 1.42926 0
M  V30 22878 H 2178.36 -3.09486 0.536426 0
M  V30 22879 H 2177.55 -4.33672 2.56797 0
M  V30 22880 H 2177.16 -2.60669 2.68193 0
M  V30 22881 H 2179.45 -5.52729 3.91787 0
M  V30 22882 H 2180.39 -4.76507 5.23781 0
M  V30 22883 H 2180.8 -4.40136 3.53469 0
M  V30 22884 N 2180.2 -1.36208 -0.792797 0
M  V30 22885 C 2181.45 -1.29992 -1.54746 0
M  V30 22886 C 2181.77 0.121446 -1.94621 0
M  V30 22887 O 2181.04 1.06096 -1.64683 0
M  V30 22888 H 2179.62 -0.478184 -0.573889 0
M  V30 22889 H 2182.28 -1.70466 -0.944845 0
M  V30 22890 H 2181.37 -1.92505 -2.45658 0
M  V30 22891 N 2181.68 1.01656 -1.20431 0
M  V30 22892 C 2182.95 1.72424 -0.923539 0
M  V30 22893 C 2183.33 2.03324 0.567675 0
M  V30 22894 O 2182.68 1.69774 1.52935 0
M  V30 22895 C 2182.89 2.99208 -1.79654 0
M  V30 22896 C 2184.24 3.72472 -2.03838 0
M  V30 22897 O 2185.26 3.09164 -1.76907 0
M  V30 22898 O 2184.12 4.86314 -2.49321 0
M  V30 22899 H 2181.22 0.751461 -0.345305 0
M  V30 22900 H 2183.76 1.07504 -1.31305 0
M  V30 22901 H 2182.53 2.72695 -2.80629 0
M  V30 22902 H 2182.16 3.71869 -1.4071 0
M  V30 22903 N 2183.15 1.01021 1.20965 0
M  V30 22904 C 2184.06 0.584483 2.27202 0
M  V30 22905 C 2185.08 -0.374977 1.69912 0
M  V30 22906 O 2186.26 -0.237516 1.99995 0
M  V30 22907 C 2183.32 -0.0769879 3.46615 0
M  V30 22908 C 2182.38 0.927608 4.19159 0
M  V30 22909 C 2181.61 0.297609 5.3287 0
M  V30 22910 O 2181.84 -0.904289 5.63186 0
M  V30 22911 O 2180.77 1.01114 5.93346 0
M  V30 22912 H 2184.6 1.46877 2.65821 0
M  V30 22913 H 2182.18 0.779356 1.27461 0
M  V30 22914 H 2184.06 -0.446718 4.19026 0
M  V30 22915 H 2182.74 -0.935572 3.09885 0
M  V30 22916 H 2181.65 1.34859 3.48947 0
M  V30 22917 H 2182.98 1.75595 4.59812 0
M  V30 22918 N 2184.63 -1.36623 0.78561 0
M  V30 22919 C 2185.56 -2.28776 0.139379 0
M  V30 22920 C 2186.58 -1.49297 -0.649162 0
M  V30 22921 O 2187.77 -1.71786 -0.484971 0
M  V30 22922 C 2184.87 -3.28685 -0.825808 0
M  V30 22923 C 2184.04 -4.37311 -0.0881363 0
M  V30 22924 C 2183.1 -5.17206 -0.96871 0
M  V30 22925 O 2182.12 -5.67593 -0.427359 0
M  V30 22926 N 2183.33 -5.33275 -2.29342 0
M  V30 22927 H 2186.09 -2.84875 0.930938 0
M  V30 22928 H 2183.65 -1.48748 0.639179 0
M  V30 22929 H 2185.64 -3.7902 -1.41865 0
M  V30 22930 H 2184.21 -2.73254 -1.51826 0
M  V30 22931 H 2183.43 -3.8819 0.685747 0
M  V30 22932 H 2184.72 -5.07055 0.421052 0
M  V30 22933 H 2184.12 -4.93946 -2.75743 0
M  V30 22934 H 2182.68 -5.86868 -2.83599 0
M  V30 22935 N 2186.11 -0.537304 -1.48158 0
M  V30 22936 C 2187.36 -0.00587084 -2.02099 0
M  V30 22937 C 2187.68 1.3407 -1.41599 0
M  V30 22938 O 2186.95 1.86993 -0.583977 0
M  V30 22939 H 2185.53 0.000818022 -0.747 0
M  V30 22940 H 2188.19 -0.702798 -1.81788 0
M  V30 22941 H 2187.29 0.0970321 -3.11949 0
M  V30 22942 N 2187.59 1.55221 -0.272782 0
M  V30 22943 C 2188.54 2.23858 0.631705 0
M  V30 22944 C 2189.53 1.23481 1.15969 0
M  V30 22945 O 2190.74 1.41418 1.11359 0
M  V30 22946 H 2187.11 0.718404 0.222259 0
M  V30 22947 H 2189.08 2.98385 0.0299551 0
M  V30 22948 C 2187.83 2.9714 1.80563 0
M  V30 22949 H 2187.15 3.74166 1.40854 0
M  V30 22950 H 2188.59 3.4849 2.41517 0
M  V30 22951 C 2187.05 2.02478 2.69266 0
M  V30 22952 O 2187.58 1.57449 3.69557 0
M  V30 22953 N 2185.79 1.69028 2.36385 0
M  V30 22954 H 2185.34 2.05842 1.54877 0
M  V30 22955 H 2185.29 1.05961 2.96006 0
M  V30 22956 N 2189.07 2.77022e-05 1.576 0
M  V30 22957 C 2190.31 -0.685829 1.90851 0
M  V30 22958 C 2190.65 -1.73422 0.873984 0
M  V30 22959 O 2189.92 -1.94204 -0.107282 0
M  V30 22960 C 2190.2 -1.32893 3.34681 0
M  V30 22961 C 2190.06 -0.292085 4.48851 0
M  V30 22962 C 2191.38 -2.25509 3.77933 0
M  V30 22963 H 2188.49 -0.247851 0.694074 0
M  V30 22964 H 2191.14 0.0513272 1.89931 0
M  V30 22965 H 2189.29 -1.95723 3.35596 0
M  V30 22966 H 2190.96 0.336531 4.60071 0
M  V30 22967 H 2189.2 0.385648 4.32082 0
M  V30 22968 H 2189.87 -0.781112 5.46445 0
M  V30 22969 H 2192.35 -1.72696 3.7857 0
M  V30 22970 H 2191.22 -2.67473 4.79322 0
M  V30 22971 H 2191.49 -3.13419 3.11803 0
M  V30 22972 N 2190.54 -1.55222 -0.272728 0
M  V30 22973 C 2191.49 -1.84508 -1.33943 0
M  V30 22974 C 2192.48 -0.704015 -1.4468 0
M  V30 22975 O 2193.67 -0.965364 -1.48357 0
M  V30 22976 C 2190.8 -2.12071 -2.69964 0
M  V30 22977 C 2189.89 -3.32438 -2.63336 0
M  V30 22978 N 2190.28 -4.52338 -2.26327 0
M  V30 22979 C 2188.57 -3.35033 -2.94396 0
M  V30 22980 C 2189.28 -5.34429 -2.29696 0
M  V30 22981 N 2188.25 -4.72843 -2.6818 0
M  V30 22982 H 2192.05 -2.74756 -1.04338 0
M  V30 22983 H 2189.57 -1.55102 -0.481361 0
M  V30 22984 H 2191.56 -2.31209 -3.46912 0
M  V30 22985 H 2190.22 -1.23108 -3.00457 0
M  V30 22986 H 2191.24 -4.78432 -1.983 0
M  V30 22987 H 2187.91 -2.56263 -3.29599 0
M  V30 22988 H 2189.3 -6.40297 -2.03641 0
M  V30 22989 N 2192.02 0.537252 -1.4816 0
M  V30 22990 C 2193.25 1.32317 -1.59709 0
M  V30 22991 C 2193.67 1.86365 -0.254891 0
M  V30 22992 O 2193.03 1.64026 0.772349 0
M  V30 22993 C 2193.08 2.45501 -2.64125 0
M  V30 22994 O 2192.18 3.48325 -2.2078 0
M  V30 22995 H 2191.52 0.392195 -0.535798 0
M  V30 22996 H 2194.05 0.647233 -1.94093 0
M  V30 22997 H 2194.06 2.9179 -2.85171 0
M  V30 22998 H 2192.74 2.05522 -3.61571 0
M  V30 22999 H 2191.32 3.08204 -2.09917 0
M  V30 23000 N 2193.5 1.36626 0.785562 0
M  V30 23001 C 2194.73 1.344 1.57961 0
M  V30 23002 C 2195.15 -0.071493 1.87964 0
M  V30 23003 O 2194.51 -1.04457 1.48184 0
M  V30 23004 C 2194.56 2.17651 2.87507 0
M  V30 23005 O 2193.66 1.57165 3.81278 0
M  V30 23006 H 2193 0.459836 0.479006 0
M  V30 23007 H 2195.53 1.79962 0.973379 0
M  V30 23008 H 2195.54 2.30368 3.36741 0
M  V30 23009 H 2194.22 3.20546 2.64997 0
M  V30 23010 H 2192.79 1.53409 3.39883 0
M  V30 23011 N 2194.98 -1.01016 1.20969 0
M  V30 23012 C 2195.91 -2.11553 0.988309 0
M  V30 23013 C 2196.89 -1.69888 -0.084948 0
M  V30 23014 O 2198.07 -1.9406 0.0738543 0
M  V30 23015 C 2195.2 -3.42972 0.546588 0
M  V30 23016 C 2194.16 -3.98408 1.56382 0
M  V30 23017 C 2193.48 -5.2567 0.978512 0
M  V30 23018 C 2194.78 -4.31061 2.9493 0
M  V30 23019 H 2196.48 -2.30331 1.9128 0
M  V30 23020 H 2194.02 -1.10688 0.921092 0
M  V30 23021 H 2195.98 -4.19693 0.378913 0
M  V30 23022 H 2194.7 -3.23971 -0.413541 0
M  V30 23023 H 2193.36 -3.23801 1.71897 0
M  V30 23024 H 2193.01 -5.02999 0.0102572 0
M  V30 23025 H 2192.71 -5.63725 1.65794 0
M  V30 23026 H 2194.23 -6.05041 0.822046 0
M  V30 23027 H 2195.65 -4.98645 2.82889 0
M  V30 23028 H 2194.04 -4.80246 3.59838 0
M  V30 23029 H 2195.11 -3.39555 3.46166 0
M  V30 23030 N 2196.46 -1.01661 -1.20428 0
M  V30 23031 C 2197.4 -0.586861 -2.23214 0
M  V30 23032 C 2198.37 0.393056 -1.61382 0
M  V30 23033 O 2199.56 0.292492 -1.88545 0
M  V30 23034 C 2196.7 0.0686858 -3.45032 0
M  V30 23035 C 2195.81 -0.955798 -4.21294 0
M  V30 23036 C 2194.95 -0.271301 -5.30507 0
M  V30 23037 C 2193.99 -1.28254 -5.98513 0
M  V30 23038 N 2193.12 -0.624713 -6.99315 0
M  V30 23039 H 2197.96 -1.468 -2.59333 0
M  V30 23040 H 2195.5 -0.734859 -1.27429 0
M  V30 23041 H 2197.46 0.465892 -4.14591 0
M  V30 23042 H 2196.09 0.913474 -3.09605 0
M  V30 23043 H 2195.14 -1.47116 -3.508 0
M  V30 23044 H 2196.45 -1.72487 -4.68027 0
M  V30 23045 H 2195.61 0.181403 -6.06429 0
M  V30 23046 H 2194.34 0.530078 -4.84811 0
M  V30 23047 H 2193.35 -1.74563 -5.21352 0
M  V30 23048 H 2194.57 -2.0852 -6.46294 0
M  V30 23049 H 2192.52 0.156798 -6.55813 0
M  V30 23050 H 2192.44 -1.33185 -7.44176 0
M  V30 23051 H 2193.71 -0.195599 -7.79255 0
M  V30 23052 N 2197.93 1.36205 -0.792844 0
M  V30 23053 C 2199.17 2.00981 -0.372273 0
M  V30 23054 C 2199.54 1.61557 1.03746 0
M  V30 23055 O 2200.74 2.1895 1.5593 0
M  V30 23056 C 2199.01 3.53379 -0.534629 0
M  V30 23057 S 2200.57 4.38333 -0.202442 0
M  V30 23058 H 2197.39 0.696664 -0.142056 0
M  V30 23059 H 2199.99 1.66037 -1.03209 0
M  V30 23060 H 2198.69 3.79559 -1.56087 0
M  V30 23061 H 2198.22 3.93147 0.140996 0
M  V30 23062 H 2200.24 4.86126 0.994783 0
M  V30 23063 N 2199.41 0.545154 1.47871 0
M  V30 23064 C 2200.64 0.0190975 2.07391 0
M  V30 23065 C 2201.06 -1.25969 1.39691 0
M  V30 23066 O 2200.42 -1.7516 0.467847 0
M  V30 23067 C 2200.47 -0.172272 3.60188 0
M  V30 23068 O 2199.57 -1.23759 3.93392 0
M  V30 23069 H 2198.91 0.0459176 0.66241 0
M  V30 23070 H 2201.44 0.757399 1.90065 0
M  V30 23071 H 2201.45 -0.390233 4.0613 0
M  V30 23072 H 2200.13 0.761796 4.08864 0
M  V30 23073 H 2198.71 -1.00108 3.59211 0
M  V30 23074 N 2200.89 -1.55074 0.28101 0
M  V30 23075 C 2201.84 -2.2419 -0.619824 0
M  V30 23076 C 2202.83 -1.24094 -1.15313 0
M  V30 23077 O 2204.04 -1.42007 -1.10608 0
M  V30 23078 H 2200.41 -0.719573 -0.218446 0
M  V30 23079 H 2202.38 -2.98397 -0.0141306 0
M  V30 23080 C 2201.13 -2.98094 -1.78984 0
M  V30 23081 H 2200.46 -3.74908 -1.38867 0
M  V30 23082 H 2201.9 -3.49766 -2.39666 0
M  V30 23083 C 2200.36 -2.03904 -2.68188 0
M  V30 23084 O 2200.89 -1.59407 -3.68717 0
M  V30 23085 N 2199.09 -1.70279 -2.35485 0
M  V30 23086 H 2198.64 -2.06661 -1.53783 0
M  V30 23087 H 2198.6 -1.0753 -2.9544 0
M  V30 23088 N 2202.37 -0.00838561 -1.57598 0
M  V30 23089 C 2203.61 0.679102 -1.92789 0
M  V30 23090 C 2203.97 1.7047 -0.883408 0
M  V30 23091 O 2205.17 2.44317 -1.12083 0
M  V30 23092 C 2203.45 1.29801 -3.32996 0
M  V30 23093 S 2205 2.00945 -3.90085 0
M  V30 23094 H 2201.82 0.224115 -0.674754 0
M  V30 23095 H 2204.42 -0.0670841 -1.95385 0
M  V30 23096 H 2203.13 0.538851 -4.06847 0
M  V30 23097 H 2202.66 2.08195 -3.33794 0
M  V30 23098 H 2204.67 3.28557 -3.7184 0
M  V30 23099 N 2203.85 1.55365 0.264492 0
M  V30 23100 C 2205.08 1.80145 1.0115 0
M  V30 23101 C 2205.49 0.579285 1.80114 0
M  V30 23102 O 2204.83 -0.461288 1.77814 0
M  V30 23103 C 2204.89 2.97997 2.01093 0
M  V30 23104 C 2204.55 4.34709 1.40988 0
M  V30 23105 C 2205.55 5.13373 0.821226 0
M  V30 23106 C 2203.24 4.8138 1.43452 0
M  V30 23107 C 2205.23 6.36848 0.265227 0
M  V30 23108 C 2202.92 6.04808 0.874665 0
M  V30 23109 C 2203.92 6.8238 0.291026 0
M  V30 23110 O 2203.6 8.03479 -0.260235 0
M  V30 23111 H 2203.34 0.603731 0.304114 0
M  V30 23112 H 2205.89 2.03226 0.298053 0
M  V30 23113 H 2204.12 2.70628 2.7622 0
M  V30 23114 H 2205.81 3.10025 2.61991 0
M  V30 23115 H 2206.57 4.78443 0.794819 0
M  V30 23116 H 2202.45 4.21005 1.87819 0
M  V30 23117 H 2206 6.97339 -0.190959 0
M  V30 23118 H 2201.89 6.39218 0.89834 0
M  V30 23119 H 2202.66 8.18362 -0.150409 0
M  V30 23120 N 2205.33 -0.529387 1.48443 0
M  V30 23121 C 2206.26 -1.65057 1.5758 0
M  V30 23122 C 2207.24 -1.56914 0.426225 0
M  V30 23123 O 2208.42 -1.77378 0.637908 0
M  V30 23124 C 2205.55 -3.03458 1.50435 0
M  V30 23125 C 2204.59 -3.29958 2.70241 0
M  V30 23126 S 2205.43 -3.16164 4.32204 0
M  V30 23127 C 2206.58 -4.57012 4.27658 0
M  V30 23128 H 2206.82 -1.57056 2.5243 0
M  V30 23129 H 2204.35 -0.712393 1.36983 0
M  V30 23130 H 2206.31 -3.83277 1.46999 0
M  V30 23131 H 2204.97 -3.08899 0.569221 0
M  V30 23132 H 2204.16 -4.30924 2.61382 0
M  V30 23133 H 2203.76 -2.5781 2.70943 0
M  V30 23134 H 2206.05 -5.48542 3.97628 0
M  V30 23135 H 2207 -4.70925 5.28806 0
M  V30 23136 H 2207.41 -4.36362 3.58118 0
M  V30 23137 N 2206.8 -1.37041 -0.778305 0
M  V30 23138 C 2208.05 -1.32082 -1.5389 0
M  V30 23139 C 2208.38 0.0965045 -1.9396 0
M  V30 23140 O 2207.66 1.05239 -1.6357 0
M  V30 23141 C 2207.94 -2.25387 -2.80843 0
M  V30 23142 C 2207.79 -3.75868 -2.47069 0
M  V30 23143 C 2209.11 -2.17257 -3.82737 0
M  V30 23144 H 2206.23 -0.48112 -0.558294 0
M  V30 23145 H 2208.87 -1.67687 -0.893368 0
M  V30 23146 H 2207.02 -1.95153 -3.35928 0
M  V30 23147 H 2208.7 -4.1667 -1.9795 0
M  V30 23148 H 2206.94 -3.94758 -1.79856 0
M  V30 23149 H 2207.61 -4.36579 -3.3779 0
M  V30 23150 H 2210.09 -2.43893 -3.37128 0
M  V30 23151 H 2208.96 -2.84694 -4.69298 0
M  V30 23152 H 2209.22 -1.16339 -4.26518 0
M  V30 23153 N 2208.28 1.00373 -1.21503 0
M  V30 23154 C 2209.53 1.74527 -1.04461 0
M  V30 23155 C 2209.88 1.87819 0.417353 0
M  V30 23156 O 2209.18 1.40236 1.30554 0
M  V30 23157 C 2209.37 3.15624 -1.67679 0
M  V30 23158 C 2209.2 3.1609 -3.1987 0
M  V30 23159 C 2207.97 3.22598 -3.8892 0
M  V30 23160 C 2210.17 3.01105 -4.16942 0
M  V30 23161 N 2208.15 3.12703 -5.2829 0
M  V30 23162 C 2209.52 2.99121 -5.43071 0
M  V30 23163 C 2211.57 2.85416 -4.07973 0
M  V30 23164 C 2210.28 2.83057 -6.61265 0
M  V30 23165 C 2212.3 2.70709 -5.25805 0
M  V30 23166 C 2211.67 2.69403 -6.50847 0
M  V30 23167 H 2207.76 0.648775 -0.436595 0
M  V30 23168 H 2210.35 1.1929 -1.53877 0
M  V30 23169 H 2208.52 3.69127 -1.20828 0
M  V30 23170 H 2210.25 3.78279 -1.43831 0
M  V30 23171 H 2207.01 3.29844 -3.39853 0
M  V30 23172 H 2207.43 3.11095 -6.0129 0
M  V30 23173 H 2212.07 2.85231 -3.12095 0
M  V30 23174 H 2209.79 2.81989 -7.57303 0
M  V30 23175 H 2213.38 2.59567 -5.20688 0
M  V30 23176 H 2212.26 2.58157 -7.40489 0
M  V30 23177 N 2209.76 1.02298 1.19887 0
M  V30 23178 C 2211.01 0.714591 1.89045 0
M  V30 23179 C 2211.33 -0.758649 1.79637 0
M  V30 23180 O 2210.6 -1.54616 1.20294 0
M  V30 23181 H 2209.18 0.261329 0.699797 0
M  V30 23182 H 2211.84 1.29595 1.45572 0
M  V30 23183 H 2210.94 1.00365 2.95522 0
M  V30 23184 N 2211.24 -1.35782 0.800057 0
M  V30 23185 C 2212.49 -1.9856 0.376632 0
M  V30 23186 C 2212.81 -1.63797 -1.0581 0
M  V30 23187 O 2212.08 -0.917202 -1.73102 0
M  V30 23188 H 2210.66 -0.734465 0.136274 0
M  V30 23189 H 2213.32 -1.65804 1.02445 0
M  V30 23190 H 2212.41 -3.08432 0.477056 0
M  V30 23191 N 2212.72 -0.552988 -1.4758 0
M  V30 23192 C 2213.99 0.0381172 -1.95563 0
M  V30 23193 C 2214.37 1.48985 -1.49555 0
M  V30 23194 O 2213.72 2.16443 -0.732452 0
M  V30 23195 C 2213.93 -0.10298 -3.48848 0
M  V30 23196 C 2215.28 0.0445335 -4.24577 0
M  V30 23197 O 2216.3 -0.0303175 -3.56187 0
M  V30 23198 O 2215.16 0.204827 -5.46116 0
M  V30 23199 H 2212.26 0.0664922 -0.824323 0
M  V30 23200 H 2214.8 -0.619213 -1.57999 0
M  V30 23201 H 2213.57 -1.11335 -3.75127 0
M  V30 23202 H 2213.2 0.592155 -3.93166 0
M  V30 23203 N 2214.19 1.54923 -0.28923 0
M  V30 23204 C 2215.44 1.999 0.323483 0
M  V30 23205 C 2215.77 1.17765 1.54795 0
M  V30 23206 O 2215.02 0.238869 1.94237 0
M  V30 23207 C 2215.32 3.49738 0.736058 0
M  V30 23208 C 2214.99 4.4925 -0.385354 0
M  V30 23209 C 2213.65 4.7618 -0.69324 0
M  V30 23210 C 2216 5.08573 -1.1403 0
M  V30 23211 C 2213.33 5.59698 -1.7594 0
M  V30 23212 C 2215.68 5.9325 -2.19629 0
M  V30 23213 C 2214.35 6.18496 -2.51037 0
M  V30 23214 H 2213.62 0.731484 0.118371 0
M  V30 23215 H 2216.26 1.87149 -0.40588 0
M  V30 23216 H 2214.57 3.60038 1.54532 0
M  V30 23217 H 2216.27 3.81955 1.22112 0
M  V30 23218 H 2212.86 4.28386 -0.135277 0
M  V30 23219 H 2217.04 4.87779 -0.915696 0
M  V30 23220 H 2212.3 5.77499 -2.0076 0
M  V30 23221 H 2216.47 6.38247 -2.78593 0
M  V30 23222 H 2214.1 6.83002 -3.33784 0
M  V30 23223 N 2215.67 0.0167433 1.57591 0
M  V30 23224 C 2216.92 -0.665548 1.91568 0
M  V30 23225 C 2217.25 -1.72485 0.892329 0
M  V30 23226 O 2216.53 -1.94307 -0.0866785 0
M  V30 23227 C 2216.81 -1.29336 3.36072 0
M  V30 23228 C 2216.66 -0.244462 4.49135 0
M  V30 23229 C 2217.98 -2.21488 3.80304 0
M  V30 23230 H 2215.1 -0.240476 0.696664 0
M  V30 23231 H 2217.74 0.071469 1.89866 0
M  V30 23232 H 2215.89 -1.92153 3.37653 0
M  V30 23233 H 2217.56 0.385309 4.59688 0
M  V30 23234 H 2215.81 0.431455 4.31649 0
M  V30 23235 H 2216.48 -0.723111 5.47243 0
M  V30 23236 H 2218.95 -1.68672 3.8038 0
M  V30 23237 H 2217.83 -2.62374 4.82132 0
M  V30 23238 H 2218.09 -3.10094 3.1511 0
M  V30 23239 N 2217.15 -1.55503 -0.256249 0
M  V30 23240 C 2218.38 -1.81278 -1.00762 0
M  V30 23241 C 2218.8 -0.592551 -1.78523 0
M  V30 23242 O 2218.16 0.458239 -1.75413 0
M  V30 23243 C 2218.21 -3.0469 -1.92864 0
M  V30 23244 O 2217.31 -2.8095 -3.01896 0
M  V30 23245 H 2216.65 -0.598669 -0.287213 0
M  V30 23246 H 2219.18 -2.02674 -0.280074 0
M  V30 23247 H 2219.19 -3.33873 -2.34505 0
M  V30 23248 H 2217.87 -3.93145 -1.35682 0
M  V30 23249 H 2216.44 -2.62909 -2.64449 0
M  V30 23250 N 2218.63 0.521507 -1.48721 0
M  V30 23251 C 2220.04 1.10334 -1.50609 0
M  V30 23252 C 2220.39 1.94182 -0.280646 0
M  V30 23253 O 2219.52 2.07581 0.61147 0
M  V30 23254 C 2220.11 2.00768 -2.72906 0
M  V30 23255 C 2218.67 2.54153 -2.77639 0
M  V30 23256 C 2217.82 1.31302 -2.44244 0
M  V30 23257 H 2220.77 0.30636 -1.55715 0
M  V30 23258 H 2220.79 2.85174 -2.51905 0
M  V30 23259 H 2220.3 1.39714 -3.62079 0
M  V30 23260 H 2218.4 3.18903 -1.92695 0
M  V30 23261 H 2218.51 2.92707 -3.79288 0
M  V30 23262 H 2216.88 1.63158 -1.9558 0
M  V30 23263 H 2217.66 0.719884 -3.35667 0
M  V30 23264 N 2220.11 1.37452 0.771027 0
M  V30 23265 C 2221.35 1.32438 1.52659 0
M  V30 23266 C 2221.68 -0.0904681 1.9479 0
M  V30 23267 O 2220.95 -1.03463 1.6635 0
M  V30 23268 H 2219.53 0.487254 0.566209 0
M  V30 23269 H 2222.19 1.71948 0.917606 0
M  V30 23270 H 2221.28 1.96389 2.42565 0
M  V30 23271 N 2221.58 -0.997276 1.22033 0
M  V30 23272 C 2222.52 -2.08844 0.944299 0
M  V30 23273 C 2223.53 -1.62625 -0.0754377 0
M  V30 23274 O 2224.72 -1.77799 0.158026 0
M  V30 23275 C 2221.82 -3.36557 0.397782 0
M  V30 23276 C 2220.99 -4.11826 1.4737 0
M  V30 23277 C 2220.05 -5.17826 0.935042 0
M  V30 23278 O 2219.08 -5.45652 1.62025 0
M  V30 23279 N 2220.28 -5.79979 -0.245793 0
M  V30 23280 H 2223.04 -2.33105 1.88367 0
M  V30 23281 H 2220.6 -1.1627 1.12663 0
M  V30 23282 H 2222.6 -4.04694 0.0228482 0
M  V30 23283 H 2221.17 -3.09393 -0.446592 0
M  V30 23284 H 2220.39 -3.38383 2.02214 0
M  V30 23285 H 2221.67 -4.58887 2.19772 0
M  V30 23286 H 2221.07 -5.59734 -0.819377 0
M  V30 23287 H 2219.63 -6.49371 -0.562158 0
M  V30 23288 N 2223.06 -1.02932 -1.19343 0
M  V30 23289 C 2223.99 -0.568609 -2.22035 0
M  V30 23290 C 2225.01 0.355751 -1.58866 0
M  V30 23291 O 2226.2 0.152072 -1.77851 0
M  V30 23292 C 2223.3 0.190693 -3.38363 0
M  V30 23293 C 2222.47 -0.738719 -4.31117 0
M  V30 23294 C 2221.53 -0.0247422 -5.26194 0
M  V30 23295 O 2220.55 -0.651454 -5.6546 0
M  V30 23296 N 2221.76 1.24584 -5.66974 0
M  V30 23297 H 2224.52 -1.45181 -2.62188 0
M  V30 23298 H 2222.08 -0.908405 -1.34013 0
M  V30 23299 H 2224.07 0.677891 -3.98982 0
M  V30 23300 H 2222.64 0.975314 -2.96996 0
M  V30 23301 H 2221.86 -1.406 -3.68273 0
M  V30 23302 H 2223.15 -1.37037 -4.89998 0
M  V30 23303 H 2222.55 1.77573 -5.37107 0
M  V30 23304 H 2221.11 1.67753 -6.29843 0
M  V30 23305 N 2224.54 1.35356 -0.807246 0
M  V30 23306 C 2225.79 1.98357 -0.387157 0
M  V30 23307 C 2226.11 1.64355 1.04939 0
M  V30 23308 O 2225.38 0.926369 1.72613 0
M  V30 23309 H 2223.96 0.733732 -0.140167 0
M  V30 23310 H 2226.62 1.65258 -1.03323 0
M  V30 23311 H 2225.72 3.08175 -0.493406 0
M  V30 23312 N 2226.02 0.560807 1.47284 0
M  V30 23313 C 2227.43 0.220837 1.58065 0
M  V30 23314 C 2227.63 -1.27668 1.55894 0
M  V30 23315 O 2226.69 -2.05708 1.46426 0
M  V30 23316 C 2228 0.850676 2.88416 0
M  V30 23317 C 2229.55 0.822237 3.02007 0
M  V30 23318 C 2230.03 1.43121 4.35064 0
M  V30 23319 N 2231.52 1.39456 4.41708 0
M  V30 23320 C 2232.25 1.83534 5.43234 0
M  V30 23321 N 2231.75 2.35485 6.51551 0
M  V30 23322 N 2233.54 1.74583 5.34301 0
M  V30 23323 H 2225.69 1.53371 1.46939 0
M  V30 23324 H 2227.96 0.639795 0.699547 0
M  V30 23325 H 2227.66 1.90326 2.95752 0
M  V30 23326 H 2227.54 0.345839 3.75611 0
M  V30 23327 H 2229.92 -0.221663 2.94266 0
M  V30 23328 H 2230 1.36487 2.16345 0
M  V30 23329 H 2229.65 2.4742 4.43561 0
M  V30 23330 H 2229.58 0.86399 5.19464 0
M  V30 23331 H 2232.07 1.01459 3.64026 0
M  V30 23332 H 2232.38 2.67034 7.25198 0
M  V30 23333 H 2230.73 2.39498 6.5243 0
M  V30 23334 H 2233.92 1.33771 4.48579 0
M  V30 23335 H 2234.09 2.09253 6.13284 0
M  V30 23336 N 2227.5 -1.54768 0.297442 0
M  V30 23337 C 2228.75 -1.99247 -0.313634 0
M  V30 23338 C 2229.06 -1.18945 -1.55279 0
M  V30 23339 O 2230.26 -1.53674 -2.23823 0
M  V30 23340 C 2228.72 -3.54704 -0.609345 0
M  V30 23341 C 2228.33 -4.4381 0.61127 0
M  V30 23342 C 2230.07 -4.07717 -1.18181 0
M  V30 23343 C 2227.98 -5.90694 0.288908 0
M  V30 23344 H 2226.91 -0.744233 -0.120966 0
M  V30 23345 H 2229.56 -1.78961 0.405591 0
M  V30 23346 H 2227.94 -3.70876 -1.38807 0
M  V30 23347 H 2229.12 -4.39412 1.38758 0
M  V30 23348 H 2227.43 -4.0155 1.10212 0
M  V30 23349 H 2230.03 -5.15023 -1.43718 0
M  V30 23350 H 2230.37 -3.58102 -2.12293 0
M  V30 23351 H 2230.9 -3.95074 -0.464874 0
M  V30 23352 H 2227.64 -6.4445 1.19849 0
M  V30 23353 H 2227.16 -5.98108 -0.4502 0
M  V30 23354 H 2228.84 -6.46905 -0.110819 0
M  V30 23355 N 2228.97 -0.0251005 -1.5758 0
M  V30 23356 C 2230.2 0.668282 -1.96338 0
M  V30 23357 C 2230.62 1.65098 -0.901343 0
M  V30 23358 O 2229.98 1.80773 0.138155 0
M  V30 23359 C 2230.03 1.35451 -3.34194 0
M  V30 23360 O 2229.13 2.46968 -3.30273 0
M  V30 23361 H 2228.48 0.175876 -0.640284 0
M  V30 23362 H 2231.01 -0.0857583 -2.0442 0
M  V30 23363 H 2231.02 1.71222 -3.70334 0
M  V30 23364 H 2229.69 0.634146 -4.11037 0
M  V30 23365 H 2228.27 2.13339 -3.05845 0
M  V30 23366 N 2230.45 1.55637 0.247999 0
M  V30 23367 C 2231.4 1.86616 1.3099 0
M  V30 23368 C 2232.39 0.726943 1.43542 0
M  V30 23369 O 2233.58 0.988844 1.46802 0
M  V30 23370 C 2230.71 2.16339 2.66556 0
M  V30 23371 C 2229.79 3.36586 2.58013 0
M  V30 23372 N 2230.18 4.55882 2.19102 0
M  V30 23373 C 2228.48 3.39674 2.89029 0
M  V30 23374 C 2229.18 5.38016 2.21164 0
M  V30 23375 N 2228.16 4.7705 2.60623 0
M  V30 23376 H 2231.96 2.76381 0.999535 0
M  V30 23377 H 2229.48 1.55848 0.456625 0
M  V30 23378 H 2231.47 2.36698 3.4319 0
M  V30 23379 H 2230.13 1.27872 2.98461 0
M  V30 23380 H 2231.14 4.81526 1.90664 0
M  V30 23381 H 2227.82 2.61474 3.2548 0
M  V30 23382 H 2229.21 6.43455 1.93429 0
M  V30 23383 N 2231.93 -0.513613 1.48996 0
M  V30 23384 C 2233.16 -1.29285 1.61533 0
M  V30 23385 C 2233.57 -1.86685 0.281834 0
M  V30 23386 O 2232.93 -1.67217 -0.731082 0
M  V30 23387 C 2232.98 -2.4321 2.67453 0
M  V30 23388 O 2232.7 -1.88172 3.9563 0
M  V30 23389 C 2234.2 -3.3478 2.9058 0
M  V30 23390 H 2231.42 -0.392578 0.544172 0
M  V30 23391 H 2233.97 -0.617922 1.94941 0
M  V30 23392 H 2232.12 -3.06556 2.36859 0
M  V30 23393 H 2232.54 -2.62868 4.53873 0
M  V30 23394 H 2234.01 -4.11028 3.68456 0
M  V30 23395 H 2234.49 -3.91011 2.00018 0
M  V30 23396 H 2235.09 -2.77212 3.22542 0
M  V30 23397 N 2233.41 -1.37859 -0.763727 0
M  V30 23398 C 2234.69 -1.24037 -1.51242 0
M  V30 23399 C 2235.07 0.162612 -2.10473 0
M  V30 23400 O 2234.41 1.17109 -1.96208 0
M  V30 23401 C 2234.62 -2.34266 -2.5869 0
M  V30 23402 C 2235.97 -2.72199 -3.25873 0
M  V30 23403 O 2237 -2.33502 -2.68989 0
M  V30 23404 O 2235.86 -3.38894 -4.28734 0
M  V30 23405 H 2232.95 -0.484474 -0.670234 0
M  V30 23406 H 2235.5 -1.4966 -0.800005 0
M  V30 23407 H 2234.27 -3.28184 -2.13099 0
M  V30 23408 H 2233.89 -2.10152 -3.37523 0
M  V30 23409 N 2234.89 0.990791 -1.22561 0
M  V30 23410 C 2235.82 2.09954 -1.02184 0
M  V30 23411 C 2236.8 1.70001 0.0579095 0
M  V30 23412 O 2237.98 1.93917 -0.104718 0
M  V30 23413 C 2235.11 3.42059 -0.601083 0
M  V30 23414 C 2234.07 3.95869 -1.627 0
M  V30 23415 C 2233.39 5.24047 -1.06202 0
M  V30 23416 C 2234.69 4.26315 -3.0175 0
M  V30 23417 H 2236.39 2.27259 -1.9492 0
M  V30 23418 H 2233.93 1.09209 -0.938585 0
M  V30 23419 H 2235.89 4.19037 -0.445634 0
M  V30 23420 H 2234.61 3.24588 0.361948 0
M  V30 23421 H 2233.27 3.21025 -1.77027 0
M  V30 23422 H 2232.92 5.02919 -0.0902787 0
M  V30 23423 H 2232.62 5.61016 -1.74741 0
M  V30 23424 H 2234.14 6.03657 -0.918198 0
M  V30 23425 H 2235.56 4.94081 -2.90786 0
M  V30 23426 H 2233.95 4.74461 -3.67433 0
M  V30 23427 H 2235.02 3.34004 -3.51524 0
M  V30 23428 N 2236.37 1.03564 1.18795 0
M  V30 23429 C 2237.61 0.737146 1.88929 0
M  V30 23430 C 2237.94 -0.732924 1.79838 0
M  V30 23431 O 2237.22 -1.53438 1.19528 0
M  V30 23432 C 2237.5 1.19751 3.39605 0
M  V30 23433 C 2237.36 2.7293 3.57532 0
M  V30 23434 C 2238.67 0.783602 4.33068 0
M  V30 23435 H 2235.79 0.269261 0.686052 0
M  V30 23436 H 2238.44 1.28676 1.39795 0
M  V30 23437 H 2236.59 0.729922 3.81581 0
M  V30 23438 H 2238.26 3.27688 3.24682 0
M  V30 23439 H 2236.5 3.12998 3.00357 0
M  V30 23440 H 2237.17 3.00199 4.63233 0
M  V30 23441 H 2239.65 1.18588 3.98843 0
M  V30 23442 H 2238.52 1.13353 5.37068 0
M  V30 23443 H 2238.78 -0.313604 4.40986 0
M  V30 23444 N 2237.84 -1.34926 0.814413 0
M  V30 23445 C 2239.09 -1.97796 0.394906 0
M  V30 23446 C 2239.41 -1.65313 -1.04552 0
M  V30 23447 O 2240.61 -2.21607 -1.56852 0
M  V30 23448 C 2239.07 -3.53886 0.655165 0
M  V30 23449 C 2238.68 -3.95272 2.10865 0
M  V30 23450 C 2240.42 -4.23429 0.301403 0
M  V30 23451 C 2238.33 -5.4424 2.31425 0
M  V30 23452 H 2237.26 -0.740136 0.143926 0
M  V30 23453 H 2239.91 -1.53886 0.999571 0
M  V30 23454 H 2238.29 -3.95995 -0.0195557 0
M  V30 23455 H 2239.46 -3.64293 2.82183 0
M  V30 23456 H 2237.78 -3.38642 2.42303 0
M  V30 23457 H 2240.38 -5.32944 0.432962 0
M  V30 23458 H 2240.72 -4.09429 -0.753238 0
M  V30 23459 H 2241.25 -3.86768 0.930356 0
M  V30 23460 H 2237.99 -5.63216 3.35363 0
M  V30 23461 H 2237.51 -5.76761 1.6464 0
M  V30 23462 H 2239.19 -6.10807 2.13362 0
M  V30 23463 N 2239.32 -0.56861 -1.46985 0
M  V30 23464 C 2240.57 -0.0487377 -2.02041 0
M  V30 23465 C 2240.89 1.31037 -1.44411 0
M  V30 23466 O 2240.16 1.85713 -0.62351 0
M  V30 23467 H 2238.74 -0.0150271 -0.746849 0
M  V30 23468 H 2241.4 -0.7412 -1.80256 0
M  V30 23469 H 2240.5 0.0308412 -3.12085 0
M  V30 23470 N 2240.8 1.54608 -0.305646 0
M  V30 23471 C 2242.04 2.02141 0.303078 0
M  V30 23472 C 2242.4 1.18924 1.50735 0
M  V30 23473 O 2243.6 1.56176 2.18775 0
M  V30 23474 C 2241.88 3.51508 0.64627 0
M  V30 23475 S 2243.43 4.20998 1.2372 0
M  V30 23476 H 2240.25 0.704924 0.0927519 0
M  V30 23477 H 2242.85 1.90608 -0.434599 0
M  V30 23478 H 2241.56 4.09706 -0.238613 0
M  V30 23479 H 2241.09 3.67086 1.41462 0
M  V30 23480 H 2243.1 4.27162 2.52482 0
M  V30 23481 N 2242.28 0.033457 1.57564 0
M  V30 23482 C 2243.21 -0.945228 2.13513 0
M  V30 23483 C 2244.19 -1.33642 1.05233 0
M  V30 23484 O 2245.37 -1.41427 1.33087 0
M  V30 23485 C 2242.5 -2.22611 2.66574 0
M  V30 23486 C 2241.46 -1.97554 3.79679 0
M  V30 23487 C 2240.78 -3.31945 4.19186 0
M  V30 23488 C 2242.08 -1.31126 5.05572 0
M  V30 23489 H 2243.78 -0.479273 2.95539 0
M  V30 23490 H 2241.32 -0.22909 1.42166 0
M  V30 23491 H 2243.28 -2.91461 3.04349 0
M  V30 23492 H 2242 -2.7138 1.81715 0
M  V30 23493 H 2240.66 -1.31121 3.42349 0
M  V30 23494 H 2240.31 -3.78481 3.31302 0
M  V30 23495 H 2240.01 -3.15983 4.95407 0
M  V30 23496 H 2241.53 -4.02055 4.59548 0
M  V30 23497 H 2242.95 -1.89982 5.40906 0
M  V30 23498 H 2241.34 -1.25548 5.8682 0
M  V30 23499 H 2242.41 -0.284809 4.84063 0
M  V30 23500 N 2243.76 -1.55766 -0.239741 0
M  V30 23501 C 2245 -1.78196 -0.968202 0
M  V30 23502 C 2245.33 -0.599971 -1.847 0
M  V30 23503 O 2244.61 0.401491 -1.90311 0
M  V30 23504 C 2244.89 -3.10567 -1.82264 0
M  V30 23505 C 2244.75 -4.39182 -0.971555 0
M  V30 23506 C 2246.06 -3.39226 -2.80382 0
M  V30 23507 H 2243.18 -0.648287 -0.350561 0
M  V30 23508 H 2245.83 -1.88501 -0.238226 0
M  V30 23509 H 2243.98 -3.01913 -2.44501 0
M  V30 23510 H 2245.65 -4.59835 -0.367327 0
M  V30 23511 H 2243.89 -4.3292 -0.2762 0
M  V30 23512 H 2244.56 -5.28201 -1.60337 0
M  V30 23513 H 2247.04 -3.47889 -2.28281 0
M  V30 23514 H 2245.91 -4.3305 -3.37282 0
M  V30 23515 H 2246.17 -2.60491 -3.57207 0
M  V30 23516 N 2245.23 0.505704 -1.49266 0
M  V30 23517 C 2246.51 1.26704 -1.49015 0
M  V30 23518 C 2246.89 2.1 -0.215242 0
M  V30 23519 O 2246.24 2.13944 0.802509 0
M  V30 23520 C 2246.45 2.12778 -2.76634 0
M  V30 23521 C 2247.8 2.72122 -3.25937 0
M  V30 23522 O 2248.82 2.23049 -2.77719 0
M  V30 23523 O 2247.68 3.61444 -4.09903 0
M  V30 23524 H 2244.77 0.57312 -0.596207 0
M  V30 23525 H 2247.32 0.520361 -1.61525 0
M  V30 23526 H 2246.09 1.51174 -3.60919 0
M  V30 23527 H 2245.71 2.94648 -2.66961 0
M  V30 23528 N 2246.71 1.38262 0.756405 0
M  V30 23529 C 2247.64 1.37979 1.88372 0
M  V30 23530 C 2248.62 0.246111 1.6831 0
M  V30 23531 O 2249.81 0.448773 1.88944 0
M  V30 23532 C 2246.94 1.2013 3.25862 0
M  V30 23533 C 2245.89 2.30673 3.60519 0
M  V30 23534 C 2245.22 1.97932 4.96716 0
M  V30 23535 C 2246.52 3.72923 3.65686 0
M  V30 23536 H 2248.21 2.32315 1.88865 0
M  V30 23537 H 2245.76 1.11825 0.907253 0
M  V30 23538 H 2247.71 1.18559 4.04378 0
M  V30 23539 H 2246.44 0.222555 3.25841 0
M  V30 23540 H 2245.09 2.31425 2.8432 0
M  V30 23541 H 2244.74 0.98548 4.93252 0
M  V30 23542 H 2244.44 2.71965 5.20873 0
M  V30 23543 H 2245.97 1.97974 5.77615 0
M  V30 23544 H 2247.38 3.74216 4.34322 0
M  V30 23545 H 2245.78 4.46137 4.0135 0
M  V30 23546 H 2246.85 4.05441 2.6598 0
M  V30 23547 N 2248.19 -0.984277 1.23084 0
M  V30 23548 C 2249.15 -2.05755 1.00983 0
M  V30 23549 C 2250.15 -1.60777 -0.0269291 0
M  V30 23550 O 2251.34 -1.729 0.212433 0
M  V30 23551 C 2248.48 -3.368 0.527131 0
M  V30 23552 H 2249.67 -2.26796 1.96224 0
M  V30 23553 H 2247.22 -1.15712 1.05074 0
M  V30 23554 H 2247.96 -3.21447 -0.429238 0
M  V30 23555 H 2247.74 -3.70784 1.27522 0
M  V30 23556 H 2249.23 -4.15746 0.393015 0
M  V30 23557 N 2249.67 -1.04192 -1.18244 0
M  V30 23558 C 2250.9 -0.766106 -1.92194 0
M  V30 23559 C 2251.31 0.676902 -1.76248 0
M  V30 23560 O 2250.67 1.46153 -1.09296 0
M  V30 23561 C 2250.72 -1.12448 -3.43566 0
M  V30 23562 O 2250.44 -2.51084 -3.5901 0
M  V30 23563 C 2251.94 -0.873351 -4.34612 0
M  V30 23564 H 2249.16 -0.279299 -0.610109 0
M  V30 23565 H 2251.71 -1.38992 -1.50005 0
M  V30 23566 H 2249.86 -0.54561 -3.83539 0
M  V30 23567 H 2250.27 -2.64839 -4.52726 0
M  V30 23568 H 2251.75 -1.17395 -5.39372 0
M  V30 23569 H 2252.23 0.191832 -4.38781 0
M  V30 23570 H 2252.83 -1.43558 -4.00339 0
M  V30 23571 N 2251.15 1.34492 -0.821557 0
M  V30 23572 C 2252.39 1.97935 -0.408173 0
M  V30 23573 C 2252.72 1.65459 1.0319 0
M  V30 23574 O 2251.99 0.944625 1.71621 0
M  V30 23575 H 2250.57 0.732204 -0.147941 0
M  V30 23576 H 2253.23 1.64153 -1.0507 0
M  V30 23577 H 2252.32 3.07634 -0.526065 0
M  V30 23578 N 2252.62 0.576397 1.46681 0
M  V30 23579 C 2253.55 -0.148356 2.33028 0
M  V30 23580 C 2254.54 -0.88993 1.44963 0
M  V30 23581 O 2255.72 -0.866632 1.7379 0
M  V30 23582 C 2252.85 -1.16664 3.27119 0
M  V30 23583 C 2251.8 -0.540311 4.24576 0
M  V30 23584 C 2251.13 -1.66461 5.08129 0
M  V30 23585 C 2252.43 0.518422 5.19721 0
M  V30 23586 H 2254.12 0.572561 2.93874 0
M  V30 23587 H 2251.67 0.276793 1.41315 0
M  V30 23588 H 2253.62 -1.68198 3.86377 0
M  V30 23589 H 2252.35 -1.91775 2.64367 0
M  V30 23590 H 2251.01 -0.0461124 3.66571 0
M  V30 23591 H 2250.65 -2.40523 4.41766 0
M  V30 23592 H 2250.35 -1.25121 5.74124 0
M  V30 23593 H 2251.88 -2.18283 5.7025 0
M  V30 23594 H 2253.29 0.0884066 5.73232 0
M  V30 23595 H 2251.69 0.851784 5.94024 0
M  V30 23596 H 2252.76 1.40711 4.64035 0
M  V30 23597 N 2254.1 -1.54444 0.313841 0
M  V30 23598 C 2255.04 -2.20203 -0.598827 0
M  V30 23599 C 2256.01 -1.17575 -1.12316 0
M  V30 23600 O 2257.2 -1.46273 -1.18897 0
M  V30 23601 C 2254.32 -2.85604 -1.82066 0
M  V30 23602 C 2253.37 -4.01868 -1.42844 0
M  V30 23603 S 2254.2 -5.33403 -0.473419 0
M  V30 23604 C 2255.36 -6.02293 -1.70276 0
M  V30 23605 H 2255.59 -2.97273 -0.0402009 0
M  V30 23606 H 2253.13 -1.54089 0.0979436 0
M  V30 23607 H 2255.08 -3.23908 -2.52178 0
M  V30 23608 H 2253.74 -2.08355 -2.35047 0
M  V30 23609 H 2252.94 -4.46457 -2.33864 0
M  V30 23610 H 2252.54 -3.65187 -0.807133 0
M  V30 23611 H 2254.83 -6.23881 -2.64157 0
M  V30 23612 H 2255.77 -6.96079 -1.2992 0
M  V30 23613 H 2256.18 -5.32087 -1.88531 0
M  V30 23614 N 2255.58 -0.0418125 -1.57545 0
M  V30 23615 C 2256.81 0.643894 -1.96626 0
M  V30 23616 C 2257.22 1.64928 -0.918926 0
M  V30 23617 O 2256.58 1.82237 0.0979003 0
M  V30 23618 C 2256.63 1.33908 -3.35784 0
M  V30 23619 O 2256.35 0.373971 -4.36501 0
M  V30 23620 C 2257.85 2.11543 -3.8957 0
M  V30 23621 H 2255.07 0.17669 -0.647319 0
M  V30 23622 H 2257.62 -0.10534 -2.04229 0
M  V30 23623 H 2255.77 2.03962 -3.2936 0
M  V30 23624 H 2256.19 0.869088 -5.1725 0
M  V30 23625 H 2257.66 2.5562 -4.89247 0
M  V30 23626 H 2258.14 2.95974 -3.24493 0
M  V30 23627 H 2258.74 1.4642 -3.99301 0
M  V30 23628 N 2257.06 1.55891 0.231477 0
M  V30 23629 C 2258.31 1.78442 0.95732 0
M  V30 23630 C 2258.63 0.608852 1.84725 0
M  V30 23631 O 2257.89 -0.407216 1.91416 0
M  V30 23632 C 2258.19 3.06653 1.83571 0
M  V30 23633 C 2257.85 4.3728 1.09985 0
M  V30 23634 C 2256.52 4.72774 0.896546 0
M  V30 23635 C 2258.87 5.17969 0.579467 0
M  V30 23636 C 2256.2 5.8648 0.160793 0
M  V30 23637 C 2258.55 6.32439 -0.142894 0
M  V30 23638 C 2257.21 6.66542 -0.357544 0
M  V30 23639 H 2256.48 0.652966 0.350308 0
M  V30 23640 H 2259.13 1.90159 0.226225 0
M  V30 23641 H 2257.43 2.90015 2.63436 0
M  V30 23642 H 2259.13 3.21302 2.39929 0
M  V30 23643 H 2255.72 4.09405 1.26828 0
M  V30 23644 H 2259.9 4.9099 0.724038 0
M  V30 23645 H 2255.16 6.11398 -0.0158367 0
M  V30 23646 H 2259.33 6.94195 -0.553681 0
M  V30 23647 H 2256.96 7.54495 -0.929599 0
M  V30 23648 N 2258.54 -0.497781 1.49532 0
M  V30 23649 C 2259.76 -1.27564 1.62896 0
M  V30 23650 C 2260.18 -1.86375 0.301618 0
M  V30 23651 O 2259.54 -1.67983 -0.713305 0
M  V30 23652 C 2259.59 -2.4036 2.70018 0
M  V30 23653 O 2259.31 -1.83965 3.97603 0
M  V30 23654 C 2260.81 -3.3168 2.94115 0
M  V30 23655 H 2258.03 -0.386785 0.548305 0
M  V30 23656 H 2260.57 -0.597211 1.95585 0
M  V30 23657 H 2258.73 -3.04027 2.40097 0
M  V30 23658 H 2259.14 -2.58039 4.56635 0
M  V30 23659 H 2260.62 -4.07097 3.72795 0
M  V30 23660 H 2261.09 -3.88868 2.04153 0
M  V30 23661 H 2261.7 -2.73775 3.25464 0
M  V30 23662 N 2260.01 -1.38661 -0.749062 0
M  V30 23663 C 2260.98 -1.36048 -1.84455 0
M  V30 23664 C 2261.98 -0.26015 -1.58682 0
M  V30 23665 O 2263.17 -0.517291 -1.66342 0
M  V30 23666 C 2260.3 -1.11916 -3.22006 0
M  V30 23667 H 2261.49 -2.33515 -1.88178 0
M  V30 23668 H 2259.05 -1.2402 -0.951244 0
M  V30 23669 H 2259.78 -0.150743 -3.23949 0
M  V30 23670 H 2259.57 -1.91585 -3.42108 0
M  V30 23671 H 2261.06 -1.12795 -4.02078 0
M  V30 23672 N 2261.49 0.977736 -1.23605 0
M  V30 23673 C 2262.44 2.09185 -1.01708 0
M  V30 23674 C 2263.44 1.69341 0.0447917 0
M  V30 23675 O 2264.64 1.7967 -0.108933 0
M  V30 23676 H 2261.02 0.684307 -0.311815 0
M  V30 23677 H 2262.99 2.24819 -1.96211 0
M  V30 23678 C 2261.74 3.41985 -0.627806 0
M  V30 23679 H 2261.06 3.73097 -1.43662 0
M  V30 23680 H 2262.5 4.20871 -0.514127 0
M  V30 23681 C 2260.96 3.30288 0.66418 0
M  V30 23682 O 2261.49 3.63363 1.71261 0
M  V30 23683 N 2259.69 2.8344 0.641106 0
M  V30 23684 H 2259.24 2.56723 -0.212422 0
M  V30 23685 H 2259.2 2.75996 1.50578 0
M  V30 23686 N 2262.97 1.04818 1.1769 0
M  V30 23687 C 2264.22 0.75453 1.87487 0
M  V30 23688 C 2264.54 -0.720375 1.81206 0
M  V30 23689 O 2263.81 -1.52029 1.23547 0
M  V30 23690 H 2262.39 0.276114 0.694096 0
M  V30 23691 H 2265.05 1.32653 1.4279 0
M  V30 23692 H 2264.15 1.06611 2.93326 0
M  V30 23693 N 2264.45 -1.34055 0.828678 0
M  V30 23694 C 2265.4 -2.29413 0.252607 0
M  V30 23695 C 2266.37 -1.53858 -0.625853 0
M  V30 23696 O 2267.55 -1.82203 -0.56628 0
M  V30 23697 C 2264.69 -3.4028 -0.574771 0
M  V30 23698 C 2263.8 -4.30764 0.326575 0
M  V30 23699 C 2262.94 -5.28737 -0.510923 0
M  V30 23700 C 2261.98 -6.1086 0.38945 0
M  V30 23701 N 2261.12 -7.00906 -0.409315 0
M  V30 23702 H 2265.96 -2.78084 1.07113 0
M  V30 23703 H 2263.49 -1.36842 0.539701 0
M  V30 23704 H 2265.45 -4.03249 -1.06985 0
M  V30 23705 H 2264.08 -2.92828 -1.35836 0
M  V30 23706 H 2263.13 -3.68605 0.939902 0
M  V30 23707 H 2264.44 -4.88288 1.01866 0
M  V30 23708 H 2263.6 -5.97186 -1.07024 0
M  V30 23709 H 2262.34 -4.71765 -1.23648 0
M  V30 23710 H 2261.34 -5.41339 0.960864 0
M  V30 23711 H 2262.57 -6.69914 1.11321 0
M  V30 23712 H 2260.51 -6.46395 -1.11845 0
M  V30 23713 H 2260.43 -7.55667 0.224259 0
M  V30 23714 H 2261.7 -7.73675 -0.9512 0
M  V30 23715 N 2265.93 -0.584167 -1.46374 0
M  V30 23716 C 2266.84 0.150686 -2.34116 0
M  V30 23717 C 2267.85 0.884541 -1.4984 0
M  V30 23718 O 2269.03 0.847397 -1.82705 0
M  V30 23719 C 2266.09 1.15056 -3.27052 0
M  V30 23720 C 2265.16 0.421218 -4.27229 0
M  V30 23721 C 2264.39 1.37346 -5.15725 0
M  V30 23722 O 2264.61 2.61006 -5.07181 0
M  V30 23723 O 2263.55 0.88325 -5.95384 0
M  V30 23724 H 2267.37 -0.56976 -2.98308 0
M  V30 23725 H 2264.96 -0.34456 -1.45372 0
M  V30 23726 H 2266.84 1.72705 -3.84384 0
M  V30 23727 H 2265.51 1.85245 -2.65454 0
M  V30 23728 H 2264.42 -0.197151 -3.7358 0
M  V30 23729 H 2265.75 -0.239727 -4.91616 0
M  V30 23730 N 2267.41 1.54275 -0.322027 0
M  V30 23731 C 2268.63 2.05422 0.285755 0
M  V30 23732 C 2269.06 1.19671 1.45122 0
M  V30 23733 O 2268.41 0.205473 1.80132 0
M  V30 23734 C 2268.46 3.5375 0.699497 0
M  V30 23735 O 2267.57 3.70945 1.80203 0
M  V30 23736 H 2266.91 0.66197 0.0518846 0
M  V30 23737 H 2269.44 1.99129 -0.469989 0
M  V30 23738 H 2269.45 3.95992 0.982579 0
M  V30 23739 H 2268.12 4.15619 -0.152937 0
M  V30 23740 H 2266.7 3.40609 1.51788 0
M  V30 23741 N 2268.88 0.0501669 1.5752 0
M  V30 23742 C 2269.83 -0.942421 2.12653 0
M  V30 23743 C 2270.83 -1.32291 1.05809 0
M  V30 23744 O 2272.03 -1.30268 1.24219 0
M  V30 23745 H 2268.41 -0.321777 0.679679 0
M  V30 23746 H 2270.38 -0.452304 2.94952 0
M  V30 23747 C 2269.13 -2.20831 2.68568 0
M  V30 23748 H 2268.45 -1.92433 3.50442 0
M  V30 23749 H 2269.89 -2.88444 3.10767 0
M  V30 23750 C 2268.35 -2.95231 1.62297 0
M  V30 23751 O 2268.88 -3.88133 1.03515 0
M  V30 23752 N 2267.08 -2.57944 1.33841 0
M  V30 23753 H 2266.63 -1.82472 1.81829 0
M  V30 23754 H 2266.59 -3.0803 0.629649 0
M  V30 23755 N 2270.36 -1.56011 -0.223207 0
M  V30 23756 C 2271.59 -1.83029 -0.96478 0
M  V30 23757 C 2272 -0.629072 -1.78012 0
M  V30 23758 O 2271.36 0.402382 -1.78009 0
M  V30 23759 C 2271.41 -3.08545 -1.88368 0
M  V30 23760 O 2271.13 -4.24032 -1.1013 0
M  V30 23761 C 2272.63 -3.48537 -2.73928 0
M  V30 23762 H 2269.85 -0.60848 -0.282831 0
M  V30 23763 H 2272.4 -2.03099 -0.238936 0
M  V30 23764 H 2270.55 -2.90455 -2.56349 0
M  V30 23765 H 2270.97 -4.95325 -1.72492 0
M  V30 23766 H 2272.44 -4.39403 -3.3411 0
M  V30 23767 H 2272.92 -2.70213 -3.46239 0
M  V30 23768 H 2273.52 -3.69061 -2.11362 0
M  V30 23769 N 2271.84 0.489844 -1.49794 0
M  V30 23770 C 2273.09 1.24324 -1.59843 0
M  V30 23771 C 2273.41 1.92323 -0.290169 0
M  V30 23772 O 2272.67 1.81866 0.722717 0
M  V30 23773 C 2272.97 2.32436 -2.71492 0
M  V30 23774 C 2272.63 1.81819 -4.12617 0
M  V30 23775 C 2271.3 1.67734 -4.5102 0
M  V30 23776 C 2273.65 1.44062 -5.00895 0
M  V30 23777 C 2270.98 1.14287 -5.75461 0
M  V30 23778 C 2273.33 0.920632 -6.25865 0
M  V30 23779 C 2271.99 0.766267 -6.63087 0
M  V30 23780 H 2271.26 0.454934 -0.584907 0
M  V30 23781 H 2273.91 0.542183 -1.83664 0
M  V30 23782 H 2272.21 3.08375 -2.41685 0
M  V30 23783 H 2273.91 2.90453 -2.76474 0
M  V30 23784 H 2270.5 1.93744 -3.8231 0
M  V30 23785 H 2274.69 1.53786 -4.71873 0
M  V30 23786 H 2269.94 1.01057 -6.0299 0
M  V30 23787 H 2274.12 0.619326 -6.93641 0
M  V30 23788 H 2271.74 0.34995 -7.59394 0
M  V30 23789 N 2273.32 1.39056 0.741698 0
M  V30 23790 C 2274.56 1.35914 1.50112 0
M  V30 23791 C 2274.89 -0.0470596 1.94443 0
M  V30 23792 O 2274.15 -1.02656 1.66614 0
M  V30 23793 C 2274.45 2.27168 2.75916 0
M  V30 23794 C 2274.11 3.74923 2.50486 0
M  V30 23795 C 2272.77 4.15184 2.4326 0
M  V30 23796 C 2275.13 4.68404 2.28577 0
M  V30 23797 C 2272.45 5.46998 2.12156 0
M  V30 23798 C 2274.81 6.00488 1.98991 0
M  V30 23799 C 2273.47 6.3982 1.90229 0
M  V30 23800 H 2272.74 0.497346 0.549298 0
M  V30 23801 H 2275.39 1.71509 0.851866 0
M  V30 23802 H 2273.69 1.84669 3.4555 0
M  V30 23803 H 2275.39 2.22034 3.33919 0
M  V30 23804 H 2271.98 3.4301 2.56986 0
M  V30 23805 H 2276.16 4.38137 2.33131 0
M  V30 23806 H 2271.42 5.76401 2.0389 0
M  V30 23807 H 2275.59 6.72455 1.81045 0
M  V30 23808 H 2273.22 7.41878 1.65894 0
M  V30 23809 N 2274.8 -0.971167 1.24121 0
M  V30 23810 C 2275.73 -2.06794 0.988386 0
M  V30 23811 C 2276.74 -1.62749 -0.0409255 0
M  V30 23812 O 2277.93 -1.77424 0.195704 0
M  V30 23813 C 2275.03 -3.35638 0.469082 0
M  V30 23814 C 2274.2 -4.08608 1.56072 0
M  V30 23815 C 2273.26 -5.15726 1.04467 0
M  V30 23816 O 2272.29 -5.42093 1.73563 0
M  V30 23817 N 2273.49 -5.8037 -0.122715 0
M  V30 23818 H 2276.25 -2.29057 1.93269 0
M  V30 23819 H 2273.82 -1.13854 1.15104 0
M  V30 23820 H 2275.81 -4.04554 0.108685 0
M  V30 23821 H 2274.38 -3.10271 -0.380865 0
M  V30 23822 H 2273.6 -3.34018 2.09346 0
M  V30 23823 H 2274.89 -4.54122 2.29457 0
M  V30 23824 H 2274.28 -5.61347 -0.700464 0
M  V30 23825 H 2272.84 -6.50418 -0.42429 0
M  V30 23826 N 2276.27 -1.05441 -1.17133 0
M  V30 23827 C 2277.52 -0.76711 -1.87732 0
M  V30 23828 C 2277.85 0.704221 -1.80982 0
M  V30 23829 O 2277.13 1.51517 -1.21954 0
M  V30 23830 C 2277.41 -1.25139 -3.37657 0
M  V30 23831 C 2277.26 -2.78584 -3.53145 0
M  V30 23832 C 2278.58 -0.8524 -4.31766 0
M  V30 23833 H 2275.7 -0.280141 -0.681682 0
M  V30 23834 H 2278.34 -1.30883 -1.3773 0
M  V30 23835 H 2276.49 -0.790536 -3.80372 0
M  V30 23836 H 2278.17 -3.32812 -3.19428 0
M  V30 23837 H 2276.41 -3.17737 -2.9534 0
M  V30 23838 H 2277.08 -3.07531 -4.58398 0
M  V30 23839 H 2279.56 -1.24918 -3.96906 0
M  V30 23840 H 2278.43 -1.21883 -5.35197 0
M  V30 23841 H 2278.69 0.243407 -4.41429 0
M  V30 23842 N 2277.75 1.33613 -0.835776 0
M  V30 23843 C 2278.66 2.33051 -0.269129 0
M  V30 23844 C 2279.68 1.63209 0.603222 0
M  V30 23845 O 2280.85 1.94886 0.508078 0
M  V30 23846 C 2277.92 3.42325 0.549031 0
M  V30 23847 C 2276.98 4.27893 -0.347231 0
M  V30 23848 C 2276.21 5.31949 0.431976 0
M  V30 23849 O 2276.44 5.45589 1.66399 0
M  V30 23850 O 2275.37 6.01592 -0.192404 0
M  V30 23851 H 2279.2 2.8337 -1.09248 0
M  V30 23852 H 2276.78 1.369 -0.598222 0
M  V30 23853 H 2278.66 4.09017 1.01407 0
M  V30 23854 H 2277.34 2.94228 1.34949 0
M  V30 23855 H 2276.25 3.6408 -0.860043 0
M  V30 23856 H 2277.58 4.79465 -1.11238 0
M  V30 23857 N 2279.23 0.591922 1.46062 0
M  V30 23858 C 2280.64 0.167855 1.85944 0
M  V30 23859 C 2280.99 -1.2714 1.49432 0
M  V30 23860 O 2280.12 -1.96171 0.913549 0
M  V30 23861 C 2280.71 0.297853 3.37488 0
M  V30 23862 C 2279.27 -0.0714071 3.76332 0
M  V30 23863 C 2278.42 0.629556 2.70059 0
M  V30 23864 H 2281.37 0.799579 1.37085 0
M  V30 23865 H 2281.39 -0.474282 3.77533 0
M  V30 23866 H 2280.9 1.34546 3.64032 0
M  V30 23867 H 2279 -1.11879 3.55406 0
M  V30 23868 H 2279.12 0.311329 4.78087 0
M  V30 23869 H 2277.48 0.0688314 2.54607 0
M  V30 23870 H 2278.26 1.67899 2.99441 0
M  V30 23871 N 2280.71 -1.54102 0.330204 0
M  V30 23872 C 2281.66 -2.26048 -0.548186 0
M  V30 23873 C 2282.65 -1.277 -1.11306 0
M  V30 23874 O 2283.86 -1.45454 -1.06034 0
M  V30 23875 H 2280.23 -0.726158 -0.195443 0
M  V30 23876 H 2282.2 -2.98291 0.0808092 0
M  V30 23877 C 2280.95 -3.03637 -1.6941 0
M  V30 23878 H 2280.27 -3.79136 -1.2687 0
M  V30 23879 H 2281.71 -3.57214 -2.28417 0
M  V30 23880 C 2280.17 -2.12333 -2.61565 0
M  V30 23881 O 2280.7 -1.71056 -3.63459 0
M  V30 23882 N 2278.91 -1.77685 -2.29949 0
M  V30 23883 H 2278.46 -2.11448 -1.4713 0
M  V30 23884 H 2278.41 -1.16874 -2.91869 0
M  V30 23885 N 2282.19 -0.0585199 -1.57491 0
M  V30 23886 C 2283.41 0.623003 -1.97297 0
M  V30 23887 C 2283.83 1.63944 -0.936367 0
M  V30 23888 O 2283.19 1.82331 0.0785661 0
M  V30 23889 C 2283.24 1.3034 -3.37185 0
M  V30 23890 O 2282.96 0.327653 -4.36873 0
M  V30 23891 C 2284.46 2.07399 -3.91791 0
M  V30 23892 H 2281.68 0.169815 -0.649156 0
M  V30 23893 H 2284.22 -0.126995 -2.04105 0
M  V30 23894 H 2282.38 2.00457 -3.31505 0
M  V30 23895 H 2282.79 0.814178 -5.18142 0
M  V30 23896 H 2284.27 2.50416 -4.91931 0
M  V30 23897 H 2284.74 2.92516 -3.27614 0
M  V30 23898 H 2285.35 1.42177 -4.00831 0
M  V30 23899 N 2283.66 1.56128 0.21493 0
M  V30 23900 C 2284.61 1.92954 1.26639 0
M  V30 23901 C 2285.58 0.787555 1.46242 0
M  V30 23902 O 2286.77 1.04402 1.59702 0
M  V30 23903 C 2283.91 2.2573 2.61036 0
M  V30 23904 C 2283.02 3.52895 2.49177 0
M  V30 23905 C 2282.15 3.75087 3.76143 0
M  V30 23906 C 2281.19 4.95744 3.59033 0
M  V30 23907 N 2280.33 5.14291 4.77963 0
M  V30 23908 H 2285.17 2.82608 0.945334 0
M  V30 23909 H 2282.71 1.39871 0.455465 0
M  V30 23910 H 2284.67 2.42745 3.39309 0
M  V30 23911 H 2283.3 1.39241 2.91225 0
M  V30 23912 H 2282.35 3.44037 1.62304 0
M  V30 23913 H 2283.66 4.41322 2.32458 0
M  V30 23914 H 2282.81 3.92234 4.62858 0
M  V30 23915 H 2281.55 2.84954 3.95794 0
M  V30 23916 H 2280.56 4.7854 2.70701 0
M  V30 23917 H 2281.78 5.87368 3.40846 0
M  V30 23918 H 2279.73 4.27102 4.97916 0
M  V30 23919 H 2279.65 5.96862 4.63996 0
M  V30 23920 H 2280.91 5.35879 5.66086 0
M  V30 23921 N 2285.14 -0.481893 1.50052 0
M  V30 23922 C 2286.07 -1.58948 1.71049 0
M  V30 23923 C 2287.05 -1.60641 0.559316 0
M  V30 23924 O 2288.24 -1.7708 0.797274 0
M  V30 23925 C 2285.37 -2.97336 1.79467 0
M  V30 23926 C 2284.32 -3.1051 2.94563 0
M  V30 23927 C 2283.65 -4.50439 2.88113 0
M  V30 23928 C 2284.95 -2.88739 4.35232 0
M  V30 23929 H 2286.64 -1.41631 2.63782 0
M  V30 23930 H 2284.19 -0.67992 1.26937 0
M  V30 23931 H 2286.14 -3.74738 1.92741 0
M  V30 23932 H 2284.87 -3.15786 0.833467 0
M  V30 23933 H 2283.52 -2.35538 2.80923 0
M  V30 23934 H 2283.17 -4.65791 1.89861 0
M  V30 23935 H 2282.87 -4.6019 3.65375 0
M  V30 23936 H 2284.4 -5.29875 3.03421 0
M  V30 23937 H 2285.81 -3.55898 4.49455 0
M  V30 23938 H 2284.21 -3.09946 5.13862 0
M  V30 23939 H 2285.28 -1.84688 4.48351 0
M  V30 23940 N 2286.62 -1.39448 -0.734313 0
M  V30 23941 C 2287.87 -1.36709 -1.49389 0
M  V30 23942 C 2288.2 0.0367471 -1.94465 0
M  V30 23943 O 2287.45 1.01771 -1.67156 0
M  V30 23944 C 2287.75 -2.28628 -2.74707 0
M  V30 23945 C 2287.42 -3.76246 -2.48494 0
M  V30 23946 C 2286.08 -4.16468 -2.41055 0
M  V30 23947 C 2288.43 -4.69609 -2.26089 0
M  V30 23948 C 2285.76 -5.48115 -2.09253 0
M  V30 23949 C 2288.11 -6.01534 -1.95804 0
M  V30 23950 C 2286.77 -6.40819 -1.86834 0
M  V30 23951 H 2286.04 -0.500252 -0.546652 0
M  V30 23952 H 2288.69 -1.71959 -0.842758 0
M  V30 23953 H 2287 -1.86499 -3.44566 0
M  V30 23954 H 2288.69 -2.23802 -3.32737 0
M  V30 23955 H 2285.28 -3.44368 -2.55163 0
M  V30 23956 H 2289.47 -4.39367 -2.30804 0
M  V30 23957 H 2284.72 -5.77475 -2.00831 0
M  V30 23958 H 2288.9 -6.73406 -1.77476 0
M  V30 23959 H 2286.52 -7.42748 -1.61957 0
M  V30 23960 N 2288.1 0.964571 -1.24635 0
M  V30 23961 C 2289.51 1.52258 -1.08048 0
M  V30 23962 C 2289.86 1.93106 0.347082 0
M  V30 23963 O 2288.99 1.77639 1.23585 0
M  V30 23964 C 2289.58 2.76691 -1.95518 0
M  V30 23965 C 2288.14 3.28838 -1.83146 0
M  V30 23966 C 2287.29 2.01729 -1.90265 0
M  V30 23967 H 2290.24 0.782529 -1.38066 0
M  V30 23968 H 2290.26 3.50143 -1.48931 0
M  V30 23969 H 2289.77 2.46931 -2.99411 0
M  V30 23970 H 2287.87 3.63443 -0.820983 0
M  V30 23971 H 2287.98 3.97526 -2.67413 0
M  V30 23972 H 2286.35 2.16582 -1.34031 0
M  V30 23973 H 2287.13 1.74329 -2.95743 0
M  V30 23974 N 2289.58 1.0606 1.16572 0
M  V30 23975 C 2290.54 0.67343 2.19083 0
M  V30 23976 C 2291.54 -0.27962 1.5835 0
M  V30 23977 O 2292.73 -0.0623182 1.74088 0
M  V30 23978 C 2289.86 -0.00948241 3.40899 0
M  V30 23979 H 2291.05 1.58086 2.54851 0
M  V30 23980 H 2288.61 0.855539 1.30806 0
M  V30 23981 H 2289.34 -0.929772 3.10686 0
M  V30 23982 H 2289.13 0.675798 3.86232 0
M  V30 23983 H 2290.62 -0.266171 4.16751 0
M  V30 23984 N 2291.06 -1.33168 0.84285 0
M  V30 23985 C 2292.3 -1.97944 0.441134 0
M  V30 23986 C 2292.63 -1.66594 -0.997994 0
M  V30 23987 O 2291.91 -0.947927 -1.69837 0
M  V30 23988 C 2292.19 -3.53871 0.666903 0
M  V30 23989 C 2292.05 -3.94893 2.15359 0
M  V30 23990 C 2293.36 -4.39948 0.115622 0
M  V30 23991 H 2290.48 -0.719031 0.161752 0
M  V30 23992 H 2293.13 -1.57744 1.0591 0
M  V30 23993 H 2291.28 -3.88244 0.140896 0
M  V30 23994 H 2292.95 -3.70756 2.74477 0
M  V30 23995 H 2291.19 -3.4448 2.63659 0
M  V30 23996 H 2291.86 -5.03512 2.2623 0
M  V30 23997 H 2294.34 -4.12242 0.565286 0
M  V30 23998 H 2293.21 -5.48062 0.303249 0
M  V30 23999 H 2293.47 -4.31082 -0.980859 0
M  V30 24000 N 2292.53 -0.599659 -1.45746 0
M  V30 24001 C 2293.78 -0.091764 -2.02292 0
M  V30 24002 C 2294.11 1.27469 -1.46908 0
M  V30 24003 O 2293.36 1.85259 -0.630684 0
M  V30 24004 C 2293.66 0.00596476 -3.574 0
M  V30 24005 C 2293.33 -1.29511 -4.319 0
M  V30 24006 C 2291.99 -1.65152 -4.51971 0
M  V30 24007 C 2294.34 -2.15533 -4.74547 0
M  V30 24008 C 2291.67 -2.86583 -5.11944 0
M  V30 24009 C 2294.02 -3.36206 -5.35862 0
M  V30 24010 C 2292.69 -3.72109 -5.54158 0
M  V30 24011 H 2291.96 -0.0335788 -0.740239 0
M  V30 24012 H 2294.6 -0.779691 -1.74909 0
M  V30 24013 H 2292.91 0.777115 -3.84016 0
M  V30 24014 H 2294.61 0.414968 -3.98847 0
M  V30 24015 H 2291.2 -1.00768 -4.16586 0
M  V30 24016 H 2295.38 -1.89298 -4.58781 0
M  V30 24017 H 2290.64 -3.14516 -5.24299 0
M  V30 24018 H 2294.81 -4.03119 -5.67863 0
M  V30 24019 H 2292.44 -4.6629 -6.00398 0
M  V30 24020 N 2294.01 1.53925 -0.338371 0
M  V30 24021 C 2295.26 2.01125 0.260108 0
M  V30 24022 C 2295.59 1.22592 1.50615 0
M  V30 24023 O 2294.87 0.312147 1.91979 0
M  V30 24024 C 2295.15 3.55408 0.579437 0
M  V30 24025 C 2295 4.44656 -0.678342 0
M  V30 24026 C 2296.32 4.17535 1.39114 0
M  V30 24027 H 2293.44 0.731101 0.0930644 0
M  V30 24028 H 2296.08 1.844 -0.457884 0
M  V30 24029 H 2294.23 3.6979 1.19112 0
M  V30 24030 H 2295.9 4.42119 -1.31639 0
M  V30 24031 H 2294.15 4.13728 -1.30427 0
M  V30 24032 H 2294.82 5.50473 -0.41024 0
M  V30 24033 H 2297.29 4.06818 0.873963 0
M  V30 24034 H 2296.17 5.25568 1.58333 0
M  V30 24035 H 2296.43 3.71819 2.39171 0
M  V30 24036 N 2295.49 0.0668712 1.57458 0
M  V30 24037 C 2296.42 -0.899726 2.1547 0
M  V30 24038 C 2297.4 -1.31379 1.08044 0
M  V30 24039 O 2298.59 -1.38572 1.36057 0
M  V30 24040 C 2295.72 -2.16907 2.71236 0
M  V30 24041 C 2294.67 -1.89456 3.83784 0
M  V30 24042 C 2294 -3.22978 4.26133 0
M  V30 24043 C 2295.3 -1.20372 5.0824 0
M  V30 24044 H 2296.99 -0.416477 2.96489 0
M  V30 24045 H 2294.54 -0.198883 1.4262 0
M  V30 24046 H 2296.49 -2.84939 3.10463 0
M  V30 24047 H 2295.21 -2.67465 1.8743 0
M  V30 24048 H 2293.87 -1.2383 3.45053 0
M  V30 24049 H 2293.52 -3.71368 3.39256 0
M  V30 24050 H 2293.22 -3.05404 5.01998 0
M  V30 24051 H 2294.74 -3.92217 4.67973 0
M  V30 24052 H 2296.16 -1.78466 5.44814 0
M  V30 24053 H 2294.55 -1.13073 5.89351 0
M  V30 24054 H 2295.62 -0.182068 4.84558 0
M  V30 24055 N 2296.97 -1.56239 -0.206647 0
M  V30 24056 C 2298.38 -1.69975 -0.772353 0
M  V30 24057 C 2298.73 -0.671469 -1.84352 0
M  V30 24058 O 2297.85 0.174453 -2.15696 0
M  V30 24059 C 2298.45 -3.08169 -1.40774 0
M  V30 24060 C 2297.01 -3.23709 -1.92066 0
M  V30 24061 C 2296.16 -2.65918 -0.7863 0
M  V30 24062 H 2299.11 -1.5869 0.0182502 0
M  V30 24063 H 2299.13 -3.04856 -2.2769 0
M  V30 24064 H 2298.64 -3.82987 -0.62789 0
M  V30 24065 H 2296.74 -2.53787 -2.72806 0
M  V30 24066 H 2296.85 -4.31091 -2.09039 0
M  V30 24067 H 2295.22 -2.2479 -1.19756 0
M  V30 24068 H 2296 -3.43295 -0.0188812 0
M  V30 24069 N 2298.45 0.473929 -1.50305 0
M  V30 24070 C 2299.67 1.24957 -1.64904 0
M  V30 24071 C 2300.09 1.85872 -0.331231 0
M  V30 24072 O 2299.45 1.69096 0.68649 0
M  V30 24073 C 2299.5 2.36033 -2.73807 0
M  V30 24074 O 2299.22 1.77617 -4.0048 0
M  V30 24075 C 2300.72 3.26958 -2.99354 0
M  V30 24076 H 2297.94 0.378013 -0.554389 0
M  V30 24077 H 2300.48 0.566019 -1.96511 0
M  V30 24078 H 2298.64 3.00169 -2.44903 0
M  V30 24079 H 2299.05 2.50742 -4.60683 0
M  V30 24080 H 2300.53 4.01115 -3.79224 0
M  V30 24081 H 2301 3.8557 -2.10314 0
M  V30 24082 H 2301.61 2.68563 -3.29779 0
M  V30 24083 N 2299.92 1.39835 0.726907 0
M  V30 24084 C 2300.87 1.35686 1.8323 0
M  V30 24085 C 2301.86 0.236323 1.59155 0
M  V30 24086 O 2303.05 0.474518 1.70521 0
M  V30 24087 C 2300.18 1.21067 3.21244 0
M  V30 24088 C 2299.26 2.37855 3.51121 0
M  V30 24089 N 2299.66 3.63335 3.51883 0
M  V30 24090 C 2297.95 2.30989 3.81523 0
M  V30 24091 C 2298.65 4.40613 3.79783 0
M  V30 24092 N 2297.63 3.70304 3.97965 0
M  V30 24093 H 2301.43 2.30659 1.82136 0
M  V30 24094 H 2298.95 1.33446 0.925522 0
M  V30 24095 H 2300.94 1.16178 4.00385 0
M  V30 24096 H 2299.6 0.270515 3.23571 0
M  V30 24097 H 2300.61 3.96649 3.33001 0
M  V30 24098 H 2297.29 1.45279 3.91408 0
M  V30 24099 H 2298.68 5.49415 3.86773 0
M  V30 24100 N 2301.4 -0.957948 1.25144 0
M  V30 24101 C 2302.33 -2.05734 1.01026 0
M  V30 24102 C 2303.35 -1.62783 -0.0236616 0
M  V30 24103 O 2304.54 -1.77206 0.214511 0
M  V30 24104 C 2301.64 -3.35122 0.504654 0
M  V30 24105 C 2300.81 -4.06929 1.60397 0
M  V30 24106 C 2299.87 -5.14589 1.09931 0
M  V30 24107 O 2298.89 -5.40221 1.79303 0
M  V30 24108 N 2300.1 -5.80468 -0.0611525 0
M  V30 24109 H 2302.86 -2.26995 1.95687 0
M  V30 24110 H 2300.42 -1.12627 1.16305 0
M  V30 24111 H 2302.41 -4.04416 0.151587 0
M  V30 24112 H 2300.98 -3.10658 -0.347935 0
M  V30 24113 H 2300.2 -3.31778 2.12877 0
M  V30 24114 H 2301.49 -4.51663 2.3426 0
M  V30 24115 H 2300.89 -5.62058 -0.640887 0
M  V30 24116 H 2299.45 -6.50831 -0.355281 0
M  V30 24117 N 2302.88 -1.06677 -1.16008 0
M  V30 24118 C 2303.83 -0.675196 -2.22584 0
M  V30 24119 C 2304.82 0.310737 -1.66526 0
M  V30 24120 O 2306.03 0.175183 -1.79145 0
M  V30 24121 H 2302.4 -0.200235 -0.724852 0
M  V30 24122 H 2304.37 -1.58385 -2.52897 0
M  V30 24123 C 2303.12 -0.0817773 -3.47604 0
M  V30 24124 H 2302.45 -0.831552 -3.91057 0
M  V30 24125 H 2303.89 0.154634 -4.23718 0
M  V30 24126 C 2302.34 1.1757 -3.1572 0
M  V30 24127 O 2302.87 2.26312 -3.31882 0
M  V30 24128 N 2301.08 1.07919 -2.69818 0
M  V30 24129 H 2300.63 0.194248 -2.56867 0
M  V30 24130 H 2300.59 1.92137 -2.48859 0
M  V30 24131 N 2304.36 1.32719 -0.8499 0
M  V30 24132 C 2305.6 1.97707 -0.451625 0
M  V30 24133 C 2305.94 1.67121 0.989145 0
M  V30 24134 O 2305.21 0.956921 1.69332 0
M  V30 24135 C 2305.49 3.53512 -0.68566 0
M  V30 24136 C 2305.35 3.93745 -2.1745 0
M  V30 24137 C 2306.67 4.39881 -0.138952 0
M  V30 24138 H 2303.79 0.718163 -0.165563 0
M  V30 24139 H 2306.43 1.5718 -1.06745 0
M  V30 24140 H 2304.58 3.88164 -0.161484 0
M  V30 24141 H 2306.25 3.69295 -2.76439 0
M  V30 24142 H 2304.49 3.43076 -2.65483 0
M  V30 24143 H 2305.16 5.02305 -2.28897 0
M  V30 24144 H 2307.64 4.11937 -0.58714 0
M  V30 24145 H 2306.52 5.47893 -0.332309 0
M  V30 24146 H 2306.78 4.31596 0.957984 0
M  V30 24147 N 2305.84 0.60738 1.45426 0
M  V30 24148 C 2307.09 0.100071 2.01452 0
M  V30 24149 C 2307.4 -1.27701 1.48161 0
M  V30 24150 O 2308.6 -1.87703 1.96162 0
M  V30 24151 C 2307.06 0.128221 3.59672 0
M  V30 24152 C 2306.67 1.50514 4.21959 0
M  V30 24153 C 2308.41 -0.323857 4.23263 0
M  V30 24154 C 2306.32 1.48969 5.72331 0
M  V30 24155 H 2305.25 0.0336431 0.753249 0
M  V30 24156 H 2307.9 0.762679 1.669 0
M  V30 24157 H 2306.28 -0.601036 3.91412 0
M  V30 24158 H 2307.46 2.25609 4.01792 0
M  V30 24159 H 2305.77 1.8993 3.70561 0
M  V30 24160 H 2308.37 -0.354597 5.33523 0
M  V30 24161 H 2308.71 -1.34649 3.93923 0
M  V30 24162 H 2309.24 0.352126 3.96238 0
M  V30 24163 H 2305.98 2.48992 6.06369 0
M  V30 24164 H 2305.5 0.781318 5.94689 0
M  V30 24165 H 2307.18 1.21324 6.35523 0
M  V30 24166 N 2307.31 -1.53743 0.34653 0
M  V30 24167 C 2308.25 -2.22668 -0.543277 0
M  V30 24168 C 2309.26 -1.23428 -1.06157 0
M  V30 24169 O 2310.45 -1.49766 -0.971208 0
M  V30 24170 C 2307.55 -2.89572 -1.76071 0
M  V30 24171 C 2306.72 -4.15153 -1.3772 0
M  V30 24172 C 2305.78 -4.6544 -2.45463 0
M  V30 24173 O 2304.81 -5.2958 -2.08646 0
M  V30 24174 N 2306.01 -4.41623 -3.76762 0
M  V30 24175 H 2308.77 -2.99663 0.047023 0
M  V30 24176 H 2306.33 -1.60997 0.170795 0
M  V30 24177 H 2308.33 -3.20129 -2.47588 0
M  V30 24178 H 2306.9 -2.16146 -2.25831 0
M  V30 24179 H 2306.12 -3.91109 -0.492678 0
M  V30 24180 H 2307.4 -4.96834 -1.09699 0
M  V30 24181 H 2306.8 -3.90332 -4.0946 0
M  V30 24182 H 2305.36 -4.76777 -4.4444 0
M  V30 24183 N 2308.79 -0.0752207 -1.5742 0
M  V30 24184 C 2310.04 0.593112 -1.93619 0
M  V30 24185 C 2310.37 1.69411 -0.955514 0
M  V30 24186 O 2309.62 1.9568 0.0282907 0
M  V30 24187 C 2309.92 1.2062 -3.36431 0
M  V30 24188 C 2309.59 0.230999 -4.50308 0
M  V30 24189 C 2308.25 -0.0372781 -4.81186 0
M  V30 24190 C 2310.6 -0.435979 -5.19373 0
M  V30 24191 C 2307.93 -0.979562 -5.78465 0
M  V30 24192 C 2310.28 -1.36661 -6.17662 0
M  V30 24193 C 2308.95 -1.64332 -6.46955 0
M  V30 24194 H 2308.22 0.217035 -0.708503 0
M  V30 24195 H 2310.86 -0.146826 -1.90936 0
M  V30 24196 H 2309.17 2.02195 -3.35596 0
M  V30 24197 H 2310.86 1.73067 -3.6173 0
M  V30 24198 H 2307.45 0.450282 -4.26228 0
M  V30 24199 H 2311.64 -0.241836 -4.9571 0
M  V30 24200 H 2306.89 -1.20116 -5.99485 0
M  V30 24201 H 2311.07 -1.88936 -6.70281 0
M  V30 24202 H 2308.7 -2.37507 -7.22146 0
M  V30 24203 N 2310.27 1.56347 0.198358 0
M  V30 24204 C 2311.18 1.97485 1.26637 0
M  V30 24205 C 2312.2 0.882028 1.49988 0
M  V30 24206 O 2313.37 1.18751 1.62666 0
M  V30 24207 C 2310.44 2.30324 2.59137 0
M  V30 24208 C 2309.5 3.53296 2.43886 0
M  V30 24209 C 2308.73 3.84559 3.70067 0
M  V30 24210 O 2308.95 3.17159 4.74096 0
M  V30 24211 O 2307.89 4.77996 3.65792 0
M  V30 24212 H 2311.71 2.88549 0.947253 0
M  V30 24213 H 2309.3 1.43859 0.403098 0
M  V30 24214 H 2311.18 2.52536 3.37348 0
M  V30 24215 H 2309.86 1.42428 2.90682 0
M  V30 24216 H 2308.76 3.36335 1.63797 0
M  V30 24217 H 2310.1 4.41648 2.17274 0
M  V30 24218 N 2311.75 -0.465951 1.50554 0
M  V30 24219 C 2312.68 -1.57125 1.72725 0
M  V30 24220 C 2313.66 -1.60039 0.576322 0
M  V30 24221 O 2314.84 -1.76224 0.816011 0
M  V30 24222 C 2311.97 -2.95416 1.82611 0
M  V30 24223 C 2310.93 -3.07368 2.9784 0
M  V30 24224 C 2310.25 -4.47357 2.92875 0
M  V30 24225 C 2311.55 -2.84106 4.3827 0
M  V30 24226 H 2313.25 -1.38825 2.6527 0
M  V30 24227 H 2310.79 -0.666418 1.27651 0
M  V30 24228 H 2312.75 -3.72673 1.96705 0
M  V30 24229 H 2311.47 -3.14884 0.866914 0
M  V30 24230 H 2310.13 -2.32545 2.83405 0
M  V30 24231 H 2309.78 -4.63752 1.94791 0
M  V30 24232 H 2309.48 -4.56289 3.70235 0
M  V30 24233 H 2311 -5.26627 3.09024 0
M  V30 24234 H 2312.42 -3.5111 4.53205 0
M  V30 24235 H 2310.81 -3.04478 5.1712 0
M  V30 24236 H 2311.88 -1.79923 4.50284 0
M  V30 24237 N 2313.23 -1.40218 -0.719481 0
M  V30 24238 C 2314.47 -1.38012 -1.47638 0
M  V30 24239 C 2314.8 0.0181108 -1.94992 0
M  V30 24240 O 2314.07 0.972177 -1.70075 0
M  V30 24241 H 2312.65 -0.507932 -0.547735 0
M  V30 24242 H 2315.31 -1.75235 -0.853156 0
M  V30 24243 H 2314.4 -2.05257 -2.35109 0
M  V30 24244 N 2314.7 0.951297 -1.25651 0
M  V30 24245 C 2315.65 2.0485 -1.06326 0
M  V30 24246 C 2316.62 1.66075 0.0286199 0
M  V30 24247 O 2317.81 1.90362 -0.129204 0
M  V30 24248 C 2314.95 3.38099 -0.691589 0
M  V30 24249 C 2314.06 3.89971 -1.85868 0
M  V30 24250 C 2313.19 5.11561 -1.43105 0
M  V30 24251 C 2312.23 5.55669 -2.56706 0
M  V30 24252 N 2311.37 6.68469 -2.14696 0
M  V30 24253 H 2316.21 2.20712 -2.00226 0
M  V30 24254 H 2313.75 1.08155 -0.997046 0
M  V30 24255 H 2315.71 4.14689 -0.457036 0
M  V30 24256 H 2314.34 3.22113 0.210418 0
M  V30 24257 H 2313.39 3.09871 -2.20644 0
M  V30 24258 H 2314.7 4.18652 -2.71168 0
M  V30 24259 H 2313.85 5.95578 -1.15634 0
M  V30 24260 H 2312.59 4.84602 -0.548808 0
M  V30 24261 H 2311.6 4.70215 -2.84917 0
M  V30 24262 H 2312.82 5.84634 -3.45513 0
M  V30 24263 H 2310.77 6.43213 -1.28892 0
M  V30 24264 H 2310.69 6.96684 -2.93543 0
M  V30 24265 H 2311.95 7.55886 -1.9041 0
M  V30 24266 N 2316.18 1.07291 1.1544 0
M  V30 24267 C 2317.11 0.650624 2.19772 0
M  V30 24268 C 2318.13 -0.296544 1.60076 0
M  V30 24269 O 2319.32 -0.0859592 1.78293 0
M  V30 24270 C 2316.42 -0.0649803 3.38838 0
M  V30 24271 C 2315.59 0.898216 4.28078 0
M  V30 24272 C 2314.65 0.220019 5.2574 0
M  V30 24273 O 2313.67 0.860871 5.62652 0
M  V30 24274 N 2314.88 -1.03455 5.71207 0
M  V30 24275 H 2317.64 1.54812 2.56619 0
M  V30 24276 H 2315.2 0.957517 1.3055 0
M  V30 24277 H 2317.19 -0.529344 4.01223 0
M  V30 24278 H 2315.76 -0.864414 3.00411 0
M  V30 24279 H 2314.98 1.54171 3.62801 0
M  V30 24280 H 2316.27 1.55129 4.84574 0
M  V30 24281 H 2315.67 -1.57517 5.43328 0
M  V30 24282 H 2314.23 -1.44261 6.35635 0
M  V30 24283 N 2317.66 -1.32267 0.856927 0
M  V30 24284 C 2318.61 -2.28826 0.301212 0
M  V30 24285 C 2319.58 -1.55151 -0.593077 0
M  V30 24286 O 2320.76 -1.83363 -0.527504 0
M  V30 24287 C 2317.9 -3.41422 -0.502463 0
M  V30 24288 C 2317.02 -4.29974 0.417873 0
M  V30 24289 C 2316.15 -5.29702 -0.398655 0
M  V30 24290 C 2315.19 -6.09896 0.518935 0
M  V30 24291 N 2314.33 -7.01616 -0.260551 0
M  V30 24292 H 2319.17 -2.75749 1.12988 0
M  V30 24293 H 2316.7 -1.35666 0.568606 0
M  V30 24294 H 2318.66 -4.05428 -0.98407 0
M  V30 24295 H 2317.29 -2.95644 -1.29594 0
M  V30 24296 H 2316.34 -3.66529 1.01788 0
M  V30 24297 H 2317.66 -4.86017 1.122 0
M  V30 24298 H 2316.81 -5.99321 -0.943329 0
M  V30 24299 H 2315.55 -4.74282 -1.13614 0
M  V30 24300 H 2314.55 -5.39179 1.07547 0
M  V30 24301 H 2315.78 -6.67402 1.25506 0
M  V30 24302 H 2313.72 -6.48622 -0.981084 0
M  V30 24303 H 2313.64 -7.55022 0.384496 0
M  V30 24304 H 2314.91 -7.75518 -0.786878 0
M  V30 24305 N 2319.14 -0.615084 -1.45102 0
M  V30 24306 C 2320.09 0.11175 -2.32331 0
M  V30 24307 C 2321.08 0.852076 -1.4641 0
M  V30 24308 O 2322.29 0.766793 -1.62851 0
M  V30 24309 H 2318.66 0.0548941 -0.749994 0
M  V30 24310 H 2320.63 -0.642276 -2.91406 0
M  V30 24311 C 2319.38 1.09065 -3.30152 0
M  V30 24312 H 2318.7 0.530415 -3.96266 0
M  V30 24313 H 2320.14 1.56901 -3.93901 0
M  V30 24314 C 2318.6 2.16795 -2.57879 0
M  V30 24315 O 2319.13 3.24648 -2.36573 0
M  V30 24316 N 2317.34 1.92285 -2.17887 0
M  V30 24317 H 2316.89 1.04583 -2.35415 0
M  V30 24318 H 2316.84 2.64569 -1.69855 0
M  V30 24319 N 2320.62 1.53557 -0.354678 0
M  V30 24320 C 2321.87 2.00273 0.239469 0
M  V30 24321 C 2322.18 1.24626 1.50757 0
M  V30 24322 O 2323.39 1.61875 2.17965 0
M  V30 24323 C 2321.84 3.56721 0.477279 0
M  V30 24324 C 2321.45 4.41236 -0.775566 0
M  V30 24325 C 2323.19 4.11823 1.02968 0
M  V30 24326 C 2321.1 5.89215 -0.507942 0
M  V30 24327 H 2320.03 0.74821 0.0932611 0
M  V30 24328 H 2322.68 1.77333 -0.471732 0
M  V30 24329 H 2321.06 3.75772 1.24946 0
M  V30 24330 H 2322.24 4.33959 -1.54971 0
M  V30 24331 H 2320.55 3.97183 -1.2504 0
M  V30 24332 H 2323.15 5.20003 1.24504 0
M  V30 24333 H 2323.49 3.65735 1.98856 0
M  V30 24334 H 2324.03 3.96528 0.317925 0
M  V30 24335 H 2320.76 6.39558 -1.43685 0
M  V30 24336 H 2320.28 5.99367 0.227906 0
M  V30 24337 H 2321.96 6.46871 -0.129352 0
M  V30 24338 N 2322.1 0.083568 1.57378 0
M  V30 24339 C 2323.03 -0.915796 2.09018 0
M  V30 24340 C 2324.01 -1.28368 0.998015 0
M  V30 24341 O 2325.19 -1.39094 1.27221 0
M  V30 24342 C 2322.32 -2.22045 2.55761 0
M  V30 24343 C 2321.36 -2.00327 3.76526 0
M  V30 24344 S 2322.2 -1.25182 5.20663 0
M  V30 24345 C 2323.35 -2.56902 5.70747 0
M  V30 24346 H 2323.59 -0.47644 2.93458 0
M  V30 24347 H 2321.12 -0.129466 1.53856 0
M  V30 24348 H 2323.08 -2.97022 2.83351 0
M  V30 24349 H 2321.74 -2.63103 1.71568 0
M  V30 24350 H 2320.93 -2.96908 4.07261 0
M  V30 24351 H 2320.53 -1.33481 3.49369 0
M  V30 24352 H 2322.82 -3.52936 5.7831 0
M  V30 24353 H 2323.77 -2.30761 6.69444 0
M  V30 24354 H 2324.18 -2.64647 4.98621 0
M  V30 24355 N 2323.57 -1.5645 -0.190064 0
M  V30 24356 C 2324.98 -1.70785 -0.754282 0
M  V30 24357 C 2325.34 -0.690984 -1.8363 0
M  V30 24358 O 2324.46 0.151566 -2.15869 0
M  V30 24359 C 2325.06 -3.09645 -1.37497 0
M  V30 24360 C 2323.61 -3.25728 -1.88622 0
M  V30 24361 C 2322.76 -2.66737 -0.758051 0
M  V30 24362 H 2325.71 -1.58661 0.0350803 0
M  V30 24363 H 2325.73 -3.07254 -2.24444 0
M  V30 24364 H 2325.25 -3.83632 -0.587234 0
M  V30 24365 H 2323.35 -2.56666 -2.70099 0
M  V30 24366 H 2323.46 -4.33284 -2.04455 0
M  V30 24367 H 2321.82 -2.26048 -1.17365 0
M  V30 24368 H 2322.61 -3.43296 0.0175308 0
M  V30 24369 N 2325.05 0.45796 -1.50799 0
M  V30 24370 C 2325.98 1.56207 -1.73556 0
M  V30 24371 C 2326.96 1.59731 -0.584802 0
M  V30 24372 O 2328.15 1.75789 -0.825345 0
M  V30 24373 C 2325.28 2.94444 -1.84175 0
M  V30 24374 C 2324.23 3.05784 -2.99466 0
M  V30 24375 C 2323.56 4.45798 -2.95243 0
M  V30 24376 C 2324.86 2.81778 -4.39771 0
M  V30 24377 H 2326.55 1.37416 -2.66002 0
M  V30 24378 H 2324.1 0.659639 -1.28003 0
M  V30 24379 H 2326.05 3.71625 -1.98678 0
M  V30 24380 H 2324.77 3.1442 -0.8836 0
M  V30 24381 H 2323.43 2.31039 -2.84634 0
M  V30 24382 H 2323.08 4.62712 -1.97248 0
M  V30 24383 H 2322.78 4.54319 -3.72649 0
M  V30 24384 H 2324.31 5.24981 -3.11813 0
M  V30 24385 H 2325.72 3.48702 -4.5506 0
M  V30 24386 H 2324.12 3.01731 -5.18727 0
M  V30 24387 H 2325.19 1.77532 -4.51232 0
M  V30 24388 N 2326.53 1.40598 0.712035 0
M  V30 24389 C 2327.75 1.42584 1.50614 0
M  V30 24390 C 2328.18 0.0282432 1.88079 0
M  V30 24391 O 2327.54 -0.964552 1.53512 0
M  V30 24392 C 2327.59 2.32585 2.75566 0
M  V30 24393 O 2326.69 1.77154 3.72411 0
M  V30 24394 H 2326.03 0.484581 0.453957 0
M  V30 24395 H 2328.56 1.84869 0.876616 0
M  V30 24396 H 2328.57 2.47894 3.24056 0
M  V30 24397 H 2327.25 3.34142 2.47633 0
M  V30 24398 H 2325.82 1.7121 3.31273 0
M  V30 24399 N 2328.01 -0.94462 1.26153 0
M  V30 24400 C 2328.97 -2.02438 1.07477 0
M  V30 24401 C 2329.97 -1.60782 0.0242347 0
M  V30 24402 O 2331.16 -1.72136 0.267333 0
M  V30 24403 C 2328.29 -3.34952 0.634015 0
M  V30 24404 H 2329.49 -2.20438 2.0334 0
M  V30 24405 H 2327.04 -1.1231 1.08702 0
M  V30 24406 H 2327.77 -3.2265 -0.326754 0
M  V30 24407 H 2327.56 -3.66539 1.39253 0
M  V30 24408 H 2329.05 -4.14286 0.525083 0
M  V30 24409 N 2329.49 -1.07901 -1.1487 0
M  V30 24410 C 2330.45 -0.708199 -2.17984 0
M  V30 24411 C 2331.45 0.254393 -1.58775 0
M  V30 24412 O 2332.64 0.0346144 -1.74166 0
M  V30 24413 C 2329.77 -0.0447528 -3.40871 0
M  V30 24414 H 2330.96 -1.6212 -2.52303 0
M  V30 24415 H 2328.52 -0.876241 -1.29428 0
M  V30 24416 H 2329.25 0.880227 -3.12126 0
M  V30 24417 H 2329.04 -0.737159 -3.85108 0
M  V30 24418 H 2330.53 0.199836 -4.17122 0
M  V30 24419 N 2330.96 1.31811 -0.863929 0
M  V30 24420 C 2331.9 2.26714 -0.260003 0
M  V30 24421 C 2332.87 1.5083 0.607366 0
M  V30 24422 O 2334.06 1.79923 0.562123 0
M  V30 24423 C 2331.19 3.32744 0.632398 0
M  V30 24424 C 2330.23 4.26189 -0.162818 0
M  V30 24425 S 2331.06 5.12958 -1.53735 0
M  V30 24426 C 2332.22 6.22506 -0.650912 0
M  V30 24427 H 2332.45 2.77589 -1.0645 0
M  V30 24428 H 2329.99 1.39484 -0.662096 0
M  V30 24429 H 2331.94 3.94307 1.1416 0
M  V30 24430 H 2330.61 2.80634 1.41078 0
M  V30 24431 H 2329.8 5.01338 0.517277 0
M  V30 24432 H 2329.4 3.69092 -0.603915 0
M  V30 24433 H 2331.69 6.77353 0.141015 0
M  V30 24434 H 2332.64 6.94655 -1.37334 0
M  V30 24435 H 2333.04 5.64067 -0.22114 0
M  V30 24436 N 2332.44 0.62277 1.44773 0
M  V30 24437 C 2333.69 0.123935 2.0212 0
M  V30 24438 C 2334.02 -1.25116 1.48917 0
M  V30 24439 O 2333.27 -1.84232 0.660077 0
M  V30 24440 C 2333.57 0.0508952 3.57364 0
M  V30 24441 C 2333.24 1.36366 4.29785 0
M  V30 24442 C 2331.9 1.72322 4.49287 0
M  V30 24443 C 2334.25 2.23056 4.71058 0
M  V30 24444 C 2331.58 2.94691 5.0732 0
M  V30 24445 C 2333.93 3.44688 5.30446 0
M  V30 24446 C 2332.59 3.80878 5.48168 0
M  V30 24447 H 2331.86 0.0453511 0.739611 0
M  V30 24448 H 2334.51 0.807419 1.73646 0
M  V30 24449 H 2332.82 -0.715923 3.85204 0
M  V30 24450 H 2334.51 -0.351463 3.99457 0
M  V30 24451 H 2331.1 1.07383 4.1493 0
M  V30 24452 H 2335.29 1.96573 4.55711 0
M  V30 24453 H 2330.54 3.22818 5.19229 0
M  V30 24454 H 2334.72 4.12102 5.61378 0
M  V30 24455 H 2332.34 4.75783 5.92903 0
M  V30 24456 N 2333.92 -1.53367 0.362817 0
M  V30 24457 C 2334.85 -2.23232 -0.519629 0
M  V30 24458 C 2335.86 -1.24547 -1.04842 0
M  V30 24459 O 2337.05 -1.50787 -0.955269 0
M  V30 24460 C 2334.15 -2.91424 -1.7299 0
M  V30 24461 C 2333.33 -4.1659 -1.33309 0
M  V30 24462 C 2332.39 -4.68017 -2.40512 0
M  V30 24463 O 2331.41 -5.31764 -2.03018 0
M  V30 24464 N 2332.61 -4.45594 -3.72057 0
M  V30 24465 H 2335.38 -2.99596 0.0788036 0
M  V30 24466 H 2332.94 -1.60806 0.187861 0
M  V30 24467 H 2334.93 -3.22737 -2.44178 0
M  V30 24468 H 2333.5 -2.18529 -2.23526 0
M  V30 24469 H 2332.72 -3.9161 -0.451168 0
M  V30 24470 H 2334.01 -4.97969 -1.04423 0
M  V30 24471 H 2333.41 -3.94653 -4.05297 0
M  V30 24472 H 2331.96 -4.81464 -4.39358 0
M  V30 24473 N 2335.4 -0.091913 -1.57332 0
M  V30 24474 C 2336.62 0.584407 -1.98996 0
M  V30 24475 C 2337.05 1.61127 -0.970556 0
M  V30 24476 O 2336.41 1.81196 0.0613586 0
M  V30 24477 C 2336.45 1.21155 -3.39638 0
M  V30 24478 O 2335.56 2.32738 -3.40451 0
M  V30 24479 H 2334.9 0.148561 -0.647167 0
M  V30 24480 H 2337.43 -0.172383 -2.03873 0
M  V30 24481 H 2337.44 1.55361 -3.77263 0
M  V30 24482 H 2336.11 0.45924 -4.13357 0
M  V30 24483 H 2334.69 2.00175 -3.14618 0
M  V30 24484 N 2336.88 1.56548 0.181765 0
M  V30 24485 C 2337.79 1.98817 1.24535 0
M  V30 24486 C 2338.8 0.897887 1.49044 0
M  V30 24487 O 2339.98 1.2047 1.61397 0
M  V30 24488 C 2337.04 2.33059 2.56679 0
M  V30 24489 C 2336.1 3.55863 2.40125 0
M  V30 24490 C 2335.34 3.88463 3.65968 0
M  V30 24491 O 2335.56 3.22169 4.70705 0
M  V30 24492 O 2334.49 4.81849 3.60701 0
M  V30 24493 H 2338.32 2.89538 0.916596 0
M  V30 24494 H 2335.91 1.44279 0.387817 0
M  V30 24495 H 2337.79 2.561 3.3465 0
M  V30 24496 H 2336.46 1.45503 2.89155 0
M  V30 24497 H 2335.37 3.38054 1.6022 0
M  V30 24498 H 2336.7 4.43928 2.12578 0
M  V30 24499 N 2338.35 -0.449957 1.5104 0
M  V30 24500 C 2339.77 -0.785438 1.38935 0
M  V30 24501 C 2339.97 -1.96136 0.461851 0
M  V30 24502 O 2339.03 -2.52348 -0.0876945 0
M  V30 24503 C 2340.34 -1.07765 2.80726 0
M  V30 24504 C 2341.89 -1.18285 2.89789 0
M  V30 24505 C 2342.36 -1.50807 4.32459 0
M  V30 24506 N 2343.85 -1.57757 4.35508 0
M  V30 24507 C 2344.59 -1.84468 5.42917 0
M  V30 24508 N 2344.08 -2.09056 6.60505 0
M  V30 24509 N 2345.88 -1.86146 5.30383 0
M  V30 24510 H 2338.03 0.324684 2.09904 0
M  V30 24511 H 2340.29 0.0828123 0.944376 0
M  V30 24512 H 2340 -0.286437 3.50532 0
M  V30 24513 H 2339.87 -2.00853 3.19277 0
M  V30 24514 H 2342.26 -1.96471 2.20189 0
M  V30 24515 H 2342.34 -0.231269 2.54752 0
M  V30 24516 H 2341.98 -0.731534 5.02604 0
M  V30 24517 H 2341.91 -2.4715 4.64999 0
M  V30 24518 H 2344.4 -1.40709 3.50727 0
M  V30 24519 H 2344.72 -2.28772 7.38162 0
M  V30 24520 H 2343.06 -2.06405 6.63643 0
M  V30 24521 H 2346.25 -1.66447 4.37508 0
M  V30 24522 H 2346.43 -2.06626 6.14174 0
M  V30 24523 N 2339.83 -1.40974 -0.704569 0
M  V30 24524 C 2340.78 -1.42112 -1.8186 0
M  V30 24525 C 2341.75 -0.276622 -1.6378 0
M  V30 24526 O 2342.93 -0.476332 -1.84759 0
M  V30 24527 C 2340.07 -1.30027 -3.19667 0
M  V30 24528 C 2339.19 -2.54273 -3.49241 0
M  V30 24529 C 2338.32 -2.34548 -4.76614 0
M  V30 24530 C 2337.36 -3.54315 -4.99127 0
M  V30 24531 N 2336.5 -3.33717 -6.1772 0
M  V30 24532 H 2341.34 -2.37327 -1.80222 0
M  V30 24533 H 2338.88 -1.17858 -0.880217 0
M  V30 24534 H 2340.83 -1.21025 -3.9926 0
M  V30 24535 H 2339.46 -0.384248 -3.20505 0
M  V30 24536 H 2338.52 -2.7376 -2.6412 0
M  V30 24537 H 2339.83 -3.43388 -3.61782 0
M  V30 24538 H 2338.98 -2.22962 -5.64245 0
M  V30 24539 H 2337.72 -1.42875 -4.66302 0
M  V30 24540 H 2336.73 -3.66366 -4.09947 0
M  V30 24541 H 2337.95 -4.46929 -5.11303 0
M  V30 24542 H 2335.9 -2.44736 -6.08638 0
M  V30 24543 H 2335.81 -4.16403 -6.30987 0
M  V30 24544 H 2337.08 -3.25885 -7.0811 0
M  V30 24545 N 2341.31 0.937917 -1.26653 0
M  V30 24546 C 2342.26 2.05843 -1.08311 0
M  V30 24547 C 2343.25 1.69398 -0.00910548 0
M  V30 24548 O 2344.46 1.79233 -0.166039 0
M  V30 24549 H 2340.83 0.67404 -0.333428 0
M  V30 24550 H 2342.8 2.18463 -2.03265 0
M  V30 24551 C 2341.55 3.39815 -0.736289 0
M  V30 24552 H 2340.88 3.68337 -1.55459 0
M  V30 24553 H 2342.32 4.19023 -0.647764 0
M  V30 24554 C 2340.78 3.32234 0.558765 0
M  V30 24555 O 2341.31 3.68627 1.59615 0
M  V30 24556 N 2339.51 2.85336 0.550607 0
M  V30 24557 H 2339.06 2.55917 -0.293988 0
M  V30 24558 H 2339.02 2.80646 1.41721 0
M  V30 24559 N 2342.79 1.08509 1.14296 0
M  V30 24560 C 2344.2 0.836257 1.66924 0
M  V30 24561 C 2344.55 -0.636828 1.85577 0
M  V30 24562 O 2343.68 -1.49172 1.5677 0
M  V30 24563 C 2344.27 1.51147 3.03216 0
M  V30 24564 C 2342.83 1.30985 3.52874 0
M  V30 24565 C 2341.98 1.5736 2.28327 0
M  V30 24566 H 2344.93 1.24553 0.983469 0
M  V30 24567 H 2344.95 0.939276 3.68725 0
M  V30 24568 H 2344.46 2.58358 2.89608 0
M  V30 24569 H 2342.56 0.258494 3.71702 0
M  V30 24570 H 2342.67 2.03821 4.33582 0
M  V30 24571 H 2341.04 0.995206 2.34452 0
M  V30 24572 H 2341.82 2.65779 2.17294 0
M  V30 24573 N 2344.27 -1.31351 0.870907 0
M  V30 24574 C 2345.23 -2.26779 0.332283 0
M  V30 24575 C 2346.23 -1.52253 -0.517275 0
M  V30 24576 O 2347.42 -1.71114 -0.326447 0
M  V30 24577 C 2344.55 -3.36786 -0.528007 0
M  V30 24578 H 2345.74 -2.75935 1.17473 0
M  V30 24579 H 2343.3 -1.42299 0.646575 0
M  V30 24580 H 2344.03 -2.92924 -1.39162 0
M  V30 24581 H 2343.82 -3.92018 0.0803271 0
M  V30 24582 H 2345.31 -4.0785 -0.897107 0
M  V30 24583 N 2345.74 -0.630439 -1.44441 0
M  V30 24584 C 2347.16 -0.217096 -1.85434 0
M  V30 24585 C 2347.51 1.23133 -1.5275 0
M  V30 24586 O 2346.63 1.9368 -0.965239 0
M  V30 24587 C 2347.23 -0.387227 -3.3658 0
M  V30 24588 C 2345.79 -0.0283959 -3.76389 0
M  V30 24589 C 2344.93 -0.700937 -2.68295 0
M  V30 24590 H 2347.88 -0.835644 -1.34917 0
M  V30 24591 H 2347.9 0.37402 -3.78657 0
M  V30 24592 H 2347.42 -1.4415 -3.60336 0
M  V30 24593 H 2345.52 1.02417 -3.58248 0
M  V30 24594 H 2345.63 -0.437976 -4.77094 0
M  V30 24595 H 2343.99 -0.136312 -2.54335 0
M  V30 24596 H 2344.78 -1.75779 -2.94884 0
M  V30 24597 N 2347.22 1.53172 -0.370945 0
M  V30 24598 C 2348.15 2.23504 0.507783 0
M  V30 24599 C 2349.17 1.25102 1.0418 0
M  V30 24600 O 2350.36 1.51292 0.947259 0
M  V30 24601 C 2347.46 2.92337 1.71442 0
M  V30 24602 C 2346.63 4.17291 1.31098 0
M  V30 24603 C 2345.69 4.69286 2.38027 0
M  V30 24604 O 2344.71 5.32833 2.00195 0
M  V30 24605 N 2345.92 4.47561 3.69689 0
M  V30 24606 H 2348.68 2.9955 -0.0946908 0
M  V30 24607 H 2346.24 1.60704 -0.196386 0
M  V30 24608 H 2348.23 3.24027 2.42463 0
M  V30 24609 H 2346.8 2.19711 2.22364 0
M  V30 24610 H 2346.02 3.91843 0.430393 0
M  V30 24611 H 2347.31 4.98516 1.01781 0
M  V30 24612 H 2346.71 3.96797 4.03198 0
M  V30 24613 H 2345.27 4.83788 4.36798 0
M  V30 24614 N 2348.7 0.100255 1.57281 0
M  V30 24615 C 2349.94 -0.565545 1.9642 0
M  V30 24616 C 2350.3 -1.65029 0.981294 0
M  V30 24617 O 2351.51 -2.37366 1.26137 0
M  V30 24618 C 2349.78 -1.10165 3.39998 0
M  V30 24619 S 2351.34 -1.7786 4.01137 0
M  V30 24620 H 2348.15 -0.184394 0.686673 0
M  V30 24621 H 2350.76 0.180885 1.94661 0
M  V30 24622 H 2349.46 -0.300731 4.09297 0
M  V30 24623 H 2348.99 -1.88379 3.45365 0
M  V30 24624 H 2351.01 -3.06319 3.90363 0
M  V30 24625 N 2350.18 -1.56643 -0.17346 0
M  V30 24626 C 2351.59 -1.71575 -0.736125 0
M  V30 24627 C 2351.94 -0.710421 -1.82886 0
M  V30 24628 O 2351.07 0.128662 -2.16017 0
M  V30 24629 C 2351.66 -3.11086 -1.34205 0
M  V30 24630 C 2350.22 -3.2771 -1.85156 0
M  V30 24631 C 2349.37 -2.67526 -0.729718 0
M  V30 24632 H 2352.32 -1.58615 0.0519065 0
M  V30 24633 H 2352.34 -3.09617 -2.21173 0
M  V30 24634 H 2351.85 -3.84233 -0.546512 0
M  V30 24635 H 2349.95 -2.59516 -2.67361 0
M  V30 24636 H 2350.07 -4.35428 -1.99848 0
M  V30 24637 H 2348.43 -2.2728 -1.14961 0
M  V30 24638 H 2349.21 -3.43258 0.0539409 0
M  V30 24639 N 2351.66 0.44194 -1.51277 0
M  V30 24640 C 2353.07 1.02196 -1.56246 0
M  V30 24641 C 2353.42 1.92422 -0.383183 0
M  V30 24642 O 2352.54 2.10531 0.500576 0
M  V30 24643 C 2353.14 1.86019 -2.83165 0
M  V30 24644 C 2351.7 2.39079 -2.9072 0
M  V30 24645 C 2350.85 1.18171 -2.5086 0
M  V30 24646 H 2353.8 0.223389 -1.5712 0
M  V30 24647 H 2353.82 2.7142 -2.66667 0
M  V30 24648 H 2353.33 1.20325 -3.68976 0
M  V30 24649 H 2351.43 3.08241 -2.09328 0
M  V30 24650 H 2351.54 2.72191 -3.9427 0
M  V30 24651 H 2349.91 1.52561 -2.03954 0
M  V30 24652 H 2350.69 0.540942 -3.39011 0
M  V30 24653 N 2353.14 1.41345 0.697083 0
M  V30 24654 C 2354.55 1.23781 1.00749 0
M  V30 24655 C 2354.75 0.126101 2.01105 0
M  V30 24656 O 2353.81 -0.509996 2.47296 0
M  V30 24657 C 2355.12 2.58656 1.53354 0
M  V30 24658 C 2356.67 2.65825 1.65246 0
M  V30 24659 C 2357.14 4.01013 2.21253 0
M  V30 24660 N 2358.63 4.02851 2.28615 0
M  V30 24661 C 2359.37 5.04254 2.72975 0
M  V30 24662 N 2358.87 6.16047 3.16951 0
M  V30 24663 N 2360.66 4.91616 2.72526 0
M  V30 24664 H 2352.81 2.12376 0.0322288 0
M  V30 24665 H 2355.07 0.944878 0.0768687 0
M  V30 24666 H 2354.78 3.40751 0.870713 0
M  V30 24667 H 2354.65 2.81036 2.51592 0
M  V30 24668 H 2357.04 1.8409 2.3064 0
M  V30 24669 H 2357.12 2.47257 0.65557 0
M  V30 24670 H 2356.76 4.83196 1.56474 0
M  V30 24671 H 2356.69 4.16921 3.2169 0
M  V30 24672 H 2359.19 3.22135 1.9758 0
M  V30 24673 H 2359.5 6.89293 3.49421 0
M  V30 24674 H 2357.84 6.19585 3.14864 0
M  V30 24675 H 2361.03 4.03365 2.37518 0
M  V30 24676 H 2361.21 5.70781 3.06779 0
M  V30 24677 N 2354.61 -0.931187 1.27148 0
M  V30 24678 C 2355.54 -2.0484 1.12085 0
M  V30 24679 C 2356.52 -1.70084 0.0232663 0
M  V30 24680 O 2357.71 -1.93197 0.197119 0
M  V30 24681 C 2354.84 -3.38801 0.763599 0
M  V30 24682 C 2353.79 -3.87656 1.81403 0
M  V30 24683 C 2353.12 -5.18383 1.31084 0
M  V30 24684 C 2354.42 -4.11432 3.21747 0
M  V30 24685 H 2356.11 -2.177 2.05541 0
M  V30 24686 H 2353.66 -1.04606 0.989621 0
M  V30 24687 H 2355.61 -4.16434 0.645055 0
M  V30 24688 H 2354.34 -3.25945 -0.20667 0
M  V30 24689 H 2353 -3.12213 1.92141 0
M  V30 24690 H 2352.64 -5.01916 0.330125 0
M  V30 24691 H 2352.34 -5.5204 2.01309 0
M  V30 24692 H 2353.87 -5.98588 1.20517 0
M  V30 24693 H 2355.28 -4.79645 3.14028 0
M  V30 24694 H 2353.68 -4.5639 3.89652 0
M  V30 24695 H 2354.75 -3.16852 3.67059 0
M  V30 24696 N 2356.09 -1.09114 -1.13719 0
M  V30 24697 C 2357 -0.739609 -2.22636 0
M  V30 24698 C 2358.02 0.257037 -1.72091 0
M  V30 24699 O 2359.19 0.0991801 -2.01156 0
M  V30 24700 C 2356.26 -0.16197 -3.46321 0
M  V30 24701 C 2355.32 -1.21415 -4.11773 0
M  V30 24702 C 2354.55 -0.663984 -5.29554 0
M  V30 24703 O 2354.78 0.514174 -5.68078 0
M  V30 24704 O 2353.71 -1.41748 -5.84971 0
M  V30 24705 H 2357.54 -1.6484 -2.55071 0
M  V30 24706 H 2355.12 -0.86531 -1.2179 0
M  V30 24707 H 2357 0.156999 -4.21107 0
M  V30 24708 H 2355.68 0.719877 -3.15594 0
M  V30 24709 H 2354.58 -1.58577 -3.38828 0
M  V30 24710 H 2355.92 -2.06853 -4.46624 0
M  V30 24711 N 2357.57 1.30887 -0.877861 0
M  V30 24712 C 2358.5 2.26425 -0.284035 0
M  V30 24713 C 2359.48 1.51466 0.591334 0
M  V30 24714 O 2360.66 1.80509 0.543009 0
M  V30 24715 C 2357.79 3.33396 0.59707 0
M  V30 24716 C 2356.84 4.25992 -0.208011 0
M  V30 24717 S 2357.67 5.11298 -1.59167 0
M  V30 24718 C 2358.83 6.21781 -0.716901 0
M  V30 24719 H 2359.06 2.76444 -1.09388 0
M  V30 24720 H 2356.59 1.38773 -0.676853 0
M  V30 24721 H 2358.55 3.95495 1.09971 0
M  V30 24722 H 2357.21 2.82115 1.38094 0
M  V30 24723 H 2356.4 5.01859 0.464075 0
M  V30 24724 H 2356.01 3.68431 -0.643028 0
M  V30 24725 H 2358.3 6.77465 0.0691642 0
M  V30 24726 H 2359.24 6.93159 -1.44694 0
M  V30 24727 H 2359.65 5.638 -0.280955 0
M  V30 24728 N 2359.05 0.638091 1.44105 0
M  V30 24729 C 2359.98 -0.101165 2.28977 0
M  V30 24730 C 2360.99 -0.802063 1.41671 0
M  V30 24731 O 2362.18 -0.662346 1.65757 0
M  V30 24732 C 2359.28 -1.16575 3.18219 0
M  V30 24733 C 2358.45 -0.54599 4.33979 0
M  V30 24734 C 2357.51 -1.50545 5.04205 0
M  V30 24735 O 2356.54 -1.01989 5.59988 0
M  V30 24736 N 2357.74 -2.83971 5.06301 0
M  V30 24737 H 2360.51 0.627238 2.93063 0
M  V30 24738 H 2358.07 0.479758 1.54628 0
M  V30 24739 H 2360.06 -1.80808 3.62064 0
M  V30 24740 H 2358.63 -1.79629 2.55836 0
M  V30 24741 H 2357.85 0.275115 3.93239 0
M  V30 24742 H 2359.14 -0.112703 5.08675 0
M  V30 24743 H 2358.54 -3.25994 4.62325 0
M  V30 24744 H 2357.09 -3.43546 5.53913 0
M  V30 24745 N 2360.53 -1.52973 0.379063 0
M  V30 24746 C 2361.46 -2.22545 -0.504893 0
M  V30 24747 C 2362.44 -1.22233 -1.07228 0
M  V30 24748 O 2363.62 -1.51184 -1.12586 0
M  V30 24749 C 2360.75 -2.93069 -1.69789 0
M  V30 24750 C 2359.79 -4.07565 -1.25671 0
M  V30 24751 S 2360.63 -5.34931 -0.246758 0
M  V30 24752 C 2361.78 -6.08973 -1.44577 0
M  V30 24753 H 2362.02 -2.97176 0.0859188 0
M  V30 24754 H 2359.55 -1.53535 0.16321 0
M  V30 24755 H 2361.51 -3.34313 -2.38213 0
M  V30 24756 H 2360.17 -2.18137 -2.25998 0
M  V30 24757 H 2359.36 -4.55974 -2.14717 0
M  V30 24758 H 2358.96 -3.68281 -0.651519 0
M  V30 24759 H 2361.25 -6.34523 -2.37458 0
M  V30 24760 H 2362.2 -7.00963 -1.0028 0
M  V30 24761 H 2362.61 -5.39604 -1.65794 0
M  V30 24762 N 2362 -0.108595 -1.57225 0
M  V30 24763 C 2362.93 0.842282 -2.17779 0
M  V30 24764 C 2363.91 1.28469 -1.11489 0
M  V30 24765 O 2365.1 1.34916 -1.39683 0
M  V30 24766 C 2362.23 2.09639 -2.76891 0
M  V30 24767 C 2361.18 1.79214 -3.88673 0
M  V30 24768 C 2360.51 3.11567 -4.34546 0
M  V30 24769 C 2361.81 1.06855 -5.11253 0
M  V30 24770 H 2363.5 0.337721 -2.97489 0
M  V30 24771 H 2361.05 0.161 -1.43097 0
M  V30 24772 H 2363 2.76608 -3.17909 0
M  V30 24773 H 2361.73 2.62401 -1.94456 0
M  V30 24774 H 2360.39 1.14638 -3.48215 0
M  V30 24775 H 2360.03 3.62243 -3.48983 0
M  V30 24776 H 2359.73 2.91987 -5.09919 0
M  V30 24777 H 2361.26 3.79672 -4.78207 0
M  V30 24778 H 2362.67 1.63958 -5.49355 0
M  V30 24779 H 2361.07 0.974074 -5.92142 0
M  V30 24780 H 2362.14 0.0535316 -4.8487 0
M  V30 24781 N 2363.48 1.56732 0.16515 0
M  V30 24782 C 2364.41 1.92001 1.23333 0
M  V30 24783 C 2365.39 0.783556 1.42475 0
M  V30 24784 O 2366.58 1.03746 1.57382 0
M  V30 24785 C 2363.7 2.17629 2.59529 0
M  V30 24786 C 2362.75 3.40307 2.57087 0
M  V30 24787 S 2363.58 4.94474 2.05562 0
M  V30 24788 C 2364.74 5.23204 3.43523 0
M  V30 24789 H 2364.97 2.82303 0.932338 0
M  V30 24790 H 2362.5 1.49901 0.369987 0
M  V30 24791 H 2364.46 2.33076 3.37914 0
M  V30 24792 H 2363.12 1.28024 2.86825 0
M  V30 24793 H 2362.32 3.55459 3.57302 0
M  V30 24794 H 2361.92 3.24008 1.86801 0
M  V30 24795 H 2364.21 5.1556 4.3955 0
M  V30 24796 H 2365.15 6.24785 3.3324 0
M  V30 24797 H 2365.56 4.50758 3.3982 0
M  V30 24798 N 2364.96 -0.433911 1.51509 0
M  V30 24799 C 2366.37 -1.01366 1.56786 0
M  V30 24800 C 2366.72 -1.92216 0.393383 0
M  V30 24801 O 2365.85 -2.10793 -0.489404 0
M  V30 24802 C 2366.44 -1.84515 2.84147 0
M  V30 24803 C 2365 -2.37533 2.91984 0
M  V30 24804 C 2364.15 -1.16839 2.51484 0
M  V30 24805 H 2367.1 -0.215053 1.57236 0
M  V30 24806 H 2367.12 -2.70002 2.68103 0
M  V30 24807 H 2366.63 -1.18366 3.69609 0
M  V30 24808 H 2364.73 -3.07126 2.1096 0
M  V30 24809 H 2364.85 -2.70096 3.95708 0
M  V30 24810 H 2363.21 -1.51477 2.0476 0
M  V30 24811 H 2363.99 -0.522955 3.39293 0
M  V30 24812 N 2366.44 -1.41713 -0.689577 0
M  V30 24813 C 2367.68 -1.41602 -1.45179 0
M  V30 24814 C 2368.02 -0.0270422 -1.94181 0
M  V30 24815 O 2367.29 0.946235 -1.69931 0
M  V30 24816 C 2367.58 -2.42791 -2.65941 0
M  V30 24817 C 2367.43 -3.9082 -2.22665 0
M  V30 24818 C 2368.75 -2.41158 -3.68145 0
M  V30 24819 H 2365.87 -0.515651 -0.526567 0
M  V30 24820 H 2368.51 -1.73029 -0.784917 0
M  V30 24821 H 2366.66 -2.16122 -3.22837 0
M  V30 24822 H 2368.33 -4.28415 -1.7105 0
M  V30 24823 H 2366.57 -4.05397 -1.54387 0
M  V30 24824 H 2367.24 -4.57178 -3.09342 0
M  V30 24825 H 2369.72 -2.64839 -3.20935 0
M  V30 24826 H 2368.6 -3.13963 -4.50242 0
M  V30 24827 H 2368.86 -1.43228 -4.18256 0
M  V30 24828 N 2367.92 0.924431 -1.2764 0
M  V30 24829 C 2369.14 1.71177 -1.17104 0
M  V30 24830 C 2369.57 1.8618 0.268101 0
M  V30 24831 O 2368.92 1.3642 1.19413 0
M  V30 24832 C 2368.97 3.08736 -1.86319 0
M  V30 24833 O 2368.08 3.9565 -1.16338 0
M  V30 24834 H 2367.42 0.524562 -0.4071 0
M  V30 24835 H 2369.95 1.15663 -1.68769 0
M  V30 24836 H 2369.96 3.59031 -1.93806 0
M  V30 24837 H 2368.63 2.97133 -2.91006 0
M  V30 24838 H 2367.21 3.54089 -1.16941 0
M  V30 24839 N 2369.39 1.09715 1.13139 0
M  V30 24840 C 2370.64 0.846136 1.84965 0
M  V30 24841 C 2371 -0.621569 1.82083 0
M  V30 24842 O 2370.29 -1.45198 1.25013 0
M  V30 24843 C 2370.48 1.31916 3.32164 0
M  V30 24844 C 2370.31 2.83131 3.49381 0
M  V30 24845 C 2369.08 3.51045 3.6345 0
M  V30 24846 C 2371.28 3.81262 3.45172 0
M  V30 24847 N 2369.26 4.90657 3.68957 0
M  V30 24848 C 2370.63 5.06843 3.57085 0
M  V30 24849 C 2372.69 3.74075 3.28591 0
M  V30 24850 C 2371.39 6.26087 3.54129 0
M  V30 24851 C 2373.42 4.9281 3.26945 0
M  V30 24852 C 2372.78 6.17235 3.39411 0
M  V30 24853 H 2368.88 0.362524 0.692893 0
M  V30 24854 H 2371.46 1.3981 1.35504 0
M  V30 24855 H 2369.63 0.794602 3.80185 0
M  V30 24856 H 2371.36 1.01315 3.91813 0
M  V30 24857 H 2368.12 3.01478 3.65251 0
M  V30 24858 H 2368.54 5.6339 3.75394 0
M  V30 24859 H 2373.19 2.788 3.17853 0
M  V30 24860 H 2370.9 7.21659 3.6364 0
M  V30 24861 H 2374.49 4.8895 3.15308 0
M  V30 24862 H 2373.37 7.07571 3.38102 0
M  V30 24863 N 2370.87 -1.30419 0.88479 0
M  V30 24864 C 2372.1 -2.00845 0.517323 0
M  V30 24865 C 2372.52 -1.65887 -0.88675 0
M  V30 24866 O 2371.88 -0.875382 -1.58766 0
M  V30 24867 C 2371.93 -3.53759 0.699056 0
M  V30 24868 O 2371.03 -4.1161 -0.255136 0
M  V30 24869 H 2370.37 -0.631924 0.203883 0
M  V30 24870 H 2372.9 -1.6627 1.19228 0
M  V30 24871 H 2372.91 -4.03594 0.597983 0
M  V30 24872 H 2371.59 -3.78541 1.72277 0
M  V30 24873 H 2370.17 -3.72744 -0.107774 0
M  V30 24874 N 2372.35 -0.645724 -1.43764 0
M  V30 24875 C 2373.77 -0.312618 -1.56508 0
M  V30 24876 C 2373.97 1.18362 -1.63072 0
M  V30 24877 O 2373.02 1.96821 -1.5817 0
M  V30 24878 C 2374.34 -1.01738 -2.82966 0
M  V30 24879 C 2375.88 -0.996917 -2.96699 0
M  V30 24880 C 2376.36 -1.68243 -4.25979 0
M  V30 24881 N 2377.85 -1.64971 -4.32826 0
M  V30 24882 C 2378.58 -2.14894 -5.31609 0
M  V30 24883 N 2378.08 -2.73072 -6.36713 0
M  V30 24884 N 2379.87 -2.05437 -5.23213 0
M  V30 24885 H 2372.02 -1.61677 -1.37747 0
M  V30 24886 H 2374.29 -0.679492 -0.661055 0
M  V30 24887 H 2373.99 -2.07245 -2.84152 0
M  V30 24888 H 2373.87 -0.564243 -3.72956 0
M  V30 24889 H 2376.25 0.04972 -2.95058 0
M  V30 24890 H 2376.34 -1.48868 -2.08019 0
M  V30 24891 H 2375.98 -2.7286 -4.28381 0
M  V30 24892 H 2375.91 -1.16538 -5.13543 0
M  V30 24893 H 2378.4 -1.2251 -3.57491 0
M  V30 24894 H 2378.71 -3.08861 -7.08396 0
M  V30 24895 H 2377.06 -2.7713 -6.37357 0
M  V30 24896 H 2380.25 -1.59697 -4.40016 0
M  V30 24897 H 2380.42 -2.44653 -6.00041 0
M  V30 24898 N 2373.83 1.5277 -0.38717 0
M  V30 24899 C 2374.76 2.22809 0.493084 0
M  V30 24900 C 2375.74 1.228 1.06578 0
M  V30 24901 O 2376.92 1.51779 1.11783 0
M  V30 24902 C 2374.05 2.93965 1.68232 0
M  V30 24903 C 2373.1 4.08225 1.23508 0
M  V30 24904 S 2373.93 5.35055 0.218386 0
M  V30 24905 C 2375.09 6.09731 1.41346 0
M  V30 24906 H 2375.32 2.97126 -0.101678 0
M  V30 24907 H 2372.85 1.53446 -0.17135 0
M  V30 24908 H 2374.81 3.35571 2.36437 0
M  V30 24909 H 2373.47 2.19332 2.24838 0
M  V30 24910 H 2372.66 4.57106 2.12296 0
M  V30 24911 H 2372.27 3.68622 0.631979 0
M  V30 24912 H 2374.56 6.35774 2.3409 0
M  V30 24913 H 2375.5 7.01485 0.965613 0
M  V30 24914 H 2375.91 5.40476 1.6293 0
M  V30 24915 N 2375.31 0.116931 1.57166 0
M  V30 24916 C 2376.72 -0.408777 1.8217 0
M  V30 24917 C 2377.07 -1.66744 1.03396 0
M  V30 24918 O 2376.19 -2.1471 0.269924 0
M  V30 24919 C 2376.79 -0.748408 3.3043 0
M  V30 24920 C 2375.35 -1.21876 3.56122 0
M  V30 24921 C 2374.49 -0.226403 2.76374 0
M  V30 24922 H 2377.45 0.342091 1.54969 0
M  V30 24923 H 2377.47 -1.60601 3.44946 0
M  V30 24924 H 2376.98 0.167853 3.87737 0
M  V30 24925 H 2375.08 -2.15199 3.04171 0
M  V30 24926 H 2375.19 -1.16551 4.64707 0
M  V30 24927 H 2373.56 -0.71302 2.44516 0
M  V30 24928 H 2374.34 0.682918 3.36439 0
M  V30 24929 N 2376.78 -1.56818 -0.156836 0
M  V30 24930 C 2377.73 -1.98457 -1.21315 0
M  V30 24931 C 2378.73 -0.87547 -1.45024 0
M  V30 24932 O 2379.93 -1.06063 -1.45433 0
M  V30 24933 H 2376.31 -0.631612 -0.408131 0
M  V30 24934 H 2378.28 -2.86474 -0.835194 0
M  V30 24935 C 2377.03 -2.3729 -2.54144 0
M  V30 24936 H 2376.35 -3.2218 -2.36727 0
M  V30 24937 H 2377.79 -2.70257 -3.26707 0
M  V30 24938 C 2376.25 -1.22179 -3.13965 0
M  V30 24939 O 2376.78 -0.517219 -3.98356 0
M  V30 24940 N 2374.99 -0.988584 -2.73268 0
M  V30 24941 H 2374.53 -1.5633 -2.04741 0
M  V30 24942 H 2374.49 -0.220264 -3.13627 0
M  V30 24943 N 2378.26 0.425871 -1.51737 0
M  V30 24944 C 2379.21 1.51642 -1.70261 0
M  V30 24945 C 2380.2 1.50969 -0.556515 0
M  V30 24946 O 2381.39 1.57229 -0.812906 0
M  V30 24947 C 2378.52 2.89732 -1.84148 0
M  V30 24948 C 2377.6 2.95116 -3.04577 0
M  V30 24949 N 2377.99 2.70225 -4.27565 0
M  V30 24950 C 2376.29 3.26281 -3.04067 0
M  V30 24951 C 2376.99 2.81748 -5.08913 0
M  V30 24952 N 2375.97 3.13912 -4.43802 0
M  V30 24953 H 2379.77 1.31167 -2.63007 0
M  V30 24954 H 2377.29 0.633349 -1.49541 0
M  V30 24955 H 2379.28 3.68203 -1.95531 0
M  V30 24956 H 2377.94 3.11219 -0.925911 0
M  V30 24957 H 2378.95 2.44935 -4.56319 0
M  V30 24958 H 2375.63 3.53469 -2.22185 0
M  V30 24959 H 2377.02 2.66361 -6.16848 0
M  V30 24960 N 2379.74 1.42077 0.682052 0
M  V30 24961 C 2380.99 1.42159 1.44212 0
M  V30 24962 C 2381.32 0.0354527 1.94468 0
M  V30 24963 O 2380.57 -0.954972 1.70818 0
M  V30 24964 C 2380.87 2.38666 2.66032 0
M  V30 24965 C 2380.54 3.8521 2.34359 0
M  V30 24966 C 2379.2 4.25128 2.25432 0
M  V30 24967 C 2381.55 4.77677 2.08504 0
M  V30 24968 C 2378.88 5.55504 1.88765 0
M  V30 24969 C 2381.23 6.08387 1.73343 0
M  V30 24970 C 2379.89 6.47312 1.62921 0
M  V30 24971 H 2379.16 0.520196 0.527709 0
M  V30 24972 H 2381.81 1.74968 0.778356 0
M  V30 24973 H 2380.12 1.99158 3.37407 0
M  V30 24974 H 2381.81 2.35997 3.24201 0
M  V30 24975 H 2378.4 3.53601 2.42207 0
M  V30 24976 H 2382.59 4.4763 2.14338 0
M  V30 24977 H 2377.84 5.8453 1.7926 0
M  V30 24978 H 2382.02 6.79529 1.52361 0
M  V30 24979 H 2379.64 7.48247 1.34279 0
M  V30 24980 N 2381.22 -0.917649 1.28129 0
M  V30 24981 C 2382.15 -2.03639 1.14251 0
M  V30 24982 C 2383.13 -1.7005 0.0413047 0
M  V30 24983 O 2384.32 -1.92977 0.217599 0
M  V30 24984 C 2381.45 -3.37973 0.799491 0
M  V30 24985 C 2380.4 -3.8571 1.85504 0
M  V30 24986 C 2379.73 -5.16964 1.36575 0
M  V30 24987 C 2381.03 -4.07997 3.26092 0
M  V30 24988 H 2382.72 -2.15508 2.07839 0
M  V30 24989 H 2380.27 -1.03551 1.00066 0
M  V30 24990 H 2382.22 -4.15726 0.689187 0
M  V30 24991 H 2380.94 -3.26146 -0.172088 0
M  V30 24992 H 2379.6 -3.10158 1.95442 0
M  V30 24993 H 2379.25 -5.01537 0.383341 0
M  V30 24994 H 2378.95 -5.49874 2.07153 0
M  V30 24995 H 2380.47 -5.97277 1.26859 0
M  V30 24996 H 2381.89 -4.76287 3.19098 0
M  V30 24997 H 2380.28 -4.52231 3.9447 0
M  V30 24998 H 2381.35 -3.12941 3.70399 0
M  V30 24999 N 2382.7 -1.10314 -1.12555 0
M  V30 25000 C 2383.63 -0.708664 -2.17969 0
M  V30 25001 C 2384.64 0.253998 -1.60806 0
M  V30 25002 O 2385.83 0.0386578 -1.78458 0
M  V30 25003 C 2382.93 -0.0248794 -3.38891 0
M  V30 25004 C 2382.1 -1.0114 -4.25546 0
M  V30 25005 C 2381.16 -0.359332 -5.24972 0
M  V30 25006 O 2380.19 -1.00975 -5.60172 0
M  V30 25007 N 2381.39 0.882746 -5.73749 0
M  V30 25008 H 2384.16 -1.61561 -2.52424 0
M  V30 25009 H 2381.72 -0.991793 -1.27965 0
M  V30 25010 H 2383.71 0.422781 -4.02486 0
M  V30 25011 H 2382.28 0.784461 -3.02597 0
M  V30 25012 H 2381.5 -1.63736 -3.58586 0
M  V30 25013 H 2382.79 -1.67922 -4.80291 0
M  V30 25014 H 2382.19 1.43056 -5.47313 0
M  V30 25015 H 2380.74 1.27358 -6.39237 0
M  V30 25016 N 2384.18 1.29948 -0.891694 0
M  V30 25017 C 2385.42 1.9617 -0.514296 0
M  V30 25018 C 2385.75 1.70184 0.935476 0
M  V30 25019 O 2385.03 1.01031 1.66202 0
M  V30 25020 C 2385.31 3.51152 -0.79778 0
M  V30 25021 C 2385.17 3.86628 -2.29867 0
M  V30 25022 C 2386.48 4.39216 -0.278826 0
M  V30 25023 H 2383.6 0.712532 -0.188327 0
M  V30 25024 H 2386.25 1.53704 -1.11691 0
M  V30 25025 H 2384.4 3.87454 -0.284894 0
M  V30 25026 H 2386.07 3.60314 -2.88048 0
M  V30 25027 H 2384.31 3.34457 -2.76263 0
M  V30 25028 H 2384.98 4.94769 -2.44761 0
M  V30 25029 H 2387.46 4.0986 -0.717897 0
M  V30 25030 H 2386.33 5.46559 -0.506449 0
M  V30 25031 H 2386.59 4.34425 0.82019 0
M  V30 25032 N 2385.65 0.653339 1.4342 0
M  V30 25033 C 2386.56 -0.0388153 2.34568 0
M  V30 25034 C 2387.58 -0.812043 1.53889 0
M  V30 25035 O 2388.76 -0.759261 1.8654 0
M  V30 25036 C 2385.82 -0.99321 3.32169 0
M  V30 25037 C 2384.88 -0.216902 4.28752 0
M  V30 25038 C 2384.11 -1.12584 5.2169 0
M  V30 25039 O 2384.34 -2.3651 5.19056 0
M  V30 25040 O 2383.27 -0.598179 5.9892 0
M  V30 25041 H 2387.1 0.711438 2.95249 0
M  V30 25042 H 2384.68 0.413527 1.43563 0
M  V30 25043 H 2386.56 -1.54169 3.92186 0
M  V30 25044 H 2385.24 -1.72369 2.7399 0
M  V30 25045 H 2384.15 0.375166 3.72214 0
M  V30 25046 H 2385.48 0.474011 4.89912 0
M  V30 25047 N 2387.13 -1.52563 0.395266 0
M  V30 25048 C 2388.36 -2.06072 -0.184907 0
M  V30 25049 C 2388.77 -1.2665 -1.40019 0
M  V30 25050 O 2388.13 -0.314704 -1.79766 0
M  V30 25051 C 2388.18 -3.57305 -0.549116 0
M  V30 25052 O 2387.9 -4.33721 0.617889 0
M  V30 25053 C 2389.4 -4.27182 -1.18451 0
M  V30 25054 H 2386.62 -0.670477 -0.0264907 0
M  V30 25055 H 2389.17 -1.9662 0.562219 0
M  V30 25056 H 2387.32 -3.66811 -1.24614 0
M  V30 25057 H 2387.74 -5.2354 0.317183 0
M  V30 25058 H 2389.21 -5.34221 -1.38967 0
M  V30 25059 H 2389.69 -3.82774 -2.15361 0
M  V30 25060 H 2390.29 -4.22009 -0.528088 0
M  V30 25061 N 2388.61 -0.125265 -1.57101 0
M  V30 25062 C 2390.03 0.231294 -1.57915 0
M  V30 25063 C 2390.23 1.66264 -1.13836 0
M  V30 25064 O 2389.28 2.38516 -0.828623 0
M  V30 25065 C 2390.59 -0.00771775 -3.00699 0
M  V30 25066 C 2392.14 0.0576933 -3.12947 0
M  V30 25067 C 2392.62 -0.153706 -4.57742 0
M  V30 25068 N 2394.11 -0.0998887 -4.63092 0
M  V30 25069 C 2394.84 -0.238274 -5.72905 0
M  V30 25070 N 2394.34 -0.433179 -6.91444 0
M  V30 25071 N 2396.13 -0.177406 -5.6182 0
M  V30 25072 H 2388.28 -1.0601 -1.84053 0
M  V30 25073 H 2390.55 -0.417944 -0.850898 0
M  V30 25074 H 2390.25 -0.99749 -3.37258 0
M  V30 25075 H 2390.13 0.721387 -3.70238 0
M  V30 25076 H 2392.51 1.038 -2.76242 0
M  V30 25077 H 2392.59 -0.703393 -2.45939 0
M  V30 25078 H 2392.24 -1.13101 -4.95147 0
M  V30 25079 H 2392.17 0.627442 -5.22849 0
M  V30 25080 H 2394.66 0.0469846 -3.77871 0
M  V30 25081 H 2394.97 -0.529468 -7.70984 0
M  V30 25082 H 2393.32 -0.469231 -6.93414 0
M  V30 25083 H 2396.51 -0.0260571 -4.68093 0
M  V30 25084 H 2396.68 -0.288696 -6.47357 0
M  V30 25085 N 2390.09 1.56899 0.148518 0
M  V30 25086 C 2391.5 1.51529 0.501104 0
M  V30 25087 C 2391.7 0.833431 1.83456 0
M  V30 25088 O 2390.76 0.403324 2.49258 0
M  V30 25089 C 2392.07 2.96295 0.512812 0
M  V30 25090 C 2393.62 3.07226 0.598433 0
M  V30 25091 C 2394.1 4.53495 0.640818 0
M  V30 25092 N 2395.59 4.57833 0.703082 0
M  V30 25093 C 2396.32 5.68383 0.756835 0
M  V30 25094 N 2395.82 6.88507 0.770026 0
M  V30 25095 N 2397.61 5.56412 0.7976 0
M  V30 25096 H 2389.76 1.99623 -0.725567 0
M  V30 25097 H 2392.02 0.91039 -0.264374 0
M  V30 25098 H 2391.73 3.49432 -0.398753 0
M  V30 25099 H 2391.6 3.52166 1.35126 0
M  V30 25100 H 2393.99 2.54109 1.50042 0
M  V30 25101 H 2394.07 2.54401 -0.267137 0
M  V30 25102 H 2393.72 5.07249 -0.257004 0
M  V30 25103 H 2393.65 5.041 1.52286 0
M  V30 25104 H 2396.14 3.71356 0.700248 0
M  V30 25105 H 2396.45 7.68513 0.812848 0
M  V30 25106 H 2394.8 6.91071 0.737927 0
M  V30 25107 H 2397.99 4.6148 0.784454 0
M  V30 25108 H 2398.16 6.42584 0.836027 0
M  V30 25109 N 2391.57 -0.417818 1.51961 0
M  V30 25110 C 2392.53 -1.49108 1.74067 0
M  V30 25111 C 2393.53 -1.48757 0.610563 0
M  V30 25112 O 2394.72 -1.50435 0.878347 0
M  V30 25113 C 2391.85 -2.88562 1.81507 0
M  V30 25114 H 2393.04 -1.30803 2.69872 0
M  V30 25115 H 2390.6 -0.64776 1.42245 0
M  V30 25116 H 2391.33 -3.12248 0.875868 0
M  V30 25117 H 2391.12 -2.9022 2.63656 0
M  V30 25118 H 2392.61 -3.66383 2.00382 0
M  V30 25119 N 2393.04 -1.42436 -0.674508 0
M  V30 25120 C 2394.29 -1.42639 -1.43173 0
M  V30 25121 C 2394.61 -0.0439335 -1.94951 0
M  V30 25122 O 2393.88 0.917577 -1.73082 0
M  V30 25123 H 2392.46 -0.525101 -0.531298 0
M  V30 25124 H 2395.12 -1.7786 -0.796975 0
M  V30 25125 H 2394.22 -2.12633 -2.2846 0
M  V30 25126 N 2394.52 0.910841 -1.28614 0
M  V30 25127 C 2395.43 2.04678 -1.14647 0
M  V30 25128 C 2396.45 1.7385 -0.0723427 0
M  V30 25129 O 2397.62 1.99413 -0.282213 0
M  V30 25130 C 2394.69 3.37042 -0.812621 0
M  V30 25131 C 2393.75 3.81461 -1.96941 0
M  V30 25132 C 2392.98 5.07508 -1.6514 0
M  V30 25133 O 2393.21 5.67574 -0.567113 0
M  V30 25134 O 2392.14 5.4771 -2.49594 0
M  V30 25135 H 2395.97 2.19381 -2.10014 0
M  V30 25136 H 2393.55 1.03272 -1.0796 0
M  V30 25137 H 2395.43 4.16504 -0.640515 0
M  V30 25138 H 2394.11 3.23508 0.111369 0
M  V30 25139 H 2393.01 3.02814 -2.19669 0
M  V30 25140 H 2394.35 3.99562 -2.87421 0
M  V30 25141 N 2396 1.10909 1.11969 0
M  V30 25142 C 2397.42 0.841876 1.3559 0
M  V30 25143 C 2397.62 -0.536212 1.94234 0
M  V30 25144 O 2396.67 -1.28812 2.17172 0
M  V30 25145 C 2397.99 1.94553 2.29281 0
M  V30 25146 C 2399.53 1.97455 2.42859 0
M  V30 25147 C 2400.01 3.07008 3.39868 0
M  V30 25148 N 2401.5 3.06347 3.47427 0
M  V30 25149 C 2402.23 3.87755 4.22414 0
M  V30 25150 N 2401.73 4.79112 5.00424 0
M  V30 25151 N 2403.52 3.75954 4.1787 0
M  V30 25152 H 2395.67 1.99729 0.722629 0
M  V30 25153 H 2397.94 0.868235 0.38062 0
M  V30 25154 H 2397.64 2.93769 1.93373 0
M  V30 25155 H 2397.52 1.83694 3.29449 0
M  V30 25156 H 2399.9 0.988694 2.78045 0
M  V30 25157 H 2399.99 2.12391 1.42562 0
M  V30 25158 H 2399.63 4.05816 3.0541 0
M  V30 25159 H 2399.56 2.89313 4.40006 0
M  V30 25160 H 2402.05 2.40152 2.9178 0
M  V30 25161 H 2402.36 5.37776 5.54993 0
M  V30 25162 H 2400.71 4.83137 4.99603 0
M  V30 25163 H 2403.9 3.03931 3.56011 0
M  V30 25164 H 2404.07 4.39633 4.76054 0
M  V30 25165 N 2397.48 -1.29474 0.898573 0
M  V30 25166 C 2398.41 -2.30185 0.392051 0
M  V30 25167 C 2399.39 -1.61556 -0.532331 0
M  V30 25168 O 2400.57 -1.89073 -0.443298 0
M  V30 25169 C 2397.7 -3.4519 -0.382293 0
M  V30 25170 C 2396.66 -4.25611 0.451558 0
M  V30 25171 C 2395.98 -5.32801 -0.450214 0
M  V30 25172 C 2397.28 -4.93829 1.70088 0
M  V30 25173 H 2398.98 -2.72802 1.23367 0
M  V30 25174 H 2396.52 -1.31148 0.594661 0
M  V30 25175 H 2398.48 -4.14719 -0.747378 0
M  V30 25176 H 2397.2 -3.01413 -1.25769 0
M  V30 25177 H 2395.86 -3.57788 0.79896 0
M  V30 25178 H 2395.51 -4.8527 -1.32371 0
M  V30 25179 H 2395.21 -5.87508 0.104005 0
M  V30 25180 H 2396.73 -6.05183 -0.811516 0
M  V30 25181 H 2398.15 -5.55802 1.40559 0
M  V30 25182 H 2396.54 -5.58463 2.19633 0
M  V30 25183 H 2397.61 -4.19182 2.43752 0
M  V30 25184 N 2398.96 -0.660936 -1.43071 0
M  V30 25185 C 2400.2 -0.17713 -2.01322 0
M  V30 25186 C 2400.53 1.21587 -1.52452 0
M  V30 25187 O 2399.8 1.81371 -0.740354 0
M  V30 25188 H 2398.38 -0.0624935 -0.744381 0
M  V30 25189 H 2401.04 -0.854336 -1.75177 0
M  V30 25190 H 2400.13 -0.167695 -3.11649 0
M  V30 25191 N 2400.43 1.52351 -0.403352 0
M  V30 25192 C 2401.68 2.02713 0.166979 0
M  V30 25193 C 2402.04 1.28393 1.43293 0
M  V30 25194 O 2401.33 0.379918 1.87796 0
M  V30 25195 C 2401.52 3.54235 0.474602 0
M  V30 25196 C 2401.35 4.43232 -0.759987 0
M  V30 25197 C 2400.12 4.88728 -1.28346 0
M  V30 25198 C 2402.32 4.87571 -1.63642 0
M  V30 25199 N 2400.3 5.61836 -2.47414 0
M  V30 25200 C 2401.67 5.59401 -2.67339 0
M  V30 25201 C 2403.73 4.69594 -1.65486 0
M  V30 25202 C 2402.43 6.15163 -3.72783 0
M  V30 25203 C 2404.46 5.26248 -2.69846 0
M  V30 25204 C 2403.82 5.97996 -3.72264 0
M  V30 25205 H 2399.92 0.781667 0.0228206 0
M  V30 25206 H 2402.5 1.8658 -0.556401 0
M  V30 25207 H 2400.67 3.70452 1.16703 0
M  V30 25208 H 2402.4 3.91286 1.03331 0
M  V30 25209 H 2399.16 4.66049 -0.842355 0
M  V30 25210 H 2399.58 6.03035 -3.07698 0
M  V30 25211 H 2404.23 4.13616 -0.876462 0
M  V30 25212 H 2401.94 6.70216 -4.51483 0
M  V30 25213 H 2405.53 5.14211 -2.72173 0
M  V30 25214 H 2404.41 6.4105 -4.51691 0
M  V30 25215 N 2401.91 0.133594 1.57033 0
M  V30 25216 C 2402.88 -0.796957 2.14898 0
M  V30 25217 C 2403.88 -1.18456 1.08742 0
M  V30 25218 O 2405.07 -1.10768 1.34447 0
M  V30 25219 C 2402.2 -2.07968 2.70115 0
M  V30 25220 H 2403.39 -0.29382 2.98457 0
M  V30 25221 H 2400.94 -0.115759 1.55871 0
M  V30 25222 H 2401.68 -2.62679 1.90185 0
M  V30 25223 H 2401.46 -1.81109 3.47767 0
M  V30 25224 H 2402.95 -2.74457 3.14743 0
M  V30 25225 N 2403.39 -1.56975 -0.140195 0
M  V30 25226 C 2404.64 -1.83992 -0.852917 0
M  V30 25227 C 2404.97 -0.716218 -1.8051 0
M  V30 25228 O 2404.24 0.279647 -1.92479 0
M  V30 25229 C 2404.53 -3.2153 -1.62144 0
M  V30 25230 C 2404.38 -4.44472 -0.690285 0
M  V30 25231 C 2405.7 -3.5637 -2.58241 0
M  V30 25232 H 2402.82 -0.669269 -0.308622 0
M  V30 25233 H 2405.46 -1.89634 -0.117865 0
M  V30 25234 H 2403.61 -3.16851 -2.24806 0
M  V30 25235 H 2405.28 -4.6124 -0.0741453 0
M  V30 25236 H 2403.53 -4.338 -0.000320181 0
M  V30 25237 H 2404.2 -5.37328 -1.26421 0
M  V30 25238 H 2406.67 -3.61703 -2.05694 0
M  V30 25239 H 2405.55 -4.53623 -3.09059 0
M  V30 25240 H 2405.81 -2.8268 -3.39918 0
M  V30 25241 N 2404.87 0.409753 -1.5218 0
M  V30 25242 C 2405.8 1.51822 -1.71705 0
M  V30 25243 C 2406.81 1.5144 -0.597471 0
M  V30 25244 O 2408 1.55717 -0.872609 0
M  V30 25245 C 2405.1 2.90716 -1.74176 0
M  V30 25246 C 2404.28 3.15297 -3.03161 0
M  V30 25247 C 2403.33 4.3406 -2.97453 0
M  V30 25248 O 2402.36 4.3137 -3.7136 0
M  V30 25249 N 2403.56 5.39137 -2.152 0
M  V30 25250 H 2406.33 1.35467 -2.67336 0
M  V30 25251 H 2403.89 0.599043 -1.5041 0
M  V30 25252 H 2405.88 3.68232 -1.6789 0
M  V30 25253 H 2404.45 3.00531 -0.860218 0
M  V30 25254 H 2403.67 2.2583 -3.23101 0
M  V30 25255 H 2404.96 3.28562 -3.8849 0
M  V30 25256 H 2404.36 5.4417 -1.54582 0
M  V30 25257 H 2402.91 6.154 -2.14771 0
M  V30 25258 N 2406.35 1.42792 0.666944 0
M  V30 25259 C 2407.59 1.45172 1.4389 0
M  V30 25260 C 2407.95 0.0687888 1.91877 0
M  V30 25261 O 2409.15 -0.0326983 2.6878 0
M  V30 25262 C 2407.42 2.45399 2.59834 0
M  V30 25263 S 2408.98 2.66545 3.48567 0
M  V30 25264 H 2405.8 0.513906 0.491347 0
M  V30 25265 H 2408.4 1.79456 0.775624 0
M  V30 25266 H 2407.11 3.44636 2.22832 0
M  V30 25267 H 2406.64 2.12568 3.31026 0
M  V30 25268 H 2408.65 1.95437 4.56091 0
M  V30 25269 N 2407.82 -0.904008 1.29095 0
M  V30 25270 C 2408.76 -2.01264 1.09661 0
M  V30 25271 C 2409.77 -1.62737 0.0454015 0
M  V30 25272 O 2410.96 -1.76137 0.289477 0
M  V30 25273 C 2408.06 -3.3268 0.646337 0
M  V30 25274 C 2407.23 -3.9976 1.77512 0
M  V30 25275 C 2406.29 -5.09463 1.31658 0
M  V30 25276 O 2405.32 -5.3213 2.02054 0
M  V30 25277 N 2406.52 -5.80205 0.185099 0
M  V30 25278 H 2409.28 -2.18491 2.05139 0
M  V30 25279 H 2406.84 -1.07592 1.20977 0
M  V30 25280 H 2408.84 -4.03409 0.322977 0
M  V30 25281 H 2407.41 -3.11854 -0.215861 0
M  V30 25282 H 2406.63 -3.22451 2.26758 0
M  V30 25283 H 2407.91 -4.41321 2.53206 0
M  V30 25284 H 2407.31 -5.6427 -0.401922 0
M  V30 25285 H 2405.87 -6.51752 -0.0789213 0
M  V30 25286 N 2409.3 -1.11501 -1.11379 0
M  V30 25287 C 2410.21 -0.786667 -2.21017 0
M  V30 25288 C 2411.23 0.220477 -1.72598 0
M  V30 25289 O 2412.4 0.0564897 -2.01321 0
M  V30 25290 C 2409.47 -0.235394 -3.459 0
M  V30 25291 C 2408.53 -1.30122 -4.09105 0
M  V30 25292 C 2407.76 -0.776161 -5.28026 0
M  V30 25293 O 2407.99 0.393561 -5.69041 0
M  V30 25294 O 2406.92 -1.54125 -5.81833 0
M  V30 25295 H 2410.75 -1.70213 -2.51518 0
M  V30 25296 H 2408.33 -0.890949 -1.19927 0
M  V30 25297 H 2410.21 0.067641 -4.21346 0
M  V30 25298 H 2408.89 0.652773 -3.1705 0
M  V30 25299 H 2407.8 -1.65728 -3.35388 0
M  V30 25300 H 2409.13 -2.1628 -4.42135 0
M  V30 25301 N 2410.78 1.28995 -0.905426 0
M  V30 25302 C 2412.19 1.77397 -0.581984 0
M  V30 25303 C 2412.54 1.7421 0.902521 0
M  V30 25304 O 2411.67 1.33157 1.70582 0
M  V30 25305 C 2412.26 3.22129 -1.04967 0
M  V30 25306 C 2410.82 3.68287 -0.777294 0
M  V30 25307 C 2409.97 2.48965 -1.22113 0
M  V30 25308 H 2412.92 1.15576 -1.08756 0
M  V30 25309 H 2412.94 3.78522 -0.387453 0
M  V30 25310 H 2412.45 3.24417 -2.13014 0
M  V30 25311 H 2410.55 3.71467 0.290318 0
M  V30 25312 H 2410.67 4.58819 -1.3792 0
M  V30 25313 H 2409.03 2.46528 -0.640014 0
M  V30 25314 H 2409.81 2.53978 -2.30977 0
M  V30 25315 N 2412.26 0.668514 1.42719 0
M  V30 25316 C 2413.19 0.000141219 2.335 0
M  V30 25317 C 2414.17 -0.795938 1.50329 0
M  V30 25318 O 2415.36 -0.754353 1.7895 0
M  V30 25319 C 2412.49 -0.956243 3.33876 0
M  V30 25320 C 2411.44 -0.269203 4.27153 0
M  V30 25321 C 2410.77 -1.33809 5.17686 0
M  V30 25322 C 2412.07 0.847896 5.15372 0
M  V30 25323 H 2413.76 0.758295 2.89638 0
M  V30 25324 H 2411.31 0.366104 1.39268 0
M  V30 25325 H 2413.26 -1.43285 3.96292 0
M  V30 25326 H 2411.98 -1.74574 2.76028 0
M  V30 25327 H 2410.64 0.187106 3.66122 0
M  V30 25328 H 2410.29 -2.11942 4.56168 0
M  V30 25329 H 2409.99 -0.883557 5.80919 0
M  V30 25330 H 2411.51 -1.81576 5.82977 0
M  V30 25331 H 2412.93 0.452782 5.71509 0
M  V30 25332 H 2411.32 1.22784 5.87405 0
M  V30 25333 H 2412.39 1.69937 4.54147 0
M  V30 25334 N 2413.74 -1.52135 0.411426 0
M  V30 25335 C 2414.97 -2.06257 -0.16304 0
M  V30 25336 C 2415.38 -1.28128 -1.38668 0
M  V30 25337 O 2414.74 -0.333753 -1.79422 0
M  V30 25338 C 2414.79 -3.57867 -0.511189 0
M  V30 25339 O 2414.51 -4.33041 0.663857 0
M  V30 25340 C 2416.01 -4.28414 -1.13914 0
M  V30 25341 H 2413.23 -0.67072 -0.0193779 0
M  V30 25342 H 2415.77 -1.96012 0.583041 0
M  V30 25343 H 2413.93 -3.68112 -1.20716 0
M  V30 25344 H 2414.34 -5.23174 0.372693 0
M  V30 25345 H 2415.82 -5.35665 -1.33293 0
M  V30 25346 H 2416.29 -3.85037 -2.11289 0
M  V30 25347 H 2416.9 -4.22545 -0.483299 0
M  V30 25348 N 2415.22 -0.14192 -1.5696 0
M  V30 25349 C 2416.15 0.837589 -2.12273 0
M  V30 25350 C 2417.13 1.24576 -1.04497 0
M  V30 25351 O 2418.31 1.34276 -1.32296 0
M  V30 25352 C 2415.44 2.12399 -2.63826 0
M  V30 25353 C 2414.48 1.86214 -3.83701 0
M  V30 25354 S 2415.32 1.05772 -5.2495 0
M  V30 25355 C 2416.47 2.35542 -5.79889 0
M  V30 25356 H 2416.71 0.367197 -2.95024 0
M  V30 25357 H 2414.24 0.0722743 -1.54231 0
M  V30 25358 H 2416.2 2.86301 -2.9418 0
M  V30 25359 H 2414.86 2.56554 -1.81215 0
M  V30 25360 H 2414.05 2.81589 -4.18 0
M  V30 25361 H 2413.65 1.20423 -3.54082 0
M  V30 25362 H 2415.94 3.31229 -5.91011 0
M  V30 25363 H 2416.89 2.05756 -6.77547 0
M  V30 25364 H 2417.3 2.45958 -5.08099 0
M  V30 25365 N 2416.69 1.57047 0.131868 0
M  V30 25366 C 2417.63 1.94573 1.19233 0
M  V30 25367 C 2418.6 0.813601 1.40781 0
M  V30 25368 O 2419.79 1.07061 1.55146 0
M  V30 25369 C 2416.92 2.23085 2.54854 0
M  V30 25370 C 2415.96 3.45683 2.4981 0
M  V30 25371 S 2416.79 4.98723 1.95028 0
M  V30 25372 C 2417.95 5.30373 3.32348 0
M  V30 25373 H 2418.18 2.84217 0.872247 0
M  V30 25374 H 2415.72 1.50653 0.338107 0
M  V30 25375 H 2417.67 2.40191 3.32894 0
M  V30 25376 H 2416.34 1.34079 2.84045 0
M  V30 25377 H 2415.53 3.62958 3.49682 0
M  V30 25378 H 2415.13 3.27898 1.79886 0
M  V30 25379 H 2417.42 5.24767 4.28516 0
M  V30 25380 H 2418.37 6.31713 3.19912 0
M  V30 25381 H 2418.77 4.57864 3.30182 0
M  V30 25382 N 2418.17 -0.401677 1.52395 0
M  V30 25383 C 2419.13 -1.47254 1.75639 0
M  V30 25384 C 2420.13 -1.48101 0.626306 0
M  V30 25385 O 2421.32 -1.49495 0.894253 0
M  V30 25386 C 2418.46 -2.8662 1.84558 0
M  V30 25387 H 2419.65 -1.27933 2.71244 0
M  V30 25388 H 2417.2 -0.632637 1.42924 0
M  V30 25389 H 2417.94 -3.11302 0.908937 0
M  V30 25390 H 2417.72 -2.87407 2.6672 0
M  V30 25391 H 2419.21 -3.64237 2.04257 0
M  V30 25392 N 2419.65 -1.43144 -0.659362 0
M  V30 25393 C 2420.58 -1.50628 -1.78419 0
M  V30 25394 C 2421.56 -0.361472 -1.66215 0
M  V30 25395 O 2422.75 -0.577866 -1.85403 0
M  V30 25396 C 2419.88 -1.42293 -3.16812 0
M  V30 25397 C 2418.83 -2.5496 -3.43772 0
M  V30 25398 C 2418.16 -2.31679 -4.81901 0
M  V30 25399 C 2419.46 -3.97228 -3.39127 0
M  V30 25400 H 2421.15 -2.44774 -1.72413 0
M  V30 25401 H 2418.7 -1.1781 -0.828063 0
M  V30 25402 H 2420.65 -1.46134 -3.9525 0
M  V30 25403 H 2419.37 -0.446492 -3.23534 0
M  V30 25404 H 2418.03 -2.50462 -2.67702 0
M  V30 25405 H 2417.68 -1.32293 -4.85291 0
M  V30 25406 H 2417.38 -3.072 -5.00901 0
M  V30 25407 H 2418.9 -2.37294 -5.62604 0
M  V30 25408 H 2420.32 -4.03247 -4.07511 0
M  V30 25409 H 2418.71 -4.72725 -3.69663 0
M  V30 25410 H 2419.78 -4.22801 -2.37418 0
M  V30 25411 N 2421.13 0.897149 -1.29572 0
M  V30 25412 C 2422.08 1.98853 -1.11542 0
M  V30 25413 C 2423.06 1.60864 -0.0340998 0
M  V30 25414 O 2424.25 1.75138 -0.256093 0
M  V30 25415 C 2421.38 3.33928 -0.796661 0
M  V30 25416 C 2420.47 3.78269 -1.91765 0
M  V30 25417 N 2420.86 3.9482 -3.1615 0
M  V30 25418 C 2419.16 4.07565 -1.81126 0
M  V30 25419 C 2419.86 4.32226 -3.89301 0
M  V30 25420 N 2418.83 4.41413 -3.17263 0
M  V30 25421 H 2422.64 2.09722 -2.05897 0
M  V30 25422 H 2420.15 1.08614 -1.20734 0
M  V30 25423 H 2422.15 4.11825 -0.648531 0
M  V30 25424 H 2420.81 3.24403 0.138946 0
M  V30 25425 H 2421.82 3.80282 -3.51576 0
M  V30 25426 H 2418.5 4.06582 -0.948533 0
M  V30 25427 H 2419.89 4.52856 -4.96357 0
M  V30 25428 N 2422.61 1.1209 1.10786 0
M  V30 25429 C 2423.85 0.868691 1.82035 0
M  V30 25430 C 2424.17 -0.607394 1.8593 0
M  V30 25431 O 2425.37 -0.976085 2.53347 0
M  V30 25432 C 2423.83 1.50441 3.26949 0
M  V30 25433 C 2423.44 3.01502 3.31362 0
M  V30 25434 C 2425.18 1.33232 4.0305 0
M  V30 25435 C 2423.09 3.58025 4.70714 0
M  V30 25436 H 2422.02 0.32133 0.682102 0
M  V30 25437 H 2424.67 1.34696 1.24616 0
M  V30 25438 H 2423.05 0.953803 3.84342 0
M  V30 25439 H 2424.23 3.63025 2.83813 0
M  V30 25440 H 2422.54 3.18065 2.68744 0
M  V30 25441 H 2425.14 1.72887 5.05978 0
M  V30 25442 H 2425.48 0.275602 4.15387 0
M  V30 25443 H 2426.01 1.85194 3.52062 0
M  V30 25444 H 2422.75 4.6344 4.63577 0
M  V30 25445 H 2422.27 3.01277 5.18645 0
M  V30 25446 H 2423.95 3.56869 5.39679 0
M  V30 25447 N 2424.08 -1.28513 0.912254 0
M  V30 25448 C 2425.49 -1.77086 0.591383 0
M  V30 25449 C 2425.85 -1.74686 -0.89327 0
M  V30 25450 O 2424.97 -1.34059 -1.69874 0
M  V30 25451 C 2425.57 -3.21568 1.06674 0
M  V30 25452 C 2424.12 -3.67869 0.796814 0
M  V30 25453 C 2423.27 -2.48314 1.23432 0
M  V30 25454 H 2426.22 -1.14998 1.09367 0
M  V30 25455 H 2426.24 -3.78311 0.407522 0
M  V30 25456 H 2425.76 -3.23283 2.14731 0
M  V30 25457 H 2423.86 -3.71616 -0.270614 0
M  V30 25458 H 2423.97 -4.58081 1.40351 0
M  V30 25459 H 2422.33 -2.46185 0.653079 0
M  V30 25460 H 2423.12 -2.52749 2.3232 0
M  V30 25461 N 2425.56 -0.676073 -1.42362 0
M  V30 25462 C 2426.47 0.00149265 -2.346 0
M  V30 25463 C 2427.49 0.787458 -1.55162 0
M  V30 25464 O 2428.66 0.729488 -1.87724 0
M  V30 25465 C 2425.73 0.940239 -3.33707 0
M  V30 25466 C 2424.79 0.148664 -4.29043 0
M  V30 25467 C 2424.02 1.0427 -5.23415 0
M  V30 25468 O 2424.25 2.28222 -5.22753 0
M  V30 25469 O 2423.18 0.50282 -5.99796 0
M  V30 25470 H 2427.01 -0.758319 -2.9408 0
M  V30 25471 H 2424.59 -0.436314 -1.42887 0
M  V30 25472 H 2426.47 1.4791 -3.94589 0
M  V30 25473 H 2425.15 1.67988 -2.76698 0
M  V30 25474 H 2424.06 -0.434335 -3.7157 0
M  V30 25475 H 2425.39 -0.551891 -4.89096 0
M  V30 25476 N 2427.04 1.51915 -0.419488 0
M  V30 25477 C 2427.95 2.31034 0.407487 0
M  V30 25478 C 2428.97 1.39192 1.04411 0
M  V30 25479 O 2430.14 1.72266 1.04337 0
M  V30 25480 C 2427.21 3.12399 1.50359 0
M  V30 25481 C 2426.27 4.19995 0.888955 0
M  V30 25482 C 2425.5 4.97471 1.93283 0
M  V30 25483 O 2425.72 4.75367 3.1525 0
M  V30 25484 O 2424.66 5.82043 1.53329 0
M  V30 25485 H 2428.48 3.02767 -0.237918 0
M  V30 25486 H 2426.07 1.48282 -0.182439 0
M  V30 25487 H 2427.95 3.63036 2.13969 0
M  V30 25488 H 2426.63 2.43449 2.13341 0
M  V30 25489 H 2425.53 3.7348 0.215287 0
M  V30 25490 H 2426.87 4.91267 0.302905 0
M  V30 25491 N 2428.52 0.150242 1.56882 0
M  V30 25492 C 2429.47 -0.805274 2.18216 0
M  V30 25493 C 2430.46 -1.25294 1.14008 0
M  V30 25494 O 2431.67 -1.22104 1.32252 0
M  V30 25495 H 2428.04 -0.277901 0.698767 0
M  V30 25496 H 2430.01 -0.26381 2.97232 0
M  V30 25497 C 2428.76 -2.03304 2.82069 0
M  V30 25498 H 2428.08 -1.69756 3.61971 0
M  V30 25499 H 2429.52 -2.68097 3.28481 0
M  V30 25500 C 2427.98 -2.84312 1.80744 0
M  V30 25501 O 2428.51 -3.80764 1.27989 0
M  V30 25502 N 2426.72 -2.4891 1.49974 0
M  V30 25503 H 2426.27 -1.70539 1.93065 0
M  V30 25504 H 2426.22 -3.03403 0.82427 0
M  V30 25505 N 2430 -1.57115 -0.123538 0
M  V30 25506 C 2431.41 -1.52307 -0.476934 0
M  V30 25507 C 2431.61 -0.862512 -1.82107 0
M  V30 25508 O 2430.67 -0.442927 -2.48585 0
M  V30 25509 C 2431.98 -2.97073 -0.465609 0
M  V30 25510 C 2433.53 -3.08139 -0.54948 0
M  V30 25511 C 2434 -4.54457 -0.568589 0
M  V30 25512 N 2435.5 -4.58894 -0.630156 0
M  V30 25513 C 2436.23 -5.69515 -0.666315 0
M  V30 25514 N 2435.73 -6.89645 -0.660393 0
M  V30 25515 N 2437.52 -5.57611 -0.708979 0
M  V30 25516 H 2429.67 -1.98443 0.757233 0
M  V30 25517 H 2431.93 -0.906069 0.278824 0
M  V30 25518 H 2431.64 -3.48754 0.454294 0
M  V30 25519 H 2431.51 -3.54271 -1.29507 0
M  V30 25520 H 2433.9 -2.56464 -1.4598 0
M  V30 25521 H 2433.98 -2.53944 0.307577 0
M  V30 25522 H 2433.63 -5.06776 0.33767 0
M  V30 25523 H 2433.56 -5.06459 -1.44247 0
M  V30 25524 H 2436.05 -3.72423 -0.64108 0
M  V30 25525 H 2436.36 -7.69709 -0.690481 0
M  V30 25526 H 2434.7 -6.92158 -0.62789 0
M  V30 25527 H 2437.9 -4.6267 -0.710937 0
M  V30 25528 H 2438.07 -6.43833 -0.733691 0
M  V30 25529 N 2431.47 0.393589 -1.52606 0
M  V30 25530 C 2432.71 1.14807 -1.69112 0
M  V30 25531 C 2433.08 1.87356 -0.419723 0
M  V30 25532 O 2434.28 2.64816 -0.46108 0
M  V30 25533 C 2432.55 2.1039 -2.88913 0
M  V30 25534 S 2434.11 2.93736 -3.25983 0
M  V30 25535 H 2430.93 0.388699 -0.595343 0
M  V30 25536 H 2433.53 0.433144 -1.90641 0
M  V30 25537 H 2432.23 1.55806 -3.79675 0
M  V30 25538 H 2431.76 2.86398 -2.69703 0
M  V30 25539 H 2433.78 4.12482 -2.75813 0
M  V30 25540 N 2432.95 1.43492 0.651762 0
M  V30 25541 C 2433.89 1.43214 1.77665 0
M  V30 25542 C 2434.86 0.293408 1.59931 0
M  V30 25543 O 2436.05 0.487223 1.82094 0
M  V30 25544 C 2433.17 1.24511 3.14984 0
M  V30 25545 C 2432.22 2.41679 3.51417 0
M  V30 25546 S 2433.05 4.04228 3.51226 0
M  V30 25547 C 2434.21 3.8791 4.91199 0
M  V30 25548 H 2434.44 2.384 1.77631 0
M  V30 25549 H 2431.98 1.3054 0.824535 0
M  V30 25550 H 2433.93 1.14407 3.94235 0
M  V30 25551 H 2432.59 0.308706 3.12579 0
M  V30 25552 H 2431.79 2.24401 4.51287 0
M  V30 25553 H 2431.39 2.48416 2.79581 0
M  V30 25554 H 2433.68 3.50325 5.79895 0
M  V30 25555 H 2434.62 4.87539 5.13529 0
M  V30 25556 H 2435.03 3.20342 4.64802 0
M  V30 25557 N 2434.43 -0.890264 1.30046 0
M  V30 25558 C 2435.71 -1.6226 1.0923 0
M  V30 25559 C 2436.09 -2.08003 -0.360268 0
M  V30 25560 O 2435.44 -1.84297 -1.35081 0
M  V30 25561 C 2435.65 -2.79619 2.0884 0
M  V30 25562 C 2436.99 -3.50078 2.40272 0
M  V30 25563 O 2438.02 -2.898 2.07109 0
M  V30 25564 O 2436.88 -4.58768 2.96975 0
M  V30 25565 H 2433.97 -0.712914 0.419145 0
M  V30 25566 H 2436.52 -0.937504 1.41453 0
M  V30 25567 H 2435.29 -2.43083 3.06637 0
M  V30 25568 H 2434.91 -3.55828 1.77403 0
M  V30 25569 N 2435.91 -1.12676 -1.1019 0
M  V30 25570 C 2437.16 -0.878332 -1.81572 0
M  V30 25571 C 2437.47 0.597525 -1.8625 0
M  V30 25572 O 2438.68 0.962636 -2.53861 0
M  V30 25573 C 2437.13 -1.52173 -3.26146 0
M  V30 25574 C 2436.74 -3.03255 -3.29758 0
M  V30 25575 C 2438.48 -1.35367 -4.02338 0
M  V30 25576 C 2436.39 -3.60517 -4.68809 0
M  V30 25577 H 2435.32 -0.324942 -0.680388 0
M  V30 25578 H 2437.97 -1.35355 -1.239 0
M  V30 25579 H 2436.35 -0.974172 -3.83831 0
M  V30 25580 H 2437.53 -3.64525 -2.81884 0
M  V30 25581 H 2435.84 -3.19486 -2.67053 0
M  V30 25582 H 2438.44 -1.75568 -5.05054 0
M  V30 25583 H 2438.78 -0.297627 -4.15235 0
M  V30 25584 H 2439.32 -1.87059 -3.51075 0
M  V30 25585 H 2436.06 -4.65892 -4.61112 0
M  V30 25586 H 2435.58 -3.04023 -5.1704 0
M  V30 25587 H 2437.25 -3.59726 -5.37779 0
M  V30 25588 N 2437.39 1.28028 -0.919057 0
M  V30 25589 C 2438.32 2.29532 -0.428622 0
M  V30 25590 C 2439.3 1.62382 0.506561 0
M  V30 25591 O 2440.48 1.89754 0.413162 0
M  V30 25592 C 2437.61 3.45754 0.327328 0
M  V30 25593 C 2436.57 4.24839 -0.519212 0
M  V30 25594 C 2435.89 5.3345 0.365393 0
M  V30 25595 C 2437.19 4.91061 -1.77923 0
M  V30 25596 H 2438.89 2.70805 -1.27692 0
M  V30 25597 H 2436.43 1.30185 -0.615451 0
M  V30 25598 H 2438.39 4.15856 0.681305 0
M  V30 25599 H 2437.11 3.03376 1.20957 0
M  V30 25600 H 2435.77 3.56472 -0.855779 0
M  V30 25601 H 2435.42 4.87314 1.24634 0
M  V30 25602 H 2435.12 5.87268 -0.197459 0
M  V30 25603 H 2436.64 6.06398 0.715134 0
M  V30 25604 H 2438.05 5.53496 -1.49384 0
M  V30 25605 H 2436.45 5.54898 -2.2849 0
M  V30 25606 H 2437.52 4.15251 -2.50389 0
M  V30 25607 N 2438.86 0.683613 1.42002 0
M  V30 25608 C 2439.77 0.0109488 2.34597 0
M  V30 25609 C 2440.79 -0.779218 1.55577 0
M  V30 25610 O 2441.97 -0.719522 1.88109 0
M  V30 25611 C 2439.03 -0.922529 3.34201 0
M  V30 25612 C 2438.09 -0.125908 4.29115 0
M  V30 25613 C 2437.33 -1.01493 5.23961 0
M  V30 25614 O 2437.55 -2.25447 5.23956 0
M  V30 25615 O 2436.48 -0.471004 6.00054 0
M  V30 25616 H 2440.31 0.773904 2.93674 0
M  V30 25617 H 2437.89 0.443886 1.42653 0
M  V30 25618 H 2439.78 -1.45816 3.95368 0
M  V30 25619 H 2438.45 -1.66518 2.77585 0
M  V30 25620 H 2437.36 0.454034 3.71335 0
M  V30 25621 H 2438.69 0.577822 4.88797 0
M  V30 25622 N 2440.34 -1.5169 0.427538 0
M  V30 25623 C 2441.27 -2.30394 -0.379559 0
M  V30 25624 C 2442.25 -1.35385 -1.0298 0
M  V30 25625 O 2443.44 -1.64302 -1.03531 0
M  V30 25626 C 2440.57 -3.13883 -1.48644 0
M  V30 25627 C 2439.52 -4.1709 -0.960221 0
M  V30 25628 C 2438.85 -4.89037 -2.1621 0
M  V30 25629 C 2440.15 -5.223 -0.00144499 0
M  V30 25630 H 2441.84 -2.98114 0.277216 0
M  V30 25631 H 2439.39 -1.43368 0.134764 0
M  V30 25632 H 2441.34 -3.67718 -2.0582 0
M  V30 25633 H 2440.07 -2.43966 -2.17136 0
M  V30 25634 H 2438.73 -3.64292 -0.410742 0
M  V30 25635 H 2438.37 -4.15633 -2.83299 0
M  V30 25636 H 2438.07 -5.58819 -1.81644 0
M  V30 25637 H 2439.6 -5.45692 -2.73958 0
M  V30 25638 H 2441.01 -5.71265 -0.482586 0
M  V30 25639 H 2439.41 -5.99552 0.256305 0
M  V30 25640 H 2440.48 -4.75736 0.938258 0
M  V30 25641 N 2441.82 -0.15856 -1.568 0
M  V30 25642 C 2443.05 0.49948 -2.01296 0
M  V30 25643 C 2443.47 1.56865 -1.03802 0
M  V30 25644 O 2442.83 1.81293 -0.0155481 0
M  V30 25645 C 2442.88 1.0664 -3.44471 0
M  V30 25646 O 2441.98 2.18089 -3.50016 0
M  V30 25647 H 2441.32 0.120979 -0.652886 0
M  V30 25648 H 2443.85 -0.258697 -2.02958 0
M  V30 25649 H 2443.86 1.3922 -3.83512 0
M  V30 25650 H 2442.54 0.283508 -4.14933 0
M  V30 25651 H 2441.11 1.86651 -3.22825 0
M  V30 25652 N 2443.3 1.57178 0.115204 0
M  V30 25653 C 2444.21 2.0392 1.1599 0
M  V30 25654 C 2445.23 0.960293 1.45101 0
M  V30 25655 O 2446.4 1.27207 1.56142 0
M  V30 25656 C 2443.47 2.43736 2.46563 0
M  V30 25657 C 2442.53 3.65727 2.24815 0
M  V30 25658 C 2441.76 4.03635 3.49163 0
M  V30 25659 O 2441.98 3.41843 4.56617 0
M  V30 25660 O 2440.92 4.96714 3.3994 0
M  V30 25661 H 2444.74 2.93165 0.792968 0
M  V30 25662 H 2442.33 1.45794 0.326274 0
M  V30 25663 H 2444.21 2.70063 3.23487 0
M  V30 25664 H 2442.89 1.57636 2.82723 0
M  V30 25665 H 2441.79 3.44545 1.45738 0
M  V30 25666 H 2443.13 4.52544 1.93558 0
M  V30 25667 N 2444.78 -0.38549 1.52813 0
M  V30 25668 C 2446.19 -0.725804 1.42142 0
M  V30 25669 C 2446.39 -1.94 0.544624 0
M  V30 25670 O 2445.45 -2.52493 0.0194136 0
M  V30 25671 C 2446.76 -0.957618 2.85044 0
M  V30 25672 C 2448.31 -1.05887 2.94545 0
M  V30 25673 C 2448.79 -1.32329 4.38467 0
M  V30 25674 N 2450.28 -1.39143 4.41807 0
M  V30 25675 C 2451.01 -1.61275 5.50253 0
M  V30 25676 N 2450.51 -1.80854 6.68778 0
M  V30 25677 N 2452.3 -1.63483 5.37801 0
M  V30 25678 H 2444.45 0.413419 2.08338 0
M  V30 25679 H 2446.71 0.122792 0.940014 0
M  V30 25680 H 2446.42 -0.137507 3.51431 0
M  V30 25681 H 2446.29 -1.87131 3.27509 0
M  V30 25682 H 2448.68 -1.86955 2.28324 0
M  V30 25683 H 2448.76 -0.123012 2.55504 0
M  V30 25684 H 2448.41 -0.517704 5.05255 0
M  V30 25685 H 2448.34 -2.27205 4.75063 0
M  V30 25686 H 2450.83 -1.25707 3.56379 0
M  V30 25687 H 2451.14 -1.97258 7.47201 0
M  V30 25688 H 2449.49 -1.78072 6.718 0
M  V30 25689 H 2452.68 -1.47741 4.44174 0
M  V30 25690 H 2452.85 -1.80391 6.22385 0
M  V30 25691 N 2446.26 -1.43835 -0.644143 0
M  V30 25692 C 2447.19 -1.52512 -1.76812 0
M  V30 25693 C 2448.17 -0.379081 -1.65822 0
M  V30 25694 O 2449.35 -0.597498 -1.8478 0
M  V30 25695 C 2446.48 -1.45645 -3.15285 0
M  V30 25696 C 2445.44 -2.58592 -3.41049 0
M  V30 25697 C 2444.76 -2.36778 -4.79417 0
M  V30 25698 C 2446.06 -4.00803 -3.34895 0
M  V30 25699 H 2447.76 -2.46588 -1.69807 0
M  V30 25700 H 2445.3 -1.18681 -0.815521 0
M  V30 25701 H 2447.25 -1.50318 -3.93678 0
M  V30 25702 H 2445.98 -0.480781 -3.23042 0
M  V30 25703 H 2444.64 -2.53287 -2.65031 0
M  V30 25704 H 2444.29 -1.37433 -4.83861 0
M  V30 25705 H 2443.99 -3.12496 -4.97614 0
M  V30 25706 H 2445.51 -2.43248 -5.60056 0
M  V30 25707 H 2446.92 -4.07546 -4.03211 0
M  V30 25708 H 2445.32 -4.76619 -3.64628 0
M  V30 25709 H 2446.39 -4.25295 -2.32921 0
M  V30 25710 N 2447.73 0.883355 -1.30517 0
M  V30 25711 C 2449.01 1.61678 -1.10089 0
M  V30 25712 C 2449.39 2.08191 0.349233 0
M  V30 25713 O 2448.74 1.85011 1.34102 0
M  V30 25714 C 2448.95 2.78507 -2.1032 0
M  V30 25715 C 2450.3 3.48799 -2.42125 0
M  V30 25716 O 2451.32 2.88698 -2.08643 0
M  V30 25717 O 2450.18 4.57186 -2.99404 0
M  V30 25718 H 2447.27 0.710682 -0.422919 0
M  V30 25719 H 2449.82 0.92999 -1.41948 0
M  V30 25720 H 2448.59 2.41454 -3.07922 0
M  V30 25721 H 2448.21 3.54883 -1.79288 0
M  V30 25722 N 2449.21 1.13259 1.09591 0
M  V30 25723 C 2450.14 0.830984 2.18213 0
M  V30 25724 C 2451.12 -0.208936 1.68812 0
M  V30 25725 O 2452.31 -0.0682324 1.9408 0
M  V30 25726 C 2449.44 0.294357 3.4605 0
M  V30 25727 C 2448.39 1.26833 4.08775 0
M  V30 25728 C 2447.72 0.591542 5.31418 0
M  V30 25729 C 2449.02 2.62623 4.51472 0
M  V30 25730 H 2450.71 1.73927 2.437 0
M  V30 25731 H 2448.26 0.837695 1.17127 0
M  V30 25732 H 2450.21 0.0710347 4.2134 0
M  V30 25733 H 2448.93 -0.64931 3.20081 0
M  V30 25734 H 2447.59 1.47762 3.35503 0
M  V30 25735 H 2447.24 -0.357544 5.01728 0
M  V30 25736 H 2446.94 1.24133 5.74339 0
M  V30 25737 H 2448.47 0.377462 6.09432 0
M  V30 25738 H 2449.88 2.45672 5.17994 0
M  V30 25739 H 2448.28 3.23761 5.05271 0
M  V30 25740 H 2449.35 3.20412 3.63956 0
M  V30 25741 N 2450.69 -1.27539 0.925834 0
M  V30 25742 C 2451.62 -2.26015 0.380793 0
M  V30 25743 C 2452.63 -1.55331 -0.487458 0
M  V30 25744 O 2453.82 -1.75954 -0.300382 0
M  V30 25745 C 2450.92 -3.3558 -0.4732 0
M  V30 25746 C 2450.1 -4.35787 0.375326 0
M  V30 25747 C 2449.16 -5.24555 -0.415717 0
M  V30 25748 O 2448.18 -5.68928 0.175934 0
M  V30 25749 N 2449.38 -5.54558 -1.71597 0
M  V30 25750 H 2452.15 -2.73418 1.22729 0
M  V30 25751 H 2449.71 -1.41146 0.793062 0
M  V30 25752 H 2451.7 -3.91909 -1.00942 0
M  V30 25753 H 2450.27 -2.87791 -1.22045 0
M  V30 25754 H 2449.49 -3.78748 1.09286 0
M  V30 25755 H 2450.78 -4.99748 0.955487 0
M  V30 25756 H 2450.18 -5.20362 -2.21901 0
M  V30 25757 H 2448.73 -6.13594 -2.19876 0
M  V30 25758 N 2452.17 -0.691135 -1.41637 0
M  V30 25759 C 2453.58 -0.362252 -1.55435 0
M  V30 25760 C 2453.78 1.13114 -1.66756 0
M  V30 25761 O 2452.84 1.91689 -1.64352 0
M  V30 25762 C 2454.15 -1.10689 -2.79586 0
M  V30 25763 C 2455.7 -1.0908 -2.93378 0
M  V30 25764 C 2456.18 -1.8171 -4.20411 0
M  V30 25765 N 2457.67 -1.78658 -4.27359 0
M  V30 25766 C 2458.4 -2.31698 -5.24503 0
M  V30 25767 N 2457.9 -2.9319 -6.27703 0
M  V30 25768 N 2459.69 -2.21979 -5.16412 0
M  V30 25769 H 2451.84 -1.65978 -1.32533 0
M  V30 25770 H 2454.1 -0.700179 -0.639103 0
M  V30 25771 H 2453.81 -2.1618 -2.77415 0
M  V30 25772 H 2453.68 -0.68261 -3.70972 0
M  V30 25773 H 2456.07 -0.0441757 -2.95067 0
M  V30 25774 H 2456.15 -1.55411 -2.03178 0
M  V30 25775 H 2455.8 -2.8635 -4.19483 0
M  V30 25776 H 2455.73 -1.32817 -5.09575 0
M  V30 25777 H 2458.22 -1.33821 -3.53412 0
M  V30 25778 H 2458.53 -3.31241 -6.98211 0
M  V30 25779 H 2456.88 -2.97266 -6.28218 0
M  V30 25780 H 2460.07 -1.73615 -4.34713 0
M  V30 25781 H 2460.24 -2.63619 -5.91953 0
M  V30 25782 N 2453.65 1.51461 -0.435577 0
M  V30 25783 C 2454.89 2.02073 0.131479 0
M  V30 25784 C 2455.22 1.31983 1.42866 0
M  V30 25785 O 2454.48 0.422917 1.91076 0
M  V30 25786 C 2454.77 3.55162 0.399357 0
M  V30 25787 C 2454.44 4.43532 -0.811798 0
M  V30 25788 C 2453.1 4.67405 -1.14395 0
M  V30 25789 C 2455.45 4.95389 -1.61985 0
M  V30 25790 C 2452.78 5.4038 -2.28486 0
M  V30 25791 C 2455.13 5.69616 -2.75174 0
M  V30 25792 C 2453.8 5.91752 -3.08845 0
M  V30 25793 H 2453.07 0.739436 0.0481114 0
M  V30 25794 H 2455.72 1.82429 -0.582412 0
M  V30 25795 H 2454.02 3.73127 1.19512 0
M  V30 25796 H 2455.72 3.91855 0.851501 0
M  V30 25797 H 2452.31 4.25147 -0.542973 0
M  V30 25798 H 2456.49 4.76831 -1.37645 0
M  V30 25799 H 2451.75 5.55735 -2.5489 0
M  V30 25800 H 2455.92 6.08787 -3.38158 0
M  V30 25801 H 2453.55 6.48079 -3.97364 0
M  V30 25802 N 2455.12 0.166873 1.56714 0
M  V30 25803 C 2456.07 -0.777344 2.14339 0
M  V30 25804 C 2457.06 -1.19589 1.07644 0
M  V30 25805 O 2458.25 -1.15899 1.33777 0
M  V30 25806 C 2455.38 -2.00841 2.7842 0
M  V30 25807 C 2454.47 -1.61205 3.92267 0
M  V30 25808 N 2454.86 -0.925017 4.9727 0
M  V30 25809 C 2453.15 -1.90339 4.03345 0
M  V30 25810 C 2453.86 -0.730526 5.77095 0
M  V30 25811 N 2452.83 -1.27058 5.28542 0
M  V30 25812 H 2456.63 -0.243414 2.9289 0
M  V30 25813 H 2454.15 -0.0339668 1.62364 0
M  V30 25814 H 2456.14 -2.69503 3.18078 0
M  V30 25815 H 2454.8 -2.54733 2.01349 0
M  V30 25816 H 2455.82 -0.583556 5.14602 0
M  V30 25817 H 2452.49 -2.4594 3.37372 0
M  V30 25818 H 2453.88 -0.18755 6.71638 0
M  V30 25819 N 2456.6 -1.57237 -0.106866 0
M  V30 25820 C 2457.83 -1.90057 -0.830254 0
M  V30 25821 C 2458.25 -0.76001 -1.72062 0
M  V30 25822 O 2457.61 0.288959 -1.78982 0
M  V30 25823 C 2457.66 -3.21685 -1.62944 0
M  V30 25824 O 2456.76 -3.08446 -2.73743 0
M  V30 25825 H 2456.1 -0.623319 -0.228844 0
M  V30 25826 H 2458.63 -2.04421 -0.0856221 0
M  V30 25827 H 2458.64 -3.54705 -2.01615 0
M  V30 25828 H 2457.32 -4.04288 -0.975918 0
M  V30 25829 H 2455.9 -2.86917 -2.38186 0
M  V30 25830 N 2458.08 0.377381 -1.53015 0
M  V30 25831 C 2459.03 1.46149 -1.74999 0
M  V30 25832 C 2460.01 1.49122 -0.604263 0
M  V30 25833 O 2461.21 1.54563 -0.862516 0
M  V30 25834 C 2458.34 2.83726 -1.93272 0
M  V30 25835 C 2457.42 2.85277 -3.13812 0
M  V30 25836 N 2457.81 2.56486 -4.35946 0
M  V30 25837 C 2456.11 3.16442 -3.14294 0
M  V30 25838 C 2456.81 2.65415 -5.17619 0
M  V30 25839 N 2455.79 2.99634 -4.53564 0
M  V30 25840 H 2459.59 1.22733 -2.67046 0
M  V30 25841 H 2457.1 0.585453 -1.5148 0
M  V30 25842 H 2459.1 3.61795 -2.07146 0
M  V30 25843 H 2457.76 3.08115 -1.02445 0
M  V30 25844 H 2458.77 2.30294 -4.6388 0
M  V30 25845 H 2455.45 3.46221 -2.33318 0
M  V30 25846 H 2456.84 2.46601 -6.2501 0
M  V30 25847 N 2459.56 1.44175 0.636506 0
M  V30 25848 C 2460.79 1.50147 1.4235 0
M  V30 25849 C 2461.2 0.124608 1.88388 0
M  V30 25850 O 2460.56 -0.868461 1.60512 0
M  V30 25851 C 2460.61 2.46161 2.6474 0
M  V30 25852 O 2460.33 3.78494 2.20622 0
M  V30 25853 C 2461.83 2.61543 3.57925 0
M  V30 25854 H 2459.05 0.509408 0.436743 0
M  V30 25855 H 2461.6 1.89086 0.7789 0
M  V30 25856 H 2459.75 2.10372 3.25303 0
M  V30 25857 H 2460.16 4.30281 2.99931 0
M  V30 25858 H 2461.64 3.32764 4.40422 0
M  V30 25859 H 2462.12 1.66592 4.06379 0
M  V30 25860 H 2462.72 2.98211 3.03233 0
M  V30 25861 N 2461.04 -0.876421 1.30983 0
M  V30 25862 C 2461.97 -1.99901 1.20672 0
M  V30 25863 C 2462.95 -1.69832 0.0953838 0
M  V30 25864 O 2464.13 -1.92187 0.278884 0
M  V30 25865 C 2461.26 -3.35258 0.906609 0
M  V30 25866 C 2460.22 -3.79613 1.97681 0
M  V30 25867 C 2459.54 -5.12357 1.52952 0
M  V30 25868 C 2460.84 -3.97416 3.38907 0
M  V30 25869 H 2462.54 -2.08786 2.1459 0
M  V30 25870 H 2460.08 -1.00315 1.0331 0
M  V30 25871 H 2462.04 -4.13323 0.821098 0
M  V30 25872 H 2460.76 -3.26529 -0.0682395 0
M  V30 25873 H 2459.42 -3.03783 2.05211 0
M  V30 25874 H 2459.07 -5.00064 0.542707 0
M  V30 25875 H 2458.77 -5.43005 2.24542 0
M  V30 25876 H 2460.29 -5.92938 1.45796 0
M  V30 25877 H 2461.7 -4.65894 3.34089 0
M  V30 25878 H 2460.1 -4.39453 4.08658 0
M  V30 25879 H 2461.17 -3.00999 3.80168 0
M  V30 25880 N 2462.51 -1.13839 -1.08989 0
M  V30 25881 C 2463.93 -0.877529 -1.3331 0
M  V30 25882 C 2464.13 0.484526 -1.95588 0
M  V30 25883 O 2463.19 1.23009 -2.20511 0
M  V30 25884 C 2464.5 -2.00564 -2.24042 0
M  V30 25885 C 2466.05 -2.03825 -2.37538 0
M  V30 25886 C 2466.52 -3.15911 -3.31608 0
M  V30 25887 N 2468.01 -3.15451 -3.39183 0
M  V30 25888 C 2468.75 -3.98818 -4.11985 0
M  V30 25889 N 2468.24 -4.92211 -4.87545 0
M  V30 25890 N 2470.04 -3.86901 -4.07755 0
M  V30 25891 H 2462.19 -2.01575 -0.66942 0
M  V30 25892 H 2464.45 -0.878021 -0.357466 0
M  V30 25893 H 2464.16 -2.98792 -1.85516 0
M  V30 25894 H 2464.03 -1.92364 -3.24462 0
M  V30 25895 H 2466.42 -1.06207 -2.75326 0
M  V30 25896 H 2466.5 -2.16096 -1.36881 0
M  V30 25897 H 2466.14 -4.13771 -2.94543 0
M  V30 25898 H 2466.07 -3.00878 -4.32181 0
M  V30 25899 H 2468.56 -2.47804 -2.8531 0
M  V30 25900 H 2468.88 -5.52302 -5.40539 0
M  V30 25901 H 2467.22 -4.96214 -4.86618 0
M  V30 25902 H 2470.41 -3.13263 -3.47828 0
M  V30 25903 H 2470.59 -4.521 -4.6423 0
M  V30 25904 N 2463.99 1.27046 -0.932584 0
M  V30 25905 C 2464.92 2.29065 -0.452942 0
M  V30 25906 C 2465.9 1.6291 0.48931 0
M  V30 25907 O 2467.09 1.90182 0.393013 0
M  V30 25908 C 2464.22 3.46082 0.290637 0
M  V30 25909 C 2463.17 4.24264 -0.564242 0
M  V30 25910 C 2462.5 5.33808 0.308793 0
M  V30 25911 C 2463.8 4.89146 -1.83121 0
M  V30 25912 H 2465.49 2.69435 -1.30557 0
M  V30 25913 H 2463.04 1.29525 -0.629224 0
M  V30 25914 H 2464.99 4.16555 0.63716 0
M  V30 25915 H 2463.72 3.04642 1.17733 0
M  V30 25916 H 2462.37 3.55544 -0.89354 0
M  V30 25917 H 2462.02 4.88609 1.19458 0
M  V30 25918 H 2461.72 5.87026 -0.259736 0
M  V30 25919 H 2463.25 6.07122 0.650777 0
M  V30 25920 H 2464.66 5.5188 -1.55246 0
M  V30 25921 H 2463.06 5.52444 -2.34363 0
M  V30 25922 H 2464.13 4.12572 -2.5478 0
M  V30 25923 N 2465.47 0.698636 1.41269 0
M  V30 25924 C 2466.7 0.23968 2.05205 0
M  V30 25925 C 2467.11 -1.1173 1.52686 0
M  V30 25926 O 2466.45 -1.70997 0.671252 0
M  V30 25927 C 2466.51 0.123189 3.59289 0
M  V30 25928 C 2466.18 1.4127 4.34617 0
M  V30 25929 C 2467.17 2.35119 4.63697 0
M  V30 25930 C 2464.86 1.66693 4.73834 0
M  V30 25931 C 2466.85 3.52648 5.30959 0
M  V30 25932 C 2464.54 2.84507 5.40832 0
M  V30 25933 C 2465.54 3.77308 5.69322 0
M  V30 25934 O 2465.23 4.93058 6.3494 0
M  V30 25935 H 2464.96 0.108549 0.667228 0
M  V30 25936 H 2467.51 0.952634 1.81973 0
M  V30 25937 H 2465.74 -0.645561 3.81273 0
M  V30 25938 H 2467.43 -0.298985 4.04797 0
M  V30 25939 H 2468.2 2.16736 4.33878 0
M  V30 25940 H 2464.08 0.953215 4.51037 0
M  V30 25941 H 2467.62 4.25101 5.53114 0
M  V30 25942 H 2463.52 3.02805 5.70069 0
M  V30 25943 H 2464.29 4.92914 6.53436 0
M  V30 25944 N 2466.95 -1.51228 0.443603 0
M  V30 25945 C 2468.36 -1.5931 0.0962281 0
M  V30 25946 C 2468.56 -1.45405 -1.39498 0
M  V30 25947 O 2467.62 -1.29847 -2.16555 0
M  V30 25948 C 2468.93 -2.94198 0.621926 0
M  V30 25949 C 2470.48 -3.07524 0.582919 0
M  V30 25950 C 2470.96 -4.44946 1.0857 0
M  V30 25951 N 2472.45 -4.51283 1.04395 0
M  V30 25952 C 2473.18 -5.55951 1.40377 0
M  V30 25953 N 2472.68 -6.68008 1.83676 0
M  V30 25954 N 2474.47 -5.46344 1.32154 0
M  V30 25955 H 2466.62 -1.58511 1.41379 0
M  V30 25956 H 2468.89 -0.747556 0.582978 0
M  V30 25957 H 2468.59 -3.09764 1.66552 0
M  V30 25958 H 2468.47 -3.77166 0.0502788 0
M  V30 25959 H 2470.85 -2.91623 -0.451698 0
M  V30 25960 H 2470.93 -2.2638 1.19104 0
M  V30 25961 H 2470.58 -4.61594 2.11881 0
M  V30 25962 H 2470.51 -5.24639 0.454049 0
M  V30 25963 H 2473 -3.7086 0.726051 0
M  V30 25964 H 2473.31 -7.43903 2.09353 0
M  V30 25965 H 2471.66 -6.692 1.87608 0
M  V30 25966 H 2474.85 -4.57686 0.981888 0
M  V30 25967 H 2475.02 -6.27802 1.60525 0
M  V30 25968 N 2468.43 -0.175182 -1.56623 0
M  V30 25969 C 2469.39 0.7397 -2.16936 0
M  V30 25970 C 2470.39 1.15532 -1.11844 0
M  V30 25971 O 2471.58 1.07164 -1.37337 0
M  V30 25972 C 2468.71 2.00733 -2.75534 0
M  V30 25973 H 2469.9 0.214586 -2.99131 0
M  V30 25974 H 2467.46 0.0743922 -1.56123 0
M  V30 25975 H 2468.19 2.57544 -1.97083 0
M  V30 25976 H 2467.98 1.71825 -3.52447 0
M  V30 25977 H 2469.47 2.66016 -3.21909 0
M  V30 25978 N 2469.91 1.57292 0.0985263 0
M  V30 25979 C 2471.15 1.86189 0.803834 0
M  V30 25980 C 2471.48 0.763826 1.78548 0
M  V30 25981 O 2470.76 -0.228516 1.93153 0
M  V30 25982 C 2471.04 3.25716 1.53562 0
M  V30 25983 C 2470.9 4.46146 0.572199 0
M  V30 25984 C 2472.21 3.63092 2.48702 0
M  V30 25985 H 2469.33 0.677216 0.290769 0
M  V30 25986 H 2471.98 1.8988 0.067545 0
M  V30 25987 H 2470.13 3.227 2.16326 0
M  V30 25988 H 2471.8 4.61275 -0.0481705 0
M  V30 25989 H 2470.04 4.33648 -0.114694 0
M  V30 25990 H 2470.71 5.40491 1.1213 0
M  V30 25991 H 2473.19 3.67029 1.96032 0
M  V30 25992 H 2472.06 4.61658 2.96923 0
M  V30 25993 H 2472.32 2.91593 3.32304 0
M  V30 25994 N 2471.38 -0.369261 1.53213 0
M  V30 25995 C 2472.62 -1.12102 1.70917 0
M  V30 25996 C 2472.99 -1.86665 0.449477 0
M  V30 25997 O 2474.19 -2.64049 0.503152 0
M  V30 25998 C 2472.46 -2.05767 2.92224 0
M  V30 25999 S 2474.02 -2.88513 3.30614 0
M  V30 26000 H 2470.84 -0.379179 0.601452 0
M  V30 26001 H 2473.44 -0.40276 1.91306 0
M  V30 26002 H 2472.14 -1.49746 3.82105 0
M  V30 26003 H 2471.67 -2.82071 2.74225 0
M  V30 26004 H 2473.69 -4.08042 2.8234 0
M  V30 26005 N 2472.86 -1.4451 -0.628851 0
M  V30 26006 C 2473.82 -1.51192 -1.72261 0
M  V30 26007 C 2474.82 -0.393698 -1.55906 0
M  V30 26008 O 2476.01 -0.656405 -1.6136 0
M  V30 26009 C 2473.15 -1.38804 -3.11362 0
M  V30 26010 H 2474.34 -2.48623 -1.6771 0
M  V30 26011 H 2471.89 -1.31636 -0.842714 0
M  V30 26012 H 2472.63 -0.424749 -3.21506 0
M  V30 26013 H 2472.41 -2.1989 -3.2464 0
M  V30 26014 H 2473.9 -1.46465 -3.91072 0
M  V30 26015 N 2474.34 0.869463 -1.31446 0
M  V30 26016 C 2475.27 1.99259 -1.2173 0
M  V30 26017 C 2476.25 1.69779 -0.104389 0
M  V30 26018 O 2477.44 1.92036 -0.289072 0
M  V30 26019 C 2474.57 3.34772 -0.924376 0
M  V30 26020 C 2473.52 3.78559 -1.99692 0
M  V30 26021 C 2472.85 5.11539 -1.55667 0
M  V30 26022 C 2474.15 3.95613 -3.4101 0
M  V30 26023 H 2475.84 2.07645 -2.15694 0
M  V30 26024 H 2473.39 0.997657 -1.0384 0
M  V30 26025 H 2475.34 4.12882 -0.843006 0
M  V30 26026 H 2474.06 3.2656 0.0509219 0
M  V30 26027 H 2472.72 3.02691 -2.06819 0
M  V30 26028 H 2472.37 4.99769 -0.569219 0
M  V30 26029 H 2472.07 5.41807 -2.27419 0
M  V30 26030 H 2473.59 5.92157 -1.48939 0
M  V30 26031 H 2475.01 4.64116 -3.36555 0
M  V30 26032 H 2473.4 4.37279 -4.10983 0
M  V30 26033 H 2474.47 2.98979 -3.81759 0
M  V30 26034 N 2475.82 1.14415 1.08383 0
M  V30 26035 C 2477.07 0.910711 1.80417 0
M  V30 26036 C 2477.39 -0.56421 1.86659 0
M  V30 26037 O 2476.66 -1.41012 1.35987 0
M  V30 26038 H 2475.24 0.333946 0.668198 0
M  V30 26039 H 2477.9 1.44278 1.31034 0
M  V30 26040 H 2476.99 1.31087 2.83236 0
M  V30 26041 N 2477.3 -1.26549 0.939309 0
M  V30 26042 C 2478.24 -2.28435 0.43819 0
M  V30 26043 C 2479.24 -1.62352 -0.483558 0
M  V30 26044 O 2480.44 -1.76323 -0.361978 0
M  V30 26045 H 2476.82 -0.741846 0.123162 0
M  V30 26046 H 2478.79 -2.68104 1.31007 0
M  V30 26047 C 2477.54 -3.46546 -0.282991 0
M  V30 26048 H 2476.86 -3.97618 0.417112 0
M  V30 26049 H 2478.3 -4.19764 -0.597874 0
M  V30 26050 C 2476.76 -3.01658 -1.50013 0
M  V30 26051 O 2477.29 -3.06335 -2.5985 0
M  V30 26052 N 2475.5 -2.57022 -1.35603 0
M  V30 26053 H 2475.04 -2.53416 -0.462395 0
M  V30 26054 H 2475 -2.27351 -2.17161 0
M  V30 26055 N 2478.77 -0.706118 -1.40896 0
M  V30 26056 C 2479.72 -0.0362302 -2.32572 0
M  V30 26057 C 2480.72 0.75724 -1.51533 0
M  V30 26058 O 2481.92 0.661674 -1.67397 0
M  V30 26059 H 2478.3 0.00708613 -0.751967 0
M  V30 26060 H 2480.27 -0.826299 -2.86731 0
M  V30 26061 C 2479.02 0.878481 -3.36419 0
M  V30 26062 H 2478.34 0.277331 -3.98837 0
M  V30 26063 H 2479.78 1.31533 -4.03082 0
M  V30 26064 C 2478.24 1.99956 -2.71144 0
M  V30 26065 O 2478.77 3.08945 -2.56741 0
M  V30 26066 N 2476.97 1.78039 -2.29674 0
M  V30 26067 H 2476.52 0.893999 -2.41589 0
M  V30 26068 H 2476.48 2.53231 -1.86336 0
M  V30 26069 N 2480.25 1.50991 -0.451617 0
M  V30 26070 C 2481.67 1.59256 -0.104675 0
M  V30 26071 C 2481.87 1.46142 1.38725 0
M  V30 26072 O 2480.92 1.30993 2.15863 0
M  V30 26073 C 2482.24 2.93864 -0.63752 0
M  V30 26074 C 2483.78 3.07211 -0.59922 0
M  V30 26075 C 2484.26 4.44364 -1.10928 0
M  V30 26076 N 2485.75 4.50723 -1.06786 0
M  V30 26077 C 2486.49 5.55199 -1.43324 0
M  V30 26078 N 2485.98 6.67025 -1.87216 0
M  V30 26079 N 2487.77 5.45635 -1.3505 0
M  V30 26080 H 2479.93 1.57759 -1.42217 0
M  V30 26081 H 2482.19 0.744454 -0.586934 0
M  V30 26082 H 2481.89 3.08876 -1.68192 0
M  V30 26083 H 2481.77 3.77135 -0.0702802 0
M  V30 26084 H 2484.16 2.91858 0.436226 0
M  V30 26085 H 2484.24 2.25745 -1.20303 0
M  V30 26086 H 2483.88 4.60464 -2.14326 0
M  V30 26087 H 2483.81 5.24391 -0.481865 0
M  V30 26088 H 2486.3 3.70469 -0.745708 0
M  V30 26089 H 2486.61 7.42782 -2.13295 0
M  V30 26090 H 2484.96 6.68195 -1.91154 0
M  V30 26091 H 2488.15 4.57159 -1.00615 0
M  V30 26092 H 2488.32 6.26942 -1.63852 0
M  V30 26093 N 2481.73 0.183486 1.56528 0
M  V30 26094 C 2482.98 -0.459002 1.97537 0
M  V30 26095 C 2483.31 -1.62069 1.06992 0
M  V30 26096 O 2482.58 -1.94132 0.119515 0
M  V30 26097 C 2482.87 -0.930307 3.47875 0
M  V30 26098 C 2482.72 0.232396 4.49199 0
M  V30 26099 C 2484.04 -1.79982 4.01615 0
M  V30 26100 H 2481.16 -0.165371 0.718207 0
M  V30 26101 H 2483.8 0.272072 1.88042 0
M  V30 26102 H 2481.95 -1.55327 3.56098 0
M  V30 26103 H 2483.62 0.869799 4.53026 0
M  V30 26104 H 2481.86 0.886002 4.24656 0
M  V30 26105 H 2482.54 -0.139699 5.51823 0
M  V30 26106 H 2485.01 -1.27454 3.96099 0
M  V30 26107 H 2483.89 -2.09858 5.07199 0
M  V30 26108 H 2484.15 -2.74992 3.46167 0
M  V30 26109 N 2483.21 -1.57342 -0.0901833 0
M  V30 26110 C 2484.17 -2.01443 -1.09332 0
M  V30 26111 C 2485.17 -0.908664 -1.32665 0
M  V30 26112 O 2486.36 -1.17402 -1.28695 0
M  V30 26113 C 2483.49 -2.37934 -2.44132 0
M  V30 26114 H 2484.69 -2.91286 -0.713611 0
M  V30 26115 H 2482.24 -1.52659 -0.335377 0
M  V30 26116 H 2482.97 -1.5106 -2.86969 0
M  V30 26117 H 2482.76 -3.18607 -2.28543 0
M  V30 26118 H 2484.25 -2.72694 -3.16272 0
M  V30 26119 N 2484.69 0.36113 -1.53407 0
M  V30 26120 C 2485.64 1.44284 -1.76539 0
M  V30 26121 C 2486.62 1.48473 -0.620045 0
M  V30 26122 O 2487.81 1.53639 -0.878861 0
M  V30 26123 C 2484.94 2.81661 -1.96271 0
M  V30 26124 C 2484.03 2.81933 -3.1682 0
M  V30 26125 N 2484.42 2.51848 -4.38642 0
M  V30 26126 C 2482.72 3.13091 -3.17632 0
M  V30 26127 C 2483.42 2.5991 -5.20405 0
M  V30 26128 N 2482.39 2.94806 -4.56717 0
M  V30 26129 H 2486.2 1.19894 -2.68333 0
M  V30 26130 H 2483.71 0.569353 -1.52092 0
M  V30 26131 H 2485.71 3.59578 -2.10972 0
M  V30 26132 H 2484.37 3.07011 -1.05708 0
M  V30 26133 H 2485.38 2.25361 -4.66297 0
M  V30 26134 H 2482.05 3.43727 -2.36977 0
M  V30 26135 H 2483.44 2.39958 -6.2759 0
M  V30 26136 N 2486.16 1.44842 0.621179 0
M  V30 26137 C 2487.13 1.52103 1.71457 0
M  V30 26138 C 2488.13 0.40196 1.55695 0
M  V30 26139 O 2489.32 0.664953 1.61009 0
M  V30 26140 C 2486.45 1.40453 3.10622 0
M  V30 26141 H 2487.64 2.49509 1.66389 0
M  V30 26142 H 2485.2 1.32081 0.835721 0
M  V30 26143 H 2485.93 0.441793 3.21277 0
M  V30 26144 H 2485.72 2.21608 3.23469 0
M  V30 26145 H 2487.21 1.48537 3.9029 0
M  V30 26146 N 2487.64 -0.862479 1.31905 0
M  V30 26147 C 2488.57 -1.9861 1.22785 0
M  V30 26148 C 2489.55 -1.69722 0.113391 0
M  V30 26149 O 2490.74 -1.9188 0.299252 0
M  V30 26150 C 2487.87 -3.34278 0.942117 0
M  V30 26151 C 2486.82 -3.77495 2.01696 0
M  V30 26152 C 2486.15 -5.10706 1.58378 0
M  V30 26153 C 2487.45 -3.93799 3.43103 0
M  V30 26154 H 2489.14 -2.06498 2.16792 0
M  V30 26155 H 2486.69 -0.992136 1.04368 0
M  V30 26156 H 2488.64 -4.12429 0.86489 0
M  V30 26157 H 2487.37 -3.26583 -0.0336029 0
M  V30 26158 H 2486.02 -3.01589 2.08421 0
M  V30 26159 H 2485.67 -4.9946 0.595715 0
M  V30 26160 H 2485.37 -5.40593 2.30289 0
M  V30 26161 H 2486.9 -5.91359 1.52077 0
M  V30 26162 H 2488.31 -4.62325 3.39011 0
M  V30 26163 H 2486.71 -4.35094 4.13296 0
M  V30 26164 H 2487.78 -2.9695 3.83339 0
M  V30 26165 N 2489.12 -1.14988 -1.07775 0
M  V30 26166 C 2490.36 -0.932559 -1.81887 0
M  V30 26167 C 2490.72 0.531032 -1.8451 0
M  V30 26168 O 2491.93 0.866532 -2.5445 0
M  V30 26169 C 2490.2 -1.52479 -3.23241 0
M  V30 26170 S 2491.76 -1.44996 -4.14152 0
M  V30 26171 H 2488.57 -0.335723 -0.626746 0
M  V30 26172 H 2491.18 -1.46457 -1.29501 0
M  V30 26173 H 2489.88 -2.58301 -3.18918 0
M  V30 26174 H 2489.41 -0.991448 -3.80702 0
M  V30 26175 H 2491.43 -0.439886 -4.94246 0
M  V30 26176 N 2490.6 1.26049 -0.946007 0
M  V30 26177 C 2491.82 1.98148 -0.61256 0
M  V30 26178 C 2492.25 1.69928 0.806594 0
M  V30 26179 O 2491.61 0.950135 1.54409 0
M  V30 26180 C 2491.65 3.50021 -0.867043 0
M  V30 26181 O 2490.76 4.12359 0.0584609 0
M  V30 26182 H 2490.1 0.621477 -0.233801 0
M  V30 26183 H 2492.63 1.60392 -1.27025 0
M  V30 26184 H 2492.64 4.00281 -0.789862 0
M  V30 26185 H 2491.31 3.6989 -1.90142 0
M  V30 26186 H 2489.89 3.72834 -0.0701897 0
M  V30 26187 N 2492.08 0.71358 1.4052 0
M  V30 26188 C 2493.03 0.0362051 2.27971 0
M  V30 26189 C 2494.01 -0.734598 1.43152 0
M  V30 26190 O 2495.2 -0.607128 1.66262 0
M  V30 26191 C 2492.33 -0.886272 3.31663 0
M  V30 26192 C 2491.42 -0.110762 4.23955 0
M  V30 26193 N 2491.81 0.904935 4.97639 0
M  V30 26194 C 2490.11 -0.343614 4.44674 0
M  V30 26195 C 2490.81 1.37073 5.65319 0
M  V30 26196 N 2489.78 0.693263 5.39161 0
M  V30 26197 H 2493.59 0.814695 2.82383 0
M  V30 26198 H 2491.1 0.54599 1.52947 0
M  V30 26199 H 2493.1 -1.38685 3.93157 0
M  V30 26200 H 2491.76 -1.66416 2.78811 0
M  V30 26201 H 2492.77 1.28572 5.01687 0
M  V30 26202 H 2489.44 -1.09798 4.02803 0
M  V30 26203 H 2490.83 2.21458 6.34355 0
M  V30 26204 N 2493.55 -1.50749 0.459618 0
M  V30 26205 C 2494.8 -2.02556 -0.099461 0
M  V30 26206 C 2495.13 -1.34173 -1.40397 0
M  V30 26207 O 2494.41 -0.463716 -1.88891 0
M  V30 26208 C 2494.69 -3.58888 -0.295179 0
M  V30 26209 C 2494.54 -4.37859 1.02954 0
M  V30 26210 C 2495.86 -4.27269 -1.05495 0
M  V30 26211 H 2492.98 -0.736184 -0.0346731 0
M  V30 26212 H 2495.62 -1.80178 0.60297 0
M  V30 26213 H 2493.77 -3.78086 -0.893497 0
M  V30 26214 H 2495.45 -4.3026 1.66356 0
M  V30 26215 H 2493.69 -4.02056 1.62892 0
M  V30 26216 H 2494.36 -5.45473 0.846377 0
M  V30 26217 H 2496.84 -4.12477 -0.547921 0
M  V30 26218 H 2495.71 -5.36488 -1.16068 0
M  V30 26219 H 2495.97 -3.89649 -2.08868 0
M  V30 26220 N 2495.03 -0.191784 -1.56429 0
M  V30 26221 C 2496.31 0.495298 -1.89225 0
M  V30 26222 C 2496.69 1.79881 -1.10481 0
M  V30 26223 O 2496.04 2.2758 -0.204892 0
M  V30 26224 C 2496.25 0.717307 -3.41549 0
M  V30 26225 C 2497.6 1.03816 -4.11713 0
M  V30 26226 O 2498.62 0.805143 -3.46981 0
M  V30 26227 O 2497.48 1.47878 -5.26112 0
M  V30 26228 H 2494.57 0.257796 -0.785793 0
M  V30 26229 H 2497.12 -0.23175 -1.6811 0
M  V30 26230 H 2495.89 -0.203356 -3.90771 0
M  V30 26231 H 2495.51 1.49693 -3.68344 0
M  V30 26232 N 2496.51 1.57387 0.0818378 0
M  V30 26233 C 2497.44 1.99702 1.1248 0
M  V30 26234 C 2498.46 0.901484 1.35562 0
M  V30 26235 O 2499.64 1.17948 1.3398 0
M  V30 26236 C 2496.74 2.31217 2.47774 0
M  V30 26237 C 2495.92 3.62489 2.44786 0
M  V30 26238 C 2494.98 3.81789 3.6211 0
M  V30 26239 O 2494 4.53492 3.43997 0
M  V30 26240 N 2495.2 3.23375 4.82088 0
M  V30 26241 H 2497.97 2.89784 0.764534 0
M  V30 26242 H 2495.53 1.59622 0.270636 0
M  V30 26243 H 2497.52 2.4131 3.24887 0
M  V30 26244 H 2496.09 1.47075 2.7584 0
M  V30 26245 H 2495.31 3.63243 1.53128 0
M  V30 26246 H 2496.6 4.48703 2.39881 0
M  V30 26247 H 2496 2.65157 4.99708 0
M  V30 26248 H 2494.56 3.38933 5.56747 0
M  V30 26249 N 2497.99 -0.35299 1.53596 0
M  V30 26250 C 2498.95 -1.41591 1.80235 0
M  V30 26251 C 2499.95 -1.46034 0.673107 0
M  V30 26252 O 2501.14 -1.46574 0.941361 0
M  V30 26253 C 2498.27 -2.80604 1.93583 0
M  V30 26254 H 2499.47 -1.19239 2.75177 0
M  V30 26255 H 2497.02 -0.586846 1.44865 0
M  V30 26256 H 2497.75 -3.08253 1.00751 0
M  V30 26257 H 2497.54 -2.78776 2.75728 0
M  V30 26258 H 2499.03 -3.57555 2.15742 0
M  V30 26259 N 2499.47 -1.45169 -0.613489 0
M  V30 26260 C 2500.4 -1.49393 -1.73823 0
M  V30 26261 C 2501.41 -0.385332 -1.58174 0
M  V30 26262 O 2502.6 -0.652065 -1.66164 0
M  V30 26263 C 2499.7 -1.32897 -3.11756 0
M  V30 26264 C 2498.87 -2.57324 -3.537 0
M  V30 26265 C 2497.93 -2.3547 -4.70575 0
M  V30 26266 O 2496.96 -3.09053 -4.77991 0
M  V30 26267 N 2498.16 -1.39654 -5.63451 0
M  V30 26268 H 2500.93 -2.46361 -1.70665 0
M  V30 26269 H 2498.49 -1.40833 -0.798595 0
M  V30 26270 H 2500.48 -1.16096 -3.8769 0
M  V30 26271 H 2499.05 -0.442272 -3.09456 0
M  V30 26272 H 2498.27 -2.8928 -2.67789 0
M  V30 26273 H 2499.56 -3.40045 -3.7848 0
M  V30 26274 H 2498.96 -0.78916 -5.60169 0
M  V30 26275 H 2497.51 -1.28827 -6.38942 0
M  V30 26276 N 2500.95 0.855472 -1.32361 0
M  V30 26277 C 2501.88 1.97956 -1.23837 0
M  V30 26278 C 2502.86 1.69659 -0.122391 0
M  V30 26279 O 2504.04 1.91719 -0.309424 0
M  V30 26280 C 2501.17 3.33773 -0.959831 0
M  V30 26281 C 2500.13 3.7642 -2.03695 0
M  V30 26282 C 2499.45 5.09859 -1.61084 0
M  V30 26283 C 2500.75 3.91974 -3.45187 0
M  V30 26284 H 2502.45 2.05346 -2.17884 0
M  V30 26285 H 2499.99 0.986587 -1.04893 0
M  V30 26286 H 2501.94 4.11964 -0.88675 0
M  V30 26287 H 2500.67 3.26596 0.016283 0
M  V30 26288 H 2499.33 3.0048 -2.10018 0
M  V30 26289 H 2498.98 4.99137 -0.622195 0
M  V30 26290 H 2498.68 5.39364 -2.33152 0
M  V30 26291 H 2500.2 5.90544 -1.55211 0
M  V30 26292 H 2501.61 4.6052 -3.41458 0
M  V30 26293 H 2500.01 4.32896 -4.15598 0
M  V30 26294 H 2501.08 2.94913 -3.84908 0
M  V30 26295 N 2502.42 1.15558 1.07164 0
M  V30 26296 C 2503.35 0.877084 2.16401 0
M  V30 26297 C 2504.33 -0.173082 1.69217 0
M  V30 26298 O 2505.52 -0.0270498 1.94181 0
M  V30 26299 C 2502.65 0.367693 3.45348 0
M  V30 26300 C 2501.6 1.35475 4.05993 0
M  V30 26301 C 2500.93 0.704131 5.30043 0
M  V30 26302 C 2502.23 2.7214 4.45799 0
M  V30 26303 H 2503.92 1.79057 2.39956 0
M  V30 26304 H 2501.47 0.862351 1.15323 0
M  V30 26305 H 2503.42 0.160391 4.21095 0
M  V30 26306 H 2502.15 -0.58127 3.21386 0
M  V30 26307 H 2500.81 1.54845 3.32293 0
M  V30 26308 H 2500.45 -0.25104 5.02373 0
M  V30 26309 H 2500.15 1.36287 5.71576 0
M  V30 26310 H 2501.68 0.506647 6.08494 0
M  V30 26311 H 2503.09 2.56604 5.12667 0
M  V30 26312 H 2501.49 3.34406 4.9829 0
M  V30 26313 H 2502.56 3.2806 3.57078 0
M  V30 26314 N 2503.9 -1.25546 0.952678 0
M  V30 26315 C 2504.85 -2.23673 0.442072 0
M  V30 26316 C 2505.84 -1.53955 -0.467605 0
M  V30 26317 O 2507.03 -1.74422 -0.300976 0
M  V30 26318 C 2504.16 -3.4215 -0.280756 0
M  V30 26319 C 2503.24 -4.19138 0.646877 0
M  V30 26320 N 2503.63 -4.73532 1.77767 0
M  V30 26321 C 2501.93 -4.43676 0.454695 0
M  V30 26322 C 2502.63 -5.31823 2.35667 0
M  V30 26323 N 2501.61 -5.18163 1.64342 0
M  V30 26324 H 2505.41 -2.63333 1.3051 0
M  V30 26325 H 2502.92 -1.40762 0.809929 0
M  V30 26326 H 2504.92 -4.11583 -0.663675 0
M  V30 26327 H 2503.58 -3.04014 -1.14041 0
M  V30 26328 H 2504.59 -4.70726 2.15957 0
M  V30 26329 H 2501.27 -4.15926 -0.362239 0
M  V30 26330 H 2502.66 -5.84708 3.31008 0
M  V30 26331 N 2505.38 -0.721022 -1.40139 0
M  V30 26332 C 2506.34 -0.0806236 -2.29058 0
M  V30 26333 C 2507.34 0.681733 -1.45633 0
M  V30 26334 O 2508.53 0.512827 -1.6648 0
M  V30 26335 C 2505.66 0.895535 -3.28927 0
M  V30 26336 H 2506.86 -0.863843 -2.87189 0
M  V30 26337 H 2504.41 -0.486001 -1.48552 0
M  V30 26338 H 2505.15 1.70561 -2.75825 0
M  V30 26339 H 2504.93 0.351698 -3.9052 0
M  V30 26340 H 2506.42 1.34062 -3.95496 0
M  V30 26341 N 2506.86 1.50503 -0.467606 0
M  V30 26342 C 2507.79 2.3132 0.318341 0
M  V30 26343 C 2508.77 1.38068 0.99354 0
M  V30 26344 O 2509.95 1.66989 0.991381 0
M  V30 26345 C 2507.08 3.17713 1.40269 0
M  V30 26346 C 2506.04 4.19489 0.849299 0
M  V30 26347 C 2505.36 4.94598 2.03168 0
M  V30 26348 C 2506.66 5.2212 -0.137034 0
M  V30 26349 H 2508.36 2.97274 -0.356158 0
M  V30 26350 H 2505.9 1.4296 -0.172728 0
M  V30 26351 H 2507.86 3.73045 1.95998 0
M  V30 26352 H 2506.58 2.49637 2.10591 0
M  V30 26353 H 2505.24 3.65253 0.314012 0
M  V30 26354 H 2504.89 4.22998 2.7218 0
M  V30 26355 H 2504.59 5.63439 1.66764 0
M  V30 26356 H 2506.11 5.52763 2.59394 0
M  V30 26357 H 2507.53 5.72344 0.330956 0
M  V30 26358 H 2505.92 5.98662 -0.415175 0
M  V30 26359 H 2506.99 4.73081 -1.06406 0
M  V30 26360 N 2508.34 0.200077 1.56325 0
M  V30 26361 C 2509.25 -0.730629 2.22933 0
M  V30 26362 C 2510.26 -1.23074 1.22999 0
M  V30 26363 O 2511.44 -1.27686 1.55751 0
M  V30 26364 C 2508.5 -1.93093 2.87951 0
M  V30 26365 C 2507.56 -1.4749 4.03169 0
M  V30 26366 C 2506.8 -2.61799 4.65078 0
M  V30 26367 O 2507.02 -3.79406 4.2592 0
M  V30 26368 O 2505.95 -2.34227 5.54456 0
M  V30 26369 H 2509.78 -0.193338 3.03084 0
M  V30 26370 H 2507.36 -0.0294359 1.49371 0
M  V30 26371 H 2509.25 -2.63234 3.29068 0
M  V30 26372 H 2507.92 -2.45673 2.10776 0
M  V30 26373 H 2506.83 -0.742137 3.66665 0
M  V30 26374 H 2508.16 -0.995711 4.82023 0
M  V30 26375 N 2509.81 -1.57429 -0.0734901 0
M  V30 26376 C 2511.09 -1.78228 -0.805872 0
M  V30 26377 C 2511.47 -0.787224 -1.95872 0
M  V30 26378 O 2510.82 0.179989 -2.2779 0
M  V30 26379 C 2511.03 -3.24664 -1.28039 0
M  V30 26380 C 2512.38 -3.88447 -1.71446 0
M  V30 26381 O 2513.4 -3.28545 -1.3761 0
M  V30 26382 O 2512.26 -4.93829 -2.34084 0
M  V30 26383 H 2509.35 -0.731376 -0.386028 0
M  V30 26384 H 2511.9 -1.69615 -0.0536971 0
M  V30 26385 H 2510.67 -3.88641 -0.455408 0
M  V30 26386 H 2510.29 -3.37994 -2.09394 0
M  V30 26387 N 2511.29 0.344839 -1.53781 0
M  V30 26388 C 2512.25 1.40633 -1.80983 0
M  V30 26389 C 2513.25 1.45675 -0.680842 0
M  V30 26390 O 2514.44 1.46073 -0.949121 0
M  V30 26391 C 2511.58 2.79573 -1.95068 0
M  V30 26392 H 2512.77 1.17778 -2.75805 0
M  V30 26393 H 2510.32 0.579155 -1.45174 0
M  V30 26394 H 2511.06 3.07714 -1.02385 0
M  V30 26395 H 2510.84 2.7731 -2.77203 0
M  V30 26396 H 2512.33 3.56405 -2.17635 0
M  V30 26397 N 2512.77 1.45492 0.605781 0
M  V30 26398 C 2513.72 1.50727 1.71071 0
M  V30 26399 C 2514.7 0.370358 1.5658 0
M  V30 26400 O 2515.9 0.617328 1.65886 0
M  V30 26401 C 2513.02 1.47857 3.09828 0
M  V30 26402 C 2512.11 2.66757 3.29699 0
M  V30 26403 N 2512.5 3.9185 3.19824 0
M  V30 26404 C 2510.8 2.62492 3.60574 0
M  V30 26405 C 2511.5 4.71214 3.41075 0
M  V30 26406 N 2510.48 4.02699 3.6515 0
M  V30 26407 H 2514.28 2.45265 1.61932 0
M  V30 26408 H 2511.79 1.4081 0.809096 0
M  V30 26409 H 2513.79 1.49692 3.89099 0
M  V30 26410 H 2512.45 0.54377 3.20114 0
M  V30 26411 H 2513.46 4.23444 2.98187 0
M  V30 26412 H 2510.14 1.77928 3.77687 0
M  V30 26413 H 2511.53 5.80217 3.38818 0
M  V30 26414 N 2514.25 -0.848441 1.32813 0
M  V30 26415 C 2515.18 -1.97297 1.24885 0
M  V30 26416 C 2516.16 -1.69592 0.131386 0
M  V30 26417 O 2517.34 -1.91552 0.319586 0
M  V30 26418 C 2514.47 -3.33259 0.977518 0
M  V30 26419 C 2513.43 -3.75335 2.05689 0
M  V30 26420 C 2512.75 -5.08997 1.63786 0
M  V30 26421 C 2514.05 -3.90137 3.47261 0
M  V30 26422 H 2515.75 -2.04187 2.1897 0
M  V30 26423 H 2513.29 -0.98101 1.05414 0
M  V30 26424 H 2515.25 -4.11488 0.908585 0
M  V30 26425 H 2513.97 -3.266 0.00103742 0
M  V30 26426 H 2512.63 -2.99362 2.11608 0
M  V30 26427 H 2512.28 -4.988 0.648656 0
M  V30 26428 H 2511.98 -5.3812 2.36009 0
M  V30 26429 H 2513.5 -5.89712 1.58341 0
M  V30 26430 H 2514.92 -4.58703 3.43896 0
M  V30 26431 H 2513.31 -4.30685 4.17888 0
M  V30 26432 H 2514.38 -2.92867 3.86467 0
M  V30 26433 N 2515.73 -1.16125 -1.06549 0
M  V30 26434 C 2517.14 -0.94926 -1.60767 0
M  V30 26435 C 2517.49 0.507474 -1.89523 0
M  V30 26436 O 2516.61 1.38018 -1.66673 0
M  V30 26437 C 2517.21 -1.71676 -2.92083 0
M  V30 26438 C 2515.77 -1.54983 -3.43012 0
M  V30 26439 C 2514.91 -1.72715 -2.16944 0
M  V30 26440 H 2517.87 -1.31033 -0.895331 0
M  V30 26441 H 2517.89 -1.19105 -3.61378 0
M  V30 26442 H 2517.4 -2.77695 -2.71122 0
M  V30 26443 H 2515.5 -0.513938 -3.69039 0
M  V30 26444 H 2515.61 -2.33206 -4.18512 0
M  V30 26445 H 2513.98 -1.15435 -2.27039 0
M  V30 26446 H 2514.76 -2.80116 -1.98468 0
M  V30 26447 N 2517.2 1.25039 -0.959323 0
M  V30 26448 C 2518.45 1.92502 -0.615427 0
M  V30 26449 C 2518.77 1.75454 0.850938 0
M  V30 26450 O 2518.04 1.12101 1.60656 0
M  V30 26451 H 2516.62 0.712427 -0.224626 0
M  V30 26452 H 2519.29 1.52107 -1.21858 0
M  V30 26453 H 2518.38 3.00336 -0.84879 0
M  V30 26454 N 2518.68 0.728444 1.39755 0
M  V30 26455 C 2520.09 0.344321 1.83497 0
M  V30 26456 C 2520.44 -1.12318 1.6087 0
M  V30 26457 O 2519.57 -1.86571 1.09637 0
M  V30 26458 C 2520.16 0.61817 3.33113 0
M  V30 26459 C 2518.72 0.287615 3.753 0
M  V30 26460 C 2517.87 0.884094 2.62829 0
M  V30 26461 H 2520.82 0.926601 1.2884 0
M  V30 26462 H 2520.84 -0.112282 3.80334 0
M  V30 26463 H 2520.35 1.68631 3.4955 0
M  V30 26464 H 2518.46 -0.774948 3.64452 0
M  V30 26465 H 2518.57 0.765595 4.72943 0
M  V30 26466 H 2516.93 0.311194 2.52792 0
M  V30 26467 H 2517.72 1.95676 2.82074 0
M  V30 26468 N 2520.16 -1.50253 0.475581 0
M  V30 26469 C 2521.09 -2.31485 -0.306069 0
M  V30 26470 C 2522.07 -1.38593 -0.986204 0
M  V30 26471 O 2523.26 -1.67512 -0.982511 0
M  V30 26472 C 2520.39 -3.18453 -1.38583 0
M  V30 26473 C 2519.34 -4.19933 -0.827041 0
M  V30 26474 C 2518.67 -4.95668 -2.00542 0
M  V30 26475 C 2519.97 -5.2204 0.164722 0
M  V30 26476 H 2521.66 -2.97081 0.371918 0
M  V30 26477 H 2519.21 -1.42867 0.180307 0
M  V30 26478 H 2521.16 -3.74079 -1.94017 0
M  V30 26479 H 2519.88 -2.50751 -2.09265 0
M  V30 26480 H 2518.54 -3.65414 -0.294637 0
M  V30 26481 H 2518.19 -4.24435 -2.69933 0
M  V30 26482 H 2517.89 -5.64315 -1.63774 0
M  V30 26483 H 2519.41 -5.54131 -2.56459 0
M  V30 26484 H 2520.83 -5.72511 -0.300598 0
M  V30 26485 H 2519.23 -5.98433 0.446918 0
M  V30 26486 H 2520.3 -4.7251 1.08913 0
M  V30 26487 N 2521.64 -0.208365 -1.56217 0
M  V30 26488 C 2523.05 0.147262 -1.58919 0
M  V30 26489 C 2523.25 1.59996 -1.22489 0
M  V30 26490 O 2522.31 2.33789 -0.95389 0
M  V30 26491 C 2523.62 -0.167101 -3.00235 0
M  V30 26492 C 2525.17 -0.108274 -3.12813 0
M  V30 26493 C 2525.65 -0.396129 -4.56284 0
M  V30 26494 N 2527.14 -0.345223 -4.61912 0
M  V30 26495 C 2527.87 -0.541624 -5.70836 0
M  V30 26496 N 2527.37 -0.799089 -6.88176 0
M  V30 26497 N 2529.16 -0.474966 -5.6009 0
M  V30 26498 H 2521.31 -1.15617 -1.78175 0
M  V30 26499 H 2523.58 -0.46246 -0.827547 0
M  V30 26500 H 2523.28 -1.17486 -3.31496 0
M  V30 26501 H 2523.16 0.524118 -3.73541 0
M  V30 26502 H 2525.54 0.890107 -2.81356 0
M  V30 26503 H 2525.62 -0.832771 -2.41865 0
M  V30 26504 H 2525.27 -1.39189 -4.88456 0
M  V30 26505 H 2525.2 0.349409 -5.2544 0
M  V30 26506 H 2527.69 -0.153383 -3.77589 0
M  V30 26507 H 2528 -0.937405 -7.67094 0
M  V30 26508 H 2526.35 -0.836135 -6.89952 0
M  V30 26509 H 2529.54 -0.274146 -4.67297 0
M  V30 26510 H 2529.71 -0.63144 -6.44916 0
M  V30 26511 N 2523.12 1.57465 0.0651402 0
M  V30 26512 C 2524.08 2.03157 1.06113 0
M  V30 26513 C 2525.08 0.929655 1.31202 0
M  V30 26514 O 2526.27 1.19435 1.26811 0
M  V30 26515 C 2523.4 2.41788 2.40315 0
M  V30 26516 H 2524.59 2.92385 0.667179 0
M  V30 26517 H 2522.15 1.53174 0.311048 0
M  V30 26518 H 2522.88 1.55606 2.8453 0
M  V30 26519 H 2522.67 3.22203 2.23445 0
M  V30 26520 H 2524.16 2.77691 3.11893 0
M  V30 26521 N 2524.59 -0.336679 1.53962 0
M  V30 26522 C 2525.84 -1.07402 1.71199 0
M  V30 26523 C 2526.16 -1.88962 0.481509 0
M  V30 26524 O 2525.43 -1.89291 -0.504552 0
M  V30 26525 H 2524.01 -0.399506 0.631192 0
M  V30 26526 H 2526.68 -0.37629 1.91233 0
M  V30 26527 H 2525.77 -1.74751 2.5859 0
M  V30 26528 N 2526.07 -1.45812 -0.598057 0
M  V30 26529 C 2527.3 -1.53645 -1.38119 0
M  V30 26530 C 2527.71 -0.171114 -1.88425 0
M  V30 26531 O 2527.05 0.839208 -1.6341 0
M  V30 26532 C 2527.12 -2.46771 -2.61428 0
M  V30 26533 C 2526.78 -3.93322 -2.32695 0
M  V30 26534 C 2527.78 -4.82961 -1.92471 0
M  V30 26535 C 2525.46 -4.38323 -2.45313 0
M  V30 26536 C 2527.46 -6.1561 -1.65237 0
M  V30 26537 C 2525.14 -5.7101 -2.17693 0
M  V30 26538 C 2526.14 -6.59473 -1.77718 0
M  V30 26539 O 2525.83 -7.897 -1.50428 0
M  V30 26540 H 2525.56 -0.522551 -0.428854 0
M  V30 26541 H 2528.11 -1.91779 -0.735537 0
M  V30 26542 H 2526.34 -2.03626 -3.28745 0
M  V30 26543 H 2528.03 -2.45181 -3.23483 0
M  V30 26544 H 2528.8 -4.49455 -1.8225 0
M  V30 26545 H 2524.68 -3.69702 -2.75393 0
M  V30 26546 H 2528.22 -6.84617 -1.33961 0
M  V30 26547 H 2524.12 -6.04069 -2.27533 0
M  V30 26548 H 2524.89 -8.0182 -1.64401 0
M  V30 26549 N 2527.55 0.841385 -1.33261 0
M  V30 26550 C 2528.78 1.62625 -1.27423 0
M  V30 26551 C 2529.19 1.88543 0.157571 0
M  V30 26552 O 2528.53 1.46421 1.10936 0
M  V30 26553 C 2528.59 3.00191 -1.97802 0
M  V30 26554 C 2528.26 2.97255 -3.47114 0
M  V30 26555 C 2529.25 2.73151 -4.42362 0
M  V30 26556 C 2526.94 3.17471 -3.89253 0
M  V30 26557 C 2528.93 2.69286 -5.77723 0
M  V30 26558 C 2526.62 3.13232 -5.24718 0
M  V30 26559 C 2527.62 2.8917 -6.18765 0
M  V30 26560 O 2527.31 2.84829 -7.5175 0
M  V30 26561 H 2527.04 0.51282 -0.440445 0
M  V30 26562 H 2529.59 1.05634 -1.76155 0
M  V30 26563 H 2527.82 3.59025 -1.43658 0
M  V30 26564 H 2529.51 3.61034 -1.85497 0
M  V30 26565 H 2530.28 2.57286 -4.11131 0
M  V30 26566 H 2526.16 3.35221 -3.16462 0
M  V30 26567 H 2529.7 2.50425 -6.51101 0
M  V30 26568 H 2525.6 3.28644 -5.55575 0
M  V30 26569 H 2526.37 3.00689 -7.61268 0
M  V30 26570 N 2529.03 1.16688 1.05932 0
M  V30 26571 C 2530.31 0.860778 1.75642 0
M  V30 26572 C 2530.69 -0.640606 2.01145 0
M  V30 26573 O 2530.03 -1.58956 1.6415 0
M  V30 26574 C 2530.24 1.6875 3.0549 0
M  V30 26575 C 2531.59 1.90278 3.79578 0
M  V30 26576 O 2532.62 1.65646 3.15341 0
M  V30 26577 O 2531.48 2.31627 4.94986 0
M  V30 26578 H 2528.57 0.31799 0.763421 0
M  V30 26579 H 2531.12 1.27344 1.12168 0
M  V30 26580 H 2529.89 2.70616 2.82635 0
M  V30 26581 H 2529.51 1.27212 3.767 0
M  V30 26582 N 2530.51 -1.24529 0.96594 0
M  V30 26583 C 2531.44 -2.27783 0.513516 0
M  V30 26584 C 2532.42 -1.6415 -0.445945 0
M  V30 26585 O 2533.6 -1.91157 -0.342451 0
M  V30 26586 C 2530.73 -3.46731 -0.198778 0
M  V30 26587 C 2529.69 -4.22619 0.67653 0
M  V30 26588 C 2529.01 -5.34439 -0.167154 0
M  V30 26589 C 2530.31 -4.84119 1.96026 0
M  V30 26590 H 2532.01 -2.65879 1.37654 0
M  V30 26591 H 2529.55 -1.27811 0.663344 0
M  V30 26592 H 2531.51 -4.18098 -0.526493 0
M  V30 26593 H 2530.23 -3.07656 -1.09614 0
M  V30 26594 H 2528.89 -3.5305 0.987492 0
M  V30 26595 H 2528.54 -4.91604 -1.06462 0
M  V30 26596 H 2528.24 -5.86131 0.415284 0
M  V30 26597 H 2529.76 -6.08634 -0.489581 0
M  V30 26598 H 2531.18 -5.4757 1.69823 0
M  V30 26599 H 2529.57 -5.46036 2.48927 0
M  V30 26600 H 2530.64 -4.05672 2.65629 0
M  V30 26601 N 2531.99 -0.735845 -1.39367 0
M  V30 26602 C 2532.92 -0.111547 -2.33233 0
M  V30 26603 C 2533.9 0.723307 -1.53955 0
M  V30 26604 O 2535.08 0.668115 -1.82345 0
M  V30 26605 C 2532.21 0.795857 -3.38058 0
M  V30 26606 C 2531.17 0.0650968 -4.2795 0
M  V30 26607 C 2530.49 1.08957 -5.23481 0
M  V30 26608 C 2531.79 -1.09282 -5.10739 0
M  V30 26609 H 2533.49 -0.895621 -2.8569 0
M  V30 26610 H 2531.03 -0.432134 -1.37363 0
M  V30 26611 H 2532.98 1.24214 -4.02677 0
M  V30 26612 H 2531.71 1.61206 -2.84043 0
M  V30 26613 H 2530.37 -0.361575 -3.64813 0
M  V30 26614 H 2530.02 1.89936 -4.65761 0
M  V30 26615 H 2529.72 0.605386 -5.84473 0
M  V30 26616 H 2531.24 1.53554 -5.90977 0
M  V30 26617 H 2532.65 -0.72494 -5.68698 0
M  V30 26618 H 2531.05 -1.5067 -5.80877 0
M  V30 26619 H 2532.12 -1.91412 -4.45522 0
M  V30 26620 N 2533.46 1.49999 -0.483543 0
M  V30 26621 C 2534.71 2.01582 0.0688748 0
M  V30 26622 C 2535.03 1.36954 1.39653 0
M  V30 26623 O 2536.23 1.79765 2.03462 0
M  V30 26624 C 2534.69 3.59483 0.173238 0
M  V30 26625 C 2534.3 4.33075 -1.14672 0
M  V30 26626 C 2536.04 4.19068 0.67695 0
M  V30 26627 C 2533.95 5.8279 -1.00548 0
M  V30 26628 H 2532.88 0.753422 0.0295144 0
M  V30 26629 H 2535.53 1.72697 -0.620325 0
M  V30 26630 H 2533.91 3.85009 0.926501 0
M  V30 26631 H 2535.08 4.19264 -1.91192 0
M  V30 26632 H 2533.4 3.85156 -1.58251 0
M  V30 26633 H 2536 5.28684 0.799859 0
M  V30 26634 H 2536.34 3.81272 1.67144 0
M  V30 26635 H 2536.87 3.97795 -0.0192782 0
M  V30 26636 H 2533.61 6.2508 -1.97371 0
M  V30 26637 H 2533.13 5.99142 -0.280881 0
M  V30 26638 H 2534.81 6.43447 -0.677113 0
M  V30 26639 N 2534.94 0.216646 1.56104 0
M  V30 26640 C 2536.17 -0.424426 2.03011 0
M  V30 26641 C 2536.59 -1.52905 1.09553 0
M  V30 26642 O 2535.95 -1.81111 0.0828232 0
M  V30 26643 C 2536 -0.937822 3.48191 0
M  V30 26644 O 2535.1 -2.04948 3.57869 0
M  V30 26645 H 2534.44 -0.096664 0.656926 0
M  V30 26646 H 2536.97 0.333845 2.01858 0
M  V30 26647 H 2536.98 -1.2489 3.88415 0
M  V30 26648 H 2535.66 -0.129313 4.15699 0
M  V30 26649 H 2534.23 -1.74541 3.2953 0
M  V30 26650 N 2536.42 -1.57498 -0.0567885 0
M  V30 26651 C 2537.67 -1.87159 -0.751968 0
M  V30 26652 C 2537.98 -0.811406 -1.77976 0
M  V30 26653 O 2539.19 -0.996338 -2.52558 0
M  V30 26654 C 2537.64 -3.32042 -1.38838 0
M  V30 26655 C 2537.25 -4.46225 -0.398377 0
M  V30 26656 C 2539 -3.70885 -2.06505 0
M  V30 26657 C 2536.9 -5.82156 -1.04156 0
M  V30 26658 H 2535.83 -0.698227 -0.284597 0
M  V30 26659 H 2538.48 -1.83499 -0.00558046 0
M  V30 26660 H 2536.87 -3.3036 -2.18354 0
M  V30 26661 H 2538.04 -4.59328 0.368058 0
M  V30 26662 H 2536.35 -4.16034 0.174665 0
M  V30 26663 H 2538.95 -4.69745 -2.55429 0
M  V30 26664 H 2539.29 -3.0145 -2.87112 0
M  V30 26665 H 2539.83 -3.74623 -1.33801 0
M  V30 26666 H 2536.57 -6.54921 -0.275498 0
M  V30 26667 H 2536.09 -5.72826 -1.7785 0
M  V30 26668 H 2537.77 -6.27985 -1.55704 0
M  V30 26669 N 2537.9 0.328509 -1.54138 0
M  V30 26670 C 2538.85 1.40507 -1.7956 0
M  V30 26671 C 2539.83 1.47124 -0.651399 0
M  V30 26672 O 2541.02 1.51741 -0.911252 0
M  V30 26673 C 2538.15 2.77434 -2.02201 0
M  V30 26674 C 2537.24 2.75149 -3.22729 0
M  V30 26675 N 2537.63 2.42487 -4.43885 0
M  V30 26676 C 2535.93 3.06283 -3.24202 0
M  V30 26677 C 2536.63 2.48813 -5.25801 0
M  V30 26678 N 2535.6 2.85052 -4.62867 0
M  V30 26679 H 2539.41 1.14175 -2.70816 0
M  V30 26680 H 2536.92 0.536964 -1.53266 0
M  V30 26681 H 2538.92 3.55022 -2.18552 0
M  V30 26682 H 2537.58 3.047 -1.12196 0
M  V30 26683 H 2538.59 2.15419 -4.70972 0
M  V30 26684 H 2535.27 3.38623 -2.44214 0
M  V30 26685 H 2536.66 2.26592 -6.32539 0
M  V30 26686 N 2539.38 1.46127 0.590316 0
M  V30 26687 C 2540.31 1.58969 1.71029 0
M  V30 26688 C 2541.29 0.440364 1.64301 0
M  V30 26689 O 2542.47 0.665666 1.82435 0
M  V30 26690 C 2539.6 1.57246 3.09662 0
M  V30 26691 C 2538.56 2.71072 3.31216 0
M  V30 26692 C 2537.88 2.54408 4.70299 0
M  V30 26693 C 2539.18 4.12956 3.19789 0
M  V30 26694 H 2540.88 2.52721 1.60538 0
M  V30 26695 H 2538.42 1.21626 0.770912 0
M  V30 26696 H 2540.37 1.64826 3.87828 0
M  V30 26697 H 2539.1 0.600345 3.21035 0
M  V30 26698 H 2537.76 2.62949 2.55447 0
M  V30 26699 H 2537.41 1.55296 4.78427 0
M  V30 26700 H 2537.11 3.30749 4.85674 0
M  V30 26701 H 2538.63 2.63867 5.50642 0
M  V30 26702 H 2540.04 4.2223 3.87807 0
M  V30 26703 H 2538.44 4.89824 3.46688 0
M  V30 26704 H 2539.51 4.33647 2.16976 0
M  V30 26705 N 2540.85 -0.834306 1.33705 0
M  V30 26706 C 2541.76 -1.97646 1.26385 0
M  V30 26707 C 2542.78 -1.73132 0.173579 0
M  V30 26708 O 2543.96 -1.97428 0.397996 0
M  V30 26709 C 2541.02 -3.31731 1.00774 0
M  V30 26710 C 2540.08 -3.6933 2.18847 0
M  V30 26711 C 2539.31 -4.97017 1.94448 0
M  V30 26712 O 2539.54 -5.63302 0.89706 0
M  V30 26713 O 2538.47 -5.32226 2.81103 0
M  V30 26714 H 2542.3 -2.06763 2.22447 0
M  V30 26715 H 2539.88 -0.968017 1.13797 0
M  V30 26716 H 2541.76 -4.12061 0.882259 0
M  V30 26717 H 2540.44 -3.23607 0.0774352 0
M  V30 26718 H 2539.35 -2.89491 2.36951 0
M  V30 26719 H 2540.68 -3.82125 3.10228 0
M  V30 26720 N 2542.33 -1.17248 -1.05312 0
M  V30 26721 C 2543.56 -0.98518 -1.82507 0
M  V30 26722 C 2543.98 0.461756 -1.82344 0
M  V30 26723 O 2543.34 1.33053 -1.23153 0
M  V30 26724 C 2543.39 -1.52935 -3.26563 0
M  V30 26725 O 2542.49 -0.742296 -4.05665 0
M  V30 26726 H 2541.83 -0.349879 -0.564341 0
M  V30 26727 H 2544.36 -1.55718 -1.32715 0
M  V30 26728 H 2544.37 -1.5511 -3.77366 0
M  V30 26729 H 2543.05 -2.58262 -3.25996 0
M  V30 26730 H 2541.62 -0.791858 -3.64395 0
M  V30 26731 N 2543.81 1.24015 -0.972531 0
M  V30 26732 C 2544.77 2.23421 -0.511442 0
M  V30 26733 C 2545.77 1.55882 0.394651 0
M  V30 26734 O 2546.96 1.73167 0.189438 0
M  V30 26735 C 2544.1 3.39917 0.258709 0
M  V30 26736 H 2545.29 2.65727 -1.39029 0
M  V30 26737 H 2542.84 1.36711 -0.757609 0
M  V30 26738 H 2543.58 3.03056 1.15445 0
M  V30 26739 H 2543.36 3.9014 -0.391591 0
M  V30 26740 H 2544.85 4.13689 0.570172 0
M  V30 26741 N 2545.29 0.743226 1.38974 0
M  V30 26742 C 2546.53 0.299575 2.02193 0
M  V30 26743 C 2546.89 -1.09503 1.57712 0
M  V30 26744 O 2548.09 -1.63722 2.13187 0
M  V30 26745 C 2546.36 0.406885 3.55076 0
M  V30 26746 S 2547.92 0.044288 4.38778 0
M  V30 26747 H 2544.74 0.116849 0.701333 0
M  V30 26748 H 2547.34 0.971559 1.6965 0
M  V30 26749 H 2546.05 1.42302 3.84939 0
M  V30 26750 H 2545.58 -0.282638 3.92383 0
M  V30 26751 H 2547.59 -1.16939 4.82224 0
M  V30 26752 N 2546.77 -1.4974 0.491491 0
M  V30 26753 C 2548.18 -1.58923 0.146863 0
M  V30 26754 C 2548.38 -1.49769 -1.34802 0
M  V30 26755 O 2547.44 -1.3667 -2.12314 0
M  V30 26756 C 2548.75 -2.92071 0.715208 0
M  V30 26757 C 2550.3 -3.05514 0.680461 0
M  V30 26758 C 2550.77 -4.41266 1.2267 0
M  V30 26759 N 2552.27 -4.47733 1.18699 0
M  V30 26760 C 2553 -5.51204 1.57994 0
M  V30 26761 N 2552.5 -6.61827 2.04835 0
M  V30 26762 N 2554.29 -5.41863 1.49469 0
M  V30 26763 H 2546.44 -1.53933 1.4635 0
M  V30 26764 H 2548.7 -0.728631 0.606466 0
M  V30 26765 H 2548.41 -3.04308 1.76322 0
M  V30 26766 H 2548.28 -3.76816 0.170246 0
M  V30 26767 H 2550.67 -2.92912 -0.358692 0
M  V30 26768 H 2550.75 -2.22476 1.26246 0
M  V30 26769 H 2550.4 -4.54619 2.26459 0
M  V30 26770 H 2550.33 -5.22929 0.620729 0
M  V30 26771 H 2552.82 -3.68362 0.84367 0
M  V30 26772 H 2553.13 -7.36866 2.32914 0
M  V30 26773 H 2551.47 -6.62892 2.08803 0
M  V30 26774 H 2554.67 -4.54331 1.127 0
M  V30 26775 H 2554.84 -6.22378 1.80417 0
M  V30 26776 N 2548.24 -0.224922 -1.55987 0
M  V30 26777 C 2549.47 0.413654 -2.03233 0
M  V30 26778 C 2549.89 1.52322 -1.10362 0
M  V30 26779 O 2549.25 1.81064 -0.0924268 0
M  V30 26780 C 2549.3 0.919343 -3.48684 0
M  V30 26781 O 2548.4 2.03047 -3.58951 0
M  V30 26782 H 2547.75 0.0931788 -0.65743 0
M  V30 26783 H 2550.28 -0.344545 -2.01678 0
M  V30 26784 H 2550.29 1.22829 -3.89072 0
M  V30 26785 H 2548.96 0.107266 -4.15762 0
M  V30 26786 H 2547.54 1.72791 -3.30451 0
M  V30 26787 N 2549.72 1.57526 0.0484352 0
M  V30 26788 C 2551.14 1.54409 0.403723 0
M  V30 26789 C 2551.34 0.948415 1.77785 0
M  V30 26790 O 2550.39 0.561026 2.46188 0
M  V30 26791 C 2551.71 2.98957 0.323341 0
M  V30 26792 C 2553.26 3.1041 0.401837 0
M  V30 26793 C 2553.73 4.56652 0.351115 0
M  V30 26794 N 2555.22 4.61377 0.410495 0
M  V30 26795 C 2555.96 5.72046 0.393833 0
M  V30 26796 N 2555.45 6.92011 0.330602 0
M  V30 26797 N 2557.25 5.60358 0.442128 0
M  V30 26798 H 2549.4 1.94604 -0.851051 0
M  V30 26799 H 2551.66 0.891734 -0.321736 0
M  V30 26800 H 2551.37 3.46189 -0.620171 0
M  V30 26801 H 2551.24 3.60046 1.12456 0
M  V30 26802 H 2553.63 2.63137 1.33578 0
M  V30 26803 H 2553.71 2.52187 -0.428386 0
M  V30 26804 H 2553.35 5.04588 -0.579075 0
M  V30 26805 H 2553.28 5.12764 1.19919 0
M  V30 26806 H 2555.77 3.75057 0.462663 0
M  V30 26807 H 2556.09 7.72127 0.322457 0
M  V30 26808 H 2554.43 6.94365 0.296938 0
M  V30 26809 H 2557.62 4.65535 0.489382 0
M  V30 26810 H 2557.79 6.466 0.425675 0
M  V30 26811 N 2551.2 -0.32033 1.5431 0
M  V30 26812 C 2552.62 -0.664864 1.45092 0
M  V30 26813 C 2552.82 -1.91516 0.626416 0
M  V30 26814 O 2551.87 -2.52183 0.126487 0
M  V30 26815 C 2553.19 -0.83586 2.88849 0
M  V30 26816 C 2554.73 -0.932993 2.98771 0
M  V30 26817 C 2555.21 -1.13613 4.43685 0
M  V30 26818 N 2556.7 -1.2028 4.47311 0
M  V30 26819 C 2557.43 -1.37792 5.56598 0
M  V30 26820 N 2556.93 -1.52326 6.75847 0
M  V30 26821 N 2558.72 -1.40526 5.44251 0
M  V30 26822 H 2550.87 0.50141 2.06397 0
M  V30 26823 H 2553.14 0.162551 0.93396 0
M  V30 26824 H 2552.84 0.011671 3.51698 0
M  V30 26825 H 2552.72 -1.73072 3.35151 0
M  V30 26826 H 2555.1 -1.77103 2.36048 0
M  V30 26827 H 2555.19 -0.0145333 2.55796 0
M  V30 26828 H 2554.83 -0.302943 5.06996 0
M  V30 26829 H 2554.76 -2.06852 4.84272 0
M  V30 26830 H 2557.25 -1.10478 3.6139 0
M  V30 26831 H 2557.56 -1.65389 7.54895 0
M  V30 26832 H 2555.91 -1.49418 6.78748 0
M  V30 26833 H 2559.1 -1.28769 4.5004 0
M  V30 26834 H 2559.27 -1.53831 6.29476 0
M  V30 26835 N 2552.68 -1.46438 -0.582558 0
M  V30 26836 C 2553.9 -1.55565 -1.37165 0
M  V30 26837 C 2554.33 -0.197462 -1.87061 0
M  V30 26838 O 2553.69 0.822422 -1.61573 0
M  V30 26839 C 2553.73 -2.5645 -2.53506 0
M  V30 26840 O 2552.84 -2.09964 -3.54949 0
M  V30 26841 H 2552.18 -0.523484 -0.408485 0
M  V30 26842 H 2554.71 -1.92011 -0.706612 0
M  V30 26843 H 2554.72 -2.76064 -3.00421 0
M  V30 26844 H 2553.39 -3.5508 -2.16543 0
M  V30 26845 H 2551.97 -2.0034 -3.14513 0
M  V30 26846 N 2554.16 0.827204 -1.34146 0
M  V30 26847 C 2555.09 1.9428 -1.1971 0
M  V30 26848 C 2556.07 1.62352 -0.0897542 0
M  V30 26849 O 2557.25 1.86779 -0.254128 0
M  V30 26850 C 2554.38 3.28152 -0.838704 0
M  V30 26851 C 2553.42 3.79044 -1.9552 0
M  V30 26852 S 2554.26 3.99317 -3.568 0
M  V30 26853 C 2555.41 5.36122 -3.22993 0
M  V30 26854 H 2555.65 2.06227 -2.14144 0
M  V30 26855 H 2553.18 0.9823 -1.19123 0
M  V30 26856 H 2555.14 4.05501 -0.638708 0
M  V30 26857 H 2553.8 3.13979 0.0872224 0
M  V30 26858 H 2552.99 4.75945 -1.65808 0
M  V30 26859 H 2552.59 3.08627 -2.11246 0
M  V30 26860 H 2554.89 6.19381 -2.74541 0
M  V30 26861 H 2555.83 5.70815 -4.19018 0
M  V30 26862 H 2556.24 5.01429 -2.59285 0
M  V30 26863 N 2555.63 1.17805 1.04688 0
M  V30 26864 C 2556.56 0.922788 2.14492 0
M  V30 26865 C 2557.55 -0.137149 1.69546 0
M  V30 26866 O 2558.73 0.014145 1.94195 0
M  V30 26867 C 2555.86 0.440864 3.4449 0
M  V30 26868 C 2554.81 1.44057 4.03028 0
M  V30 26869 C 2554.14 0.816403 5.28431 0
M  V30 26870 C 2555.44 2.81535 4.39927 0
M  V30 26871 H 2557.13 1.84107 2.36104 0
M  V30 26872 H 2554.68 0.886619 1.13468 0
M  V30 26873 H 2556.63 0.249676 4.2066 0
M  V30 26874 H 2555.36 -0.512968 3.22546 0
M  V30 26875 H 2554.02 1.61859 3.28934 0
M  V30 26876 H 2553.66 -0.144423 5.02793 0
M  V30 26877 H 2553.36 1.48381 5.68557 0
M  V30 26878 H 2554.89 0.635603 6.07283 0
M  V30 26879 H 2556.3 2.67421 5.07108 0
M  V30 26880 H 2554.7 3.449 4.91084 0
M  V30 26881 H 2555.77 3.35561 3.50039 0
M  V30 26882 N 2557.11 -1.23497 0.979094 0
M  V30 26883 C 2558.34 -1.96454 0.66488 0
M  V30 26884 C 2558.76 -1.72007 -0.761256 0
M  V30 26885 O 2558.12 -0.99074 -1.51836 0
M  V30 26886 C 2558.17 -3.47599 0.95954 0
M  V30 26887 O 2557.27 -4.12369 0.0508893 0
M  V30 26888 H 2556.61 -0.615059 0.250196 0
M  V30 26889 H 2559.14 -1.56968 1.31233 0
M  V30 26890 H 2559.15 -3.98046 0.895712 0
M  V30 26891 H 2557.83 -3.64719 1.99882 0
M  V30 26892 H 2556.41 -3.72517 0.169015 0
M  V30 26893 N 2558.59 -0.750586 -1.38578 0
M  V30 26894 C 2559.5 -0.122866 -2.34278 0
M  V30 26895 C 2560.52 0.704103 -1.59118 0
M  V30 26896 O 2561.69 0.628954 -1.91327 0
M  V30 26897 C 2558.76 0.762027 -3.38222 0
M  V30 26898 C 2557.82 -0.0789714 -4.29227 0
M  V30 26899 C 2557.05 0.763781 -5.28206 0
M  V30 26900 O 2557.28 2.00192 -5.34116 0
M  V30 26901 O 2556.21 0.184174 -6.01618 0
M  V30 26902 H 2560.04 -0.913139 -2.89647 0
M  V30 26903 H 2557.62 -0.511442 -1.40373 0
M  V30 26904 H 2559.5 1.26786 -4.01875 0
M  V30 26905 H 2558.18 1.53085 -2.85214 0
M  V30 26906 H 2557.08 -0.630686 -3.68745 0
M  V30 26907 H 2558.42 -0.810375 -4.85483 0
M  V30 26908 N 2560.07 1.49477 -0.499425 0
M  V30 26909 C 2561.3 2.06556 0.0424476 0
M  V30 26910 C 2561.71 1.3602 1.31511 0
M  V30 26911 O 2561.05 0.431749 1.78554 0
M  V30 26912 C 2561.11 3.57611 0.368012 0
M  V30 26913 C 2560.78 4.49824 -0.80671 0
M  V30 26914 C 2561.77 4.91433 -1.69676 0
M  V30 26915 C 2559.46 4.92142 -1.00507 0
M  V30 26916 C 2561.45 5.74097 -2.76933 0
M  V30 26917 C 2559.14 5.74583 -2.08082 0
M  V30 26918 C 2560.14 6.15464 -2.9613 0
M  V30 26919 O 2559.83 6.96257 -4.01848 0
M  V30 26920 H 2559.56 0.675798 -0.0165284 0
M  V30 26921 H 2562.11 1.93265 -0.695531 0
M  V30 26922 H 2560.34 3.68905 1.15956 0
M  V30 26923 H 2562.03 3.96936 0.848311 0
M  V30 26924 H 2562.8 4.59385 -1.55532 0
M  V30 26925 H 2558.68 4.59824 -0.329117 0
M  V30 26926 H 2562.22 6.05926 -3.45686 0
M  V30 26927 H 2558.12 6.06043 -2.22221 0
M  V30 26928 H 2558.88 7.1456 -3.99182 0
M  V30 26929 N 2561.55 0.233191 1.55865 0
M  V30 26930 C 2562.8 -0.395755 1.97779 0
M  V30 26931 C 2563.11 -1.60064 1.12422 0
M  V30 26932 O 2564.32 -2.29986 1.44287 0
M  V30 26933 C 2562.77 -0.755494 3.51881 0
M  V30 26934 C 2562.38 0.42723 4.45958 0
M  V30 26935 C 2564.12 -1.34939 4.02482 0
M  V30 26936 C 2562.03 0.0444083 5.91383 0
M  V30 26937 H 2560.96 -0.151637 0.738595 0
M  V30 26938 H 2563.61 0.331243 1.80486 0
M  V30 26939 H 2561.99 -1.54024 3.64819 0
M  V30 26940 H 2563.17 1.20469 4.44774 0
M  V30 26941 H 2561.48 0.935139 4.05764 0
M  V30 26942 H 2564.08 -1.64891 5.0864 0
M  V30 26943 H 2564.42 -2.26919 3.49018 0
M  V30 26944 H 2564.96 -0.627841 3.92814 0
M  V30 26945 H 2561.69 0.930988 6.48855 0
M  V30 26946 H 2561.21 -0.697133 5.95735 0
M  V30 26947 H 2562.89 -0.378221 6.45894 0
M  V30 26948 N 2563.03 -1.57549 -0.0400806 0
M  V30 26949 C 2564.27 -1.89044 -0.734178 0
M  V30 26950 C 2564.6 -0.829566 -1.7559 0
M  V30 26951 O 2563.88 0.156672 -1.93868 0
M  V30 26952 C 2564.16 -3.3119 -1.41368 0
M  V30 26953 C 2564.02 -4.47962 -0.406221 0
M  V30 26954 C 2565.33 -3.72072 -2.35054 0
M  V30 26955 H 2562.45 -0.687542 -0.265435 0
M  V30 26956 H 2565.1 -1.9 0.00297427 0
M  V30 26957 H 2563.25 -3.30506 -2.042 0
M  V30 26958 H 2564.92 -4.60778 0.219336 0
M  V30 26959 H 2563.16 -4.32924 0.275561 0
M  V30 26960 H 2563.83 -5.44281 -0.919927 0
M  V30 26961 H 2566.31 -3.74052 -1.82275 0
M  V30 26962 H 2565.18 -4.7236 -2.79585 0
M  V30 26963 H 2565.44 -3.03726 -3.21252 0
M  V30 26964 N 2564.5 0.312142 -1.54478 0
M  V30 26965 C 2565.91 0.885862 -1.64345 0
M  V30 26966 C 2566.27 1.88482 -0.544883 0
M  V30 26967 O 2565.39 2.14016 0.32035 0
M  V30 26968 C 2565.99 1.61351 -2.97911 0
M  V30 26969 C 2564.54 2.1358 -3.09937 0
M  V30 26970 C 2563.69 0.964852 -2.59973 0
M  V30 26971 H 2566.64 0.0894249 -1.58448 0
M  V30 26972 H 2566.66 2.47843 -2.88711 0
M  V30 26973 H 2566.18 0.88621 -3.77846 0
M  V30 26974 H 2564.28 2.89391 -2.34699 0
M  V30 26975 H 2564.39 2.37797 -4.1592 0
M  V30 26976 H 2562.75 1.34727 -2.1615 0
M  V30 26977 H 2563.54 0.251682 -3.42376 0
M  V30 26978 N 2565.98 1.46745 0.574784 0
M  V30 26979 C 2566.91 1.60774 1.69334 0
M  V30 26980 C 2567.89 0.457765 1.63825 0
M  V30 26981 O 2569.08 0.684979 1.81719 0
M  V30 26982 C 2566.21 1.60522 3.07977 0
M  V30 26983 C 2565.16 2.74569 3.28323 0
M  V30 26984 C 2564.49 2.59382 4.67574 0
M  V30 26985 C 2565.79 4.16324 3.15391 0
M  V30 26986 H 2567.48 2.54409 1.57849 0
M  V30 26987 H 2565.03 1.22437 0.757968 0
M  V30 26988 H 2566.98 1.6893 3.86058 0
M  V30 26989 H 2565.7 0.634361 3.2038 0
M  V30 26990 H 2564.36 2.65644 2.52644 0
M  V30 26991 H 2564.01 1.60362 4.76753 0
M  V30 26992 H 2563.71 3.35882 4.82138 0
M  V30 26993 H 2565.24 2.69692 5.47813 0
M  V30 26994 H 2566.65 4.2632 3.83307 0
M  V30 26995 H 2565.05 4.93474 3.41473 0
M  V30 26996 H 2566.12 4.35924 2.12364 0
M  V30 26997 N 2567.46 -0.820078 1.34583 0
M  V30 26998 C 2568.69 -1.60811 1.30183 0
M  V30 26999 C 2569.1 -1.88396 -0.123518 0
M  V30 27000 O 2568.46 -1.47737 -1.07145 0
M  V30 27001 C 2568.51 -2.94735 2.09317 0
M  V30 27002 O 2568.23 -2.68352 3.46293 0
M  V30 27003 C 2569.73 -3.89132 2.12347 0
M  V30 27004 H 2566.95 -0.499774 0.447735 0
M  V30 27005 H 2569.5 -1.02014 1.77238 0
M  V30 27006 H 2567.65 -3.50082 1.65895 0
M  V30 27007 H 2568.07 -3.53767 3.87233 0
M  V30 27008 H 2569.54 -4.80257 2.72134 0
M  V30 27009 H 2570.02 -4.24716 1.11861 0
M  V30 27010 H 2570.62 -3.39721 2.5587 0
M  V30 27011 N 2568.94 -1.18359 -1.04062 0
M  V30 27012 C 2570.35 -0.983148 -1.58717 0
M  V30 27013 C 2570.7 0.46716 -1.90557 0
M  V30 27014 O 2569.82 1.34451 -1.69564 0
M  V30 27015 C 2570.42 -1.77833 -2.88376 0
M  V30 27016 C 2568.98 -1.62224 -3.39647 0
M  V30 27017 C 2568.13 -1.77278 -2.13232 0
M  V30 27018 H 2571.08 -1.32902 -0.867335 0
M  V30 27019 H 2571.1 -1.26744 -3.58771 0
M  V30 27020 H 2570.61 -2.83383 -2.65171 0
M  V30 27021 H 2568.71 -0.592101 -3.67865 0
M  V30 27022 H 2568.82 -2.4203 -4.13471 0
M  V30 27023 H 2567.19 -1.20225 -2.2454 0
M  V30 27024 H 2567.97 -2.84263 -1.92482 0
M  V30 27025 N 2570.42 1.22976 -0.98563 0
M  V30 27026 C 2571.33 2.28334 -0.538588 0
M  V30 27027 C 2572.34 1.69122 0.409134 0
M  V30 27028 O 2573.52 1.99475 0.277762 0
M  V30 27029 C 2570.58 3.46389 0.146807 0
M  V30 27030 C 2569.64 4.20942 -0.84297 0
M  V30 27031 C 2568.88 5.33361 -0.190188 0
M  V30 27032 O 2569.1 5.6125 1.01757 0
M  V30 27033 O 2568.03 5.95263 -0.891393 0
M  V30 27034 H 2571.86 2.68726 -1.41492 0
M  V30 27035 H 2569.44 1.29006 -0.753517 0
M  V30 27036 H 2571.33 4.1804 0.531051 0
M  V30 27037 H 2570 3.07937 0.997817 0
M  V30 27038 H 2568.91 3.51593 -1.27801 0
M  V30 27039 H 2570.24 4.63257 -1.66295 0
M  V30 27040 N 2571.89 0.757924 1.38178 0
M  V30 27041 C 2573.12 0.326973 2.043 0
M  V30 27042 C 2573.54 -1.04617 1.57165 0
M  V30 27043 O 2572.89 -1.66527 0.746655 0
M  V30 27044 C 2572.94 0.345427 3.59846 0
M  V30 27045 O 2572.67 1.66439 4.05253 0
M  V30 27046 C 2574.17 -0.0988491 4.4319 0
M  V30 27047 H 2571.39 0.139023 0.65644 0
M  V30 27048 H 2573.93 1.02799 1.76784 0
M  V30 27049 H 2572.09 -0.306888 3.86183 0
M  V30 27050 H 2572.5 1.59354 4.99707 0
M  V30 27051 H 2573.97 -0.0347775 5.51989 0
M  V30 27052 H 2574.45 -1.14734 4.23949 0
M  V30 27053 H 2575.06 0.524754 4.2205 0
M  V30 27054 N 2573.37 -1.4921 0.507345 0
M  V30 27055 C 2574.79 -1.58758 0.16371 0
M  V30 27056 C 2574.99 -1.5119 -1.33206 0
M  V30 27057 O 2574.04 -1.38915 -2.10853 0
M  V30 27058 C 2575.36 -2.91296 0.746146 0
M  V30 27059 C 2576.91 -3.04775 0.712826 0
M  V30 27060 C 2577.38 -4.3994 1.27344 0
M  V30 27061 N 2578.87 -4.46449 1.23441 0
M  V30 27062 C 2579.61 -5.49497 1.63831 0
M  V30 27063 N 2579.1 -6.59617 2.11843 0
M  V30 27064 N 2580.9 -5.40247 1.55208 0
M  V30 27065 H 2573.05 -1.52372 1.47974 0
M  V30 27066 H 2575.31 -0.722158 0.61416 0
M  V30 27067 H 2575.02 -3.02421 1.7954 0
M  V30 27068 H 2574.89 -3.76614 0.210203 0
M  V30 27069 H 2577.28 -2.93276 -0.327604 0
M  V30 27070 H 2577.36 -2.21124 1.28599 0
M  V30 27071 H 2577 -4.52192 2.31268 0
M  V30 27072 H 2576.93 -5.22241 0.676157 0
M  V30 27073 H 2579.42 -3.67447 0.882692 0
M  V30 27074 H 2579.74 -7.34354 2.40716 0
M  V30 27075 H 2578.08 -6.60641 2.15822 0
M  V30 27076 H 2581.27 -4.5311 1.17513 0
M  V30 27077 H 2581.44 -6.20429 1.87008 0
M  V30 27078 N 2574.85 -0.241454 -1.55739 0
M  V30 27079 C 2575.81 0.647025 -2.19878 0
M  V30 27080 C 2576.81 1.10684 -1.16644 0
M  V30 27081 O 2578 1.01243 -1.41759 0
M  V30 27082 C 2575.14 1.88866 -2.838 0
M  V30 27083 H 2576.33 0.0875213 -2.99772 0
M  V30 27084 H 2573.88 0.00810826 -1.56298 0
M  V30 27085 H 2574.62 2.48953 -2.07829 0
M  V30 27086 H 2574.4 1.56722 -3.59417 0
M  V30 27087 H 2575.89 2.52123 -3.32902 0
M  V30 27088 N 2576.33 1.57568 0.0317248 0
M  V30 27089 C 2577.58 1.88331 0.722098 0
M  V30 27090 C 2577.89 0.839618 1.76663 0
M  V30 27091 O 2579.1 1.03639 2.50941 0
M  V30 27092 C 2577.55 3.34209 1.33538 0
M  V30 27093 C 2577.16 4.46803 0.327336 0
M  V30 27094 C 2578.9 3.74124 2.00579 0
M  V30 27095 C 2576.81 5.83739 0.948812 0
M  V30 27096 H 2575.74 0.702666 0.273453 0
M  V30 27097 H 2578.39 1.83485 -0.0236134 0
M  V30 27098 H 2576.77 3.33792 2.13071 0
M  V30 27099 H 2577.95 4.58684 -0.441086 0
M  V30 27100 H 2576.26 4.15703 -0.240831 0
M  V30 27101 H 2578.86 4.73749 2.47924 0
M  V30 27102 H 2579.2 3.0598 2.8228 0
M  V30 27103 H 2579.74 3.76704 1.27824 0
M  V30 27104 H 2576.48 6.55276 0.171271 0
M  V30 27105 H 2576 5.75583 1.68714 0
M  V30 27106 H 2577.67 6.30383 1.45694 0
M  V30 27107 N 2577.81 -0.303946 1.54641 0
M  V30 27108 C 2579.03 -1.05855 1.7777 0
M  V30 27109 C 2579.45 -1.81039 0.535754 0
M  V30 27110 O 2578.81 -1.75678 -0.494306 0
M  V30 27111 C 2578.86 -2.04141 2.98344 0
M  V30 27112 O 2578.58 -1.32008 4.17739 0
M  V30 27113 C 2580.08 -2.91663 3.33838 0
M  V30 27114 H 2577.3 -0.314057 0.592967 0
M  V30 27115 H 2579.84 -0.344113 2.01584 0
M  V30 27116 H 2578 -2.71091 2.76746 0
M  V30 27117 H 2578.41 -1.97989 4.85696 0
M  V30 27118 H 2579.89 -3.56483 4.21454 0
M  V30 27119 H 2580.36 -3.59808 2.51863 0
M  V30 27120 H 2580.97 -2.30248 3.57583 0
M  V30 27121 N 2579.28 -1.47047 -0.566994 0
M  V30 27122 C 2580.21 -1.6167 -1.68479 0
M  V30 27123 C 2581.2 -0.466447 -1.6358 0
M  V30 27124 O 2582.38 -0.694606 -1.81353 0
M  V30 27125 C 2579.51 -1.62153 -3.07122 0
M  V30 27126 C 2578.46 -2.76307 -3.26862 0
M  V30 27127 C 2577.79 -2.61858 -4.66192 0
M  V30 27128 C 2579.09 -4.17991 -3.13178 0
M  V30 27129 H 2580.78 -2.55243 -1.56497 0
M  V30 27130 H 2578.33 -1.22837 -0.751465 0
M  V30 27131 H 2580.28 -1.70975 -3.85157 0
M  V30 27132 H 2579.01 -0.651343 -3.20039 0
M  V30 27133 H 2577.67 -2.6698 -2.51232 0
M  V30 27134 H 2577.31 -1.62888 -4.75896 0
M  V30 27135 H 2577.01 -3.38434 -4.8035 0
M  V30 27136 H 2578.54 -2.72593 -5.46375 0
M  V30 27137 H 2579.95 -4.28346 -3.81041 0
M  V30 27138 H 2578.35 -4.95278 -3.38851 0
M  V30 27139 H 2579.42 -4.37044 -2.10049 0
M  V30 27140 N 2580.76 0.812929 -1.35016 0
M  V30 27141 C 2582.01 1.56969 -1.27933 0
M  V30 27142 C 2582.34 1.93936 0.148 0
M  V30 27143 O 2581.59 1.61056 1.11172 0
M  V30 27144 C 2581.89 2.87343 -2.12529 0
M  V30 27145 C 2581.56 2.69623 -3.61406 0
M  V30 27146 C 2580.22 2.64498 -4.01988 0
M  V30 27147 C 2582.57 2.52599 -4.55898 0
M  V30 27148 C 2579.9 2.40284 -5.35239 0
M  V30 27149 C 2582.25 2.29915 -5.8934 0
M  V30 27150 C 2580.92 2.23208 -6.29074 0
M  V30 27151 H 2580.19 0.574391 -0.468141 0
M  V30 27152 H 2582.83 0.939806 -1.66853 0
M  V30 27153 H 2581.14 3.54676 -1.6647 0
M  V30 27154 H 2582.83 3.45002 -2.04389 0
M  V30 27155 H 2579.42 2.74457 -3.29198 0
M  V30 27156 H 2583.61 2.55575 -4.25435 0
M  V30 27157 H 2578.86 2.33556 -5.65032 0
M  V30 27158 H 2583.04 2.15731 -6.62143 0
M  V30 27159 H 2580.67 2.04207 -7.32259 0
M  V30 27160 N 2582.24 1.18909 1.03433 0
M  V30 27161 C 2583.65 0.991551 1.58193 0
M  V30 27162 C 2584 -0.457047 1.90802 0
M  V30 27163 O 2583.13 -1.3355 1.70274 0
M  V30 27164 C 2583.72 1.7936 2.87429 0
M  V30 27165 C 2582.28 1.64023 3.38782 0
M  V30 27166 C 2581.43 1.78406 2.12289 0
M  V30 27167 H 2584.38 1.3336 0.860275 0
M  V30 27168 H 2584.4 1.28645 3.58093 0
M  V30 27169 H 2583.91 2.84786 2.63664 0
M  V30 27170 H 2582.01 0.611601 3.67546 0
M  V30 27171 H 2582.13 2.4422 4.12181 0
M  V30 27172 H 2580.49 1.21414 2.23899 0
M  V30 27173 H 2581.27 2.8528 1.90972 0
M  V30 27174 N 2583.72 -1.22452 0.992137 0
M  V30 27175 C 2585.13 -1.72967 0.702807 0
M  V30 27176 C 2585.48 -1.80013 -0.780368 0
M  V30 27177 O 2584.61 -1.44591 -1.61004 0
M  V30 27178 C 2585.2 -3.14133 1.26909 0
M  V30 27179 C 2583.76 -3.62057 1.02915 0
M  V30 27180 C 2582.91 -2.39962 1.38974 0
M  V30 27181 H 2585.86 -1.0781 1.16459 0
M  V30 27182 H 2585.88 -3.74954 0.647289 0
M  V30 27183 H 2585.39 -3.08973 2.34856 0
M  V30 27184 H 2583.49 -3.72585 -0.0337324 0
M  V30 27185 H 2583.6 -4.48228 1.69199 0
M  V30 27186 H 2581.97 -2.41533 0.808322 0
M  V30 27187 H 2582.75 -2.37463 2.47924 0
M  V30 27188 N 2585.2 -0.765242 -1.37774 0
M  V30 27189 C 2586.44 -0.325978 -1.99454 0
M  V30 27190 C 2586.77 1.09944 -1.61051 0
M  V30 27191 O 2586.04 1.7538 -0.872851 0
M  V30 27192 H 2584.62 -0.117538 -0.737695 0
M  V30 27193 H 2587.28 -0.981924 -1.68358 0
M  V30 27194 H 2586.37 -0.398407 -3.09547 0
M  V30 27195 N 2586.67 1.48939 -0.515251 0
M  V30 27196 C 2588.09 1.58669 -0.172127 0
M  V30 27197 C 2588.29 1.51895 1.32402 0
M  V30 27198 O 2587.35 1.40031 2.10113 0
M  V30 27199 C 2588.66 2.90896 -0.761584 0
M  V30 27200 C 2590.21 3.04393 -0.728979 0
M  V30 27201 C 2590.68 4.39259 -1.29675 0
M  V30 27202 N 2592.17 4.45788 -1.25807 0
M  V30 27203 C 2592.91 5.4862 -1.66743 0
M  V30 27204 N 2592.4 6.58484 -2.15338 0
M  V30 27205 N 2594.2 5.39416 -1.58071 0
M  V30 27206 H 2586.35 1.51586 -1.4878 0
M  V30 27207 H 2588.61 0.71889 -0.617981 0
M  V30 27208 H 2588.32 3.01464 -1.81141 0
M  V30 27209 H 2588.19 3.76497 -0.230173 0
M  V30 27210 H 2590.58 2.93446 0.312047 0
M  V30 27211 H 2590.66 2.20439 -1.2977 0
M  V30 27212 H 2590.3 4.50959 -2.33663 0
M  V30 27213 H 2590.23 5.21875 -0.703844 0
M  V30 27214 H 2592.72 3.66973 -0.902166 0
M  V30 27215 H 2593.04 7.33067 -2.44607 0
M  V30 27216 H 2591.38 6.59487 -2.19322 0
M  V30 27217 H 2594.57 4.5248 -1.19914 0
M  V30 27218 H 2594.75 6.19429 -1.90295 0
M  V30 27219 N 2588.15 0.249709 1.55609 0
M  V30 27220 C 2589.38 -0.381269 2.03865 0
M  V30 27221 C 2589.8 -1.50546 1.12771 0
M  V30 27222 O 2589.16 -1.80894 0.121221 0
M  V30 27223 C 2589.21 -0.863754 3.50102 0
M  V30 27224 O 2588.31 -1.97311 3.62135 0
M  V30 27225 H 2587.65 -0.0827079 0.658829 0
M  V30 27226 H 2590.18 0.376587 2.01104 0
M  V30 27227 H 2590.19 -1.16623 3.90977 0
M  V30 27228 H 2588.87 -0.0411085 4.1588 0
M  V30 27229 H 2587.45 -1.67512 3.33158 0
M  V30 27230 N 2589.63 -1.57583 -0.0233682 0
M  V30 27231 C 2590.86 -1.93795 -0.724648 0
M  V30 27232 C 2591.27 -0.849942 -1.68587 0
M  V30 27233 O 2590.63 0.173172 -1.81677 0
M  V30 27234 C 2590.68 -3.29959 -1.47679 0
M  V30 27235 O 2590.4 -4.34581 -0.554145 0
M  V30 27236 C 2591.9 -3.80489 -2.27471 0
M  V30 27237 H 2589.12 -0.639459 -0.203306 0
M  V30 27238 H 2591.67 -2.04489 0.0208013 0
M  V30 27239 H 2589.82 -3.20645 -2.17407 0
M  V30 27240 H 2590.24 -5.13213 -1.08223 0
M  V30 27241 H 2591.71 -4.78259 -2.75631 0
M  V30 27242 H 2592.19 -3.11977 -3.09139 0
M  V30 27243 H 2592.79 -3.92905 -1.62806 0
M  V30 27244 N 2591.11 0.29574 -1.548 0
M  V30 27245 C 2592.02 1.38738 -1.89179 0
M  V30 27246 C 2593.04 1.5521 -0.786509 0
M  V30 27247 O 2594.21 1.69773 -1.08347 0
M  V30 27248 C 2591.28 2.73033 -2.13668 0
M  V30 27249 C 2590.34 2.65502 -3.37354 0
M  V30 27250 C 2589.57 3.93391 -3.60665 0
M  V30 27251 O 2589.79 4.93001 -2.86891 0
M  V30 27252 O 2588.73 3.94967 -4.54186 0
M  V30 27253 H 2592.55 1.12584 -2.82061 0
M  V30 27254 H 2590.14 0.49227 -1.41057 0
M  V30 27255 H 2592.02 3.5248 -2.30946 0
M  V30 27256 H 2590.7 2.99019 -1.23972 0
M  V30 27257 H 2589.6 1.84508 -3.25434 0
M  V30 27258 H 2590.94 2.44467 -4.27196 0
M  V30 27259 N 2592.59 1.47346 0.559187 0
M  V30 27260 C 2593.54 1.60088 1.68744 0
M  V30 27261 C 2594.53 0.468278 1.62799 0
M  V30 27262 O 2595.74 0.646006 1.68008 0
M  V30 27263 H 2592.11 0.503769 0.55832 0
M  V30 27264 H 2594.08 2.54904 1.55133 0
M  V30 27265 C 2592.83 1.63048 3.07101 0
M  V30 27266 H 2592.15 2.49547 3.12356 0
M  V30 27267 H 2593.59 1.76013 3.8574 0
M  V30 27268 C 2592.05 0.363416 3.34934 0
M  V30 27269 O 2592.58 -0.536346 3.98103 0
M  V30 27270 N 2590.79 0.244051 2.89573 0
M  V30 27271 H 2590.34 0.977175 2.38346 0
M  V30 27272 H 2590.29 -0.602782 3.08567 0
M  V30 27273 N 2594.07 -0.805758 1.35445 0
M  V30 27274 C 2595.31 -1.5598 1.2851 0
M  V30 27275 C 2595.63 -1.94497 -0.140012 0
M  V30 27276 O 2594.9 -1.63663 -1.07663 0
M  V30 27277 H 2593.48 -0.578426 0.472686 0
M  V30 27278 H 2596.15 -0.961068 1.69557 0
M  V30 27279 H 2595.24 -2.47484 1.90153 0
M  V30 27280 N 2595.54 -1.19456 -1.02801 0
M  V30 27281 C 2596.49 -0.900863 -2.09448 0
M  V30 27282 C 2597.48 0.134687 -1.60335 0
M  V30 27283 O 2598.67 -0.0711235 -1.76857 0
M  V30 27284 C 2595.8 -0.442289 -3.40439 0
M  V30 27285 C 2594.88 -1.51063 -3.96284 0
M  V30 27286 N 2595.28 -2.73028 -4.25781 0
M  V30 27287 C 2593.57 -1.37412 -4.24304 0
M  V30 27288 C 2594.27 -3.41856 -4.70648 0
M  V30 27289 N 2593.25 -2.69251 -4.72234 0
M  V30 27290 H 2597.05 -1.82783 -2.30147 0
M  V30 27291 H 2594.57 -1.08686 -1.2067 0
M  V30 27292 H 2596.56 -0.213333 -4.16354 0
M  V30 27293 H 2595.22 0.478182 -3.2116 0
M  V30 27294 H 2596.23 -3.09783 -4.15036 0
M  V30 27295 H 2592.91 -0.517176 -4.14284 0
M  V30 27296 H 2594.3 -4.46161 -5.02385 0
M  V30 27297 N 2597.02 1.21924 -0.998617 0
M  V30 27298 C 2598.43 1.72592 -0.71197 0
M  V30 27299 C 2598.78 1.80424 0.77081 0
M  V30 27300 O 2597.91 1.45443 1.60235 0
M  V30 27301 C 2598.5 3.13456 -1.28573 0
M  V30 27302 C 2597.06 3.61506 -1.04834 0
M  V30 27303 C 2596.21 2.39221 -1.40244 0
M  V30 27304 H 2599.16 1.07191 -1.17029 0
M  V30 27305 H 2599.18 3.74605 -0.667164 0
M  V30 27306 H 2598.69 3.07723 -2.36492 0
M  V30 27307 H 2596.79 3.72597 0.0139728 0
M  V30 27308 H 2596.91 4.47325 -1.71574 0
M  V30 27309 H 2595.27 2.41101 -0.821119 0
M  V30 27310 H 2596.05 2.36145 -2.4918 0
M  V30 27311 N 2598.5 0.772537 1.37367 0
M  V30 27312 C 2599.92 0.452258 1.53058 0
M  V30 27313 C 2600.12 -1.032 1.73067 0
M  V30 27314 O 2599.17 -1.81781 1.75248 0
M  V30 27315 C 2600.48 1.26802 2.72657 0
M  V30 27316 C 2602.03 1.26 2.86519 0
M  V30 27317 C 2602.51 2.05912 4.09102 0
M  V30 27318 N 2604 2.0327 4.16216 0
M  V30 27319 C 2604.73 2.61884 5.10102 0
M  V30 27320 N 2604.23 3.29289 6.09542 0
M  V30 27321 N 2606.02 2.5171 5.02592 0
M  V30 27322 H 2598.17 1.73423 1.22631 0
M  V30 27323 H 2600.44 0.73625 0.597194 0
M  V30 27324 H 2600.14 2.31987 2.64339 0
M  V30 27325 H 2600.02 0.897736 3.66361 0
M  V30 27326 H 2602.4 0.216133 2.94307 0
M  V30 27327 H 2602.48 1.66992 1.93771 0
M  V30 27328 H 2602.13 3.1032 4.02074 0
M  V30 27329 H 2602.06 1.62301 5.00965 0
M  V30 27330 H 2604.55 1.54198 3.45009 0
M  V30 27331 H 2604.86 3.71386 6.77711 0
M  V30 27332 H 2603.21 3.33388 6.09818 0
M  V30 27333 H 2606.4 1.98665 4.23851 0
M  V30 27334 H 2606.57 2.97684 5.75577 0
M  V30 27335 N 2599.98 -1.48664 0.523142 0
M  V30 27336 C 2600.93 -2.26477 -0.263066 0
M  V30 27337 C 2601.91 -1.32282 -0.915982 0
M  V30 27338 O 2603.1 -1.56864 -0.819919 0
M  V30 27339 C 2600.23 -3.17176 -1.31356 0
M  V30 27340 C 2599.32 -4.18842 -0.665775 0
M  V30 27341 N 2599.71 -5.05209 0.244522 0
M  V30 27342 C 2598.01 -4.36328 -0.923787 0
M  V30 27343 C 2598.71 -5.78413 0.617545 0
M  V30 27344 N 2597.68 -5.43596 -0.0197731 0
M  V30 27345 H 2601.49 -2.90628 0.437346 0
M  V30 27346 H 2599 -1.58786 0.340703 0
M  V30 27347 H 2601 -3.71574 -1.89045 0
M  V30 27348 H 2599.66 -2.5458 -2.01542 0
M  V30 27349 H 2600.67 -5.14215 0.616712 0
M  V30 27350 H 2597.35 -3.84926 -1.61673 0
M  V30 27351 H 2598.74 -6.57918 1.36357 0
M  V30 27352 N 2601.46 -0.257958 -1.55475 0
M  V30 27353 C 2602.7 0.362974 -1.98814 0
M  V30 27354 C 2603.02 1.57655 -1.1476 0
M  V30 27355 O 2602.29 1.9451 -0.23299 0
M  V30 27356 H 2600.87 0.1371 -0.734311 0
M  V30 27357 H 2603.54 -0.359314 -1.91559 0
M  V30 27358 H 2602.63 0.66458 -3.04942 0
M  V30 27359 N 2602.93 1.57593 0.0150108 0
M  V30 27360 C 2603.86 2.10505 1.01044 0
M  V30 27361 C 2604.85 1.01074 1.36814 0
M  V30 27362 O 2606.03 1.28675 1.45452 0
M  V30 27363 C 2603.16 2.59602 2.30703 0
M  V30 27364 C 2602.11 3.73425 2.09136 0
M  V30 27365 C 2601.44 4.0878 3.44678 0
M  V30 27366 C 2602.74 5.01301 1.4661 0
M  V30 27367 H 2604.43 2.93926 0.569926 0
M  V30 27368 H 2601.98 1.41394 0.272699 0
M  V30 27369 H 2603.93 2.95243 3.00682 0
M  V30 27370 H 2602.66 1.73284 2.7684 0
M  V30 27371 H 2601.32 3.38155 1.41586 0
M  V30 27372 H 2600.96 3.19507 3.8849 0
M  V30 27373 H 2600.66 4.85456 3.31068 0
M  V30 27374 H 2602.19 4.46967 4.15996 0
M  V30 27375 H 2603.6 5.34809 2.06525 0
M  V30 27376 H 2602 5.82682 1.43534 0
M  V30 27377 H 2603.07 4.82958 0.433526 0
M  V30 27378 N 2604.41 -0.287527 1.54955 0
M  V30 27379 C 2605.82 -0.859604 1.65734 0
M  V30 27380 C 2606.17 -1.87591 0.5748 0
M  V30 27381 O 2605.3 -2.14498 -0.286261 0
M  V30 27382 C 2605.89 -1.56592 3.00441 0
M  V30 27383 C 2604.45 -2.08622 3.13295 0
M  V30 27384 C 2603.6 -0.92337 2.61475 0
M  V30 27385 H 2606.55 -0.0642059 1.5857 0
M  V30 27386 H 2606.57 -2.43219 2.92617 0
M  V30 27387 H 2606.08 -0.825986 3.79208 0
M  V30 27388 H 2604.19 -2.85621 2.39273 0
M  V30 27389 H 2604.3 -2.3115 4.19651 0
M  V30 27390 H 2602.66 -1.31271 2.18266 0
M  V30 27391 H 2603.45 -0.197181 3.42733 0
M  V30 27392 N 2605.89 -1.47641 -0.551365 0
M  V30 27393 C 2607.14 -1.5426 -1.30569 0
M  V30 27394 C 2607.46 -0.208997 -1.93877 0
M  V30 27395 O 2606.73 0.767588 -1.80236 0
M  V30 27396 H 2605.31 -0.56824 -0.484884 0
M  V30 27397 H 2607.97 -1.83975 -0.64337 0
M  V30 27398 H 2607.07 -2.3123 -2.09617 0
M  V30 27399 N 2607.37 0.798563 -1.3587 0
M  V30 27400 C 2608.61 1.55834 -1.29783 0
M  V30 27401 C 2608.95 1.93795 0.125287 0
M  V30 27402 O 2608.22 1.61989 1.07656 0
M  V30 27403 C 2608.51 2.84158 -2.21193 0
M  V30 27404 C 2608.36 2.52622 -3.72159 0
M  V30 27405 C 2609.68 3.8592 -2.11551 0
M  V30 27406 H 2606.8 0.565375 -0.472779 0
M  V30 27407 H 2609.44 0.918163 -1.66342 0
M  V30 27408 H 2607.59 3.38788 -1.90145 0
M  V30 27409 H 2609.26 2.04113 -4.13685 0
M  V30 27410 H 2607.5 1.85697 -3.92045 0
M  V30 27411 H 2608.17 3.44234 -4.31517 0
M  V30 27412 H 2610.65 3.40712 -2.38861 0
M  V30 27413 H 2609.53 4.73473 -2.77696 0
M  V30 27414 H 2609.79 4.28198 -1.09994 0
M  V30 27415 N 2608.85 1.19999 1.02166 0
M  V30 27416 C 2610.09 1.00507 1.75336 0
M  V30 27417 C 2610.42 -0.464473 1.89388 0
M  V30 27418 O 2609.69 -1.33605 1.43271 0
M  V30 27419 H 2608.27 0.368896 0.649557 0
M  V30 27420 H 2610.93 1.51021 1.23202 0
M  V30 27421 H 2610.02 1.45917 2.75889 0
M  V30 27422 N 2610.32 -1.21392 1.00507 0
M  V30 27423 C 2611.57 -1.90743 0.688826 0
M  V30 27424 C 2611.9 -1.77915 -0.778455 0
M  V30 27425 O 2611.18 -1.15584 -1.56431 0
M  V30 27426 C 2611.46 -3.42543 1.11069 0
M  V30 27427 C 2611.31 -3.64362 2.63743 0
M  V30 27428 C 2612.63 -4.34922 0.673135 0
M  V30 27429 H 2609.75 -0.692683 0.251714 0
M  V30 27430 H 2612.39 -1.43024 1.25076 0
M  V30 27431 H 2610.54 -3.83315 0.632575 0
M  V30 27432 H 2612.22 -3.32916 3.19319 0
M  V30 27433 H 2610.46 -3.08225 3.05253 0
M  V30 27434 H 2611.13 -4.70722 2.88313 0
M  V30 27435 H 2613.61 -4.01732 1.08399 0
M  V30 27436 H 2612.48 -5.39779 0.996478 0
M  V30 27437 H 2612.74 -4.40045 -0.425731 0
M  V30 27438 N 2611.8 -0.779811 -1.36955 0
M  V30 27439 C 2613.03 -0.359434 -2.03754 0
M  V30 27440 C 2613.45 1.02103 -1.58809 0
M  V30 27441 O 2612.8 1.65318 -0.773053 0
M  V30 27442 C 2612.85 -0.402631 -3.59251 0
M  V30 27443 O 2612.57 -1.72865 -4.02553 0
M  V30 27444 C 2614.08 0.0283289 -4.43291 0
M  V30 27445 H 2611.3 -0.149449 -0.654145 0
M  V30 27446 H 2613.84 -1.05598 -1.75126 0
M  V30 27447 H 2611.99 0.24541 -3.86622 0
M  V30 27448 H 2612.41 -1.67283 -4.97108 0
M  V30 27449 H 2613.88 -0.0530436 -5.51975 0
M  V30 27450 H 2614.36 1.07975 -4.25721 0
M  V30 27451 H 2614.97 -0.591832 -4.21162 0
M  V30 27452 N 2613.28 1.48384 -0.531019 0
M  V30 27453 C 2614.51 2.069 -0.00137759 0
M  V30 27454 C 2614.92 1.38742 1.28047 0
M  V30 27455 O 2614.28 0.475275 1.76203 0
M  V30 27456 C 2614.33 3.60798 0.225192 0
M  V30 27457 O 2614.05 4.26396 -1.00587 0
M  V30 27458 C 2615.55 4.36111 0.795096 0
M  V30 27459 H 2612.77 0.670139 -0.0339822 0
M  V30 27460 H 2615.32 1.90759 -0.736959 0
M  V30 27461 H 2613.47 3.7654 0.910825 0
M  V30 27462 H 2613.89 5.18558 -0.787256 0
M  V30 27463 H 2615.36 5.44563 0.903047 0
M  V30 27464 H 2615.84 4.0061 1.80024 0
M  V30 27465 H 2616.44 4.25049 0.145995 0
M  V30 27466 N 2614.76 0.2662 1.55336 0
M  V30 27467 C 2615.98 -0.359625 2.04258 0
M  V30 27468 C 2616.41 -1.49342 1.14362 0
M  V30 27469 O 2615.77 -1.80756 0.1404 0
M  V30 27470 C 2615.81 -0.826573 3.50999 0
M  V30 27471 O 2614.92 -1.93459 3.64208 0
M  V30 27472 H 2614.26 -0.0757154 0.659669 0
M  V30 27473 H 2616.79 0.397896 2.00694 0
M  V30 27474 H 2616.8 -1.1247 3.92192 0
M  V30 27475 H 2615.47 0.00300343 4.159 0
M  V30 27476 H 2614.05 -1.63969 3.34916 0
M  V30 27477 N 2616.24 -1.57599 -0.0066531 0
M  V30 27478 C 2617.17 -2.11038 -0.999259 0
M  V30 27479 C 2618.15 -1.01798 -1.36276 0
M  V30 27480 O 2619.33 -1.29445 -1.44768 0
M  V30 27481 C 2616.46 -2.60822 -2.29323 0
M  V30 27482 C 2615.42 -3.74529 -2.07153 0
M  V30 27483 C 2614.74 -4.10602 -3.42505 0
M  V30 27484 C 2616.04 -5.02071 -1.4395 0
M  V30 27485 H 2617.74 -2.94224 -0.55433 0
M  V30 27486 H 2615.28 -1.41537 -0.265197 0
M  V30 27487 H 2617.24 -2.96833 -2.99112 0
M  V30 27488 H 2615.96 -1.7475 -2.75917 0
M  V30 27489 H 2614.62 -3.38901 -1.39791 0
M  V30 27490 H 2614.27 -3.21563 -3.8679 0
M  V30 27491 H 2613.97 -4.87205 -3.28489 0
M  V30 27492 H 2615.49 -4.49167 -4.1362 0
M  V30 27493 H 2616.9 -5.35896 -2.03686 0
M  V30 27494 H 2615.3 -5.83435 -1.40442 0
M  V30 27495 H 2616.37 -4.83181 -0.407908 0
M  V30 27496 N 2617.72 0.279305 -1.55105 0
M  V30 27497 C 2619.13 0.626161 -1.46804 0
M  V30 27498 C 2619.33 1.89788 -0.676972 0
M  V30 27499 O 2618.39 2.51759 -0.193304 0
M  V30 27500 C 2619.7 0.758983 -2.90964 0
M  V30 27501 C 2621.25 0.853451 -3.0114 0
M  V30 27502 C 2621.72 1.0181 -4.46541 0
M  V30 27503 N 2623.21 1.08378 -4.50343 0
M  V30 27504 C 2623.95 1.22986 -5.60055 0
M  V30 27505 N 2623.45 1.34354 -6.79648 0
M  V30 27506 N 2625.24 1.26046 -5.47785 0
M  V30 27507 H 2617.39 -0.555957 -2.04995 0
M  V30 27508 H 2619.65 -0.187256 -0.929322 0
M  V30 27509 H 2619.36 -0.104913 -3.51543 0
M  V30 27510 H 2619.23 1.64125 -3.39622 0
M  V30 27511 H 2621.62 1.70782 -2.40661 0
M  V30 27512 H 2621.7 -0.0532916 -2.55744 0
M  V30 27513 H 2621.34 0.168415 -5.07621 0
M  V30 27514 H 2621.27 1.9394 -4.89587 0
M  V30 27515 H 2623.77 1.00858 -3.64192 0
M  V30 27516 H 2624.08 1.45317 -7.59014 0
M  V30 27517 H 2622.42 1.3137 -6.82471 0
M  V30 27518 H 2625.61 1.16792 -4.53296 0
M  V30 27519 H 2625.79 1.37087 -6.33333 0
M  V30 27520 N 2619.19 1.47931 0.543528 0
M  V30 27521 C 2620.6 1.48955 1.12558 0
M  V30 27522 C 2620.96 0.251788 1.94578 0
M  V30 27523 O 2620.08 -0.642219 2.06651 0
M  V30 27524 C 2620.68 2.69896 2.04797 0
M  V30 27525 C 2619.23 2.73835 2.58246 0
M  V30 27526 C 2618.38 2.42268 1.34914 0
M  V30 27527 H 2621.33 1.55243 0.329443 0
M  V30 27528 H 2621.35 2.47644 2.88882 0
M  V30 27529 H 2620.87 3.59965 1.45074 0
M  V30 27530 H 2618.97 1.8794 3.21729 0
M  V30 27531 H 2619.08 3.74901 2.98306 0
M  V30 27532 H 2617.44 1.93137 1.66043 0
M  V30 27533 H 2618.23 3.34562 0.769634 0
M  V30 27534 N 2620.67 -0.791347 1.36292 0
M  V30 27535 C 2622.08 -1.36639 1.27227 0
M  V30 27536 C 2622.43 -1.95999 -0.0887624 0
M  V30 27537 O 2621.56 -1.92418 -0.990173 0
M  V30 27538 C 2622.15 -2.48417 2.30379 0
M  V30 27539 C 2620.71 -3.01742 2.25009 0
M  V30 27540 C 2619.86 -1.74807 2.15263 0
M  V30 27541 H 2622.81 -0.593147 1.47199 0
M  V30 27542 H 2622.83 -3.27382 1.93911 0
M  V30 27543 H 2622.34 -2.05183 3.29426 0
M  V30 27544 H 2620.44 -3.494 1.29423 0
M  V30 27545 H 2620.56 -3.58687 3.17616 0
M  V30 27546 H 2618.92 -1.96963 1.61486 0
M  V30 27547 H 2619.7 -1.33704 3.16193 0
M  V30 27548 N 2622.15 -1.2054 -1.01528 0
M  V30 27549 C 2623.1 -0.923027 -2.08481 0
M  V30 27550 C 2624.08 0.117673 -1.60469 0
M  V30 27551 O 2625.28 -0.0898775 -1.76772 0
M  V30 27552 C 2622.4 -0.478372 -3.39951 0
M  V30 27553 C 2621.49 -1.55257 -3.94659 0
M  V30 27554 N 2621.88 -2.77529 -4.22861 0
M  V30 27555 C 2620.18 -1.41904 -4.22823 0
M  V30 27556 C 2620.88 -3.46828 -4.66996 0
M  V30 27557 N 2619.86 -2.74245 -4.69351 0
M  V30 27558 H 2623.66 -1.85213 -2.28196 0
M  V30 27559 H 2621.17 -1.09959 -1.1951 0
M  V30 27560 H 2623.17 -0.257481 -4.16104 0
M  V30 27561 H 2621.83 0.444092 -3.21649 0
M  V30 27562 H 2622.84 -3.14168 -4.11727 0
M  V30 27563 H 2619.52 -0.561088 -4.13713 0
M  V30 27564 H 2620.91 -4.51464 -4.97624 0
M  V30 27565 N 2623.63 1.20858 -1.01149 0
M  V30 27566 C 2624.58 2.21309 -0.548286 0
M  V30 27567 C 2625.56 1.56011 0.393618 0
M  V30 27568 O 2626.75 1.7566 0.217414 0
M  V30 27569 C 2623.88 3.431 0.117192 0
M  V30 27570 C 2622.97 4.15574 -0.846116 0
M  V30 27571 N 2623.36 4.64511 -2.00157 0
M  V30 27572 C 2621.66 4.41001 -0.665861 0
M  V30 27573 C 2622.36 5.19973 -2.60773 0
M  V30 27574 N 2621.33 5.09732 -1.88877 0
M  V30 27575 H 2625.14 2.56807 -1.42925 0
M  V30 27576 H 2622.65 1.36737 -0.876166 0
M  V30 27577 H 2624.65 4.14281 0.466547 0
M  V30 27578 H 2623.31 3.09109 0.994061 0
M  V30 27579 H 2624.32 4.59886 -2.3817 0
M  V30 27580 H 2621 4.1718 0.163383 0
M  V30 27581 H 2622.39 5.68249 -3.58529 0
M  V30 27582 N 2625.11 0.787064 1.3654 0
M  V30 27583 C 2626.35 0.358376 1.99304 0
M  V30 27584 C 2626.68 -1.0693 1.62469 0
M  V30 27585 O 2625.94 -1.75296 0.87005 0
M  V30 27586 C 2626.23 0.466547 3.54342 0
M  V30 27587 C 2625.9 1.85469 4.10989 0
M  V30 27588 C 2624.56 2.2345 4.26173 0
M  V30 27589 C 2626.91 2.76374 4.4189 0
M  V30 27590 C 2624.24 3.51744 4.69567 0
M  V30 27591 C 2626.59 4.04093 4.86715 0
M  V30 27592 C 2625.26 4.42099 5.00104 0
M  V30 27593 H 2624.53 0.131139 0.729303 0
M  V30 27594 H 2627.18 1.00407 1.63067 0
M  V30 27595 H 2625.48 -0.262651 3.90919 0
M  V30 27596 H 2627.18 0.115924 4.00832 0
M  V30 27597 H 2623.77 1.54954 3.99609 0
M  V30 27598 H 2627.95 2.48285 4.2973 0
M  V30 27599 H 2623.21 3.81065 4.78121 0
M  V30 27600 H 2627.38 4.74649 5.0959 0
M  V30 27601 H 2625.01 5.41567 5.33488 0
M  V30 27602 N 2626.58 -1.48101 0.53888 0
M  V30 27603 C 2627.81 -2.07397 0.0103059 0
M  V30 27604 C 2628.23 -1.39155 -1.2656 0
M  V30 27605 O 2627.59 -0.460417 -1.75356 0
M  V30 27606 C 2627.64 -3.60112 -0.187539 0
M  V30 27607 O 2626.74 -3.92864 -1.25426 0
M  V30 27608 H 2626.08 -0.662599 0.0431091 0
M  V30 27609 H 2628.61 -1.90384 0.749335 0
M  V30 27610 H 2628.62 -4.0596 -0.407446 0
M  V30 27611 H 2627.3 -4.09183 0.744458 0
M  V30 27612 H 2625.88 -3.58784 -1.0163 0
M  V30 27613 N 2628.06 -0.274434 -1.55192 0
M  V30 27614 C 2629.47 0.223456 -1.85358 0
M  V30 27615 C 2629.82 1.55498 -1.19645 0
M  V30 27616 O 2628.95 2.10906 -0.484535 0
M  V30 27617 C 2629.54 0.412226 -3.36283 0
M  V30 27618 C 2628.1 0.854349 -3.66576 0
M  V30 27619 C 2627.25 -0.0527543 -2.7725 0
M  V30 27620 H 2630.2 -0.496242 -1.50742 0
M  V30 27621 H 2630.22 1.25088 -3.59351 0
M  V30 27622 H 2629.73 -0.557032 -3.84082 0
M  V30 27623 H 2627.83 1.8351 -3.24276 0
M  V30 27624 H 2627.95 0.692143 -4.74074 0
M  V30 27625 H 2626.31 0.46344 -2.50448 0
M  V30 27626 H 2627.09 -1.01788 -3.27863 0
M  V30 27627 N 2629.54 1.576 -0.00170483 0
M  V30 27628 C 2630.95 1.78694 0.540879 0
M  V30 27629 C 2631.3 0.909278 1.73858 0
M  V30 27630 O 2630.43 0.112214 2.16109 0
M  V30 27631 C 2631.02 3.24074 0.988003 0
M  V30 27632 C 2629.58 3.46258 1.47588 0
M  V30 27633 C 2628.73 2.73979 0.427872 0
M  V30 27634 H 2631.68 1.57056 -0.227867 0
M  V30 27635 H 2631.7 3.3228 1.85392 0
M  V30 27636 H 2631.21 3.87926 0.116095 0
M  V30 27637 H 2629.31 2.87623 2.36863 0
M  V30 27638 H 2629.43 4.54941 1.50217 0
M  V30 27639 H 2627.79 2.38648 0.889892 0
M  V30 27640 H 2628.57 3.40532 -0.435098 0
M  V30 27641 N 2631.02 -0.271076 1.55251 0
M  V30 27642 C 2632.26 -1.01005 1.777 0
M  V30 27643 C 2632.62 -1.83428 0.567278 0
M  V30 27644 O 2633.82 -2.60315 0.670059 0
M  V30 27645 C 2632.09 -1.86766 3.04718 0
M  V30 27646 S 2633.65 -2.66903 3.48293 0
M  V30 27647 H 2630.47 -0.340161 0.624349 0
M  V30 27648 H 2633.07 -0.280281 1.9348 0
M  V30 27649 H 2631.78 -1.25142 3.90855 0
M  V30 27650 H 2631.31 -2.6406 2.91609 0
M  V30 27651 H 2633.32 -3.8926 3.07719 0
M  V30 27652 N 2632.5 -1.48217 -0.535675 0
M  V30 27653 C 2633.74 -1.55944 -1.29181 0
M  V30 27654 C 2634.07 -0.230891 -1.93125 0
M  V30 27655 O 2633.33 0.7783 -1.79558 0
M  V30 27656 C 2633.63 -2.64216 -2.40675 0
M  V30 27657 C 2633.29 -4.06831 -1.94421 0
M  V30 27658 C 2631.95 -4.45648 -1.81524 0
M  V30 27659 C 2634.31 -4.96228 -1.59396 0
M  V30 27660 C 2631.63 -5.71674 -1.31929 0
M  V30 27661 C 2633.99 -6.22738 -1.11265 0
M  V30 27662 C 2632.65 -6.60417 -0.969808 0
M  V30 27663 H 2631.92 -0.570641 -0.472705 0
M  V30 27664 H 2634.57 -1.8191 -0.598405 0
M  V30 27665 H 2632.87 -2.32088 -3.15661 0
M  V30 27666 H 2634.57 -2.67412 -2.98817 0
M  V30 27667 H 2631.16 -3.76172 -2.05409 0
M  V30 27668 H 2635.34 -4.6692 -1.68223 0
M  V30 27669 H 2630.6 -5.99598 -1.19552 0
M  V30 27670 H 2634.77 -6.91408 -0.832332 0
M  V30 27671 H 2632.4 -7.57959 -0.583302 0
M  V30 27672 N 2633.97 0.784108 -1.3671 0
M  V30 27673 C 2635.22 1.54449 -1.31429 0
M  V30 27674 C 2635.55 1.93917 0.104726 0
M  V30 27675 O 2634.83 1.63122 1.05931 0
M  V30 27676 C 2635.11 2.81796 -2.24194 0
M  V30 27677 C 2634.96 2.4866 -3.74817 0
M  V30 27678 C 2636.28 3.83654 -2.15633 0
M  V30 27679 H 2633.4 0.560329 -0.478749 0
M  V30 27680 H 2636.04 0.900468 -1.67307 0
M  V30 27681 H 2634.19 3.36752 -1.93728 0
M  V30 27682 H 2635.87 1.99714 -4.15827 0
M  V30 27683 H 2634.11 1.81528 -3.93992 0
M  V30 27684 H 2634.78 3.39638 -4.35144 0
M  V30 27685 H 2637.26 3.38159 -2.42461 0
M  V30 27686 H 2636.13 4.70501 -2.82702 0
M  V30 27687 H 2636.39 4.27007 -1.1453 0
M  V30 27688 N 2635.45 1.21076 1.00888 0
M  V30 27689 C 2636.42 0.968165 2.07748 0
M  V30 27690 C 2637.42 -0.0593163 1.60691 0
M  V30 27691 O 2638.61 0.177555 1.73293 0
M  V30 27692 C 2635.74 0.459168 3.37794 0
M  V30 27693 H 2636.93 1.91614 2.30703 0
M  V30 27694 H 2634.48 1.02721 1.17805 0
M  V30 27695 H 2635.22 -0.493914 3.20517 0
M  V30 27696 H 2635 1.20025 3.73278 0
M  V30 27697 H 2636.49 0.309173 4.16454 0
M  V30 27698 N 2636.93 -1.2032 1.01789 0
M  V30 27699 C 2637.89 -2.21369 0.594011 0
M  V30 27700 C 2638.89 -1.57239 -0.336525 0
M  V30 27701 O 2640.08 -1.73751 -0.125038 0
M  V30 27702 C 2637.22 -3.40643 -0.132373 0
M  V30 27703 H 2638.41 -2.60384 1.48796 0
M  V30 27704 H 2635.96 -1.33805 0.807826 0
M  V30 27705 H 2636.7 -3.07132 -1.04117 0
M  V30 27706 H 2636.48 -3.88418 0.536119 0
M  V30 27707 H 2637.97 -4.1552 -0.416241 0
M  V30 27708 N 2638.41 -0.794293 -1.3612 0
M  V30 27709 C 2639.34 -0.210369 -2.3255 0
M  V30 27710 C 2640.32 0.657359 -1.56885 0
M  V30 27711 O 2641.5 0.590174 -1.85015 0
M  V30 27712 C 2638.63 0.651759 -3.4113 0
M  V30 27713 C 2637.59 -0.11647 -4.27841 0
M  V30 27714 C 2636.91 0.866567 -5.27631 0
M  V30 27715 C 2638.21 -1.30846 -5.05645 0
M  V30 27716 H 2639.91 -1.01599 -2.81635 0
M  V30 27717 H 2637.45 -0.490005 -1.35407 0
M  V30 27718 H 2639.41 1.07023 -4.07583 0
M  V30 27719 H 2638.13 1.49013 -2.90624 0
M  V30 27720 H 2636.79 -0.515979 -3.62951 0
M  V30 27721 H 2636.44 1.70011 -4.73398 0
M  V30 27722 H 2636.14 0.356947 -5.86515 0
M  V30 27723 H 2637.66 1.28351 -5.96958 0
M  V30 27724 H 2639.08 -0.965492 -5.65112 0
M  V30 27725 H 2637.47 -1.75171 -5.73964 0
M  V30 27726 H 2638.54 -2.10136 -4.37002 0
M  V30 27727 N 2639.89 1.47813 -0.546727 0
M  V30 27728 C 2641.3 1.86372 -0.110597 0
M  V30 27729 C 2641.65 1.45451 1.31675 0
M  V30 27730 O 2640.77 0.852793 1.98888 0
M  V30 27731 C 2641.37 3.38244 -0.193933 0
M  V30 27732 C 2639.93 3.75935 0.187098 0
M  V30 27733 C 2639.07 2.71867 -0.546214 0
M  V30 27734 H 2642.03 1.39479 -0.757047 0
M  V30 27735 H 2642.05 3.75896 0.590152 0
M  V30 27736 H 2641.56 3.67997 -1.23288 0
M  V30 27737 H 2639.66 3.51798 1.22755 0
M  V30 27738 H 2639.77 4.78819 -0.164167 0
M  V30 27739 H 2638.14 2.54698 0.00949427 0
M  V30 27740 H 2638.92 3.04462 -1.58612 0
M  V30 27741 N 2641.36 0.28266 1.55044 0
M  V30 27742 C 2642.33 -0.588501 2.21516 0
M  V30 27743 C 2643.33 -1.07552 1.19537 0
M  V30 27744 O 2644.52 -0.974489 1.44393 0
M  V30 27745 C 2641.65 -1.81275 2.88708 0
M  V30 27746 H 2642.84 -0.00801126 2.99899 0
M  V30 27747 H 2640.4 0.0333342 1.56264 0
M  V30 27748 H 2641.13 -2.43356 2.14356 0
M  V30 27749 H 2640.92 -1.47137 3.63446 0
M  V30 27750 H 2642.41 -2.43208 3.3947 0
M  V30 27751 N 2642.84 -1.57597 0.0100627 0
M  V30 27752 C 2643.81 -2.07988 -0.962993 0
M  V30 27753 C 2644.81 -0.991195 -1.26617 0
M  V30 27754 O 2646 -1.25349 -1.20968 0
M  V30 27755 C 2643.13 -2.52978 -2.28506 0
M  V30 27756 H 2644.32 -2.95235 -0.526919 0
M  V30 27757 H 2641.87 -1.54483 -0.237612 0
M  V30 27758 H 2642.61 -1.69004 -2.76782 0
M  V30 27759 H 2642.39 -3.32497 -2.07818 0
M  V30 27760 H 2643.88 -2.92256 -2.98289 0
M  V30 27761 N 2644.32 0.262839 -1.55393 0
M  V30 27762 C 2645.57 0.991116 -1.76129 0
M  V30 27763 C 2645.89 1.86449 -0.571116 0
M  V30 27764 O 2645.16 1.91483 0.413664 0
M  V30 27765 H 2643.74 0.368936 -0.649534 0
M  V30 27766 H 2646.4 0.284621 -1.92811 0
M  V30 27767 H 2645.5 1.62214 -2.66633 0
M  V30 27768 N 2645.8 1.48499 0.527807 0
M  V30 27769 C 2646.76 1.62699 1.61436 0
M  V30 27770 C 2647.76 0.500163 1.52823 0
M  V30 27771 O 2648.95 0.766003 1.56455 0
M  V30 27772 C 2646.08 1.59923 3.01061 0
M  V30 27773 H 2647.28 2.59585 1.50185 0
M  V30 27774 H 2644.83 1.37128 0.750031 0
M  V30 27775 H 2645.56 0.645219 3.17817 0
M  V30 27776 H 2645.35 2.41731 3.08721 0
M  V30 27777 H 2646.84 1.73057 3.80054 0
M  V30 27778 N 2647.28 -0.776847 1.37123 0
M  V30 27779 C 2648.24 -1.87158 1.32304 0
M  V30 27780 C 2649.24 -1.59174 0.228127 0
M  V30 27781 O 2650.43 -1.67351 0.483672 0
M  V30 27782 C 2647.56 -3.24195 1.05406 0
M  V30 27783 H 2648.76 -1.92844 2.29676 0
M  V30 27784 H 2646.31 -0.976038 1.22079 0
M  V30 27785 H 2647.04 -3.24187 0.0854442 0
M  V30 27786 H 2646.83 -3.45898 1.84654 0
M  V30 27787 H 2648.32 -4.04269 1.04671 0
M  V30 27788 N 2648.76 -1.2161 -1.00244 0
M  V30 27789 C 2649.67 -0.993746 -2.12513 0
M  V30 27790 C 2650.68 0.0549633 -1.73913 0
M  V30 27791 O 2651.86 -0.135654 -2.00943 0
M  V30 27792 C 2648.92 -0.564013 -3.42082 0
M  V30 27793 C 2647.98 -1.68523 -3.9484 0
M  V30 27794 C 2647.22 -1.27591 -5.18224 0
M  V30 27795 O 2647.44 -0.150606 -5.70201 0
M  V30 27796 O 2646.37 -2.0888 -5.64493 0
M  V30 27797 H 2650.2 -1.93412 -2.34149 0
M  V30 27798 H 2647.78 -1.0012 -1.10889 0
M  V30 27799 H 2649.67 -0.334268 -4.20072 0
M  V30 27800 H 2648.34 0.347608 -3.21828 0
M  V30 27801 H 2647.25 -1.96941 -3.18065 0
M  V30 27802 H 2648.58 -2.57437 -4.19508 0
M  V30 27803 N 2650.23 1.19778 -1.02425 0
M  V30 27804 C 2651.2 2.21051 -0.605742 0
M  V30 27805 C 2652.2 1.57415 0.328181 0
M  V30 27806 O 2653.39 1.73815 0.115822 0
M  V30 27807 C 2650.52 3.40708 0.114306 0
M  V30 27808 H 2651.71 2.59591 -1.50174 0
M  V30 27809 H 2649.26 1.33375 -0.814911 0
M  V30 27810 H 2650 3.0768 1.02487 0
M  V30 27811 H 2649.78 3.88128 -0.55671 0
M  V30 27812 H 2651.27 4.15735 0.394199 0
M  V30 27813 N 2651.71 0.801501 1.35697 0
M  V30 27814 C 2653.12 0.441105 1.81414 0
M  V30 27815 C 2653.47 -1.03633 1.66597 0
M  V30 27816 O 2652.6 -1.80497 1.19372 0
M  V30 27817 C 2653.19 0.793877 3.29368 0
M  V30 27818 C 2651.75 0.486149 3.73247 0
M  V30 27819 C 2650.9 1.02217 2.57773 0
M  V30 27820 H 2653.85 0.993593 1.23747 0
M  V30 27821 H 2653.87 0.0894827 3.80395 0
M  V30 27822 H 2653.38 1.86923 3.4012 0
M  V30 27823 H 2651.48 -0.580671 3.68048 0
M  V30 27824 H 2651.6 1.01522 4.6822 0
M  V30 27825 H 2649.96 0.444756 2.50787 0
M  V30 27826 H 2650.74 2.10353 2.71305 0
M  V30 27827 N 2653.19 -1.47521 0.554558 0
M  V30 27828 C 2654.15 -2.28459 -0.184134 0
M  V30 27829 C 2655.15 -1.36797 -0.84517 0
M  V30 27830 O 2656.34 -1.59454 -0.701439 0
M  V30 27831 C 2653.47 -3.16401 -1.26898 0
M  V30 27832 H 2654.67 -2.95237 0.526803 0
M  V30 27833 H 2652.22 -1.53167 0.311402 0
M  V30 27834 H 2652.96 -2.54309 -2.01239 0
M  V30 27835 H 2652.74 -3.83856 -0.799816 0
M  V30 27836 H 2654.23 -3.77392 -1.78788 0
M  V30 27837 N 2654.67 -0.290879 -1.54892 0
M  V30 27838 C 2656.08 0.0628152 -1.59476 0
M  V30 27839 C 2656.28 1.53278 -1.30798 0
M  V30 27840 O 2655.34 2.28404 -1.07648 0
M  V30 27841 C 2656.65 -0.326014 -2.98927 0
M  V30 27842 C 2658.2 -0.273937 -3.11799 0
M  V30 27843 C 2658.68 -0.637438 -4.53542 0
M  V30 27844 N 2660.17 -0.589587 -4.59432 0
M  V30 27845 C 2660.9 -0.84345 -5.67163 0
M  V30 27846 N 2660.4 -1.16275 -6.82973 0
M  V30 27847 N 2662.19 -0.771189 -5.56785 0
M  V30 27848 H 2654.34 -1.24899 -1.71796 0
M  V30 27849 H 2656.6 -0.505677 -0.80187 0
M  V30 27850 H 2656.31 -1.34893 -3.24803 0
M  V30 27851 H 2656.18 0.325375 -3.75794 0
M  V30 27852 H 2658.57 0.739715 -2.85679 0
M  V30 27853 H 2658.65 -0.959808 -2.3711 0
M  V30 27854 H 2658.3 -1.64885 -4.80391 0
M  V30 27855 H 2658.23 0.070394 -5.26553 0
M  V30 27856 H 2660.72 -0.353318 -3.76245 0
M  V30 27857 H 2661.03 -1.34271 -7.61046 0
M  V30 27858 H 2659.38 -1.20069 -6.8455 0
M  V30 27859 H 2662.57 -0.521465 -4.65186 0
M  V30 27860 H 2662.74 -0.972408 -6.40662 0
M  V30 27861 N 2656.15 1.57589 -0.0184203 0
M  V30 27862 C 2657.08 2.12601 0.965559 0
M  V30 27863 C 2658.06 1.03953 1.3464 0
M  V30 27864 O 2659.24 1.31731 1.4269 0
M  V30 27865 C 2656.37 2.64438 2.25145 0
M  V30 27866 C 2655.33 3.77777 2.01168 0
M  V30 27867 C 2654.65 4.15999 3.35929 0
M  V30 27868 C 2655.95 5.04298 1.35944 0
M  V30 27869 H 2657.65 2.95068 0.507452 0
M  V30 27870 H 2655.19 1.41941 0.242646 0
M  V30 27871 H 2657.14 3.01554 2.94352 0
M  V30 27872 H 2655.87 1.79117 2.73102 0
M  V30 27873 H 2654.53 3.41082 1.34382 0
M  V30 27874 H 2654.18 3.27676 3.81625 0
M  V30 27875 H 2653.88 4.92369 3.20696 0
M  V30 27876 H 2655.4 4.5569 4.06422 0
M  V30 27877 H 2656.81 5.39069 1.95135 0
M  V30 27878 H 2655.21 5.85595 1.31142 0
M  V30 27879 H 2656.28 4.83769 0.330986 0
M  V30 27880 N 2657.62 -0.254594 1.5553 0
M  V30 27881 C 2658.85 -1.00569 1.81385 0
M  V30 27882 C 2659.27 -1.7846 0.59445 0
M  V30 27883 O 2658.63 -1.75462 -0.456372 0
M  V30 27884 C 2658.68 -1.92539 3.04895 0
M  V30 27885 O 2657.78 -3.01596 2.81271 0
M  V30 27886 H 2657.12 -0.286576 0.598974 0
M  V30 27887 H 2659.65 -0.277917 2.02704 0
M  V30 27888 H 2659.66 -2.3415 3.34123 0
M  V30 27889 H 2658.34 -1.35263 3.9329 0
M  V30 27890 H 2656.92 -2.64169 2.6319 0
M  V30 27891 N 2659.1 -1.48777 -0.519925 0
M  V30 27892 C 2660.51 -1.50727 -1.10174 0
M  V30 27893 C 2660.86 -0.282712 -1.94152 0
M  V30 27894 O 2659.99 0.609261 -2.07646 0
M  V30 27895 C 2660.58 -2.7312 -2.00477 0
M  V30 27896 C 2659.14 -2.77909 -2.53857 0
M  V30 27897 C 2658.29 -2.44383 -1.31042 0
M  V30 27898 H 2661.24 -1.55747 -0.304703 0
M  V30 27899 H 2661.26 -2.52208 -2.84906 0
M  V30 27900 H 2660.77 -3.62228 -1.39329 0
M  V30 27901 H 2658.87 -1.93034 -3.18698 0
M  V30 27902 H 2658.99 -3.79599 -2.92304 0
M  V30 27903 H 2657.35 -1.95754 -1.62949 0
M  V30 27904 H 2658.13 -3.35744 -0.716311 0
M  V30 27905 N 2660.58 0.769564 -1.37534 0
M  V30 27906 C 2661.54 1.86454 -1.33295 0
M  V30 27907 C 2662.54 1.5905 -0.236565 0
M  V30 27908 O 2663.73 1.67092 -0.49254 0
M  V30 27909 C 2660.86 3.23631 -1.07124 0
M  V30 27910 H 2662.06 1.91623 -2.30696 0
M  V30 27911 H 2659.61 0.96955 -1.22594 0
M  V30 27912 H 2660.35 3.24138 -0.102635 0
M  V30 27913 H 2660.13 3.44914 -1.86485 0
M  V30 27914 H 2661.62 4.03709 -1.06813 0
M  V30 27915 N 2662.06 1.22139 0.995977 0
M  V30 27916 C 2663.31 1.03824 1.72926 0
M  V30 27917 C 2663.62 -0.427411 1.90873 0
M  V30 27918 O 2664.83 -0.730166 2.61497 0
M  V30 27919 C 2663.28 1.80919 3.11121 0
M  V30 27920 C 2662.89 3.31713 3.01116 0
M  V30 27921 C 2664.63 1.71041 3.88517 0
M  V30 27922 C 2662.54 4.01261 4.34446 0
M  V30 27923 H 2661.47 0.384881 0.648369 0
M  V30 27924 H 2664.12 1.45961 1.1121 0
M  V30 27925 H 2662.5 1.31579 3.73501 0
M  V30 27926 H 2663.68 3.88423 2.4792 0
M  V30 27927 H 2661.99 3.42232 2.37204 0
M  V30 27928 H 2664.59 2.20327 4.87196 0
M  V30 27929 H 2664.93 0.670268 4.10869 0
M  V30 27930 H 2665.47 2.17907 3.32808 0
M  V30 27931 H 2662.21 5.05516 4.17294 0
M  V30 27932 H 2661.73 3.49339 4.87568 0
M  V30 27933 H 2663.4 4.06683 5.03208 0
M  V30 27934 N 2663.54 -1.19233 1.03059 0
M  V30 27935 C 2664.95 -1.70643 0.757479 0
M  V30 27936 C 2665.3 -1.82405 -0.722703 0
M  V30 27937 O 2664.42 -1.4964 -1.56322 0
M  V30 27938 C 2665.02 -3.09937 1.36838 0
M  V30 27939 C 2663.58 -3.586 1.14382 0
M  V30 27940 C 2662.72 -2.35419 1.46537 0
M  V30 27941 H 2665.68 -1.0405 1.1983 0
M  V30 27942 H 2665.7 -3.72705 0.76625 0
M  V30 27943 H 2665.21 -3.01344 2.44567 0
M  V30 27944 H 2663.31 -3.72503 0.0848197 0
M  V30 27945 H 2663.42 -4.42618 1.83373 0
M  V30 27946 H 2661.79 -2.38839 0.884754 0
M  V30 27947 H 2662.57 -2.29455 2.55353 0
M  V30 27948 N 2665.01 -0.808686 -1.3527 0
M  V30 27949 C 2665.94 -0.235022 -2.32314 0
M  V30 27950 C 2666.93 0.640682 -1.57573 0
M  V30 27951 O 2668.11 0.570518 -1.85631 0
M  V30 27952 C 2665.24 0.615541 -3.41802 0
M  V30 27953 C 2664.19 -0.161842 -4.27694 0
M  V30 27954 C 2663.52 0.810556 -5.28521 0
M  V30 27955 C 2664.82 -1.36202 -5.04229 0
M  V30 27956 H 2666.51 -1.0458 -2.80541 0
M  V30 27957 H 2664.06 -0.504339 -1.34879 0
M  V30 27958 H 2666.01 1.02695 -4.08695 0
M  V30 27959 H 2664.74 1.45923 -2.92189 0
M  V30 27960 H 2663.4 -0.554446 -3.62383 0
M  V30 27961 H 2663.04 1.6498 -4.75174 0
M  V30 27962 H 2662.74 0.294719 -5.8686 0
M  V30 27963 H 2664.27 1.22012 -5.98285 0
M  V30 27964 H 2665.68 -1.02538 -5.64056 0
M  V30 27965 H 2664.08 -1.81249 -5.72074 0
M  V30 27966 H 2665.15 -2.14759 -4.34749 0
M  V30 27967 N 2666.49 1.47225 -0.562374 0
M  V30 27968 C 2667.4 2.33866 0.185425 0
M  V30 27969 C 2668.42 1.4851 0.906687 0
M  V30 27970 O 2669.59 1.81427 0.874426 0
M  V30 27971 C 2666.66 3.25308 1.19899 0
M  V30 27972 C 2665.72 4.26556 0.484594 0
M  V30 27973 C 2664.95 5.13629 1.44987 0
M  V30 27974 O 2665.18 5.0325 2.68506 0
M  V30 27975 O 2664.11 5.94007 0.971538 0
M  V30 27976 H 2667.94 2.99121 -0.525413 0
M  V30 27977 H 2665.52 1.45868 -0.322942 0
M  V30 27978 H 2667.4 3.81778 1.78393 0
M  V30 27979 H 2666.08 2.62675 1.89165 0
M  V30 27980 H 2664.99 3.73832 -0.141671 0
M  V30 27981 H 2666.32 4.91918 -0.16672 0
M  V30 27982 N 2667.97 0.299089 1.54736 0
M  V30 27983 C 2668.93 -0.564973 2.22128 0
M  V30 27984 C 2669.93 -1.06278 1.20671 0
M  V30 27985 O 2671.12 -0.959119 1.45419 0
M  V30 27986 C 2668.26 -1.78203 2.90614 0
M  V30 27987 H 2669.45 0.0237975 2.99891 0
M  V30 27988 H 2667 0.0499063 1.5622 0
M  V30 27989 H 2667.74 -2.41068 2.16925 0
M  V30 27990 H 2667.52 -1.43274 3.64986 0
M  V30 27991 H 2669.01 -2.39594 3.4203 0
M  V30 27992 N 2669.45 -1.57577 0.0267774 0
M  V30 27993 C 2670.38 -2.1311 -0.95427 0
M  V30 27994 C 2671.36 -1.04665 -1.34086 0
M  V30 27995 O 2672.54 -1.32486 -1.4199 0
M  V30 27996 C 2669.67 -2.65628 -2.23739 0
M  V30 27997 C 2668.63 -3.78839 -1.99162 0
M  V30 27998 C 2667.95 -4.17775 -3.33719 0
M  V30 27999 C 2669.25 -5.05012 -1.33268 0
M  V30 28000 H 2670.95 -2.95333 -0.491796 0
M  V30 28001 H 2668.49 -1.42068 -0.235115 0
M  V30 28002 H 2670.45 -3.03111 -2.92748 0
M  V30 28003 H 2669.17 -1.80563 -2.72148 0
M  V30 28004 H 2667.83 -3.4179 -1.32571 0
M  V30 28005 H 2667.48 -3.29695 -3.79882 0
M  V30 28006 H 2667.18 -4.94063 -3.18081 0
M  V30 28007 H 2668.7 -4.57839 -4.03999 0
M  V30 28008 H 2670.12 -5.40096 -1.92273 0
M  V30 28009 H 2668.51 -5.86282 -1.28035 0
M  V30 28010 H 2669.58 -4.83938 -0.305326 0
M  V30 28011 N 2670.93 0.246342 -1.55663 0
M  V30 28012 C 2672.34 0.594881 -1.48099 0
M  V30 28013 C 2672.54 1.88309 -0.717077 0
M  V30 28014 O 2671.6 2.51292 -0.246663 0
M  V30 28015 C 2672.91 0.697094 -2.92508 0
M  V30 28016 C 2674.46 0.789383 -3.02882 0
M  V30 28017 C 2674.93 0.923153 -4.486 0
M  V30 28018 N 2676.43 0.988009 -4.5254 0
M  V30 28019 C 2677.16 1.11079 -5.62538 0
M  V30 28020 N 2676.66 1.19907 -6.82345 0
M  V30 28021 N 2678.45 1.14399 -5.50336 0
M  V30 28022 H 2670.6 -0.599314 -2.03769 0
M  V30 28023 H 2672.86 -0.206926 -0.925141 0
M  V30 28024 H 2672.57 -0.179457 -3.51242 0
M  V30 28025 H 2672.44 1.56884 -3.43026 0
M  V30 28026 H 2674.83 1.65639 -2.44229 0
M  V30 28027 H 2674.91 -0.107527 -2.55574 0
M  V30 28028 H 2674.56 0.0607034 -5.07864 0
M  V30 28029 H 2674.49 1.83511 -4.9359 0
M  V30 28030 H 2676.98 0.931102 -3.6625 0
M  V30 28031 H 2677.29 1.29184 -7.61926 0
M  V30 28032 H 2675.63 1.16864 -6.85104 0
M  V30 28033 H 2678.83 1.0715 -4.55671 0
M  V30 28034 H 2679 1.23623 -6.36099 0
M  V30 28035 N 2672.4 1.4905 0.512027 0
M  V30 28036 C 2673.68 1.48476 1.27335 0
M  V30 28037 C 2674.06 0.206338 2.10089 0
M  V30 28038 O 2673.41 -0.811571 2.13602 0
M  V30 28039 C 2673.62 2.7573 2.13949 0
M  V30 28040 C 2674.97 3.2478 2.73501 0
M  V30 28041 O 2675.99 2.76771 2.24224 0
M  V30 28042 O 2674.85 4.08367 3.63178 0
M  V30 28043 H 2671.94 0.593772 0.575642 0
M  V30 28044 H 2674.49 1.61303 0.527204 0
M  V30 28045 H 2673.26 3.60275 1.52702 0
M  V30 28046 H 2672.89 2.6571 2.95777 0
M  V30 28047 N 2673.88 -0.762259 1.3794 0
M  V30 28048 C 2674.83 -1.8758 1.3447 0
M  V30 28049 C 2675.8 -1.64784 0.208662 0
M  V30 28050 O 2676.98 -1.8657 0.399527 0
M  V30 28051 C 2674.12 -3.2477 1.16698 0
M  V30 28052 C 2673.24 -3.59457 2.39614 0
M  V30 28053 C 2672.37 -4.85905 2.1464 0
M  V30 28054 C 2671.41 -5.13351 3.33373 0
M  V30 28055 N 2670.55 -6.30991 3.07888 0
M  V30 28056 H 2675.39 -1.89881 2.29672 0
M  V30 28057 H 2672.93 -0.928199 1.14118 0
M  V30 28058 H 2674.88 -4.03923 1.04412 0
M  V30 28059 H 2673.51 -3.2182 0.25139 0
M  V30 28060 H 2672.57 -2.75214 2.62605 0
M  V30 28061 H 2673.88 -3.75672 3.28134 0
M  V30 28062 H 2673.03 -5.72982 1.9944 0
M  V30 28063 H 2671.77 -4.71811 1.23472 0
M  V30 28064 H 2670.78 -4.24745 3.49101 0
M  V30 28065 H 2672 -5.29347 4.25404 0
M  V30 28066 H 2669.95 -6.18237 2.19359 0
M  V30 28067 H 2669.86 -6.47666 3.89955 0
M  V30 28068 H 2671.13 -7.20979 2.96326 0
M  V30 28069 N 2675.36 -1.22666 -0.989486 0
M  V30 28070 C 2676.32 -1.00109 -2.06181 0
M  V30 28071 C 2677.32 0.0337443 -1.60765 0
M  V30 28072 O 2678.51 -0.205102 -1.72988 0
M  V30 28073 C 2675.65 -0.512849 -3.3702 0
M  V30 28074 H 2676.84 -1.9526 -2.27626 0
M  V30 28075 H 2674.39 -1.04582 -1.16156 0
M  V30 28076 H 2675.13 0.44286 -3.21262 0
M  V30 28077 H 2674.91 -1.25949 -3.71321 0
M  V30 28078 H 2676.4 -0.375388 -4.15909 0
M  V30 28079 N 2676.84 1.18685 -1.0369 0
M  V30 28080 C 2677.77 2.24402 -0.645446 0
M  V30 28081 C 2678.75 1.66471 0.349482 0
M  V30 28082 O 2679.94 1.92828 0.230419 0
M  V30 28083 C 2677.07 3.473 -0.00371441 0
M  V30 28084 C 2676.02 4.17956 -0.921779 0
M  V30 28085 C 2675.35 5.34504 -0.144723 0
M  V30 28086 C 2676.65 4.71867 -2.23918 0
M  V30 28087 H 2678.34 2.57401 -1.52922 0
M  V30 28088 H 2675.89 1.23726 -0.736733 0
M  V30 28089 H 2677.84 4.20456 0.281835 0
M  V30 28090 H 2676.56 3.13524 0.914908 0
M  V30 28091 H 2675.22 3.46692 -1.19165 0
M  V30 28092 H 2674.87 4.96975 0.776186 0
M  V30 28093 H 2674.57 5.82712 -0.756308 0
M  V30 28094 H 2676.09 6.10453 0.133897 0
M  V30 28095 H 2677.51 5.36737 -2.01459 0
M  V30 28096 H 2675.9 5.30594 -2.80339 0
M  V30 28097 H 2676.97 3.89495 -2.88829 0
M  V30 28098 N 2678.32 0.815849 1.34839 0
M  V30 28099 C 2679.73 0.500724 1.51542 0
M  V30 28100 C 2679.93 -0.976413 1.76262 0
M  V30 28101 O 2678.99 -1.76114 1.80943 0
M  V30 28102 C 2680.3 1.35412 2.68485 0
M  V30 28103 C 2681.85 1.35051 2.82365 0
M  V30 28104 C 2682.33 2.18823 4.02344 0
M  V30 28105 N 2683.82 2.16409 4.09538 0
M  V30 28106 C 2684.55 2.7798 5.01512 0
M  V30 28107 N 2684.05 3.48514 5.98757 0
M  V30 28108 N 2685.84 2.67572 4.94329 0
M  V30 28109 H 2677.99 1.77236 1.17052 0
M  V30 28110 H 2680.25 0.754876 0.573468 0
M  V30 28111 H 2679.96 2.40279 2.56825 0
M  V30 28112 H 2679.83 1.01384 3.6332 0
M  V30 28113 H 2682.22 0.309655 2.93471 0
M  V30 28114 H 2682.3 1.73072 1.8836 0
M  V30 28115 H 2681.95 3.22955 3.91998 0
M  V30 28116 H 2681.88 1.78157 4.95548 0
M  V30 28117 H 2684.37 1.65096 3.39929 0
M  V30 28118 H 2684.68 3.92758 6.65553 0
M  V30 28119 H 2683.03 3.5262 5.98903 0
M  V30 28120 H 2686.22 2.12049 4.17316 0
M  V30 28121 H 2686.39 3.15844 5.65815 0
M  V30 28122 N 2679.8 -1.46924 0.570174 0
M  V30 28123 C 2680.73 -2.27153 -0.218322 0
M  V30 28124 C 2681.71 -1.34856 -0.908447 0
M  V30 28125 O 2682.89 -1.64252 -0.924846 0
M  V30 28126 C 2680.02 -3.1225 -1.31215 0
M  V30 28127 C 2679.06 -4.2022 -0.729203 0
M  V30 28128 S 2679.9 -5.33736 0.434253 0
M  V30 28129 C 2681.05 -6.22399 -0.661078 0
M  V30 28130 H 2681.29 -2.93681 0.462444 0
M  V30 28131 H 2678.82 -1.50221 0.356779 0
M  V30 28132 H 2680.78 -3.61846 -1.9385 0
M  V30 28133 H 2679.44 -2.45059 -1.96481 0
M  V30 28134 H 2678.63 -4.79541 -1.55101 0
M  V30 28135 H 2678.23 -3.73572 -0.178771 0
M  V30 28136 H 2680.52 -6.59532 -1.54994 0
M  V30 28137 H 2681.47 -7.08022 -0.104921 0
M  V30 28138 H 2681.88 -5.56284 -0.959584 0
M  V30 28139 N 2681.27 -0.307291 -1.54575 0
M  V30 28140 C 2682.2 0.55903 -2.26709 0
M  V30 28141 C 2683.18 1.13277 -1.26895 0
M  V30 28142 O 2684.37 1.16094 -1.55679 0
M  V30 28143 C 2681.5 1.72796 -3.01262 0
M  V30 28144 C 2680.45 1.28428 -4.08277 0
M  V30 28145 C 2679.78 2.53887 -4.7058 0
M  V30 28146 C 2681.08 0.410946 -5.20681 0
M  V30 28147 H 2682.77 -0.0426286 -2.9937 0
M  V30 28148 H 2680.32 -0.0219426 -1.43983 0
M  V30 28149 H 2682.27 2.34017 -3.50448 0
M  V30 28150 H 2681 2.35596 -2.26191 0
M  V30 28151 H 2679.66 0.695098 -3.5995 0
M  V30 28152 H 2679.3 3.15015 -3.92141 0
M  V30 28153 H 2679 2.24899 -5.42858 0
M  V30 28154 H 2680.53 3.15899 -5.22532 0
M  V30 28155 H 2681.94 0.928997 -5.65723 0
M  V30 28156 H 2680.34 0.214559 -5.99716 0
M  V30 28157 H 2681.41 -0.562372 -4.81628 0
M  V30 28158 N 2682.75 1.57561 -0.0351337 0
M  V30 28159 C 2684 1.91668 0.640926 0
M  V30 28160 C 2684.32 0.912712 1.72321 0
M  V30 28161 O 2683.59 -0.0448745 1.95849 0
M  V30 28162 H 2682.17 0.707487 0.23973 0
M  V30 28163 H 2684.83 1.94717 -0.0843552 0
M  V30 28164 H 2683.93 2.92454 1.08982 0
M  V30 28165 N 2684.23 -0.238084 1.55791 0
M  V30 28166 C 2685.14 -1.31621 1.94198 0
M  V30 28167 C 2686.16 -1.52184 0.843572 0
M  V30 28168 O 2687.33 -1.65635 1.14573 0
M  V30 28169 C 2684.4 -2.64914 2.23654 0
M  V30 28170 C 2683.46 -2.52798 3.46975 0
M  V30 28171 C 2682.69 -3.79734 3.75017 0
M  V30 28172 O 2682.91 -4.82014 3.0499 0
M  V30 28173 O 2681.85 -3.77838 4.68532 0
M  V30 28174 H 2685.67 -1.02038 2.86045 0
M  V30 28175 H 2683.26 -0.439578 1.42787 0
M  V30 28176 H 2685.14 -3.43665 2.43869 0
M  V30 28177 H 2683.82 -2.94212 1.34984 0
M  V30 28178 H 2682.72 -1.72303 3.32058 0
M  V30 28179 H 2684.06 -2.28443 4.35975 0
M  V30 28180 N 2685.71 -1.4932 -0.504115 0
M  V30 28181 C 2686.67 -1.65247 -1.58827 0
M  V30 28182 C 2687.67 -0.524412 -1.52008 0
M  V30 28183 O 2688.86 -0.790797 -1.55216 0
M  V30 28184 C 2685.99 -1.64692 -2.98478 0
M  V30 28185 H 2687.19 -2.61942 -1.46036 0
M  V30 28186 H 2684.74 -1.38304 -0.72812 0
M  V30 28187 H 2685.47 -0.695699 -3.1675 0
M  V30 28188 H 2685.26 -2.46612 -3.04836 0
M  V30 28189 H 2686.75 -1.79082 -3.77252 0
M  V30 28190 N 2687.19 0.754933 -1.38342 0
M  V30 28191 C 2688.43 1.51626 -1.34675 0
M  V30 28192 C 2688.76 1.94096 0.0635695 0
M  V30 28193 O 2688.04 1.65332 1.02447 0
M  V30 28194 C 2688.32 2.76977 -2.30121 0
M  V30 28195 C 2688.18 2.40654 -3.80008 0
M  V30 28196 C 2689.49 3.78994 -2.23722 0
M  V30 28197 H 2686.61 0.550048 -0.490527 0
M  V30 28198 H 2689.26 0.864777 -1.69179 0
M  V30 28199 H 2687.41 3.32567 -2.00827 0
M  V30 28200 H 2689.08 1.90849 -4.19969 0
M  V30 28201 H 2687.32 1.7313 -3.97754 0
M  V30 28202 H 2687.99 3.30332 -4.4225 0
M  V30 28203 H 2690.47 3.3294 -2.4958 0
M  V30 28204 H 2689.34 4.64398 -2.92618 0
M  V30 28205 H 2689.6 4.24482 -1.23561 0
M  V30 28206 N 2688.66 1.23189 0.982967 0
M  V30 28207 C 2690.08 0.993989 1.24868 0
M  V30 28208 C 2690.28 -0.306463 1.99156 0
M  V30 28209 O 2689.34 -1.02656 2.3069 0
M  V30 28210 C 2690.65 2.1992 2.05074 0
M  V30 28211 C 2692.2 2.24383 2.18223 0
M  V30 28212 C 2692.67 3.44484 3.01819 0
M  V30 28213 N 2694.16 3.44707 3.09404 0
M  V30 28214 C 2694.9 4.34291 3.74405 0
M  V30 28215 N 2694.39 5.34108 4.41249 0
M  V30 28216 N 2696.19 4.22041 3.71265 0
M  V30 28217 H 2688.34 2.06783 0.485217 0
M  V30 28218 H 2690.6 0.90664 0.276963 0
M  V30 28219 H 2690.31 3.14281 1.57861 0
M  V30 28220 H 2690.18 2.20795 3.05825 0
M  V30 28221 H 2692.57 1.30564 2.64645 0
M  V30 28222 H 2692.65 2.27542 1.16869 0
M  V30 28223 H 2692.29 4.3861 2.56094 0
M  V30 28224 H 2692.22 3.38566 4.03336 0
M  V30 28225 H 2694.71 2.72485 2.61841 0
M  V30 28226 H 2695.03 5.98725 4.88618 0
M  V30 28227 H 2693.37 5.3801 4.39966 0
M  V30 28228 H 2696.56 3.43307 3.18211 0
M  V30 28229 H 2696.74 4.9206 4.21641 0
M  V30 28230 N 2690.14 -1.18133 1.04318 0
M  V30 28231 C 2691.42 -1.8405 0.662199 0
M  V30 28232 C 2691.8 -1.92871 -0.858135 0
M  V30 28233 O 2691.15 -1.45655 -1.7606 0
M  V30 28234 C 2691.36 -3.2221 1.34096 0
M  V30 28235 C 2692.7 -3.98217 1.47337 0
M  V30 28236 O 2693.73 -3.31659 1.29927 0
M  V30 28237 O 2692.59 -5.17476 1.75731 0
M  V30 28238 H 2689.68 -0.793786 0.232019 0
M  V30 28239 H 2692.23 -1.25504 1.14223 0
M  V30 28240 H 2691 -3.10707 2.37859 0
M  V30 28241 H 2690.62 -3.88414 0.849717 0
M  V30 28242 N 2691.62 -0.822988 -1.34405 0
M  V30 28243 C 2692.87 -0.41028 -1.97892 0
M  V30 28244 C 2693.19 1.03014 -1.65569 0
M  V30 28245 O 2692.46 1.7152 -0.946451 0
M  V30 28246 H 2691.04 -0.14872 -0.732046 0
M  V30 28247 H 2693.7 -1.05245 -1.64041 0
M  V30 28248 H 2692.8 -0.529338 -3.07578 0
M  V30 28249 N 2693.1 1.4662 -0.577957 0
M  V30 28250 C 2694.35 2.02006 -0.0616015 0
M  V30 28251 C 2694.67 1.45242 1.30114 0
M  V30 28252 O 2693.94 0.635322 1.85312 0
M  V30 28253 H 2692.52 0.746738 -0.0197823 0
M  V30 28254 H 2695.18 1.7978 -0.752663 0
M  V30 28255 H 2694.28 3.12098 0.0109689 0
M  V30 28256 N 2694.58 0.315484 1.5441 0
M  V30 28257 C 2695.51 -0.588029 2.21528 0
M  V30 28258 C 2696.52 -1.08622 1.21265 0
M  V30 28259 O 2697.71 -1.00119 1.47779 0
M  V30 28260 C 2694.81 -1.8187 2.85966 0
M  V30 28261 C 2693.98 -1.46056 4.12294 0
M  V30 28262 C 2693.04 -2.5479 4.604 0
M  V30 28263 O 2692.07 -2.19274 5.25269 0
M  V30 28264 N 2693.27 -3.85583 4.33942 0
M  V30 28265 H 2696.04 -0.0133613 2.99697 0
M  V30 28266 H 2693.6 0.138323 1.61308 0
M  V30 28267 H 2695.59 -2.53987 3.15076 0
M  V30 28268 H 2694.16 -2.3014 2.11552 0
M  V30 28269 H 2693.38 -0.571377 3.90037 0
M  V30 28270 H 2694.67 -1.19687 4.94523 0
M  V30 28271 H 2694.06 -4.17241 3.82003 0
M  V30 28272 H 2692.62 -4.53955 4.67726 0
M  V30 28273 N 2696.05 -1.5754 0.0434891 0
M  V30 28274 C 2697 -2.07585 -0.943002 0
M  V30 28275 C 2697.99 -0.979364 -1.27661 0
M  V30 28276 O 2699.18 -1.24278 -1.26031 0
M  V30 28277 C 2696.31 -2.61816 -2.22052 0
M  V30 28278 C 2695.4 -3.78421 -1.91465 0
M  V30 28279 N 2695.79 -4.88486 -1.31205 0
M  V30 28280 C 2694.08 -3.8718 -2.21377 0
M  V30 28281 C 2694.79 -5.6959 -1.18074 0
M  V30 28282 N 2693.76 -5.16954 -1.68107 0
M  V30 28283 H 2697.56 -2.9008 -0.472303 0
M  V30 28284 H 2695.08 -1.61598 -0.161163 0
M  V30 28285 H 2697.07 -2.95969 -2.93612 0
M  V30 28286 H 2695.73 -1.80757 -2.69735 0
M  V30 28287 H 2696.75 -5.08442 -0.985229 0
M  V30 28288 H 2693.42 -3.17051 -2.71634 0
M  V30 28289 H 2694.81 -6.681 -0.713566 0
M  V30 28290 N 2697.53 0.229818 -1.55915 0
M  V30 28291 C 2698.5 1.26821 -1.90916 0
M  V30 28292 C 2699.5 1.40223 -0.787024 0
M  V30 28293 O 2700.69 1.3863 -1.05486 0
M  V30 28294 C 2697.82 2.64333 -2.15269 0
M  V30 28295 H 2699.01 0.969948 -2.83782 0
M  V30 28296 H 2696.56 0.469873 -1.4907 0
M  V30 28297 H 2697.3 2.99272 -1.24928 0
M  V30 28298 H 2697.08 2.55984 -2.9701 0
M  V30 28299 H 2698.57 3.3928 -2.43473 0
M  V30 28300 N 2699.01 1.49585 0.49619 0
M  V30 28301 C 2700.43 1.36454 0.82779 0
M  V30 28302 C 2700.63 0.40132 1.97463 0
M  V30 28303 O 2699.68 -0.165251 2.51959 0
M  V30 28304 C 2701 2.77279 1.16347 0
M  V30 28305 C 2702.54 2.86015 1.2714 0
M  V30 28306 C 2703.02 4.27618 1.64034 0
M  V30 28307 N 2704.51 4.30451 1.71074 0
M  V30 28308 C 2705.24 5.36988 2.01076 0
M  V30 28309 N 2704.74 6.53764 2.29269 0
M  V30 28310 N 2706.53 5.24408 2.02367 0
M  V30 28311 H 2698.68 2.10803 -0.259984 0
M  V30 28312 H 2700.95 0.946476 -0.053733 0
M  V30 28313 H 2700.65 3.49485 0.394092 0
M  V30 28314 H 2700.53 3.1295 2.10576 0
M  V30 28315 H 2702.91 2.14044 2.03149 0
M  V30 28316 H 2703 2.53921 0.309498 0
M  V30 28317 H 2702.64 5.00117 0.885742 0
M  V30 28318 H 2702.57 4.57179 2.61332 0
M  V30 28319 H 2705.06 3.46234 1.51427 0
M  V30 28320 H 2705.37 7.30778 2.51363 0
M  V30 28321 H 2703.72 6.56982 2.26715 0
M  V30 28322 H 2706.91 4.32183 1.79822 0
M  V30 28323 H 2707.08 6.0753 2.25414 0
M  V30 28324 N 2700.49 -0.747586 1.3874 0
M  V30 28325 C 2701.77 -1.49784 1.25794 0
M  V30 28326 C 2702.15 -2.10648 -0.138038 0
M  V30 28327 O 2701.49 -1.97562 -1.14811 0
M  V30 28328 C 2701.7 -2.55938 2.37269 0
M  V30 28329 C 2703.05 -3.22674 2.75983 0
M  V30 28330 O 2704.08 -2.66246 2.36625 0
M  V30 28331 O 2702.93 -4.2475 3.43875 0
M  V30 28332 H 2700.03 -0.664535 0.492263 0
M  V30 28333 H 2702.57 -0.782484 1.50583 0
M  V30 28334 H 2701.35 -2.09255 3.30648 0
M  V30 28335 H 2700.97 -3.35048 2.14077 0
M  V30 28336 N 2701.97 -1.23709 -0.97642 0
M  V30 28337 C 2703.38 -1.0659 -1.53282 0
M  V30 28338 C 2703.73 0.365492 -1.92766 0
M  V30 28339 O 2702.85 1.25274 -1.76452 0
M  V30 28340 C 2703.45 -1.92869 -2.78544 0
M  V30 28341 C 2702.01 -1.8 -3.30571 0
M  V30 28342 C 2701.15 -1.88331 -2.03535 0
M  V30 28343 H 2704.11 -1.37313 -0.795668 0
M  V30 28344 H 2704.13 -1.45583 -3.51548 0
M  V30 28345 H 2703.64 -2.97041 -2.49776 0
M  V30 28346 H 2701.74 -0.786266 -3.6421 0
M  V30 28347 H 2701.85 -2.63607 -4.0006 0
M  V30 28348 H 2700.22 -1.31958 -2.17851 0
M  V30 28349 H 2701 -2.94067 -1.77143 0
M  V30 28350 N 2703.44 1.17579 -1.04943 0
M  V30 28351 C 2704.69 1.88055 -0.759145 0
M  V30 28352 C 2705.02 1.80682 0.711887 0
M  V30 28353 O 2704.3 1.2131 1.52033 0
M  V30 28354 C 2704.58 3.38185 -1.23706 0
M  V30 28355 C 2704.43 3.54322 -2.77084 0
M  V30 28356 C 2705.75 4.32124 -0.83409 0
M  V30 28357 H 2702.87 0.682863 -0.277249 0
M  V30 28358 H 2705.51 1.38284 -1.30298 0
M  V30 28359 H 2703.66 3.80704 -0.774404 0
M  V30 28360 H 2705.34 3.20836 -3.31455 0
M  V30 28361 H 2703.58 2.96684 -3.16482 0
M  V30 28362 H 2704.25 4.59698 -3.05585 0
M  V30 28363 H 2706.73 3.97432 -1.23235 0
M  V30 28364 H 2705.6 5.35709 -1.19613 0
M  V30 28365 H 2705.86 4.41322 0.262117 0
M  V30 28366 N 2704.92 0.830104 1.33967 0
M  V30 28367 C 2706.17 0.420768 1.97671 0
M  V30 28368 C 2706.49 -1.02135 1.66113 0
M  V30 28369 O 2705.76 -1.71016 0.955533 0
M  V30 28370 H 2704.34 0.1526 0.731247 0
M  V30 28371 H 2707 1.06113 1.63481 0
M  V30 28372 H 2706.1 0.545642 3.07293 0
M  V30 28373 N 2706.4 -1.46311 0.585725 0
M  V30 28374 C 2707.65 -2.01971 0.0723135 0
M  V30 28375 C 2707.97 -1.4593 -1.29342 0
M  V30 28376 O 2707.24 -0.645141 -1.84972 0
M  V30 28377 H 2705.82 -0.746623 0.0237422 0
M  V30 28378 H 2708.48 -1.79379 0.762186 0
M  V30 28379 H 2707.58 -3.121 0.00558253 0
M  V30 28380 N 2707.88 -0.323668 -1.54241 0
M  V30 28381 C 2709.1 0.283568 -2.05452 0
M  V30 28382 C 2709.53 1.44995 -1.19826 0
M  V30 28383 O 2708.89 1.8011 -0.20739 0
M  V30 28384 C 2708.94 0.695732 -3.53825 0
M  V30 28385 O 2708.04 1.79809 -3.71137 0
M  V30 28386 H 2707.38 0.0511801 -0.662025 0
M  V30 28387 H 2709.91 -0.472108 -1.99079 0
M  V30 28388 H 2709.92 0.978365 -3.96096 0
M  V30 28389 H 2708.6 -0.15736 -4.15602 0
M  V30 28390 H 2707.17 1.51425 -3.40771 0
M  V30 28391 N 2709.36 1.57515 -0.0518432 0
M  V30 28392 C 2710.6 1.93003 0.622711 0
M  V30 28393 C 2710.94 0.930529 1.70455 0
M  V30 28394 O 2710.21 -0.0433744 1.94452 0
M  V30 28395 C 2710.49 3.38869 1.21818 0
M  V30 28396 C 2710.35 4.49568 0.144355 0
M  V30 28397 C 2711.67 3.85143 2.12962 0
M  V30 28398 H 2708.79 0.701848 0.224897 0
M  V30 28399 H 2711.43 1.89659 -0.113745 0
M  V30 28400 H 2709.58 3.4185 1.84584 0
M  V30 28401 H 2711.25 4.58716 -0.48761 0
M  V30 28402 H 2709.49 4.30581 -0.527499 0
M  V30 28403 H 2710.16 5.48718 0.601031 0
M  V30 28404 H 2712.64 3.84043 1.60157 0
M  V30 28405 H 2711.52 4.87857 2.51569 0
M  V30 28406 H 2711.78 3.21939 3.02998 0
M  V30 28407 N 2710.84 -0.221546 1.56035 0
M  V30 28408 C 2711.75 -1.29554 1.95583 0
M  V30 28409 C 2712.76 -1.5128 0.859665 0
M  V30 28410 O 2713.94 -1.64411 1.16323 0
M  V30 28411 C 2711 -2.62527 2.26452 0
M  V30 28412 C 2710.06 -2.49104 3.49637 0
M  V30 28413 C 2709.3 -3.75735 3.79023 0
M  V30 28414 O 2709.52 -4.78752 3.10086 0
M  V30 28415 O 2708.45 -3.72847 4.72513 0
M  V30 28416 H 2712.28 -0.989984 2.87111 0
M  V30 28417 H 2709.86 -0.424409 1.43245 0
M  V30 28418 H 2711.75 -3.4106 2.475 0
M  V30 28419 H 2710.42 -2.92764 1.38097 0
M  V30 28420 H 2709.33 -1.68771 3.33867 0
M  V30 28421 H 2710.66 -2.23806 4.38374 0
M  V30 28422 N 2712.31 -1.49846 -0.48825 0
M  V30 28423 C 2713.56 -1.59975 -1.24154 0
M  V30 28424 C 2713.89 -0.292215 -1.92292 0
M  V30 28425 O 2713.14 0.720781 -1.81943 0
M  V30 28426 C 2713.44 -2.71739 -2.32147 0
M  V30 28427 C 2713.11 -4.1281 -1.8138 0
M  V30 28428 C 2711.77 -4.51198 -1.67254 0
M  V30 28429 C 2714.12 -5.01048 -1.43529 0
M  V30 28430 C 2711.45 -5.75582 -1.13675 0
M  V30 28431 C 2713.8 -6.25963 -0.913971 0
M  V30 28432 C 2712.47 -6.63168 -0.75921 0
M  V30 28433 H 2711.74 -0.585391 -0.454311 0
M  V30 28434 H 2714.38 -1.83722 -0.540228 0
M  V30 28435 H 2712.69 -2.42014 -3.08118 0
M  V30 28436 H 2714.39 -2.76783 -2.90159 0
M  V30 28437 H 2710.98 -3.82516 -1.93337 0
M  V30 28438 H 2715.16 -4.72036 -1.53283 0
M  V30 28439 H 2710.42 -6.03098 -1.00415 0
M  V30 28440 H 2714.59 -6.93706 -0.611944 0
M  V30 28441 H 2712.22 -7.59431 -0.341868 0
M  V30 28442 N 2713.79 0.740218 -1.39135 0
M  V30 28443 C 2714.72 1.86425 -1.33335 0
M  V30 28444 C 2715.74 1.60975 -0.243071 0
M  V30 28445 O 2716.93 1.71306 -0.501638 0
M  V30 28446 C 2714.03 3.22344 -1.04632 0
M  V30 28447 C 2713.2 3.75192 -2.24833 0
M  V30 28448 C 2712.26 4.89659 -1.92667 0
M  V30 28449 O 2711.28 5.03592 -2.65299 0
M  V30 28450 N 2712.49 5.73642 -0.889676 0
M  V30 28451 H 2715.25 1.91907 -2.30199 0
M  V30 28452 H 2712.81 0.920732 -1.3317 0
M  V30 28453 H 2714.8 3.96482 -0.811417 0
M  V30 28454 H 2713.37 3.12163 -0.165184 0
M  V30 28455 H 2712.59 2.92465 -2.64306 0
M  V30 28456 H 2713.88 4.07234 -3.05022 0
M  V30 28457 H 2713.28 5.64968 -0.287629 0
M  V30 28458 H 2711.84 6.4787 -0.714671 0
M  V30 28459 N 2715.27 1.24225 0.969846 0
M  V30 28460 C 2716.52 1.08066 1.71254 0
M  V30 28461 C 2716.84 -0.380838 1.90735 0
M  V30 28462 O 2716.1 -1.29787 1.46471 0
M  V30 28463 C 2716.4 1.76319 3.1088 0
M  V30 28464 C 2716.06 3.26246 3.11246 0
M  V30 28465 C 2714.73 3.6715 3.11054 0
M  V30 28466 C 2717.08 4.22102 3.05744 0
M  V30 28467 C 2714.41 5.02349 3.03088 0
M  V30 28468 C 2716.76 5.57306 2.9932 0
M  V30 28469 C 2715.42 5.97559 2.97455 0
M  V30 28470 H 2714.69 0.395442 0.626663 0
M  V30 28471 H 2717.34 1.54299 1.1342 0
M  V30 28472 H 2715.64 1.22474 3.72166 0
M  V30 28473 H 2717.34 1.61284 3.67136 0
M  V30 28474 H 2713.93 2.93691 3.1216 0
M  V30 28475 H 2718.12 3.91502 3.05024 0
M  V30 28476 H 2713.37 5.32736 3.00004 0
M  V30 28477 H 2717.55 6.31288 2.94022 0
M  V30 28478 H 2715.17 7.02283 2.91038 0
M  V30 28479 N 2716.75 -1.1702 1.05565 0
M  V30 28480 C 2717.99 -1.8765 0.769107 0
M  V30 28481 C 2718.33 -1.81057 -0.702295 0
M  V30 28482 O 2717.6 -1.22115 -1.51388 0
M  V30 28483 C 2717.88 -3.37524 1.25498 0
M  V30 28484 C 2717.74 -3.52848 2.78959 0
M  V30 28485 C 2719.06 -4.31675 0.856994 0
M  V30 28486 H 2716.18 -0.681383 0.280866 0
M  V30 28487 H 2718.82 -1.37591 1.3103 0
M  V30 28488 H 2716.97 -3.80288 0.794583 0
M  V30 28489 H 2718.64 -3.19073 3.33151 0
M  V30 28490 H 2716.88 -2.95001 3.18051 0
M  V30 28491 H 2717.55 -4.5807 3.08019 0
M  V30 28492 H 2720.03 -3.96773 1.25341 0
M  V30 28493 H 2718.91 -5.35067 1.22452 0
M  V30 28494 H 2719.17 -4.41455 -0.238709 0
M  V30 28495 N 2718.23 -0.837197 -1.33524 0
M  V30 28496 C 2719.64 -0.489049 -1.80181 0
M  V30 28497 C 2719.99 0.991796 -1.69286 0
M  V30 28498 O 2719.11 1.77269 -1.24116 0
M  V30 28499 C 2719.71 -0.880924 -3.27147 0
M  V30 28500 C 2718.27 -0.584938 -3.71827 0
M  V30 28501 C 2717.41 -1.09016 -2.54972 0
M  V30 28502 H 2720.36 -1.02605 -1.2107 0
M  V30 28503 H 2720.39 -0.190306 -3.80024 0
M  V30 28504 H 2719.9 -1.95874 -3.35044 0
M  V30 28505 H 2718 0.482885 -3.69458 0
M  V30 28506 H 2718.11 -1.139 -4.65364 0
M  V30 28507 H 2716.48 -0.511091 -2.49519 0
M  V30 28508 H 2717.26 -2.17472 -2.65633 0
M  V30 28509 N 2719.7 1.45999 -0.593476 0
M  V30 28510 C 2720.95 2.02629 -0.0833111 0
M  V30 28511 C 2721.28 1.46268 1.27747 0
M  V30 28512 O 2720.56 0.631898 1.83949 0
M  V30 28513 C 2720.84 3.60088 -0.0291389 0
M  V30 28514 C 2720.69 4.26811 -1.41958 0
M  V30 28515 C 2722.01 4.35032 0.665979 0
M  V30 28516 H 2719.13 0.736316 -0.031749 0
M  V30 28517 H 2721.77 1.74018 -0.762742 0
M  V30 28518 H 2719.92 3.84595 0.549464 0
M  V30 28519 H 2721.6 4.13535 -2.04418 0
M  V30 28520 H 2719.84 3.85757 -1.98429 0
M  V30 28521 H 2720.51 5.35637 -1.33405 0
M  V30 28522 H 2722.99 4.15735 0.174328 0
M  V30 28523 H 2721.86 5.44759 0.672945 0
M  V30 28524 H 2722.12 4.06872 1.72938 0
M  V30 28525 N 2721.18 0.331843 1.54067 0
M  V30 28526 C 2722.11 -0.522892 2.2757 0
M  V30 28527 C 2723.09 -1.11244 1.28681 0
M  V30 28528 O 2724.28 -1.13603 1.57506 0
M  V30 28529 C 2721.41 -1.67981 3.03973 0
M  V30 28530 C 2720.36 -1.21917 4.10269 0
M  V30 28531 C 2719.69 -2.46369 4.74559 0
M  V30 28532 C 2720.99 -0.328058 5.21269 0
M  V30 28533 H 2722.68 0.0902503 2.99264 0
M  V30 28534 H 2720.23 0.0448463 1.4393 0
M  V30 28535 H 2722.18 -2.28412 3.54127 0
M  V30 28536 H 2720.91 -2.31967 2.2991 0
M  V30 28537 H 2719.56 -0.637745 3.6101 0
M  V30 28538 H 2719.21 -3.08736 3.97103 0
M  V30 28539 H 2718.91 -2.16234 5.46367 0
M  V30 28540 H 2720.44 -3.07546 5.27492 0
M  V30 28541 H 2721.85 -0.838878 5.67129 0
M  V30 28542 H 2720.25 -0.119122 5.99982 0
M  V30 28543 H 2721.32 0.638924 4.80672 0
M  V30 28544 N 2722.66 -1.57485 0.0601958 0
M  V30 28545 C 2723.61 -2.12056 -0.911082 0
M  V30 28546 C 2724.58 -1.03016 -1.30296 0
M  V30 28547 O 2725.76 -1.30614 -1.39085 0
M  V30 28548 C 2722.9 -2.67733 -2.17746 0
M  V30 28549 C 2722.02 -3.9089 -1.83926 0
M  V30 28550 C 2721.15 -4.3485 -3.05088 0
M  V30 28551 C 2720.19 -5.50685 -2.67232 0
M  V30 28552 N 2719.33 -5.89656 -3.81116 0
M  V30 28553 H 2724.17 -2.94751 -0.438829 0
M  V30 28554 H 2721.7 -1.45665 -0.20497 0
M  V30 28555 H 2723.66 -2.98116 -2.91861 0
M  V30 28556 H 2722.29 -1.87821 -2.62532 0
M  V30 28557 H 2721.34 -3.67042 -0.999223 0
M  V30 28558 H 2722.66 -4.75055 -1.52066 0
M  V30 28559 H 2721.81 -4.66834 -3.87494 0
M  V30 28560 H 2720.55 -3.49515 -3.40133 0
M  V30 28561 H 2719.55 -5.18364 -1.83245 0
M  V30 28562 H 2720.78 -6.37743 -2.33369 0
M  V30 28563 H 2718.72 -5.07273 -4.15945 0
M  V30 28564 H 2718.64 -6.68534 -3.52985 0
M  V30 28565 H 2719.91 -6.26258 -4.64134 0
M  V30 28566 N 2724.14 0.213268 -1.5615 0
M  V30 28567 C 2725.07 1.26738 -1.96111 0
M  V30 28568 C 2726.05 1.48449 -0.830475 0
M  V30 28569 O 2727.23 1.60493 -1.09342 0
M  V30 28570 C 2724.36 2.61547 -2.28497 0
M  V30 28571 C 2723.32 2.54479 -3.44129 0
M  V30 28572 C 2722.64 3.93393 -3.62141 0
M  V30 28573 C 2723.94 2.08548 -4.78858 0
M  V30 28574 H 2725.64 0.935384 -2.84413 0
M  V30 28575 H 2723.18 0.448516 -1.36837 0
M  V30 28576 H 2725.14 3.35455 -2.55045 0
M  V30 28577 H 2723.86 2.96451 -1.37057 0
M  V30 28578 H 2722.52 1.83027 -3.17642 0
M  V30 28579 H 2722.17 4.25619 -2.68063 0
M  V30 28580 H 2721.87 3.89544 -4.3992 0
M  V30 28581 H 2723.39 4.68951 -3.91046 0
M  V30 28582 H 2724.81 2.72204 -5.04557 0
M  V30 28583 H 2723.2 2.1574 -5.59979 0
M  V30 28584 H 2724.27 1.03802 -4.73659 0
M  V30 28585 N 2725.62 1.50103 0.480296 0
M  V30 28586 C 2726.86 1.60869 1.23486 0
M  V30 28587 C 2727.2 0.303861 1.91808 0
M  V30 28588 O 2726.47 -0.69406 1.81695 0
M  V30 28589 C 2726.75 2.78256 2.28573 0
M  V30 28590 C 2726.61 4.18595 1.64617 0
M  V30 28591 C 2727.93 2.91224 3.29965 0
M  V30 28592 H 2725.04 0.585515 0.447595 0
M  V30 28593 H 2727.69 1.82459 0.529973 0
M  V30 28594 H 2725.84 2.59979 2.88692 0
M  V30 28595 H 2727.51 4.48439 1.08165 0
M  V30 28596 H 2725.75 4.2328 0.94957 0
M  V30 28597 H 2726.42 4.96642 2.40937 0
M  V30 28598 H 2728.9 3.07926 2.79858 0
M  V30 28599 H 2727.77 3.75 4.00832 0
M  V30 28600 H 2728.04 2.01447 3.93537 0
M  V30 28601 N 2727.09 -0.732829 1.39526 0
M  V30 28602 C 2728.32 -1.52714 1.40332 0
M  V30 28603 C 2728.74 -1.881 0.000319637 0
M  V30 28604 O 2728.1 -1.52064 -0.987235 0
M  V30 28605 C 2728.15 -2.78988 2.28468 0
M  V30 28606 O 2727.25 -3.75 1.71606 0
M  V30 28607 H 2726.6 -0.461101 0.477789 0
M  V30 28608 H 2729.13 -0.903964 1.83547 0
M  V30 28609 H 2729.14 -3.277 2.43056 0
M  V30 28610 H 2727.81 -2.52566 3.30429 0
M  V30 28611 H 2726.39 -3.33778 1.66273 0
M  V30 28612 N 2728.57 -1.24737 -0.963244 0
M  V30 28613 C 2729.8 -1.11689 -1.74164 0
M  V30 28614 C 2730.22 0.330155 -1.85891 0
M  V30 28615 O 2729.57 1.22757 -1.35044 0
M  V30 28616 C 2729.62 -1.756 -3.15985 0
M  V30 28617 O 2729.34 -3.14648 -3.04842 0
M  V30 28618 C 2730.85 -1.6822 -4.10142 0
M  V30 28619 H 2728.07 -0.389998 -0.546024 0
M  V30 28620 H 2730.61 -1.64931 -1.20904 0
M  V30 28621 H 2728.76 -1.2635 -3.66216 0
M  V30 28622 H 2729.18 -3.45936 -3.94244 0
M  V30 28623 H 2730.65 -2.17613 -5.07295 0
M  V30 28624 H 2731.13 -0.644284 -4.34449 0
M  V30 28625 H 2731.74 -2.16918 -3.65823 0
M  V30 28626 N 2730.05 1.16459 -1.06184 0
M  V30 28627 C 2730.98 2.22982 -0.6929 0
M  V30 28628 C 2731.96 1.67175 0.314092 0
M  V30 28629 O 2733.15 1.93274 0.189465 0
M  V30 28630 C 2730.28 3.47214 -0.077381 0
M  V30 28631 C 2729.23 4.15907 -1.01023 0
M  V30 28632 C 2728.56 5.34077 -0.258067 0
M  V30 28633 C 2729.86 4.67011 -2.33876 0
M  V30 28634 H 2731.55 2.54099 -1.58347 0
M  V30 28635 H 2729.1 1.22136 -0.762812 0
M  V30 28636 H 2731.05 4.2096 0.192586 0
M  V30 28637 H 2729.77 3.15394 0.848199 0
M  V30 28638 H 2728.43 3.44086 -1.26492 0
M  V30 28639 H 2728.08 4.9851 0.670596 0
M  V30 28640 H 2727.78 5.80977 -0.87974 0
M  V30 28641 H 2729.3 6.106 0.00438055 0
M  V30 28642 H 2730.72 5.32343 -2.12799 0
M  V30 28643 H 2729.12 5.24528 -2.91531 0
M  V30 28644 H 2730.19 3.8328 -2.97025 0
M  V30 28645 N 2731.53 0.844266 1.33079 0
M  V30 28646 C 2732.46 0.296533 2.31609 0
M  V30 28647 C 2733.44 -0.598679 1.59216 0
M  V30 28648 O 2734.62 -0.521101 1.87078 0
M  V30 28649 C 2731.75 -0.524702 3.43314 0
M  V30 28650 C 2730.71 0.275181 4.27114 0
M  V30 28651 C 2730.03 -0.670143 5.30484 0
M  V30 28652 C 2731.33 1.49522 5.0044 0
M  V30 28653 H 2733.03 1.11981 2.7767 0
M  V30 28654 H 2730.57 0.539923 1.33495 0
M  V30 28655 H 2732.53 -0.918226 4.11274 0
M  V30 28656 H 2731.25 -1.38124 2.95955 0
M  V30 28657 H 2729.91 0.65033 3.60786 0
M  V30 28658 H 2729.56 -1.52324 4.79381 0
M  V30 28659 H 2729.26 -0.13902 5.87436 0
M  V30 28660 H 2730.78 -1.06107 6.0131 0
M  V30 28661 H 2732.2 1.17456 5.61139 0
M  V30 28662 H 2730.59 1.96353 5.67068 0
M  V30 28663 H 2731.66 2.2621 4.28902 0
M  V30 28664 N 2733.01 -1.45682 0.60121 0
M  V30 28665 C 2734.25 -2.02582 0.0940558 0
M  V30 28666 C 2734.59 -1.46944 -1.26969 0
M  V30 28667 O 2733.86 -0.641644 -1.83611 0
M  V30 28668 C 2734.14 -3.60068 0.0482348 0
M  V30 28669 C 2734 -4.26052 1.4422 0
M  V30 28670 C 2735.32 -4.35379 -0.642899 0
M  V30 28671 H 2732.43 -0.736137 0.0356534 0
M  V30 28672 H 2735.08 -1.73611 0.77196 0
M  V30 28673 H 2733.23 -3.84881 -0.52906 0
M  V30 28674 H 2734.9 -4.12445 2.06608 0
M  V30 28675 H 2733.14 -3.84699 2.00472 0
M  V30 28676 H 2733.81 -5.34922 1.36244 0
M  V30 28677 H 2736.29 -4.15821 -0.152278 0
M  V30 28678 H 2735.16 -5.45108 -0.644046 0
M  V30 28679 H 2735.43 -4.07783 -1.70778 0
M  V30 28680 N 2734.48 -0.340009 -1.53889 0
M  V30 28681 C 2735.42 0.561366 -2.21188 0
M  V30 28682 C 2736.4 1.10304 -1.19465 0
M  V30 28683 O 2737.58 1.16397 -1.4827 0
M  V30 28684 C 2734.71 1.77192 -2.88653 0
M  V30 28685 C 2733.75 1.36003 -4.04234 0
M  V30 28686 S 2734.59 0.382815 -5.3413 0
M  V30 28687 C 2735.74 1.60029 -6.05096 0
M  V30 28688 H 2735.97 -0.0102615 -2.97298 0
M  V30 28689 H 2733.51 -0.124083 -1.53901 0
M  V30 28690 H 2735.47 2.46644 -3.28142 0
M  V30 28691 H 2734.13 2.31476 -2.12315 0
M  V30 28692 H 2733.32 2.26252 -4.50362 0
M  V30 28693 H 2732.92 0.745033 -3.66504 0
M  V30 28694 H 2735.21 2.5353 -6.28275 0
M  V30 28695 H 2736.16 1.18087 -6.98184 0
M  V30 28696 H 2736.56 1.79473 -5.3521 0
M  V30 28697 N 2735.96 1.57451 -0.0685468 0
M  V30 28698 C 2737.21 1.92984 0.600127 0
M  V30 28699 C 2737.53 0.949058 1.70346 0
M  V30 28700 O 2736.8 -0.00332204 1.959 0
M  V30 28701 H 2735.38 0.712413 0.22467 0
M  V30 28702 H 2738.04 1.94495 -0.125639 0
M  V30 28703 H 2737.14 2.947 1.02754 0
M  V30 28704 N 2737.44 -0.204984 1.56261 0
M  V30 28705 C 2738.69 -0.925026 1.79238 0
M  V30 28706 C 2739 -1.84832 0.640043 0
M  V30 28707 O 2740.21 -2.60824 0.753855 0
M  V30 28708 C 2738.67 -1.69517 3.17478 0
M  V30 28709 C 2738.27 -0.817191 4.40484 0
M  V30 28710 C 2740.02 -2.40543 3.4977 0
M  V30 28711 C 2737.92 -1.58563 5.69747 0
M  V30 28712 H 2736.85 -0.349141 0.668294 0
M  V30 28713 H 2739.51 -0.178512 1.8263 0
M  V30 28714 H 2737.89 -2.4852 3.08308 0
M  V30 28715 H 2739.06 -0.0665178 4.60752 0
M  V30 28716 H 2737.38 -0.218243 4.15828 0
M  V30 28717 H 2739.97 -2.98568 4.43578 0
M  V30 28718 H 2740.32 -3.14247 2.73047 0
M  V30 28719 H 2740.85 -1.68515 3.60344 0
M  V30 28720 H 2737.59 -0.891565 6.49408 0
M  V30 28721 H 2737.11 -2.31049 5.53513 0
M  V30 28722 H 2738.79 -2.14201 6.10514 0
M  V30 28723 N 2738.92 -1.50356 -0.472329 0
M  V30 28724 C 2740.17 -1.61283 -1.2245 0
M  V30 28725 C 2740.49 -0.312594 -1.91972 0
M  V30 28726 O 2739.75 0.701443 -1.82697 0
M  V30 28727 C 2740.05 -2.74186 -2.29252 0
M  V30 28728 C 2739.71 -4.14711 -1.76991 0
M  V30 28729 C 2738.38 -4.52946 -1.62459 0
M  V30 28730 C 2740.73 -5.02542 -1.38206 0
M  V30 28731 C 2738.06 -5.76756 -1.07564 0
M  V30 28732 C 2740.41 -6.26897 -0.847528 0
M  V30 28733 C 2739.07 -6.63936 -0.688829 0
M  V30 28734 H 2738.34 -0.590176 -0.448077 0
M  V30 28735 H 2740.99 -1.84285 -0.520712 0
M  V30 28736 H 2739.29 -2.45268 -3.05534 0
M  V30 28737 H 2740.99 -2.79845 -2.87207 0
M  V30 28738 H 2737.58 -3.84545 -1.89269 0
M  V30 28739 H 2741.77 -4.73635 -1.48268 0
M  V30 28740 H 2737.02 -6.04129 -0.940131 0
M  V30 28741 H 2741.2 -6.94316 -0.538333 0
M  V30 28742 H 2738.82 -7.59751 -0.261301 0
M  V30 28743 N 2740.4 0.725419 -1.39912 0
M  V30 28744 C 2741.65 1.48222 -1.37385 0
M  V30 28745 C 2741.97 1.94982 0.0263765 0
M  V30 28746 O 2741.24 1.69661 0.979378 0
M  V30 28747 H 2739.82 0.549883 -0.505606 0
M  V30 28748 H 2742.48 0.860577 -1.74872 0
M  V30 28749 H 2741.57 2.35977 -2.04258 0
M  V30 28750 N 2741.88 1.25246 0.956615 0
M  V30 28751 C 2743.15 1.00654 1.67715 0
M  V30 28752 C 2743.53 -0.46783 2.05851 0
M  V30 28753 O 2742.88 -1.44472 1.77031 0
M  V30 28754 C 2743.09 1.94034 2.9009 0
M  V30 28755 C 2744.44 2.21763 3.62086 0
M  V30 28756 O 2745.46 1.91776 3.00167 0
M  V30 28757 O 2744.32 2.72744 4.73575 0
M  V30 28758 H 2741.42 0.381546 0.733724 0
M  V30 28759 H 2743.96 1.36392 1.00972 0
M  V30 28760 H 2742.73 2.93596 2.58683 0
M  V30 28761 H 2742.36 1.5868 3.64563 0
M  V30 28762 N 2743.35 -1.15894 1.068 0
M  V30 28763 C 2744.26 -2.24081 0.694603 0
M  V30 28764 C 2745.28 -1.71538 -0.291657 0
M  V30 28765 O 2746.46 -2.00915 -0.139688 0
M  V30 28766 C 2743.52 -3.46577 0.0921623 0
M  V30 28767 C 2742.58 -4.14135 1.13095 0
M  V30 28768 C 2741.81 -5.30784 0.557158 0
M  V30 28769 O 2742.04 -5.66927 -0.628523 0
M  V30 28770 O 2740.97 -5.87708 1.29934 0
M  V30 28771 H 2744.8 -2.58341 1.59668 0
M  V30 28772 H 2742.38 -1.23508 0.840597 0
M  V30 28773 H 2744.26 -4.20706 -0.24181 0
M  V30 28774 H 2742.94 -3.14079 -0.783315 0
M  V30 28775 H 2741.85 -3.41954 1.51718 0
M  V30 28776 H 2743.18 -4.507 1.97813 0
M  V30 28777 N 2744.83 -0.851312 -1.32629 0
M  V30 28778 C 2746.11 -0.374482 -1.91982 0
M  V30 28779 C 2746.49 1.14158 -1.7757 0
M  V30 28780 O 2745.84 1.9617 -1.17174 0
M  V30 28781 C 2746.05 -0.835148 -3.3886 0
M  V30 28782 C 2747.39 -0.850383 -4.15997 0
M  V30 28783 O 2748.42 -0.779566 -3.47565 0
M  V30 28784 O 2747.28 -0.949575 -5.38187 0
M  V30 28785 H 2744.37 -0.108554 -0.819845 0
M  V30 28786 H 2746.92 -0.937991 -1.41421 0
M  V30 28787 H 2745.69 -1.8782 -3.43278 0
M  V30 28788 H 2745.31 -0.248902 -3.9682 0
M  V30 28789 N 2746.31 1.45361 -0.608928 0
M  V30 28790 C 2747.56 2.02529 -0.104798 0
M  V30 28791 C 2747.89 1.47615 1.26188 0
M  V30 28792 O 2747.16 0.651373 1.83269 0
M  V30 28793 C 2747.45 3.60037 -0.0673294 0
M  V30 28794 C 2747.3 4.25282 -1.46477 0
M  V30 28795 C 2748.62 4.35714 0.619801 0
M  V30 28796 H 2745.74 0.735938 -0.0395568 0
M  V30 28797 H 2748.38 1.73199 -0.781156 0
M  V30 28798 H 2746.53 3.85156 0.508642 0
M  V30 28799 H 2748.2 4.11343 -2.08792 0
M  V30 28800 H 2746.44 3.83631 -2.02509 0
M  V30 28801 H 2747.12 5.34192 -1.39078 0
M  V30 28802 H 2749.59 4.15896 0.130224 0
M  V30 28803 H 2748.47 5.45442 0.615128 0
M  V30 28804 H 2748.73 4.08683 1.68613 0
M  V30 28805 N 2747.79 0.348166 1.53706 0
M  V30 28806 C 2748.73 -0.506478 2.25174 0
M  V30 28807 C 2749.7 -1.09179 1.25176 0
M  V30 28808 O 2750.89 -1.12755 1.53919 0
M  V30 28809 C 2748.03 -1.64918 3.03144 0
M  V30 28810 C 2747.14 -1.09073 4.18004 0
M  V30 28811 C 2746.28 -2.20111 4.83451 0
M  V30 28812 C 2745.32 -1.61641 5.90372 0
M  V30 28813 N 2744.45 -2.6644 6.4958 0
M  V30 28814 H 2749.29 0.109505 2.97799 0
M  V30 28815 H 2746.83 0.0658124 1.46953 0
M  V30 28816 H 2748.79 -2.32199 3.46612 0
M  V30 28817 H 2747.42 -2.23608 2.32807 0
M  V30 28818 H 2746.47 -0.308717 3.79145 0
M  V30 28819 H 2747.78 -0.623091 4.94893 0
M  V30 28820 H 2746.94 -2.95248 5.30013 0
M  V30 28821 H 2745.68 -2.7022 4.05996 0
M  V30 28822 H 2744.68 -0.850114 5.43188 0
M  V30 28823 H 2745.91 -1.12378 6.69737 0
M  V30 28824 H 2743.85 -3.15795 5.74987 0
M  V30 28825 H 2743.77 -2.24312 7.21956 0
M  V30 28826 H 2745.04 -3.41332 7.00795 0
M  V30 28827 N 2749.27 -1.57412 0.0768958 0
M  V30 28828 C 2750.2 -2.10004 -0.918211 0
M  V30 28829 C 2751.21 -1.03328 -1.25806 0
M  V30 28830 O 2752.4 -1.30827 -1.21436 0
M  V30 28831 C 2749.5 -2.54968 -2.23259 0
M  V30 28832 C 2748.67 -3.85274 -2.07081 0
M  V30 28833 C 2747.73 -4.16278 -3.21869 0
M  V30 28834 O 2746.76 -4.85795 -2.96634 0
M  V30 28835 N 2747.96 -3.70229 -4.47114 0
M  V30 28836 H 2750.72 -2.96005 -0.469157 0
M  V30 28837 H 2748.29 -1.61535 -0.108697 0
M  V30 28838 H 2750.28 -2.72767 -2.98965 0
M  V30 28839 H 2748.85 -1.74076 -2.59646 0
M  V30 28840 H 2748.07 -3.76804 -1.15812 0
M  V30 28841 H 2749.36 -4.70557 -1.93529 0
M  V30 28842 H 2748.75 -3.14079 -4.70501 0
M  V30 28843 H 2747.31 -3.93218 -5.1983 0
M  V30 28844 N 2750.74 0.196695 -1.56368 0
M  V30 28845 C 2751.99 0.915508 -1.79726 0
M  V30 28846 C 2752.31 1.8449 -0.649836 0
M  V30 28847 O 2753.51 2.60421 -0.767676 0
M  V30 28848 C 2751.97 1.67831 -3.18372 0
M  V30 28849 C 2751.58 0.79382 -4.40911 0
M  V30 28850 C 2753.32 2.38685 -3.51041 0
M  V30 28851 C 2751.23 1.55539 -5.7058 0
M  V30 28852 H 2750.16 0.345592 -0.670136 0
M  V30 28853 H 2752.81 0.168824 -1.82722 0
M  V30 28854 H 2751.19 2.46882 -3.09622 0
M  V30 28855 H 2752.36 0.042082 -4.60781 0
M  V30 28856 H 2750.68 0.196187 -4.15938 0
M  V30 28857 H 2753.28 2.96211 -4.45155 0
M  V30 28858 H 2753.62 3.12794 -2.7471 0
M  V30 28859 H 2754.15 1.66602 -3.61232 0
M  V30 28860 H 2750.89 0.857112 -6.49872 0
M  V30 28861 H 2750.41 2.28111 -5.5473 0
M  V30 28862 H 2752.09 2.10961 -6.11641 0
M  V30 28863 N 2752.22 1.50604 0.464349 0
M  V30 28864 C 2753.15 1.72892 1.56941 0
M  V30 28865 C 2754.13 0.578025 1.59978 0
M  V30 28866 O 2755.32 0.817886 1.76137 0
M  V30 28867 C 2752.45 1.82925 2.95222 0
M  V30 28868 C 2751.4 2.98167 3.07051 0
M  V30 28869 C 2750.73 2.9335 4.47045 0
M  V30 28870 C 2752.03 4.38572 2.8364 0
M  V30 28871 H 2753.72 2.65417 1.38542 0
M  V30 28872 H 2751.27 1.27722 0.665059 0
M  V30 28873 H 2753.22 1.97101 3.72464 0
M  V30 28874 H 2751.95 0.870264 3.14792 0
M  V30 28875 H 2750.6 2.83652 2.32243 0
M  V30 28876 H 2750.25 1.95284 4.63544 0
M  V30 28877 H 2749.95 3.7072 4.55895 0
M  V30 28878 H 2751.48 3.09584 5.26298 0
M  V30 28879 H 2752.89 4.53578 3.50628 0
M  V30 28880 H 2751.29 5.17444 3.03928 0
M  V30 28881 H 2752.36 4.50475 1.79443 0
M  V30 28882 N 2753.7 -0.717989 1.40295 0
M  V30 28883 C 2754.65 -1.83207 1.4037 0
M  V30 28884 C 2755.62 -1.64037 0.260981 0
M  V30 28885 O 2756.8 -1.85205 0.458681 0
M  V30 28886 C 2753.94 -3.20893 1.26971 0
M  V30 28887 C 2753.06 -3.51652 2.50929 0
M  V30 28888 C 2752.19 -4.7883 2.2999 0
M  V30 28889 C 2751.23 -5.02485 3.49536 0
M  V30 28890 N 2750.37 -6.20876 3.27807 0
M  V30 28891 H 2755.21 -1.82478 2.35597 0
M  V30 28892 H 2752.74 -0.891423 1.17013 0
M  V30 28893 H 2754.7 -4.00397 1.17209 0
M  V30 28894 H 2753.33 -3.20857 0.353647 0
M  V30 28895 H 2752.38 -2.6672 2.71228 0
M  V30 28896 H 2753.7 -3.65042 3.3992 0
M  V30 28897 H 2752.85 -5.66347 2.17568 0
M  V30 28898 H 2751.59 -4.67644 1.38419 0
M  V30 28899 H 2750.59 -4.13424 3.62437 0
M  V30 28900 H 2751.82 -5.15545 4.4203 0
M  V30 28901 H 2749.76 -6.10946 2.38917 0
M  V30 28902 H 2749.68 -6.34932 4.10363 0
M  V30 28903 H 2750.95 -7.11187 3.19113 0
M  V30 28904 N 2755.18 -1.25752 -0.94996 0
M  V30 28905 C 2756.11 -1.00866 -2.04698 0
M  V30 28906 C 2757.09 0.0636696 -1.62475 0
M  V30 28907 O 2758.27 -0.0769484 -1.88343 0
M  V30 28908 C 2755.4 -0.525672 -3.34596 0
M  V30 28909 C 2754.45 -1.58923 -3.95785 0
M  V30 28910 S 2755.28 -3.17574 -4.31169 0
M  V30 28911 C 2756.44 -2.71023 -5.64179 0
M  V30 28912 H 2756.67 -1.93752 -2.25493 0
M  V30 28913 H 2754.2 -1.09334 -1.09021 0
M  V30 28914 H 2756.16 -0.253662 -4.09716 0
M  V30 28915 H 2754.82 0.382773 -3.11759 0
M  V30 28916 H 2754.01 -1.2021 -4.89454 0
M  V30 28917 H 2753.62 -1.81217 -3.27164 0
M  V30 28918 H 2755.91 -2.1494 -6.42501 0
M  V30 28919 H 2756.85 -3.63351 -6.07768 0
M  V30 28920 H 2757.26 -2.10869 -5.23636 0
M  V30 28921 N 2756.66 1.15326 -1.07413 0
M  V30 28922 C 2757.91 1.85471 -0.792676 0
M  V30 28923 C 2758.22 1.8326 0.683757 0
M  V30 28924 O 2759.42 2.49094 1.08001 0
M  V30 28925 C 2757.88 3.3289 -1.36793 0
M  V30 28926 C 2757.49 3.43545 -2.87542 0
M  V30 28927 C 2759.23 4.08215 -1.16452 0
M  V30 28928 C 2757.14 4.85116 -3.38255 0
M  V30 28929 H 2756.07 0.694806 -0.29285 0
M  V30 28930 H 2758.72 1.30079 -1.29428 0
M  V30 28931 H 2757.1 3.87957 -0.794061 0
M  V30 28932 H 2758.28 2.98581 -3.50978 0
M  V30 28933 H 2756.59 2.81666 -3.06681 0
M  V30 28934 H 2759.19 5.12695 -1.51817 0
M  V30 28935 H 2759.53 4.16171 -0.103603 0
M  V30 28936 H 2760.06 3.59419 -1.70478 0
M  V30 28937 H 2756.8 4.82344 -4.43875 0
M  V30 28938 H 2756.32 5.30659 -2.79573 0
M  V30 28939 H 2758 5.53974 -3.34248 0
M  V30 28940 N 2758.13 0.858334 1.32176 0
M  V30 28941 C 2759.04 0.308647 2.32561 0
M  V30 28942 C 2760.06 -0.575433 1.6421 0
M  V30 28943 O 2761.24 -0.474926 1.9572 0
M  V30 28944 C 2758.3 -0.490848 3.43208 0
M  V30 28945 C 2757.36 0.419808 4.27242 0
M  V30 28946 C 2756.6 -0.341625 5.32605 0
M  V30 28947 O 2756.82 -1.57115 5.48335 0
M  V30 28948 O 2755.75 0.294485 6.01179 0
M  V30 28949 H 2759.58 1.14042 2.81475 0
M  V30 28950 H 2757.16 0.621373 1.35865 0
M  V30 28951 H 2759.05 -0.944502 4.10679 0
M  V30 28952 H 2757.72 -1.29936 2.96476 0
M  V30 28953 H 2756.63 0.921715 3.62568 0
M  V30 28954 H 2757.96 1.1936 4.77508 0
M  V30 28955 N 2759.61 -1.45036 0.616628 0
M  V30 28956 C 2761.02 -1.85632 0.199391 0
M  V30 28957 C 2761.37 -1.51568 -1.24585 0
M  V30 28958 O 2760.5 -0.946714 -1.94593 0
M  V30 28959 C 2761.09 -3.36934 0.355093 0
M  V30 28960 C 2759.65 -3.76399 -0.00752132 0
M  V30 28961 C 2758.8 -2.68952 0.675303 0
M  V30 28962 H 2761.75 -1.35709 0.822732 0
M  V30 28963 H 2761.77 -3.78283 -0.410135 0
M  V30 28964 H 2761.28 -3.61695 1.40705 0
M  V30 28965 H 2759.39 -3.57254 -1.05831 0
M  V30 28966 H 2759.5 -4.7749 0.39243 0
M  V30 28967 H 2757.86 -2.54453 0.112036 0
M  V30 28968 H 2758.65 -2.96548 1.72957 0
M  V30 28969 N 2761.09 -0.356312 -1.53519 0
M  V30 28970 C 2762 0.502672 -2.29151 0
M  V30 28971 C 2763.02 1.10077 -1.34755 0
M  V30 28972 O 2764.19 1.11371 -1.67805 0
M  V30 28973 C 2761.26 1.63148 -3.05914 0
M  V30 28974 C 2760.32 1.06186 -4.1596 0
M  V30 28975 C 2759.55 2.13688 -4.89053 0
M  V30 28976 O 2759.77 3.34637 -4.61924 0
M  V30 28977 O 2758.71 1.77265 -5.75205 0
M  V30 28978 H 2762.53 -0.11252 -3.03491 0
M  V30 28979 H 2760.12 -0.120968 -1.48909 0
M  V30 28980 H 2762 2.28798 -3.53878 0
M  V30 28981 H 2760.68 2.23225 -2.34419 0
M  V30 28982 H 2759.58 0.369538 -3.7227 0
M  V30 28983 H 2760.92 0.505786 -4.89594 0
M  V30 28984 N 2762.57 1.57369 -0.0852427 0
M  V30 28985 C 2763.81 1.9428 0.581632 0
M  V30 28986 C 2764.15 0.966476 1.68443 0
M  V30 28987 O 2763.42 -0.00211859 1.945 0
M  V30 28988 C 2763.71 3.41377 1.14603 0
M  V30 28989 C 2763.56 4.49773 0.0489623 0
M  V30 28990 C 2764.88 3.89574 2.04744 0
M  V30 28991 H 2762 0.70646 0.20996 0
M  V30 28992 H 2764.64 1.89375 -0.153948 0
M  V30 28993 H 2762.79 3.45688 1.77291 0
M  V30 28994 H 2764.46 4.57578 -0.584801 0
M  V30 28995 H 2762.7 4.29365 -0.618713 0
M  V30 28996 H 2763.37 5.4987 0.484504 0
M  V30 28997 H 2765.85 3.87354 1.51974 0
M  V30 28998 H 2764.73 4.93083 2.41164 0
M  V30 28999 H 2764.99 3.28294 2.96101 0
M  V30 29000 N 2764.05 -0.188399 1.5647 0
M  V30 29001 C 2765.29 -0.907747 1.81014 0
M  V30 29002 C 2765.62 -1.82975 0.659562 0
M  V30 29003 O 2764.88 -1.92467 -0.354274 0
M  V30 29004 C 2765.18 -1.75045 3.11599 0
M  V30 29005 C 2764.84 -0.978845 4.40147 0
M  V30 29006 C 2763.5 -0.765828 4.75067 0
M  V30 29007 C 2765.86 -0.436406 5.1937 0
M  V30 29008 C 2763.18 0.00100181 5.867 0
M  V30 29009 C 2765.54 0.317247 6.31804 0
M  V30 29010 C 2764.2 0.54122 6.65302 0
M  V30 29011 H 2763.47 -0.332168 0.662379 0
M  V30 29012 H 2766.12 -0.173699 1.90711 0
M  V30 29013 H 2764.42 -2.55338 2.9717 0
M  V30 29014 H 2766.12 -2.30977 3.27797 0
M  V30 29015 H 2762.71 -1.15489 4.12747 0
M  V30 29016 H 2766.89 -0.588363 4.928 0
M  V30 29017 H 2762.15 0.184436 6.11122 0
M  V30 29018 H 2766.32 0.744909 6.92405 0
M  V30 29019 H 2763.95 1.13731 7.51644 0
M  V30 29020 N 2765.53 -1.50848 -0.456355 0
M  V30 29021 C 2766.75 -1.66351 -1.23024 0
M  V30 29022 C 2767.17 -0.3529 -1.85473 0
M  V30 29023 O 2766.53 0.666709 -1.69886 0
M  V30 29024 C 2766.58 -2.76543 -2.32822 0
M  V30 29025 O 2766.3 -4.02525 -1.72931 0
M  V30 29026 C 2767.8 -3.0315 -3.23443 0
M  V30 29027 H 2765.02 -0.558763 -0.371517 0
M  V30 29028 H 2767.56 -1.97158 -0.543047 0
M  V30 29029 H 2765.72 -2.4839 -2.9729 0
M  V30 29030 H 2766.13 -4.63578 -2.45349 0
M  V30 29031 H 2767.61 -3.83879 -3.96662 0
M  V30 29032 H 2768.08 -2.148 -3.8309 0
M  V30 29033 H 2768.69 -3.32891 -2.64696 0
M  V30 29034 N 2767 0.710538 -1.40674 0
M  V30 29035 C 2767.91 1.85464 -1.43667 0
M  V30 29036 C 2768.93 1.70866 -0.328751 0
M  V30 29037 O 2770.11 1.93043 -0.574132 0
M  V30 29038 C 2767.17 3.21311 -1.30232 0
M  V30 29039 C 2766.23 3.48126 -2.5121 0
M  V30 29040 C 2765.46 4.77491 -2.38407 0
M  V30 29041 O 2765.69 5.52938 -1.40058 0
M  V30 29042 O 2764.62 5.04756 -3.27879 0
M  V30 29043 H 2768.45 1.85896 -2.40159 0
M  V30 29044 H 2766.03 0.86163 -1.2205 0
M  V30 29045 H 2767.91 4.02444 -1.24967 0
M  V30 29046 H 2766.59 3.21596 -0.368476 0
M  V30 29047 H 2765.5 2.66982 -2.62052 0
M  V30 29048 H 2766.83 3.52642 -3.43372 0
M  V30 29049 N 2768.48 1.26254 0.943277 0
M  V30 29050 C 2769.39 1.09401 2.0753 0
M  V30 29051 C 2770.41 0.0280755 1.73977 0
M  V30 29052 O 2771.58 0.231372 2.00067 0
M  V30 29053 C 2768.65 0.726582 3.39001 0
M  V30 29054 C 2767.71 1.8717 3.8635 0
M  V30 29055 C 2766.94 1.52171 5.11546 0
M  V30 29056 O 2767.17 0.422485 5.68833 0
M  V30 29057 O 2766.1 2.35575 5.53885 0
M  V30 29058 H 2769.93 2.04363 2.24654 0
M  V30 29059 H 2767.51 1.05297 1.05986 0
M  V30 29060 H 2769.39 0.534309 4.17999 0
M  V30 29061 H 2768.07 -0.193664 3.2312 0
M  V30 29062 H 2766.97 2.11892 3.08306 0
M  V30 29063 H 2768.31 2.77159 4.06748 0
M  V30 29064 N 2769.96 -1.14755 1.08024 0
M  V30 29065 C 2770.87 -2.23332 0.718331 0
M  V30 29066 C 2771.89 -1.71838 -0.273447 0
M  V30 29067 O 2773.06 -2.01052 -0.11837 0
M  V30 29068 C 2770.13 -3.4646 0.128916 0
M  V30 29069 C 2769.19 -4.12913 1.17481 0
M  V30 29070 C 2768.42 -5.30163 0.613423 0
M  V30 29071 O 2768.64 -5.67561 -0.568358 0
M  V30 29072 O 2767.58 -5.86297 1.3616 0
M  V30 29073 H 2771.4 -2.56633 1.62399 0
M  V30 29074 H 2768.99 -1.2261 0.853649 0
M  V30 29075 H 2770.87 -4.20938 -0.197175 0
M  V30 29076 H 2769.55 -3.14893 -0.749959 0
M  V30 29077 H 2768.45 -3.40325 1.55336 0
M  V30 29078 H 2769.79 -4.48577 2.02582 0
M  V30 29079 N 2771.44 -0.865331 -1.31719 0
M  V30 29080 C 2772.35 -0.320976 -2.32394 0
M  V30 29081 C 2773.36 0.566717 -1.64512 0
M  V30 29082 O 2774.54 0.46454 -1.95969 0
M  V30 29083 C 2771.6 0.47264 -3.43463 0
M  V30 29084 C 2770.67 -0.44246 -4.27014 0
M  V30 29085 C 2769.9 0.313375 -5.32779 0
M  V30 29086 O 2770.12 1.54205 -5.4916 0
M  V30 29087 O 2769.06 -0.326363 -6.01015 0
M  V30 29088 H 2772.88 -1.15533 -2.80866 0
M  V30 29089 H 2770.47 -0.628569 -1.35534 0
M  V30 29090 H 2772.35 0.922709 -4.11174 0
M  V30 29091 H 2771.02 1.28362 -2.97161 0
M  V30 29092 H 2769.93 -0.94093 -3.62074 0
M  V30 29093 H 2771.26 -1.21891 -4.76868 0
M  V30 29094 N 2772.92 1.44707 -0.624311 0
M  V30 29095 C 2773.83 2.34442 0.0860671 0
M  V30 29096 C 2774.84 1.52222 0.842883 0
M  V30 29097 O 2776.02 1.84972 0.79669 0
M  V30 29098 C 2773.08 3.301 1.05993 0
M  V30 29099 C 2772.14 4.28228 0.303241 0
M  V30 29100 C 2771.38 5.19316 1.23072 0
M  V30 29101 O 2771.6 5.14186 2.4692 0
M  V30 29102 O 2770.53 5.97593 0.718725 0
M  V30 29103 H 2774.36 2.96623 -0.651808 0
M  V30 29104 H 2771.94 1.44367 -0.384519 0
M  V30 29105 H 2773.83 3.89 1.6204 0
M  V30 29106 H 2772.5 2.70462 1.77854 0
M  V30 29107 H 2771.41 3.72894 -0.300098 0
M  V30 29108 H 2772.74 4.90768 -0.375209 0
M  V30 29109 N 2774.39 0.364449 1.53328 0
M  V30 29110 C 2775.3 -0.490512 2.29415 0
M  V30 29111 C 2776.32 -1.09361 1.35337 0
M  V30 29112 O 2777.5 -1.1048 1.68393 0
M  V30 29113 C 2774.56 -1.61524 3.06775 0
M  V30 29114 C 2773.62 -1.03979 4.16518 0
M  V30 29115 C 2772.85 -2.11091 4.9018 0
M  V30 29116 O 2773.08 -3.32183 4.63693 0
M  V30 29117 O 2772.01 -1.74212 5.76137 0
M  V30 29118 H 2775.84 0.128613 3.03428 0
M  V30 29119 H 2773.42 0.128864 1.48843 0
M  V30 29120 H 2775.3 -2.26918 3.55086 0
M  V30 29121 H 2773.98 -2.21978 2.356 0
M  V30 29122 H 2772.89 -0.34979 3.72461 0
M  V30 29123 H 2774.22 -0.479814 4.89856 0
M  V30 29124 N 2775.87 -1.57322 0.0935872 0
M  V30 29125 C 2777.15 -1.85757 -0.612659 0
M  V30 29126 C 2777.53 -0.990163 -1.86438 0
M  V30 29127 O 2776.88 -0.0621764 -2.28415 0
M  V30 29128 C 2777.09 -3.36395 -0.929488 0
M  V30 29129 C 2778.43 -4.04415 -1.29359 0
M  V30 29130 O 2779.46 -3.41267 -1.02055 0
M  V30 29131 O 2778.32 -5.15835 -1.80489 0
M  V30 29132 H 2775.41 -0.768134 -0.30643 0
M  V30 29133 H 2777.96 -1.6923 0.12617 0
M  V30 29134 H 2776.73 -3.91278 -0.0414078 0
M  V30 29135 H 2776.35 -3.58263 -1.72435 0
M  V30 29136 N 2777.35 0.180099 -1.56568 0
M  V30 29137 C 2778.26 1.24323 -1.9895 0
M  V30 29138 C 2779.28 1.48948 -0.899473 0
M  V30 29139 O 2780.45 1.61269 -1.20642 0
M  V30 29140 C 2777.52 2.56431 -2.33332 0
M  V30 29141 C 2776.58 2.39746 -3.56118 0
M  V30 29142 C 2775.81 3.65554 -3.88852 0
M  V30 29143 O 2776.03 4.70362 -3.2267 0
M  V30 29144 O 2774.97 3.60188 -4.82232 0
M  V30 29145 H 2778.79 0.913514 -2.89635 0
M  V30 29146 H 2776.38 0.386281 -1.4432 0
M  V30 29147 H 2778.26 3.34378 -2.56456 0
M  V30 29148 H 2776.94 2.89 -1.45811 0
M  V30 29149 H 2775.84 1.5986 -3.38224 0
M  V30 29150 H 2777.18 2.12105 -4.44153 0
M  V30 29151 N 2778.83 1.51088 0.448349 0
M  V30 29152 C 2779.74 1.74431 1.56879 0
M  V30 29153 C 2780.75 0.628118 1.62267 0
M  V30 29154 O 2781.93 0.909107 1.79714 0
M  V30 29155 C 2778.99 1.85431 2.92944 0
M  V30 29156 C 2778.06 3.09252 2.97761 0
M  V30 29157 C 2777.29 3.19718 4.27336 0
M  V30 29158 O 2777.51 2.36396 5.19108 0
M  V30 29159 O 2776.45 4.12618 4.38212 0
M  V30 29160 H 2780.27 2.69455 1.40099 0
M  V30 29161 H 2777.86 1.35457 0.630223 0
M  V30 29162 H 2779.74 1.94716 3.73716 0
M  V30 29163 H 2778.41 0.935941 3.09874 0
M  V30 29164 H 2777.32 3.05454 2.15984 0
M  V30 29165 H 2778.65 4.00743 2.85773 0
M  V30 29166 N 2780.31 -0.703068 1.41049 0
M  V30 29167 C 2781.22 -1.847 1.44648 0
M  V30 29168 C 2782.23 -1.70689 0.337808 0
M  V30 29169 O 2783.41 -1.92736 0.584361 0
M  V30 29170 C 2780.47 -3.20615 1.31934 0
M  V30 29171 C 2779.53 -3.46789 2.53053 0
M  V30 29172 C 2778.77 -4.7622 2.40936 0
M  V30 29173 O 2778.99 -5.52187 1.42988 0
M  V30 29174 O 2777.92 -5.0301 3.30552 0
M  V30 29175 H 2781.75 -1.84619 2.41142 0
M  V30 29176 H 2779.34 -0.855145 1.22506 0
M  V30 29177 H 2781.22 -4.01776 1.27099 0
M  V30 29178 H 2779.89 -3.21396 0.385525 0
M  V30 29179 H 2778.8 -2.65589 2.63464 0
M  V30 29180 H 2780.13 -3.50816 3.45237 0
M  V30 29181 N 2781.78 -1.26752 -0.936569 0
M  V30 29182 C 2782.69 -1.105 -2.06947 0
M  V30 29183 C 2783.71 -0.0373016 -1.7396 0
M  V30 29184 O 2784.89 -0.241979 -1.99941 0
M  V30 29185 C 2781.95 -0.74455 -3.38611 0
M  V30 29186 C 2781.01 -1.89216 -3.85352 0
M  V30 29187 C 2780.25 -1.54882 -5.10732 0
M  V30 29188 O 2780.47 -0.452645 -5.68601 0
M  V30 29189 O 2779.4 -2.38509 -5.52628 0
M  V30 29190 H 2783.23 -2.05551 -2.23567 0
M  V30 29191 H 2780.81 -1.05857 -1.05426 0
M  V30 29192 H 2782.7 -0.556469 -4.1771 0
M  V30 29193 H 2781.37 0.176525 -3.23218 0
M  V30 29194 H 2780.28 -2.13524 -3.07178 0
M  V30 29195 H 2781.61 -2.79313 -4.05272 0
M  V30 29196 N 2783.26 1.1418 -1.08631 0
M  V30 29197 C 2784.51 1.84905 -0.815763 0
M  V30 29198 C 2784.83 1.83476 0.660409 0
M  V30 29199 O 2784.1 1.28479 1.47885 0
M  V30 29200 H 2782.68 0.684643 -0.298785 0
M  V30 29201 H 2785.34 1.38352 -1.37276 0
M  V30 29202 H 2784.44 2.89663 -1.16198 0
M  V30 29203 N 2784.74 0.872304 1.31258 0
M  V30 29204 C 2785.65 0.333295 2.3222 0
M  V30 29205 C 2786.67 -0.557984 1.64811 0
M  V30 29206 O 2787.84 -0.454141 1.96213 0
M  V30 29207 C 2784.91 -0.454419 3.43709 0
M  V30 29208 C 2783.97 0.465099 4.26773 0
M  V30 29209 C 2783.2 -0.285116 5.32938 0
M  V30 29210 O 2783.42 -1.5129 5.4997 0
M  V30 29211 O 2782.36 0.358232 6.00833 0
M  V30 29212 H 2786.18 1.17021 2.8025 0
M  V30 29213 H 2783.77 0.635748 1.35198 0
M  V30 29214 H 2785.65 -0.90089 4.11658 0
M  V30 29215 H 2784.33 -1.26784 2.97838 0
M  V30 29216 H 2783.23 0.960119 3.6157 0
M  V30 29217 H 2784.57 1.24418 4.76215 0
M  V30 29218 N 2786.22 -1.44374 0.631976 0
M  V30 29219 C 2787.13 -2.34484 -0.0736328 0
M  V30 29220 C 2788.14 -1.52667 -0.834798 0
M  V30 29221 O 2789.32 -1.85392 -0.786869 0
M  V30 29222 C 2786.39 -3.30658 -1.04241 0
M  V30 29223 C 2785.45 -4.28382 -0.280527 0
M  V30 29224 C 2784.68 -5.19961 -1.20316 0
M  V30 29225 O 2784.9 -5.15488 -2.44189 0
M  V30 29226 O 2783.84 -5.97966 -0.687023 0
M  V30 29227 H 2787.66 -2.96273 0.667529 0
M  V30 29228 H 2785.25 -1.44161 0.392169 0
M  V30 29229 H 2787.13 -3.89854 -1.59974 0
M  V30 29230 H 2785.8 -2.71401 -1.76417 0
M  V30 29231 H 2784.71 -3.7273 0.31987 0
M  V30 29232 H 2786.04 -4.90562 0.40123 0
M  V30 29233 N 2787.7 -0.372575 -1.53133 0
M  V30 29234 C 2788.61 0.478339 -2.29672 0
M  V30 29235 C 2789.62 1.08642 -1.35915 0
M  V30 29236 O 2790.8 1.09585 -1.68977 0
M  V30 29237 C 2787.86 1.59894 -3.07627 0
M  V30 29238 C 2786.92 1.01769 -4.17063 0
M  V30 29239 C 2786.16 2.08489 -4.91292 0
M  V30 29240 O 2786.38 3.29719 -4.65448 0
M  V30 29241 O 2785.31 1.71154 -5.77053 0
M  V30 29242 H 2789.14 -0.144703 -3.03355 0
M  V30 29243 H 2786.73 -0.136755 -1.48773 0
M  V30 29244 H 2788.61 2.25031 -3.56285 0
M  V30 29245 H 2787.28 2.20726 -2.36774 0
M  V30 29246 H 2786.19 0.330033 -3.72641 0
M  V30 29247 H 2787.52 0.453829 -4.90103 0
M  V30 29248 N 2789.17 1.5727 -0.101929 0
M  V30 29249 C 2790.45 1.8608 0.6028 0
M  V30 29250 C 2790.83 1.00004 1.8591 0
M  V30 29251 O 2790.18 0.0742889 2.28379 0
M  V30 29252 C 2790.39 3.36883 0.911635 0
M  V30 29253 C 2791.74 4.05095 1.27212 0
M  V30 29254 O 2792.76 3.41804 1.00244 0
M  V30 29255 O 2791.62 5.16785 1.77751 0
M  V30 29256 H 2788.71 0.769748 0.302353 0
M  V30 29257 H 2791.26 1.69161 -0.135143 0
M  V30 29258 H 2790.03 3.91295 0.0206568 0
M  V30 29259 H 2789.66 3.59172 1.70532 0
M  V30 29260 N 2790.65 -0.171793 1.56661 0
M  V30 29261 C 2791.56 -1.23266 1.99606 0
M  V30 29262 C 2792.58 -1.48469 0.907359 0
M  V30 29263 O 2793.75 -1.60627 1.21495 0
M  V30 29264 C 2790.82 -2.5519 2.34689 0
M  V30 29265 C 2789.88 -2.37854 3.57385 0
M  V30 29266 C 2789.11 -3.63487 3.90785 0
M  V30 29267 O 2789.34 -4.68644 3.2516 0
M  V30 29268 O 2788.27 -3.57626 4.84136 0
M  V30 29269 H 2792.1 -0.898141 2.90116 0
M  V30 29270 H 2789.68 -0.378622 1.44523 0
M  V30 29271 H 2791.56 -3.33013 2.58225 0
M  V30 29272 H 2790.24 -2.88222 1.47342 0
M  V30 29273 H 2789.15 -1.58064 3.39067 0
M  V30 29274 H 2790.48 -2.09747 4.45272 0
M  V30 29275 N 2792.13 -1.51324 -0.44033 0
M  V30 29276 C 2793.04 -1.75261 -1.55952 0
M  V30 29277 C 2794.06 -0.636715 -1.61932 0
M  V30 29278 O 2795.23 -0.918625 -1.7923 0
M  V30 29279 C 2792.3 -1.86982 -2.91956 0
M  V30 29280 C 2791.36 -3.10827 -2.96117 0
M  V30 29281 C 2790.59 -3.2198 -4.25634 0
M  V30 29282 O 2790.81 -2.39146 -5.17847 0
M  V30 29283 O 2789.75 -4.14937 -4.36017 0
M  V30 29284 H 2793.57 -2.70194 -1.38668 0
M  V30 29285 H 2791.16 -1.35789 -0.623031 0
M  V30 29286 H 2793.04 -1.96695 -3.72678 0
M  V30 29287 H 2791.72 -0.952361 -3.09373 0
M  V30 29288 H 2790.62 -3.06595 -2.14361 0
M  V30 29289 H 2791.96 -4.02252 -2.83644 0
M  V30 29290 N 2793.61 0.695578 -1.41419 0
M  V30 29291 C 2794.52 1.8393 -1.45626 0
M  V30 29292 C 2795.53 1.70508 -0.346855 0
M  V30 29293 O 2796.71 1.92423 -0.594574 0
M  V30 29294 C 2793.78 3.19911 -1.33633 0
M  V30 29295 C 2792.84 3.45442 -2.54888 0
M  V30 29296 C 2792.07 4.74936 -2.43458 0
M  V30 29297 O 2792.29 5.51421 -1.45914 0
M  V30 29298 O 2791.23 5.0125 -3.33215 0
M  V30 29299 H 2795.05 1.83338 -2.42118 0
M  V30 29300 H 2792.64 0.848637 -1.22957 0
M  V30 29301 H 2794.52 4.01096 -1.29228 0
M  V30 29302 H 2793.19 3.21187 -0.402564 0
M  V30 29303 H 2792.1 2.64188 -2.64869 0
M  V30 29304 H 2793.43 3.48981 -3.47093 0
M  V30 29305 N 2795.09 1.27247 0.929833 0
M  V30 29306 C 2796.03 1.09788 2.03015 0
M  V30 29307 C 2797 -0.000427548 1.661 0
M  V30 29308 O 2798.19 0.161495 1.90115 0
M  V30 29309 C 2795.33 0.748875 3.36877 0
M  V30 29310 C 2794.44 1.9246 3.8676 0
M  V30 29311 C 2793.58 1.51767 5.09058 0
M  V30 29312 C 2792.62 2.66101 5.51232 0
M  V30 29313 N 2791.75 2.26011 6.64728 0
M  V30 29314 H 2796.59 2.03943 2.17282 0
M  V30 29315 H 2794.13 1.01526 1.06447 0
M  V30 29316 H 2796.09 0.527356 4.13854 0
M  V30 29317 H 2794.72 -0.155714 3.22424 0
M  V30 29318 H 2793.77 2.25872 3.06082 0
M  V30 29319 H 2795.08 2.78235 4.13989 0
M  V30 29320 H 2794.24 1.25726 5.9353 0
M  V30 29321 H 2792.98 0.630981 4.83601 0
M  V30 29322 H 2791.98 2.92857 4.65311 0
M  V30 29323 H 2793.21 3.55387 5.78686 0
M  V30 29324 H 2791.15 1.39791 6.40933 0
M  V30 29325 H 2791.07 3.05325 6.91601 0
M  V30 29326 H 2792.34 2.03212 7.52546 0
M  V30 29327 N 2796.57 -1.13603 1.09235 0
M  V30 29328 C 2797.48 -2.22558 0.741978 0
M  V30 29329 C 2798.49 -1.72118 -0.255206 0
M  V30 29330 O 2799.67 -2.01166 -0.0970394 0
M  V30 29331 C 2796.73 -3.46304 0.165656 0
M  V30 29332 C 2795.79 -4.11643 1.21854 0
M  V30 29333 C 2795.03 -5.29483 0.669619 0
M  V30 29334 O 2795.25 -5.68132 -0.508128 0
M  V30 29335 O 2794.18 -5.8482 1.42371 0
M  V30 29336 H 2798.01 -2.54896 1.65111 0
M  V30 29337 H 2795.59 -1.21698 0.866605 0
M  V30 29338 H 2797.48 -4.21124 -0.152518 0
M  V30 29339 H 2796.15 -3.1567 -0.716518 0
M  V30 29340 H 2795.06 -3.38659 1.58937 0
M  V30 29341 H 2796.39 -4.46403 2.07328 0
M  V30 29342 N 2798.04 -0.879253 -1.30793 0
M  V30 29343 C 2798.95 -0.345606 -2.3204 0
M  V30 29344 C 2799.97 0.549236 -1.65104 0
M  V30 29345 O 2801.15 0.443729 -1.96451 0
M  V30 29346 C 2798.21 0.436185 -3.43945 0
M  V30 29347 C 2797.27 -0.487725 -4.2652 0
M  V30 29348 C 2796.5 0.256849 -5.33082 0
M  V30 29349 O 2796.73 1.48371 -5.50765 0
M  V30 29350 O 2795.66 -0.39009 -6.00635 0
M  V30 29351 H 2799.49 -1.18506 -2.79625 0
M  V30 29352 H 2797.07 -0.642909 -1.34859 0
M  V30 29353 H 2798.95 0.879047 -4.1213 0
M  V30 29354 H 2797.63 1.25203 -2.98506 0
M  V30 29355 H 2796.54 -0.97928 -3.61055 0
M  V30 29356 H 2797.87 -1.26942 -4.75549 0
M  V30 29357 N 2799.52 1.44037 -0.639624 0
M  V30 29358 C 2800.8 1.95444 -0.0780463 0
M  V30 29359 C 2801.18 1.58136 1.39844 0
M  V30 29360 O 2800.53 0.859652 2.11713 0
M  V30 29361 C 2800.74 3.47621 -0.309893 0
M  V30 29362 C 2802.08 4.24092 -0.207596 0
M  V30 29363 O 2803.11 3.55379 -0.241715 0
M  V30 29364 O 2801.97 5.46369 -0.119737 0
M  V30 29365 H 2799.06 0.826816 0.0174388 0
M  V30 29366 H 2801.61 1.54045 -0.711918 0
M  V30 29367 H 2800.38 3.67856 -1.33408 0
M  V30 29368 H 2800 3.95988 0.357707 0
M  V30 29369 N 2801 0.380691 1.52933 0
M  V30 29370 C 2801.91 -0.466152 2.29922 0
M  V30 29371 C 2802.93 -1.0792 1.36489 0
M  V30 29372 O 2804.1 -1.08687 1.69555 0
M  V30 29373 C 2801.17 -1.58261 3.08471 0
M  V30 29374 C 2800.23 -0.995553 4.17597 0
M  V30 29375 C 2799.46 -2.0588 4.92391 0
M  V30 29376 O 2799.68 -3.27246 4.6719 0
M  V30 29377 O 2798.62 -1.68092 5.77952 0
M  V30 29378 H 2802.44 0.160788 3.03274 0
M  V30 29379 H 2800.03 0.144643 1.48698 0
M  V30 29380 H 2801.91 -2.23139 3.57473 0
M  V30 29381 H 2800.59 -2.19467 2.37941 0
M  V30 29382 H 2799.49 -0.310266 3.72811 0
M  V30 29383 H 2800.83 -0.427831 4.90337 0
M  V30 29384 N 2802.48 -1.57214 0.110268 0
M  V30 29385 C 2803.39 -2.18385 -0.857039 0
M  V30 29386 C 2804.4 -1.15752 -1.29913 0
M  V30 29387 O 2805.58 -1.48186 -1.36392 0
M  V30 29388 C 2802.64 -2.76426 -2.09259 0
M  V30 29389 C 2801.71 -3.94066 -1.70326 0
M  V30 29390 C 2800.94 -4.4933 -2.87991 0
M  V30 29391 O 2801.16 -4.03504 -4.03163 0
M  V30 29392 O 2800.1 -5.4014 -2.6558 0
M  V30 29393 H 2803.92 -3.0148 -0.366508 0
M  V30 29394 H 2801.51 -1.48958 -0.114888 0
M  V30 29395 H 2803.39 -3.13461 -2.81639 0
M  V30 29396 H 2802.06 -1.96368 -2.57335 0
M  V30 29397 H 2800.97 -3.61816 -0.950801 0
M  V30 29398 H 2802.3 -4.75533 -1.26999 0
M  V30 29399 N 2803.96 0.163482 -1.5675 0
M  V30 29400 C 2804.87 1.22206 -2.00257 0
M  V30 29401 C 2805.88 1.47986 -0.91522 0
M  V30 29402 O 2807.06 1.5998 -1.22345 0
M  V30 29403 C 2804.12 2.53942 -2.36039 0
M  V30 29404 C 2803.18 2.35956 -3.58641 0
M  V30 29405 C 2802.42 3.61409 -3.92707 0
M  V30 29406 O 2802.64 4.66913 -3.27641 0
M  V30 29407 O 2801.57 3.55053 -4.86026 0
M  V30 29408 H 2805.4 0.882743 -2.90588 0
M  V30 29409 H 2802.98 0.370952 -1.44721 0
M  V30 29410 H 2804.87 3.31639 -2.59988 0
M  V30 29411 H 2803.54 2.87437 -1.48868 0
M  V30 29412 H 2802.45 1.56264 -3.39901 0
M  V30 29413 H 2803.78 2.07382 -4.46378 0
M  V30 29414 N 2805.43 1.51555 0.432299 0
M  V30 29415 C 2806.66 1.68288 1.20361 0
M  V30 29416 C 2807.08 0.382363 1.84888 0
M  V30 29417 O 2806.43 -0.639597 1.70925 0
M  V30 29418 C 2806.48 2.80212 2.28393 0
M  V30 29419 O 2806.21 4.05225 1.66505 0
M  V30 29420 C 2807.71 3.08257 3.18579 0
M  V30 29421 H 2804.93 0.564603 0.362581 0
M  V30 29422 H 2807.47 1.97997 0.511612 0
M  V30 29423 H 2805.63 2.53088 2.93301 0
M  V30 29424 H 2806.04 4.67422 2.37942 0
M  V30 29425 H 2807.51 3.90141 3.90504 0
M  V30 29426 H 2807.99 2.20867 3.79624 0
M  V30 29427 H 2808.6 3.3706 2.59366 0
M  V30 29428 N 2806.91 -0.688069 1.41786 0
M  V30 29429 C 2807.87 -1.78365 1.43939 0
M  V30 29430 C 2808.87 -1.57401 0.328894 0
M  V30 29431 O 2810.06 -1.63936 0.589121 0
M  V30 29432 C 2807.2 -3.16835 1.2581 0
M  V30 29433 H 2808.39 -1.77847 2.41475 0
M  V30 29434 H 2805.94 -0.896425 1.28039 0
M  V30 29435 H 2806.68 -3.22988 0.291442 0
M  V30 29436 H 2806.46 -3.33455 2.06278 0
M  V30 29437 H 2807.95 -3.96794 1.30169 0
M  V30 29438 N 2808.39 -1.27739 -0.923072 0
M  V30 29439 C 2809.32 -1.06661 -2.02869 0
M  V30 29440 C 2810.33 -0.0212381 -1.62786 0
M  V30 29441 O 2811.52 -0.263298 -1.76547 0
M  V30 29442 C 2808.62 -0.596879 -3.33602 0
M  V30 29443 C 2807.8 -1.71558 -4.02351 0
M  V30 29444 C 2806.86 -1.2408 -5.11361 0
M  V30 29445 O 2805.88 -1.94132 -5.35071 0
M  V30 29446 N 2807.08 -0.0989464 -5.80416 0
M  V30 29447 H 2809.85 -2.01873 -2.21512 0
M  V30 29448 H 2807.41 -1.19367 -1.09376 0
M  V30 29449 H 2809.4 -0.263055 -4.03844 0
M  V30 29450 H 2807.97 0.262132 -3.11499 0
M  V30 29451 H 2807.19 -2.21946 -3.25782 0
M  V30 29452 H 2808.48 -2.46627 -4.45031 0
M  V30 29453 H 2807.88 0.485644 -5.63612 0
M  V30 29454 H 2806.43 0.175666 -6.51563 0
M  V30 29455 N 2809.87 1.13022 -1.09836 0
M  V30 29456 C 2810.78 2.22161 -0.75377 0
M  V30 29457 C 2811.79 1.72251 0.246074 0
M  V30 29458 O 2812.97 2.01215 0.0863697 0
M  V30 29459 C 2810.04 3.46211 -0.184019 0
M  V30 29460 C 2809.1 4.10991 -1.24035 0
M  V30 29461 C 2808.33 5.2912 -0.69769 0
M  V30 29462 O 2808.55 5.68394 0.477992 0
M  V30 29463 O 2807.49 5.84056 -1.4547 0
M  V30 29464 H 2811.31 2.54017 -1.66461 0
M  V30 29465 H 2808.9 1.21236 -0.873047 0
M  V30 29466 H 2810.78 4.21199 0.130183 0
M  V30 29467 H 2809.45 3.16046 0.699767 0
M  V30 29468 H 2808.36 3.37811 -1.60731 0
M  V30 29469 H 2809.69 4.45297 -2.09693 0
M  V30 29470 N 2811.35 0.886177 1.30325 0
M  V30 29471 C 2812.29 0.352109 2.28098 0
M  V30 29472 C 2813.26 -0.558369 1.56434 0
M  V30 29473 O 2814.45 -0.486529 1.84493 0
M  V30 29474 C 2811.59 -0.426285 3.42457 0
M  V30 29475 C 2810.7 0.513547 4.28937 0
M  V30 29476 C 2809.84 -0.280563 5.30459 0
M  V30 29477 C 2808.88 0.654663 6.08589 0
M  V30 29478 N 2808.01 -0.104198 7.02023 0
M  V30 29479 H 2812.85 1.19102 2.73164 0
M  V30 29480 H 2810.39 0.598685 1.34366 0
M  V30 29481 H 2812.35 -0.893515 4.0752 0
M  V30 29482 H 2810.98 -1.22976 2.98457 0
M  V30 29483 H 2810.03 1.09927 3.64171 0
M  V30 29484 H 2811.34 1.22998 4.83397 0
M  V30 29485 H 2810.5 -0.809594 6.01274 0
M  V30 29486 H 2809.23 -1.03021 4.76695 0
M  V30 29487 H 2808.24 1.19531 5.36649 0
M  V30 29488 H 2809.46 1.40342 6.6444 0
M  V30 29489 H 2807.41 -0.836358 6.50647 0
M  V30 29490 H 2807.33 0.552585 7.53978 0
M  V30 29491 H 2808.6 -0.613933 7.77079 0
M  V30 29492 N 2812.82 -1.43695 0.647253 0
M  V30 29493 C 2813.73 -2.34549 -0.0487585 0
M  V30 29494 C 2814.75 -1.53544 -0.818559 0
M  V30 29495 O 2815.93 -1.86217 -0.767162 0
M  V30 29496 C 2812.99 -3.31745 -1.00728 0
M  V30 29497 C 2812.05 -4.28656 -0.235075 0
M  V30 29498 C 2811.29 -5.21208 -1.14794 0
M  V30 29499 O 2811.51 -5.18049 -2.38708 0
M  V30 29500 O 2810.44 -5.98661 -0.623562 0
M  V30 29501 H 2814.27 -2.95548 0.698915 0
M  V30 29502 H 2811.85 -1.43737 0.407438 0
M  V30 29503 H 2813.74 -3.91529 -1.5583 0
M  V30 29504 H 2812.41 -2.73257 -1.73529 0
M  V30 29505 H 2811.32 -3.7237 0.359385 0
M  V30 29506 H 2812.65 -4.90109 0.453238 0
M  V30 29507 N 2814.3 -0.388796 -1.52729 0
M  V30 29508 C 2815.58 0.251099 -1.93982 0
M  V30 29509 C 2815.96 1.64402 -1.32421 0
M  V30 29510 O 2815.31 2.23138 -0.492113 0
M  V30 29511 C 2815.52 0.277959 -3.47891 0
M  V30 29512 C 2816.87 0.507155 -4.2156 0
M  V30 29513 O 2817.89 0.35819 -3.54394 0
M  V30 29514 O 2816.75 0.798999 -5.40628 0
M  V30 29515 H 2813.84 0.155966 -0.81216 0
M  V30 29516 H 2816.39 -0.443266 -1.63809 0
M  V30 29517 H 2815.16 -0.697737 -3.85029 0
M  V30 29518 H 2814.78 1.01727 -3.84366 0
M  V30 29519 N 2815.78 1.57153 -0.118604 0
M  V30 29520 C 2816.69 2.18836 0.845446 0
M  V30 29521 C 2817.71 1.1644 1.29297 0
M  V30 29522 O 2818.88 1.48908 1.35604 0
M  V30 29523 C 2815.95 2.77532 2.0779 0
M  V30 29524 C 2815.01 3.94963 1.68233 0
M  V30 29525 C 2814.24 4.5085 2.85604 0
M  V30 29526 O 2814.46 4.05636 4.01018 0
M  V30 29527 O 2813.4 5.4154 2.62712 0
M  V30 29528 H 2817.22 3.0167 0.350515 0
M  V30 29529 H 2814.81 1.49016 0.106987 0
M  V30 29530 H 2816.69 3.1495 2.79972 0
M  V30 29531 H 2815.37 1.9773 2.5629 0
M  V30 29532 H 2814.27 3.62315 0.931599 0
M  V30 29533 H 2815.61 4.762 1.24475 0
M  V30 29534 N 2817.26 -0.155167 1.56834 0
M  V30 29535 C 2818.17 -1.21142 2.00902 0
M  V30 29536 C 2819.18 -1.47498 0.923055 0
M  V30 29537 O 2820.36 -1.59329 1.23192 0
M  V30 29538 C 2817.43 -2.52686 2.37382 0
M  V30 29539 C 2816.49 -2.3405 3.59887 0
M  V30 29540 C 2815.72 -3.59322 3.94618 0
M  V30 29541 O 2815.94 -4.65169 3.30112 0
M  V30 29542 O 2814.88 -3.52471 4.87902 0
M  V30 29543 H 2818.7 -0.86732 2.91052 0
M  V30 29544 H 2816.29 -0.363272 1.44916 0
M  V30 29545 H 2818.17 -3.30255 2.61743 0
M  V30 29546 H 2816.84 -2.86643 1.5039 0
M  V30 29547 H 2815.75 -1.54459 3.40724 0
M  V30 29548 H 2817.08 -2.05012 4.47472 0
M  V30 29549 N 2818.74 -1.51782 -0.424256 0
M  V30 29550 C 2819.68 -1.74039 -1.51588 0
M  V30 29551 C 2820.65 -0.582385 -1.55555 0
M  V30 29552 O 2821.84 -0.818275 -1.72363 0
M  V30 29553 C 2818.98 -1.88325 -2.89185 0
M  V30 29554 C 2818.09 -3.15925 -2.94645 0
M  V30 29555 C 2817.23 -3.20729 -4.23446 0
M  V30 29556 C 2816.27 -4.42591 -4.22823 0
M  V30 29557 N 2815.4 -4.44872 -5.4317 0
M  V30 29558 H 2820.24 -2.67214 -1.31912 0
M  V30 29559 H 2817.78 -1.3242 -0.640576 0
M  V30 29560 H 2819.74 -1.94589 -3.6904 0
M  V30 29561 H 2818.37 -0.985456 -3.0739 0
M  V30 29562 H 2817.42 -3.18906 -2.07372 0
M  V30 29563 H 2818.73 -4.058 -2.90048 0
M  V30 29564 H 2817.89 -3.25982 -5.11684 0
M  V30 29565 H 2816.62 -2.28765 -4.30718 0
M  V30 29566 H 2815.63 -4.37501 -3.32976 0
M  V30 29567 H 2816.85 -5.35834 -4.17204 0
M  V30 29568 H 2814.8 -3.55784 -5.51138 0
M  V30 29569 H 2814.72 -5.28573 -5.40506 0
M  V30 29570 H 2815.99 -4.54335 -6.33404 0
M  V30 29571 N 2820.21 0.68054 -1.42149 0
M  V30 29572 C 2821.12 1.82375 -1.47568 0
M  V30 29573 C 2822.14 1.7013 -0.36492 0
M  V30 29574 O 2823.32 1.91782 -0.61495 0
M  V30 29575 C 2820.38 3.18476 -1.37018 0
M  V30 29576 C 2819.44 3.4272 -2.58538 0
M  V30 29577 C 2818.68 4.72327 -2.48481 0
M  V30 29578 O 2818.9 5.49842 -1.51755 0
M  V30 29579 O 2817.83 4.97688 -3.38512 0
M  V30 29580 H 2821.66 1.8076 -2.44049 0
M  V30 29581 H 2819.24 0.835548 -1.23851 0
M  V30 29582 H 2821.13 3.99703 -1.33475 0
M  V30 29583 H 2819.8 3.20742 -0.436608 0
M  V30 29584 H 2818.71 2.61364 -2.67656 0
M  V30 29585 H 2820.04 3.4528 -3.50775 0
M  V30 29586 N 2821.69 1.28226 0.916285 0
M  V30 29587 C 2822.6 1.13778 2.05163 0
M  V30 29588 C 2823.62 0.0649724 1.73879 0
M  V30 29589 O 2824.79 0.273757 1.99531 0
M  V30 29590 C 2821.86 0.798326 3.37384 0
M  V30 29591 C 2820.92 1.95323 3.82292 0
M  V30 29592 C 2820.15 1.62987 5.08204 0
M  V30 29593 O 2820.38 0.543048 5.67809 0
M  V30 29594 O 2819.31 2.4727 5.48763 0
M  V30 29595 H 2823.14 2.09082 2.20269 0
M  V30 29596 H 2820.72 1.07521 1.03728 0
M  V30 29597 H 2822.6 0.622853 4.16772 0
M  V30 29598 H 2821.28 -0.125082 3.23458 0
M  V30 29599 H 2820.19 2.18384 3.03742 0
M  V30 29600 H 2821.52 2.85725 4.00777 0
M  V30 29601 N 2823.17 -1.12438 1.10433 0
M  V30 29602 C 2824.08 -2.21758 0.765541 0
M  V30 29603 C 2825.1 -1.72379 -0.236936 0
M  V30 29604 O 2826.27 -2.01258 -0.0756976 0
M  V30 29605 C 2823.34 -3.46109 0.202377 0
M  V30 29606 C 2822.4 -4.10328 1.26213 0
M  V30 29607 C 2821.63 -5.28743 0.72574 0
M  V30 29608 O 2821.85 -5.68639 -0.447842 0
M  V30 29609 O 2820.79 -5.83277 1.48566 0
M  V30 29610 H 2824.61 -2.5313 1.67806 0
M  V30 29611 H 2822.2 -1.20772 0.879464 0
M  V30 29612 H 2824.08 -4.21262 -0.107844 0
M  V30 29613 H 2822.76 -3.16412 -0.682996 0
M  V30 29614 H 2821.66 -3.36954 1.6252 0
M  V30 29615 H 2823 -4.44179 2.12051 0
M  V30 29616 N 2824.65 -0.893076 -1.29853 0
M  V30 29617 C 2825.56 -0.370198 -2.31661 0
M  V30 29618 C 2826.58 0.531694 -1.65677 0
M  V30 29619 O 2827.75 0.422868 -1.96911 0
M  V30 29620 C 2824.82 0.39968 -3.44389 0
M  V30 29621 C 2823.88 -0.532936 -4.25979 0
M  V30 29622 C 2823.11 0.200294 -5.33324 0
M  V30 29623 O 2823.33 1.42522 -5.52308 0
M  V30 29624 O 2822.27 -0.453774 -6.00187 0
M  V30 29625 H 2826.09 -1.21465 -2.78352 0
M  V30 29626 H 2823.68 -0.657176 -1.3417 0
M  V30 29627 H 2825.56 0.835285 -4.13039 0
M  V30 29628 H 2824.24 1.2203 -2.99817 0
M  V30 29629 H 2823.14 -1.01752 -3.59996 0
M  V30 29630 H 2824.48 -1.31978 -4.74176 0
M  V30 29631 N 2826.13 1.4335 -0.654865 0
M  V30 29632 C 2827.09 2.29185 0.0263159 0
M  V30 29633 C 2828.09 1.42295 0.748926 0
M  V30 29634 O 2829.28 1.63907 0.589929 0
M  V30 29635 C 2826.41 3.24391 1.048 0
M  V30 29636 H 2827.61 2.90906 -0.728934 0
M  V30 29637 H 2825.16 1.50657 -0.416175 0
M  V30 29638 H 2825.89 2.67568 1.83243 0
M  V30 29639 H 2825.68 3.88454 0.533486 0
M  V30 29640 H 2827.17 3.88812 1.52365 0
M  V30 29641 N 2827.61 0.39689 1.52521 0
M  V30 29642 C 2828.57 -0.422564 2.25271 0
M  V30 29643 C 2829.57 -0.983891 1.27186 0
M  V30 29644 O 2830.76 -0.864697 1.51224 0
M  V30 29645 C 2827.89 -1.5936 3.01359 0
M  V30 29646 H 2829.08 0.214469 2.99132 0
M  V30 29647 H 2826.64 0.149156 1.55587 0
M  V30 29648 H 2827.37 -2.26785 2.31817 0
M  V30 29649 H 2827.16 -1.19772 3.73359 0
M  V30 29650 H 2828.65 -2.17357 3.56575 0
M  V30 29651 N 2829.08 -1.57088 0.126936 0
M  V30 29652 C 2829.99 -2.19282 -0.833828 0
M  V30 29653 C 2831.01 -1.17124 -1.28678 0
M  V30 29654 O 2832.19 -1.49625 -1.34812 0
M  V30 29655 C 2829.25 -2.7863 -2.06315 0
M  V30 29656 C 2828.31 -3.9585 -1.66136 0
M  V30 29657 C 2827.54 -4.52359 -2.83209 0
M  V30 29658 O 2827.77 -4.07757 -3.98861 0
M  V30 29659 O 2826.7 -5.42926 -2.59836 0
M  V30 29660 H 2830.53 -3.01852 -0.334511 0
M  V30 29661 H 2828.11 -1.49071 -0.0990829 0
M  V30 29662 H 2829.99 -3.1643 -2.78298 0
M  V30 29663 H 2828.67 -1.99086 -2.55238 0
M  V30 29664 H 2827.58 -3.62804 -0.912372 0
M  V30 29665 H 2828.91 -4.76854 -1.21948 0
M  V30 29666 N 2830.56 0.146848 -1.56914 0
M  V30 29667 C 2831.81 0.857738 -1.82995 0
M  V30 29668 C 2832.13 1.81699 -0.707846 0
M  V30 29669 O 2831.4 1.94024 0.270487 0
M  V30 29670 H 2829.98 0.319739 -0.675112 0
M  V30 29671 H 2832.64 0.140815 -1.94391 0
M  V30 29672 H 2831.74 1.41989 -2.77931 0
M  V30 29673 N 2832.04 1.52005 0.4162 0
M  V30 29674 C 2832.95 1.77719 1.53144 0
M  V30 29675 C 2833.97 0.662396 1.60898 0
M  V30 29676 O 2835.14 0.947023 1.77745 0
M  V30 29677 C 2832.21 1.91604 2.88945 0
M  V30 29678 C 2831.27 3.15499 2.91134 0
M  V30 29679 C 2830.5 3.28711 4.20458 0
M  V30 29680 O 2830.72 2.47354 5.13977 0
M  V30 29681 O 2829.66 4.21821 4.29361 0
M  V30 29682 H 2833.48 2.72366 1.34352 0
M  V30 29683 H 2831.07 1.36763 0.601349 0
M  V30 29684 H 2832.95 2.02599 3.69502 0
M  V30 29685 H 2831.63 1.00146 3.07819 0
M  V30 29686 H 2830.53 3.09966 2.09456 0
M  V30 29687 H 2831.87 4.06714 2.77208 0
M  V30 29688 N 2833.52 -0.672992 1.42508 0
M  V30 29689 C 2834.46 -1.78649 1.46127 0
M  V30 29690 C 2835.43 -1.63124 0.313036 0
M  V30 29691 O 2836.62 -1.83652 0.51737 0
M  V30 29692 C 2833.76 -3.16691 1.37116 0
M  V30 29693 C 2832.87 -3.4349 2.61989 0
M  V30 29694 C 2832.01 -4.71271 2.45107 0
M  V30 29695 C 2831.05 -4.9111 3.65345 0
M  V30 29696 N 2830.18 -6.10133 3.47394 0
M  V30 29697 H 2835.02 -1.7489 2.41283 0
M  V30 29698 H 2832.56 -0.853745 1.1979 0
M  V30 29699 H 2834.52 -3.96465 1.29888 0
M  V30 29700 H 2833.15 -3.19569 0.455546 0
M  V30 29701 H 2832.2 -2.57956 2.79576 0
M  V30 29702 H 2833.51 -3.54043 3.51361 0
M  V30 29703 H 2832.67 -5.59139 2.35475 0
M  V30 29704 H 2831.41 -4.63004 1.53227 0
M  V30 29705 H 2830.41 -4.01684 3.75407 0
M  V30 29706 H 2831.64 -5.01221 4.58208 0
M  V30 29707 H 2829.58 -6.03036 2.58233 0
M  V30 29708 H 2829.5 -6.21555 4.30355 0
M  V30 29709 H 2830.77 -7.00675 3.41578 0
M  V30 29710 N 2835 -1.2871 -0.909472 0
M  V30 29711 C 2835.91 -1.14865 -2.04556 0
M  V30 29712 C 2836.92 -0.0741927 -1.73842 0
M  V30 29713 O 2838.1 -0.284335 -1.99383 0
M  V30 29714 C 2835.16 -0.816207 -3.36955 0
M  V30 29715 C 2834.22 -1.97347 -3.81251 0
M  V30 29716 C 2833.46 -1.6568 -5.07332 0
M  V30 29717 O 2833.68 -0.573152 -5.67513 0
M  V30 29718 O 2832.61 -2.50177 -5.47444 0
M  V30 29719 H 2836.44 -2.10247 -2.19157 0
M  V30 29720 H 2834.02 -1.0807 -1.03157 0
M  V30 29721 H 2835.91 -0.644946 -4.16435 0
M  V30 29722 H 2834.58 0.107926 -3.2352 0
M  V30 29723 H 2833.49 -2.19991 -3.0258 0
M  V30 29724 H 2834.82 -2.87846 -3.99256 0
M  V30 29725 N 2836.47 1.1185 -1.11028 0
M  V30 29726 C 2837.38 2.21349 -0.777291 0
M  V30 29727 C 2838.4 1.72502 0.227791 0
M  V30 29728 O 2839.58 2.01295 0.0650233 0
M  V30 29729 C 2836.64 3.45997 -0.220729 0
M  V30 29730 C 2835.7 4.09653 -1.28387 0
M  V30 29731 C 2834.93 5.2835 -0.753771 0
M  V30 29732 O 2835.16 5.68869 0.417679 0
M  V30 29733 O 2834.09 5.82481 -1.51657 0
M  V30 29734 H 2837.92 2.52237 -1.69146 0
M  V30 29735 H 2835.5 1.20304 -0.885857 0
M  V30 29736 H 2837.38 4.21313 0.0855016 0
M  V30 29737 H 2836.06 3.1677 0.666207 0
M  V30 29738 H 2834.97 3.36087 -1.64305 0
M  V30 29739 H 2836.3 4.43048 -2.14404 0
M  V30 29740 N 2837.95 0.89995 1.29378 0
M  V30 29741 C 2839.2 0.524958 1.95163 0
M  V30 29742 C 2839.52 -0.931858 1.71293 0
M  V30 29743 O 2838.79 -1.6571 1.04484 0
M  V30 29744 H 2837.37 0.191148 0.72213 0
M  V30 29745 H 2840.03 1.1463 1.57626 0
M  V30 29746 H 2839.13 0.707765 3.03969 0
M  V30 29747 N 2839.43 -1.43001 0.662458 0
M  V30 29748 C 2840.36 -2.33498 -0.00975705 0
M  V30 29749 C 2841.34 -1.4999 -0.802303 0
M  V30 29750 O 2842.53 -1.78629 -0.761932 0
M  V30 29751 C 2839.66 -3.33468 -0.970388 0
M  V30 29752 C 2838.61 -4.27035 -0.287308 0
M  V30 29753 C 2837.94 -5.17114 -1.36003 0
M  V30 29754 C 2839.24 -5.15727 0.826041 0
M  V30 29755 H 2840.93 -2.89957 0.74601 0
M  V30 29756 H 2838.48 -1.39422 0.360197 0
M  V30 29757 H 2840.43 -3.95681 -1.44964 0
M  V30 29758 H 2839.15 -2.75285 -1.75743 0
M  V30 29759 H 2837.81 -3.66198 0.171584 0
M  V30 29760 H 2837.46 -4.55266 -2.13874 0
M  V30 29761 H 2837.16 -5.80539 -0.908174 0
M  V30 29762 H 2838.68 -5.82202 -1.84045 0
M  V30 29763 H 2840.1 -5.71696 0.428551 0
M  V30 29764 H 2838.5 -5.8792 1.20292 0
M  V30 29765 H 2839.57 -4.54863 1.68011 0
M  V30 29766 N 2840.91 -0.404973 -1.52308 0
M  V30 29767 C 2841.82 0.429514 -2.30635 0
M  V30 29768 C 2842.83 1.05734 -1.38189 0
M  V30 29769 O 2844.01 1.05976 -1.71263 0
M  V30 29770 C 2841.08 1.53333 -3.1095 0
M  V30 29771 C 2840.14 0.928991 -4.19128 0
M  V30 29772 C 2839.37 1.98021 -4.95604 0
M  V30 29773 O 2839.59 3.19772 -4.72337 0
M  V30 29774 O 2838.53 1.58876 -5.80553 0
M  V30 29775 H 2842.35 -0.209016 -3.0298 0
M  V30 29776 H 2839.94 -0.168281 -1.48449 0
M  V30 29777 H 2841.82 2.17423 -3.60978 0
M  V30 29778 H 2840.49 2.15654 -2.41402 0
M  V30 29779 H 2839.4 0.250916 -3.73258 0
M  V30 29780 H 2840.73 0.349769 -4.90956 0
M  V30 29781 N 2842.39 1.57018 -0.135265 0
M  V30 29782 C 2843.3 2.19721 0.822187 0
M  V30 29783 C 2844.31 1.17805 1.28055 0
M  V30 29784 O 2845.49 1.50338 1.34017 0
M  V30 29785 C 2842.55 2.79721 2.04835 0
M  V30 29786 C 2841.61 3.96725 1.64035 0
M  V30 29787 C 2840.85 4.53854 2.80806 0
M  V30 29788 O 2841.07 4.09867 3.96693 0
M  V30 29789 O 2840 5.44296 2.56953 0
M  V30 29790 H 2843.83 3.02025 0.318499 0
M  V30 29791 H 2841.42 1.49122 0.0911759 0
M  V30 29792 H 2843.3 3.17902 2.76616 0
M  V30 29793 H 2841.97 2.00437 2.54179 0
M  V30 29794 H 2840.88 3.63283 0.893119 0
M  V30 29795 H 2842.21 4.77494 1.19418 0
M  V30 29796 N 2843.86 -0.138524 1.5699 0
M  V30 29797 C 2845.11 -0.848021 1.83448 0
M  V30 29798 C 2845.43 -1.81321 0.717472 0
M  V30 29799 O 2844.7 -1.94164 -0.260194 0
M  V30 29800 H 2843.28 -0.316154 0.676798 0
M  V30 29801 H 2845.95 -0.130504 1.94463 0
M  V30 29802 H 2845.04 -1.40513 2.7868 0
M  V30 29803 N 2845.34 -1.52224 -0.408133 0
M  V30 29804 C 2846.27 -1.78598 -1.50416 0
M  V30 29805 C 2847.25 -0.637002 -1.57722 0
M  V30 29806 O 2848.44 -0.882695 -1.7298 0
M  V30 29807 C 2845.57 -1.93756 -2.88229 0
M  V30 29808 C 2844.52 -3.09358 -2.95773 0
M  V30 29809 C 2843.85 -3.0974 -4.3585 0
M  V30 29810 C 2845.15 -4.48797 -2.67167 0
M  V30 29811 H 2846.84 -2.70376 -1.28596 0
M  V30 29812 H 2844.39 -1.30103 -0.617198 0
M  V30 29813 H 2846.34 -2.10789 -3.64892 0
M  V30 29814 H 2845.07 -0.986497 -3.11345 0
M  V30 29815 H 2843.72 -2.92076 -2.21556 0
M  V30 29816 H 2843.37 -2.12354 -4.55977 0
M  V30 29817 H 2843.07 -3.87385 -4.41822 0
M  V30 29818 H 2844.6 -3.28904 -5.14446 0
M  V30 29819 H 2846.01 -4.66279 -3.33552 0
M  V30 29820 H 2844.41 -5.28367 -2.84514 0
M  V30 29821 H 2845.48 -4.56825 -1.62601 0
M  V30 29822 N 2846.82 0.665425 -1.42863 0
M  V30 29823 C 2847.75 1.79056 -1.4987 0
M  V30 29824 C 2848.73 1.66367 -0.354423 0
M  V30 29825 O 2849.92 1.85646 -0.570002 0
M  V30 29826 C 2847.05 3.17413 -1.40949 0
M  V30 29827 C 2846 3.4485 -2.53501 0
M  V30 29828 C 2845.33 4.82879 -2.29634 0
M  V30 29829 C 2846.63 3.40808 -3.95787 0
M  V30 29830 H 2848.32 1.73449 -2.44041 0
M  V30 29831 H 2845.87 0.83305 -1.17458 0
M  V30 29832 H 2847.82 3.95866 -1.44457 0
M  V30 29833 H 2846.54 3.2372 -0.432773 0
M  V30 29834 H 2845.2 2.68761 -2.49325 0
M  V30 29835 H 2844.85 4.85848 -1.30235 0
M  V30 29836 H 2844.55 5.02199 -3.05074 0
M  V30 29837 H 2846.07 5.63605 -2.34907 0
M  V30 29838 H 2847.49 4.09217 -4.01515 0
M  V30 29839 H 2845.89 3.71664 -4.71154 0
M  V30 29840 H 2846.96 2.39209 -4.21791 0
M  V30 29841 N 2848.3 1.29191 0.902633 0
M  V30 29842 C 2849.23 1.09875 2.01147 0
M  V30 29843 C 2850.24 0.0471332 1.62732 0
M  V30 29844 O 2851.43 0.291351 1.76106 0
M  V30 29845 C 2848.53 0.649876 3.32611 0
M  V30 29846 C 2847.71 1.77937 3.99571 0
M  V30 29847 C 2846.76 1.322 5.09323 0
M  V30 29848 O 2845.79 2.0262 5.31915 0
M  V30 29849 N 2846.99 0.191273 5.80185 0
M  V30 29850 H 2849.76 2.05371 2.18272 0
M  V30 29851 H 2847.32 1.21092 1.07463 0
M  V30 29852 H 2849.31 0.32727 4.03375 0
M  V30 29853 H 2847.88 -0.212542 3.11877 0
M  V30 29854 H 2847.1 2.27101 3.22209 0
M  V30 29855 H 2848.39 2.53676 4.41051 0
M  V30 29856 H 2847.79 -0.395917 5.64313 0
M  V30 29857 H 2846.34 -0.0719855 6.5176 0
M  V30 29858 N 2849.78 -1.1126 1.1162 0
M  V30 29859 C 2850.71 -2.16543 0.720033 0
M  V30 29860 C 2851.69 -1.60088 -0.284682 0
M  V30 29861 O 2852.87 -1.87632 -0.18066 0
M  V30 29862 C 2850 -3.38639 0.0643897 0
M  V30 29863 C 2849.04 -4.13762 1.03455 0
M  V30 29864 S 2849.88 -4.70455 2.55798 0
M  V30 29865 C 2851.03 -5.95872 1.91539 0
M  V30 29866 H 2851.27 -2.49813 1.61186 0
M  V30 29867 H 2848.8 -1.22914 0.934423 0
M  V30 29868 H 2850.76 -4.09346 -0.307537 0
M  V30 29869 H 2849.42 -3.03625 -0.804418 0
M  V30 29870 H 2848.61 -5.01276 0.523276 0
M  V30 29871 H 2848.21 -3.48824 1.349 0
M  V30 29872 H 2850.51 -6.65813 1.25298 0
M  V30 29873 H 2851.45 -6.51647 2.77059 0
M  V30 29874 H 2851.86 -5.47504 1.37477 0
M  V30 29875 N 2851.25 -0.906798 -1.28899 0
M  V30 29876 C 2852.2 -0.388353 -2.27509 0
M  V30 29877 C 2853.17 0.533411 -1.57302 0
M  V30 29878 O 2854.36 0.457116 -1.85243 0
M  V30 29879 C 2851.5 0.371749 -3.43092 0
M  V30 29880 C 2850.61 -0.581723 -4.28065 0
M  V30 29881 C 2849.74 0.196136 -5.30838 0
M  V30 29882 C 2848.78 -0.751401 -6.0747 0
M  V30 29883 N 2847.92 -0.00750068 -7.021 0
M  V30 29884 H 2852.76 -1.23433 -2.71235 0
M  V30 29885 H 2850.3 -0.619986 -1.33396 0
M  V30 29886 H 2852.26 0.828569 -4.08889 0
M  V30 29887 H 2850.89 1.18212 -3.00376 0
M  V30 29888 H 2849.94 -1.15707 -3.62376 0
M  V30 29889 H 2851.25 -1.30673 -4.81379 0
M  V30 29890 H 2850.4 0.713834 -6.02486 0
M  V30 29891 H 2849.14 0.95424 -4.78274 0
M  V30 29892 H 2848.15 -1.28054 -5.3468 0
M  V30 29893 H 2849.37 -1.50895 -6.62124 0
M  V30 29894 H 2847.32 0.73274 -6.51895 0
M  V30 29895 H 2847.24 -0.672467 -7.53003 0
M  V30 29896 H 2848.5 0.490229 -7.77957 0
M  V30 29897 N 2852.73 1.42648 -0.670032 0
M  V30 29898 C 2853.66 2.335 -0.00262605 0
M  V30 29899 C 2854.64 1.50414 0.794337 0
M  V30 29900 O 2855.83 1.7903 0.752448 0
M  V30 29901 C 2852.96 3.33978 0.952689 0
M  V30 29902 C 2851.91 4.27181 0.264658 0
M  V30 29903 C 2851.24 5.17828 1.33258 0
M  V30 29904 C 2852.54 5.15281 -0.85338 0
M  V30 29905 H 2854.23 2.89557 -0.761377 0
M  V30 29906 H 2851.78 1.39229 -0.367586 0
M  V30 29907 H 2853.73 3.96444 1.42863 0
M  V30 29908 H 2852.46 2.76214 1.7428 0
M  V30 29909 H 2851.11 3.66102 -0.191002 0
M  V30 29910 H 2850.76 4.56394 2.11456 0
M  V30 29911 H 2850.46 5.81013 0.877374 0
M  V30 29912 H 2851.99 5.8317 1.80955 0
M  V30 29913 H 2853.4 5.71461 -0.458863 0
M  V30 29914 H 2851.8 5.87274 -1.23409 0
M  V30 29915 H 2852.87 4.53966 -1.7042 0
M  V30 29916 N 2854.21 0.413044 1.52091 0
M  V30 29917 C 2855.62 -0.0556639 1.86617 0
M  V30 29918 C 2855.97 -1.44094 1.33159 0
M  V30 29919 O 2855.1 -2.05687 0.672453 0
M  V30 29920 C 2855.69 -0.107785 3.38629 0
M  V30 29921 C 2854.25 -0.520838 3.72779 0
M  V30 29922 C 2853.4 0.302158 2.75649 0
M  V30 29923 H 2856.35 0.629944 1.45662 0
M  V30 29924 H 2856.37 -0.922259 3.69154 0
M  V30 29925 H 2855.88 0.900572 3.77507 0
M  V30 29926 H 2853.98 -1.53569 3.39481 0
M  V30 29927 H 2854.1 -0.262506 4.7838 0
M  V30 29928 H 2852.46 -0.236071 2.53604 0
M  V30 29929 H 2853.24 1.30894 3.17367 0
M  V30 29930 N 2855.69 -1.56945 0.143591 0
M  V30 29931 C 2856.6 -2.20154 -0.810524 0
M  V30 29932 C 2857.62 -1.18482 -1.27428 0
M  V30 29933 O 2858.79 -1.51046 -1.33218 0
M  V30 29934 C 2855.86 -2.80803 -2.03349 0
M  V30 29935 C 2854.92 -3.9759 -1.61929 0
M  V30 29936 C 2854.15 -4.55337 -2.78395 0
M  V30 29937 O 2854.37 -4.11965 -3.94514 0
M  V30 29938 O 2853.31 -5.45651 -2.54063 0
M  V30 29939 H 2857.13 -3.0219 -0.302477 0
M  V30 29940 H 2854.72 -1.49168 -0.0832663 0
M  V30 29941 H 2856.6 -3.19364 -2.74926 0
M  V30 29942 H 2855.28 -2.01782 -2.53112 0
M  V30 29943 H 2854.18 -3.63751 -0.87384 0
M  V30 29944 H 2855.52 -4.7812 -1.16884 0
M  V30 29945 N 2857.17 0.130197 -1.57061 0
M  V30 29946 C 2858.39 0.858376 -1.88803 0
M  V30 29947 C 2858.82 1.73172 -0.734384 0
M  V30 29948 O 2858.18 1.78534 0.315497 0
M  V30 29949 C 2858.22 1.67702 -3.19231 0
M  V30 29950 O 2857.33 2.78291 -3.04348 0
M  V30 29951 H 2856.67 0.238072 -0.619853 0
M  V30 29952 H 2859.2 0.115959 -2.04271 0
M  V30 29953 H 2859.21 2.06858 -3.51673 0
M  V30 29954 H 2857.88 1.03583 -4.02795 0
M  V30 29955 H 2856.46 2.4242 -2.8335 0
M  V30 29956 N 2858.65 1.52438 0.400055 0
M  V30 29957 C 2859.89 1.67189 1.14786 0
M  V30 29958 C 2860.22 0.405107 1.89928 0
M  V30 29959 O 2859.5 -0.596772 1.85119 0
M  V30 29960 C 2859.78 2.89981 2.13502 0
M  V30 29961 C 2859.64 4.26732 1.42196 0
M  V30 29962 C 2860.95 3.08305 3.14063 0
M  V30 29963 H 2858.07 0.608418 0.415929 0
M  V30 29964 H 2860.72 1.85012 0.43251 0
M  V30 29965 H 2858.87 2.74916 2.74505 0
M  V30 29966 H 2860.54 4.53543 0.842424 0
M  V30 29967 H 2858.78 4.27718 0.723864 0
M  V30 29968 H 2859.45 5.08715 2.14272 0
M  V30 29969 H 2861.93 3.22328 2.63142 0
M  V30 29970 H 2860.8 3.9572 3.80391 0
M  V30 29971 H 2861.06 2.22025 3.82305 0
M  V30 29972 N 2860.12 -0.657839 1.43214 0
M  V30 29973 C 2861.07 -1.77089 1.48014 0
M  V30 29974 C 2862.04 -1.62782 0.33032 0
M  V30 29975 O 2863.23 -1.83093 0.536819 0
M  V30 29976 C 2860.37 -3.15219 1.40467 0
M  V30 29977 C 2859.48 -3.40692 2.65618 0
M  V30 29978 C 2858.61 -4.68645 2.50091 0
M  V30 29979 C 2857.65 -4.87208 3.70533 0
M  V30 29980 N 2856.79 -6.06414 3.53846 0
M  V30 29981 H 2861.63 -1.72321 2.43124 0
M  V30 29982 H 2859.17 -0.840992 1.20689 0
M  V30 29983 H 2861.12 -3.95066 1.34086 0
M  V30 29984 H 2859.75 -3.19068 0.489415 0
M  V30 29985 H 2858.81 -2.54977 2.82296 0
M  V30 29986 H 2860.12 -3.50297 3.55097 0
M  V30 29987 H 2859.27 -5.5661 2.41393 0
M  V30 29988 H 2858.01 -4.61353 1.58129 0
M  V30 29989 H 2857.02 -3.9768 3.79646 0
M  V30 29990 H 2858.24 -4.96333 4.63498 0
M  V30 29991 H 2856.19 -6.00263 2.64614 0
M  V30 29992 H 2856.1 -6.16956 4.36923 0
M  V30 29993 H 2857.37 -6.97012 3.4899 0
M  V30 29994 N 2861.6 -1.29668 -0.895769 0
M  V30 29995 C 2862.53 -1.17691 -2.01671 0
M  V30 29996 C 2863.51 -0.0701615 -1.69955 0
M  V30 29997 O 2864.7 -0.250322 -1.9258 0
M  V30 29998 C 2861.83 -0.85674 -3.36567 0
M  V30 29999 C 2860.78 -1.92024 -3.82506 0
M  V30 30000 C 2860.11 -1.45329 -5.14571 0
M  V30 30001 C 2861.41 -3.3297 -4.02403 0
M  V30 30002 H 2863.1 -2.11466 -2.11949 0
M  V30 30003 H 2860.65 -1.01809 -1.01838 0
M  V30 30004 H 2862.6 -0.759649 -4.14496 0
M  V30 30005 H 2861.32 0.116705 -3.26391 0
M  V30 30006 H 2859.98 -2.00678 -3.06796 0
M  V30 30007 H 2859.63 -0.468413 -5.00814 0
M  V30 30008 H 2859.33 -2.16456 -5.46279 0
M  V30 30009 H 2860.86 -1.36978 -5.95037 0
M  V30 30010 H 2862.27 -3.27136 -4.70803 0
M  V30 30011 H 2860.67 -4.02089 -4.45471 0
M  V30 30012 H 2861.74 -3.75658 -3.06609 0
M  V30 30013 N 2863.08 1.10667 -1.12208 0
M  V30 30014 C 2864.01 2.16735 -0.745558 0
M  V30 30015 C 2865.02 1.61214 0.226668 0
M  V30 30016 O 2866.21 1.78498 0.00836223 0
M  V30 30017 C 2863.31 3.388 -0.0823963 0
M  V30 30018 C 2862.49 4.23768 -1.08348 0
M  V30 30019 C 2861.55 5.24286 -0.448385 0
M  V30 30020 O 2860.57 5.58378 -1.10468 0
M  V30 30021 N 2861.77 5.75165 0.785235 0
M  V30 30022 H 2864.54 2.49646 -1.65823 0
M  V30 30023 H 2862.1 1.26263 -1.01337 0
M  V30 30024 H 2864.09 4.03145 0.354406 0
M  V30 30025 H 2862.66 3.03885 0.732988 0
M  V30 30026 H 2861.88 3.55756 -1.69799 0
M  V30 30027 H 2863.17 4.77372 -1.7605 0
M  V30 30028 H 2862.57 5.49662 1.33746 0
M  V30 30029 H 2861.12 6.41306 1.16489 0
M  V30 30030 N 2864.56 0.913621 1.28416 0
M  V30 30031 C 2865.49 0.346368 2.25556 0
M  V30 30032 C 2866.47 -0.549339 1.53039 0
M  V30 30033 O 2867.65 -0.493023 1.81938 0
M  V30 30034 C 2864.78 -0.504902 3.34916 0
M  V30 30035 C 2863.83 0.325408 4.25257 0
M  V30 30036 S 2864.66 1.73207 5.06715 0
M  V30 30037 C 2865.81 0.888096 6.19567 0
M  V30 30038 H 2866.05 1.1697 2.73323 0
M  V30 30039 H 2863.58 0.714865 1.36854 0
M  V30 30040 H 2865.54 -0.990231 3.98378 0
M  V30 30041 H 2864.2 -1.30262 2.85816 0
M  V30 30042 H 2863.39 -0.3255 5.02948 0
M  V30 30043 H 2862.99 0.744385 3.66517 0
M  V30 30044 H 2865.29 0.117687 6.77398 0
M  V30 30045 H 2866.23 1.63755 6.88905 0
M  V30 30046 H 2866.64 0.436327 5.62811 0
M  V30 30047 N 2866.04 -1.4229 0.677588 0
M  V30 30048 C 2867.28 -2.0337 0.20493 0
M  V30 30049 C 2867.64 -1.52432 -1.16741 0
M  V30 30050 O 2868.84 -2.05317 -1.73489 0
M  V30 30051 C 2867.11 -3.56588 0.240805 0
M  V30 30052 S 2868.67 -4.38507 -0.160443 0
M  V30 30053 H 2865.49 -0.70602 0.0840056 0
M  V30 30054 H 2868.09 -1.73997 0.891362 0
M  V30 30055 H 2866.79 -3.91158 1.2419 0
M  V30 30056 H 2866.33 -3.90638 -0.46537 0
M  V30 30057 H 2868.34 -4.76244 -1.39307 0
M  V30 30058 N 2867.51 -0.421104 -1.5187 0
M  V30 30059 C 2868.46 0.416071 -2.24171 0
M  V30 30060 C 2869.45 1.00359 -1.25765 0
M  V30 30061 O 2870.64 0.924426 -1.50942 0
M  V30 30062 C 2867.77 1.52566 -3.07536 0
M  V30 30063 C 2866.85 0.948326 -4.13361 0
M  V30 30064 N 2867.25 0.0987044 -5.05704 0
M  V30 30065 C 2865.54 1.2176 -4.29058 0
M  V30 30066 C 2866.24 -0.223808 -5.81269 0
M  V30 30067 N 2865.22 0.388428 -5.4221 0
M  V30 30068 H 2869.02 -0.239217 -2.92925 0
M  V30 30069 H 2866.54 -0.23222 -1.60731 0
M  V30 30070 H 2868.53 2.13812 -3.57896 0
M  V30 30071 H 2867.19 2.18345 -2.40324 0
M  V30 30072 H 2868.2 -0.266519 -5.17214 0
M  V30 30073 H 2864.88 1.87409 -3.73074 0
M  V30 30074 H 2866.27 -0.914193 -6.65652 0
M  V30 30075 N 2868.99 1.56866 -0.151912 0
M  V30 30076 C 2869.92 2.20019 0.781904 0
M  V30 30077 C 2870.9 1.1499 1.25345 0
M  V30 30078 O 2872.09 1.4335 1.31013 0
M  V30 30079 C 2869.22 2.82567 2.01923 0
M  V30 30080 C 2868.17 3.93467 1.68427 0
M  V30 30081 C 2867.5 4.42973 2.99465 0
M  V30 30082 C 2868.8 5.14005 0.927154 0
M  V30 30083 H 2870.49 2.98307 0.255554 0
M  V30 30084 H 2868.04 1.43487 0.121477 0
M  V30 30085 H 2869.99 3.25416 2.67736 0
M  V30 30086 H 2868.72 2.01618 2.56939 0
M  V30 30087 H 2867.37 3.51244 1.04991 0
M  V30 30088 H 2867.02 3.5884 3.52481 0
M  V30 30089 H 2866.72 5.17777 2.77814 0
M  V30 30090 H 2868.25 4.88495 3.6634 0
M  V30 30091 H 2869.66 5.53667 1.48746 0
M  V30 30092 H 2868.06 5.94603 0.810408 0
M  V30 30093 H 2869.13 4.84834 -0.0802016 0
M  V30 30094 N 2870.47 -0.121866 1.57128 0
M  V30 30095 C 2871.4 -1.15089 2.03167 0
M  V30 30096 C 2872.38 -1.43355 0.915612 0
M  V30 30097 O 2873.57 -1.53845 1.18513 0
M  V30 30098 C 2870.7 -2.4778 2.43357 0
M  V30 30099 C 2869.65 -2.33982 3.5838 0
M  V30 30100 C 2868.98 -3.7161 3.84461 0
M  V30 30101 C 2870.28 -1.80274 4.90203 0
M  V30 30102 H 2871.97 -0.767972 2.89383 0
M  V30 30103 H 2869.52 -0.367973 1.39219 0
M  V30 30104 H 2871.47 -3.20015 2.74169 0
M  V30 30105 H 2870.19 -2.87955 1.54108 0
M  V30 30106 H 2868.85 -1.64196 3.27773 0
M  V30 30107 H 2868.5 -4.09266 2.92422 0
M  V30 30108 H 2868.2 -3.63232 4.61883 0
M  V30 30109 H 2869.72 -4.45354 4.17722 0
M  V30 30110 H 2871.14 -2.42324 5.19569 0
M  V30 30111 H 2869.54 -1.82725 5.71605 0
M  V30 30112 H 2870.61 -0.7601 4.78906 0
M  V30 30113 N 2871.95 -1.52648 -0.391965 0
M  V30 30114 C 2872.86 -1.80133 -1.50297 0
M  V30 30115 C 2873.87 -0.68791 -1.59824 0
M  V30 30116 O 2875.05 -0.97518 -1.76216 0
M  V30 30117 C 2872.12 -1.96176 -2.8586 0
M  V30 30118 C 2871.18 -3.2009 -2.86078 0
M  V30 30119 C 2870.41 -3.35358 -4.15175 0
M  V30 30120 O 2870.63 -2.555 -5.09977 0
M  V30 30121 O 2869.57 -4.28598 -4.22596 0
M  V30 30122 H 2873.39 -2.74469 -1.30002 0
M  V30 30123 H 2870.98 -1.37703 -0.579515 0
M  V30 30124 H 2872.86 -2.08452 -3.66232 0
M  V30 30125 H 2871.53 -1.0503 -3.06187 0
M  V30 30126 H 2870.44 -3.13259 -2.04498 0
M  V30 30127 H 2871.77 -4.11073 -2.70703 0
M  V30 30128 N 2873.43 0.650235 -1.43561 0
M  V30 30129 C 2874.66 1.43568 -1.48566 0
M  V30 30130 C 2875.06 1.88919 -0.103074 0
M  V30 30131 O 2874.41 1.60279 0.897574 0
M  V30 30132 C 2874.47 2.70154 -2.37185 0
M  V30 30133 C 2874.13 2.46724 -3.84677 0
M  V30 30134 C 2875.13 2.09757 -4.75708 0
M  V30 30135 C 2872.82 2.60955 -4.29194 0
M  V30 30136 C 2874.81 1.87323 -6.09253 0
M  V30 30137 C 2872.5 2.38137 -5.62791 0
M  V30 30138 C 2873.49 2.01377 -6.52638 0
M  V30 30139 O 2873.18 1.78799 -7.83764 0
M  V30 30140 H 2872.91 0.447414 -0.506751 0
M  V30 30141 H 2875.47 0.804196 -1.89002 0
M  V30 30142 H 2873.7 3.35872 -1.91642 0
M  V30 30143 H 2875.39 3.32111 -2.3336 0
M  V30 30144 H 2876.15 1.98335 -4.42593 0
M  V30 30145 H 2872.03 2.88542 -3.59534 0
M  V30 30146 H 2875.58 1.58555 -6.79342 0
M  V30 30147 H 2871.47 2.49162 -5.95473 0
M  V30 30148 H 2872.24 1.932 -7.95372 0
M  V30 30149 N 2874.9 1.30141 0.88888 0
M  V30 30150 C 2876.15 1.18739 1.64035 0
M  V30 30151 C 2876.48 -0.258767 1.92771 0
M  V30 30152 O 2875.73 -1.20209 1.54429 0
M  V30 30153 C 2876.03 1.95733 2.99037 0
M  V30 30154 C 2875.7 3.4538 2.89868 0
M  V30 30155 C 2874.36 3.86188 2.87075 0
M  V30 30156 C 2876.71 4.40692 2.78281 0
M  V30 30157 C 2874.04 5.20607 2.70527 0
M  V30 30158 C 2876.39 5.75214 2.63272 0
M  V30 30159 C 2875.06 6.15266 2.58851 0
M  V30 30160 H 2874.33 0.434495 0.600246 0
M  V30 30161 H 2876.97 1.612 1.03377 0
M  V30 30162 H 2875.28 1.45895 3.63623 0
M  V30 30163 H 2876.98 1.84306 3.56135 0
M  V30 30164 H 2873.57 3.12948 2.9285 0
M  V30 30165 H 2877.75 4.10108 2.79508 0
M  V30 30166 H 2873.01 5.50737 2.65516 0
M  V30 30167 H 2877.18 6.48709 2.53279 0
M  V30 30168 H 2874.81 7.1937 2.45787 0
M  V30 30169 N 2876.38 -1.1007 1.12794 0
M  V30 30170 C 2877.62 -1.83728 0.895724 0
M  V30 30171 C 2877.99 -1.83403 -0.568098 0
M  V30 30172 O 2879.19 -2.52652 -0.917621 0
M  V30 30173 C 2877.46 -3.26248 1.45935 0
M  V30 30174 S 2879.02 -4.16989 1.36623 0
M  V30 30175 H 2875.84 -0.633383 0.323028 0
M  V30 30176 H 2878.44 -1.32425 1.43819 0
M  V30 30177 H 2877.14 -3.24057 2.51824 0
M  V30 30178 H 2876.67 -3.82622 0.914545 0
M  V30 30179 H 2878.69 -4.95032 0.340218 0
M  V30 30180 N 2877.86 -0.920419 -1.2793 0
M  V30 30181 C 2879.14 -0.475721 -1.89727 0
M  V30 30182 C 2879.52 1.04584 -1.83372 0
M  V30 30183 O 2878.87 1.89683 -1.27408 0
M  V30 30184 C 2879.08 -1.0136 -3.33957 0
M  V30 30185 C 2880.42 -1.0697 -4.10905 0
M  V30 30186 O 2881.45 -0.962707 -3.42944 0
M  V30 30187 O 2880.31 -1.23352 -5.32397 0
M  V30 30188 H 2877.4 -0.151859 -0.812938 0
M  V30 30189 H 2879.95 -1.01164 -1.3625 0
M  V30 30190 H 2878.72 -2.05752 -3.32839 0
M  V30 30191 H 2878.34 -0.458898 -3.94943 0
M  V30 30192 N 2879.34 1.41929 -0.685124 0
M  V30 30193 C 2880.27 2.29185 0.0258276 0
M  V30 30194 C 2881.28 1.44232 0.755051 0
M  V30 30195 O 2882.47 1.67845 0.607491 0
M  V30 30196 C 2879.57 3.2188 1.0605 0
M  V30 30197 C 2878.75 4.35539 0.403011 0
M  V30 30198 C 2877.8 5.08882 1.33886 0
M  V30 30199 O 2876.83 5.63039 0.835227 0
M  V30 30200 N 2878.03 5.15364 2.67171 0
M  V30 30201 H 2880.8 2.90842 -0.723252 0
M  V30 30202 H 2878.36 1.52967 -0.530337 0
M  V30 30203 H 2880.35 3.67813 1.68806 0
M  V30 30204 H 2878.92 2.61603 1.71121 0
M  V30 30205 H 2878.14 3.92122 -0.404254 0
M  V30 30206 H 2879.43 5.08771 -0.0545992 0
M  V30 30207 H 2878.83 4.72793 3.10617 0
M  V30 30208 H 2877.38 5.64908 3.25149 0
M  V30 30209 N 2880.82 0.429152 1.51644 0
M  V30 30210 C 2881.73 -0.392768 2.31289 0
M  V30 30211 C 2882.74 -1.03523 1.39854 0
M  V30 30212 O 2883.92 -1.03238 1.72927 0
M  V30 30213 C 2880.98 -1.48367 3.1335 0
M  V30 30214 C 2880.04 -0.862194 4.20553 0
M  V30 30215 C 2879.28 -1.90111 4.98692 0
M  V30 30216 O 2879.5 -3.12217 4.77364 0
M  V30 30217 O 2878.43 -1.49619 5.83007 0
M  V30 30218 H 2882.26 0.257191 3.02609 0
M  V30 30219 H 2879.85 0.191877 1.48163 0
M  V30 30220 H 2881.73 -2.11653 3.64391 0
M  V30 30221 H 2880.4 -2.11786 2.44803 0
M  V30 30222 H 2879.31 -0.191502 3.7361 0
M  V30 30223 H 2880.64 -0.271618 4.9145 0
M  V30 30224 N 2882.29 -1.56783 0.160229 0
M  V30 30225 C 2883.22 -2.20431 -0.770225 0
M  V30 30226 C 2884.21 -1.15653 -1.24734 0
M  V30 30227 O 2885.39 -1.44043 -1.30251 0
M  V30 30228 C 2882.52 -2.83634 -2.00422 0
M  V30 30229 C 2881.47 -3.94355 -1.66338 0
M  V30 30230 C 2880.8 -4.44555 -2.97111 0
M  V30 30231 C 2882.1 -5.14489 -0.899882 0
M  V30 30232 H 2883.79 -2.98439 -0.239731 0
M  V30 30233 H 2881.34 -1.43549 -0.113866 0
M  V30 30234 H 2883.29 -3.26831 -2.66006 0
M  V30 30235 H 2882.02 -2.02978 -2.55866 0
M  V30 30236 H 2880.68 -3.51796 -1.03127 0
M  V30 30237 H 2880.32 -3.60704 -3.50573 0
M  V30 30238 H 2880.02 -5.19243 -2.75064 0
M  V30 30239 H 2881.55 -4.90431 -3.63744 0
M  V30 30240 H 2882.96 -5.54448 -1.45808 0
M  V30 30241 H 2881.36 -5.95024 -0.778864 0
M  V30 30242 H 2882.43 -4.84784 0.105912 0
M  V30 30243 N 2883.77 0.113531 -1.57191 0
M  V30 30244 C 2884.71 1.16481 -1.97395 0
M  V30 30245 C 2885.72 1.37351 -0.873988 0
M  V30 30246 O 2886.91 1.36329 -1.15224 0
M  V30 30247 C 2884.01 2.52382 -2.26178 0
M  V30 30248 C 2883.18 2.5204 -3.57484 0
M  V30 30249 C 2882.24 3.69729 -3.74416 0
M  V30 30250 O 2881.27 3.53063 -4.46469 0
M  V30 30251 N 2882.47 4.88505 -3.13597 0
M  V30 30252 H 2885.23 0.822763 -2.88185 0
M  V30 30253 H 2882.79 0.302741 -1.59044 0
M  V30 30254 H 2884.79 3.29683 -2.34715 0
M  V30 30255 H 2883.36 2.78747 -1.41488 0
M  V30 30256 H 2882.58 1.60415 -3.60084 0
M  V30 30257 H 2883.86 2.48873 -4.43779 0
M  V30 30258 H 2883.26 5.04949 -2.55035 0
M  V30 30259 H 2881.82 5.63463 -3.27647 0
M  V30 30260 N 2885.25 1.52854 0.383864 0
M  V30 30261 C 2886.2 1.74378 1.46889 0
M  V30 30262 C 2887.19 0.597936 1.49377 0
M  V30 30263 O 2888.38 0.855956 1.54927 0
M  V30 30264 C 2885.51 1.92068 2.84543 0
M  V30 30265 C 2884.59 3.12599 2.86605 0
M  V30 30266 N 2884.98 4.34855 2.58332 0
M  V30 30267 C 2883.28 3.12949 3.17771 0
M  V30 30268 C 2883.98 5.1649 2.67607 0
M  V30 30269 N 2882.96 4.5229 3.01554 0
M  V30 30270 H 2886.76 2.66524 1.23864 0
M  V30 30271 H 2884.27 1.51231 0.591869 0
M  V30 30272 H 2886.27 2.05611 3.6267 0
M  V30 30273 H 2884.93 1.01138 3.08547 0
M  V30 30274 H 2885.94 4.629 2.32258 0
M  V30 30275 H 2882.62 2.31848 3.47207 0
M  V30 30276 H 2884.01 6.23959 2.49249 0
M  V30 30277 N 2886.73 -0.642612 1.43904 0
M  V30 30278 C 2888.15 -0.959496 1.27538 0
M  V30 30279 C 2888.35 -2.00477 0.202787 0
M  V30 30280 O 2887.4 -2.49063 -0.415212 0
M  V30 30281 C 2888.71 -1.43368 2.64322 0
M  V30 30282 C 2890.26 -1.54976 2.7194 0
M  V30 30283 C 2890.74 -2.05782 4.09167 0
M  V30 30284 N 2892.23 -2.13069 4.11286 0
M  V30 30285 C 2892.96 -2.53525 5.14308 0
M  V30 30286 N 2892.46 -2.93201 6.27698 0
M  V30 30287 N 2894.25 -2.53558 5.01662 0
M  V30 30288 H 2886.4 0.0488749 2.12344 0
M  V30 30289 H 2888.67 -0.0407393 0.947124 0
M  V30 30290 H 2888.37 -0.739987 3.43827 0
M  V30 30291 H 2888.25 -2.40679 2.90436 0
M  V30 30292 H 2890.63 -2.23444 1.92761 0
M  V30 30293 H 2890.71 -0.560695 2.49579 0
M  V30 30294 H 2890.36 -1.37912 4.88818 0
M  V30 30295 H 2890.29 -3.05539 4.28898 0
M  V30 30296 H 2892.78 -1.85137 3.29443 0
M  V30 30297 H 2893.09 -3.22851 7.0213 0
M  V30 30298 H 2891.44 -2.9098 6.31154 0
M  V30 30299 H 2894.63 -2.21945 4.12138 0
M  V30 30300 H 2894.8 -2.84764 5.82077 0
M  V30 30301 N 2888.21 -1.30611 -0.881966 0
M  V30 30302 C 2889.45 -1.19784 -1.63645 0
M  V30 30303 C 2889.79 0.246231 -1.92633 0
M  V30 30304 O 2889.06 1.17575 -1.5494 0
M  V30 30305 C 2889.34 -2.0299 -2.97434 0
M  V30 30306 C 2889.2 -3.55633 -2.754 0
M  V30 30307 C 2890.52 -1.87004 -3.98394 0
M  V30 30308 H 2887.64 -0.436498 -0.593833 0
M  V30 30309 H 2890.28 -1.60275 -1.02039 0
M  V30 30310 H 2888.43 -1.68587 -3.50015 0
M  V30 30311 H 2890.1 -4.00111 -2.29583 0
M  V30 30312 H 2888.34 -3.79665 -2.09849 0
M  V30 30313 H 2889.01 -4.09146 -3.70545 0
M  V30 30314 H 2891.49 -2.17088 -3.54982 0
M  V30 30315 H 2890.37 -2.47544 -4.89911 0
M  V30 30316 H 2890.63 -0.830019 -4.34239 0
M  V30 30317 N 2889.69 1.0947 -1.13376 0
M  V30 30318 C 2890.6 2.1965 -0.824068 0
M  V30 30319 C 2891.61 1.72947 0.191149 0
M  V30 30320 O 2892.79 2.01388 0.022311 0
M  V30 30321 C 2889.85 3.45451 -0.29407 0
M  V30 30322 C 2888.91 4.06837 -1.37047 0
M  V30 30323 C 2888.15 5.26633 -0.865672 0
M  V30 30324 O 2888.37 5.69627 0.29692 0
M  V30 30325 O 2887.3 5.79133 -1.63978 0
M  V30 30326 H 2891.13 2.48592 -1.74458 0
M  V30 30327 H 2888.71 1.18397 -0.911176 0
M  V30 30328 H 2890.6 4.214 -0.00388446 0
M  V30 30329 H 2889.27 3.18112 0.598865 0
M  V30 30330 H 2888.18 3.32527 -1.71397 0
M  V30 30331 H 2889.51 4.38401 -2.23754 0
M  V30 30332 N 2891.16 0.92719 1.2744 0
M  V30 30333 C 2892.39 0.583077 1.99035 0
M  V30 30334 C 2892.81 -0.831731 1.68712 0
M  V30 30335 O 2892.17 -1.55802 0.927108 0
M  V30 30336 C 2892.22 0.814986 3.5127 0
M  V30 30337 O 2891.32 -0.119669 4.12226 0
M  V30 30338 H 2890.66 0.224549 0.624879 0
M  V30 30339 H 2893.19 1.2463 1.6226 0
M  V30 30340 H 2893.2 0.730353 4.0141 0
M  V30 30341 H 2891.88 1.8463 3.72672 0
M  V30 30342 H 2890.46 0.0148344 3.72897 0
M  V30 30343 N 2892.64 -1.41564 0.692641 0
M  V30 30344 C 2893.57 -2.33466 0.0397735 0
M  V30 30345 C 2894.55 -1.51658 -0.770307 0
M  V30 30346 O 2895.74 -1.80205 -0.723871 0
M  V30 30347 C 2892.87 -3.35451 -0.899436 0
M  V30 30348 C 2891.82 -4.27548 -0.196663 0
M  V30 30349 C 2891.15 -5.19883 -1.25003 0
M  V30 30350 C 2892.45 -5.13858 0.935248 0
M  V30 30351 H 2894.14 -2.88309 0.807346 0
M  V30 30352 H 2891.69 -1.38627 0.389689 0
M  V30 30353 H 2893.64 -3.98667 -1.36538 0
M  V30 30354 H 2892.36 -2.78951 -1.69864 0
M  V30 30355 H 2891.02 -3.65752 0.249222 0
M  V30 30356 H 2890.67 -4.597 -2.04169 0
M  V30 30357 H 2890.37 -5.82335 -0.784829 0
M  V30 30358 H 2891.9 -5.85975 -1.71655 0
M  V30 30359 H 2893.31 -5.70658 0.54972 0
M  V30 30360 H 2891.71 -5.85236 1.32736 0
M  V30 30361 H 2892.78 -4.51197 1.77621 0
M  V30 30362 N 2894.12 -0.437188 -1.51415 0
M  V30 30363 C 2895.08 0.362689 -2.26312 0
M  V30 30364 C 2896.08 0.949824 -1.2975 0
M  V30 30365 O 2897.27 0.824298 -1.53463 0
M  V30 30366 C 2894.4 1.51314 -3.05478 0
M  V30 30367 H 2895.6 -0.293703 -2.98458 0
M  V30 30368 H 2893.15 -0.190354 -1.55137 0
M  V30 30369 H 2893.89 2.20559 -2.37748 0
M  V30 30370 H 2893.67 1.09831 -3.76403 0
M  V30 30371 H 2895.16 2.07827 -3.62212 0
M  V30 30372 N 2895.6 1.56696 -0.168541 0
M  V30 30373 C 2896.56 2.1662 0.74889 0
M  V30 30374 C 2897.56 1.11353 1.16005 0
M  V30 30375 O 2898.75 1.36881 1.07746 0
M  V30 30376 C 2895.88 2.74681 2.01899 0
M  V30 30377 H 2897.08 2.99038 0.227265 0
M  V30 30378 H 2894.63 1.5609 0.0810098 0
M  V30 30379 H 2895.36 1.95989 2.58377 0
M  V30 30380 H 2895.15 3.51715 1.73317 0
M  V30 30381 H 2896.64 3.20779 2.67378 0
M  V30 30382 N 2897.08 -0.105193 1.57249 0
M  V30 30383 C 2898.32 -0.810519 1.85572 0
M  V30 30384 C 2898.65 -1.79222 0.755626 0
M  V30 30385 O 2897.91 -1.94074 -0.251754 0
M  V30 30386 C 2898.2 -1.58282 3.2044 0
M  V30 30387 C 2897.87 -0.744156 4.44717 0
M  V30 30388 C 2896.53 -0.512929 4.78458 0
M  V30 30389 C 2898.88 -0.160486 5.20953 0
M  V30 30390 C 2896.21 0.311997 5.8587 0
M  V30 30391 C 2898.56 0.651707 6.29234 0
M  V30 30392 C 2897.23 0.893121 6.61498 0
M  V30 30393 H 2896.5 -0.29659 0.679055 0
M  V30 30394 H 2899.15 -0.0723632 1.91363 0
M  V30 30395 H 2897.45 -2.39226 3.10287 0
M  V30 30396 H 2899.15 -2.13276 3.3958 0
M  V30 30397 H 2895.74 -0.934481 4.18289 0
M  V30 30398 H 2899.92 -0.326313 4.95226 0
M  V30 30399 H 2895.18 0.508119 6.09285 0
M  V30 30400 H 2899.35 1.11089 6.87482 0
M  V30 30401 H 2896.98 1.53414 7.44559 0
M  V30 30402 N 2898.55 -1.53055 -0.375752 0
M  V30 30403 C 2899.52 -1.78113 -1.44251 0
M  V30 30404 C 2900.52 -0.651354 -1.47017 0
M  V30 30405 O 2901.71 -0.919498 -1.47956 0
M  V30 30406 C 2898.84 -1.89396 -2.83447 0
M  V30 30407 H 2900.03 -2.73376 -1.23311 0
M  V30 30408 H 2897.59 -1.43978 -0.608287 0
M  V30 30409 H 2898.32 -0.961643 -3.09714 0
M  V30 30410 H 2898.11 -2.7156 -2.82839 0
M  V30 30411 H 2899.6 -2.1041 -3.60718 0
M  V30 30412 N 2900.03 0.634971 -1.44242 0
M  V30 30413 C 2900.94 1.77588 -1.53296 0
M  V30 30414 C 2901.96 1.68883 -0.418861 0
M  V30 30415 O 2903.13 1.89728 -0.675652 0
M  V30 30416 C 2900.2 3.13956 -1.47081 0
M  V30 30417 C 2899.26 3.34321 -2.6931 0
M  V30 30418 C 2898.49 4.64183 -2.63382 0
M  V30 30419 O 2898.72 5.44736 -1.69171 0
M  V30 30420 O 2897.65 4.86666 -3.54174 0
M  V30 30421 H 2901.48 1.72904 -2.49676 0
M  V30 30422 H 2899.06 0.795723 -1.26446 0
M  V30 30423 H 2900.94 3.95254 -1.46124 0
M  V30 30424 H 2899.62 3.19191 -0.538429 0
M  V30 30425 H 2898.53 2.52716 -2.75836 0
M  V30 30426 H 2899.86 3.33945 -3.61582 0
M  V30 30427 N 2901.51 1.31076 0.875027 0
M  V30 30428 C 2902.93 1.09624 1.15995 0
M  V30 30429 C 2903.13 -0.136575 2.01037 0
M  V30 30430 O 2902.18 -0.827355 2.3856 0
M  V30 30431 C 2903.5 2.36509 1.85698 0
M  V30 30432 C 2905.04 2.42071 1.98421 0
M  V30 30433 C 2905.52 3.68824 2.71538 0
M  V30 30434 N 2907.01 3.69689 2.79077 0
M  V30 30435 C 2907.74 4.6446 3.36251 0
M  V30 30436 N 2907.24 5.69582 3.94396 0
M  V30 30437 N 2909.03 4.51988 3.34161 0
M  V30 30438 H 2901.18 2.10152 0.308221 0
M  V30 30439 H 2903.45 0.92685 0.199129 0
M  V30 30440 H 2903.15 3.26529 1.30658 0
M  V30 30441 H 2903.03 2.4592 2.86013 0
M  V30 30442 H 2905.41 1.52523 2.52628 0
M  V30 30443 H 2905.5 2.36628 0.971641 0
M  V30 30444 H 2905.14 4.58736 2.18 0
M  V30 30445 H 2905.07 3.71531 3.73192 0
M  V30 30446 H 2907.56 2.93696 2.37805 0
M  V30 30447 H 2907.87 6.37982 4.36118 0
M  V30 30448 H 2906.22 5.73362 3.92786 0
M  V30 30449 H 2909.41 3.6904 2.87971 0
M  V30 30450 H 2909.58 5.26024 3.78421 0
M  V30 30451 N 2902.99 -1.08867 1.13955 0
M  V30 30452 C 2904.22 -1.84643 0.926857 0
M  V30 30453 C 2904.63 -1.81686 -0.527909 0
M  V30 30454 O 2903.97 -1.21546 -1.3774 0
M  V30 30455 C 2904.03 -3.33423 1.34422 0
M  V30 30456 C 2903.7 -3.60121 2.81357 0
M  V30 30457 C 2904.69 -3.55361 3.79493 0
M  V30 30458 C 2902.38 -3.88283 3.18656 0
M  V30 30459 C 2904.37 -3.78384 5.12937 0
M  V30 30460 C 2902.06 -4.1096 4.52278 0
M  V30 30461 C 2903.06 -4.06004 5.49227 0
M  V30 30462 O 2902.74 -4.2809 6.80437 0
M  V30 30463 H 2902.48 -0.589901 0.330141 0
M  V30 30464 H 2905.03 -1.38434 1.51741 0
M  V30 30465 H 2903.26 -3.80367 0.696968 0
M  V30 30466 H 2904.95 -3.90624 1.10309 0
M  V30 30467 H 2905.72 -3.33624 3.52022 0
M  V30 30468 H 2901.59 -3.91263 2.43792 0
M  V30 30469 H 2905.14 -3.74431 5.88597 0
M  V30 30470 H 2901.04 -4.32179 4.7947 0
M  V30 30471 H 2901.8 -4.45521 6.86625 0
M  V30 30472 N 2904.47 -0.933936 -1.26946 0
M  V30 30473 C 2905.71 -0.578514 -1.94373 0
M  V30 30474 C 2906.05 0.879018 -1.73167 0
M  V30 30475 O 2905.32 1.6279 -1.06441 0
M  V30 30476 C 2905.6 -0.9128 -3.48339 0
M  V30 30477 C 2905.46 -2.42454 -3.78861 0
M  V30 30478 C 2906.78 -0.42308 -4.38062 0
M  V30 30479 H 2903.89 -0.211652 -0.705955 0
M  V30 30480 H 2906.54 -1.16684 -1.49949 0
M  V30 30481 H 2904.69 -0.412126 -3.86308 0
M  V30 30482 H 2906.36 -2.99739 -3.50649 0
M  V30 30483 H 2904.6 -2.8711 -3.25193 0
M  V30 30484 H 2905.27 -2.60896 -4.86454 0
M  V30 30485 H 2907.75 -0.852262 -4.07278 0
M  V30 30486 H 2906.62 -0.685872 -5.44598 0
M  V30 30487 H 2906.89 0.676917 -4.36887 0
M  V30 30488 N 2905.94 1.41194 -0.700139 0
M  V30 30489 C 2907.22 1.94937 -0.160871 0
M  V30 30490 C 2907.6 1.63925 1.33011 0
M  V30 30491 O 2906.95 0.948673 2.07876 0
M  V30 30492 C 2907.16 3.45994 -0.457052 0
M  V30 30493 C 2908.51 4.2283 -0.387281 0
M  V30 30494 O 2909.53 3.54034 -0.392226 0
M  V30 30495 O 2908.39 5.45369 -0.351363 0
M  V30 30496 H 2905.48 0.826812 -0.017645 0
M  V30 30497 H 2908.03 1.50887 -0.776613 0
M  V30 30498 H 2906.8 3.61867 -1.4889 0
M  V30 30499 H 2906.43 3.97148 0.189433 0
M  V30 30500 N 2907.42 0.445212 1.51181 0
M  V30 30501 C 2908.37 -0.36225 2.27939 0
M  V30 30502 C 2909.34 -1.00998 1.31866 0
M  V30 30503 O 2910.52 -1.02738 1.60778 0
M  V30 30504 C 2907.66 -1.45305 3.13018 0
M  V30 30505 C 2906.78 -0.822682 4.24094 0
M  V30 30506 C 2905.91 -1.8892 4.9647 0
M  V30 30507 C 2904.95 -1.23768 5.99456 0
M  V30 30508 N 2904.09 -2.2459 6.6521 0
M  V30 30509 H 2908.93 0.298672 2.96499 0
M  V30 30510 H 2906.47 0.159136 1.46237 0
M  V30 30511 H 2908.42 -2.09686 3.60677 0
M  V30 30512 H 2907.05 -2.0835 2.46557 0
M  V30 30513 H 2906.11 -0.0669696 3.80341 0
M  V30 30514 H 2907.42 -0.307096 4.97854 0
M  V30 30515 H 2906.57 -2.60943 5.47717 0
M  V30 30516 H 2905.31 -2.43853 4.22359 0
M  V30 30517 H 2904.32 -0.502945 5.47495 0
M  V30 30518 H 2905.54 -0.695575 6.75528 0
M  V30 30519 H 2903.49 -2.78589 5.93906 0
M  V30 30520 H 2903.4 -1.77945 7.3476 0
M  V30 30521 H 2904.67 -2.96073 7.21083 0
M  V30 30522 N 2908.9 -1.56605 0.176849 0
M  V30 30523 C 2909.83 -2.21235 -0.746802 0
M  V30 30524 C 2910.81 -1.16969 -1.235 0
M  V30 30525 O 2912 -1.45417 -1.28715 0
M  V30 30526 C 2909.13 -2.85744 -1.97402 0
M  V30 30527 C 2908.08 -3.96097 -1.62146 0
M  V30 30528 C 2907.41 -4.47681 -2.92379 0
M  V30 30529 C 2908.71 -5.15415 -0.845263 0
M  V30 30530 H 2910.4 -2.98676 -0.208064 0
M  V30 30531 H 2907.95 -1.43662 -0.0986342 0
M  V30 30532 H 2909.9 -3.29634 -2.62525 0
M  V30 30533 H 2908.62 -2.0568 -2.53699 0
M  V30 30534 H 2907.28 -3.5287 -0.993902 0
M  V30 30535 H 2906.93 -3.64402 -3.46728 0
M  V30 30536 H 2906.63 -5.22131 -2.69542 0
M  V30 30537 H 2908.15 -4.94262 -3.58522 0
M  V30 30538 H 2909.57 -5.55964 -1.39919 0
M  V30 30539 H 2907.97 -5.95817 -0.71571 0
M  V30 30540 H 2909.04 -4.84645 0.157324 0
M  V30 30541 N 2910.38 0.0968524 -1.57302 0
M  V30 30542 C 2911.31 1.14381 -1.9862 0
M  V30 30543 C 2912.32 1.36416 -0.888507 0
M  V30 30544 O 2913.51 1.35099 -1.16664 0
M  V30 30545 C 2910.61 2.49969 -2.28842 0
M  V30 30546 C 2909.79 2.48234 -3.60137 0
M  V30 30547 C 2908.84 3.65737 -3.78316 0
M  V30 30548 O 2907.87 3.48308 -4.50189 0
M  V30 30549 N 2909.07 4.85152 -3.1876 0
M  V30 30550 H 2911.84 0.792151 -2.89042 0
M  V30 30551 H 2909.4 0.285855 -1.59356 0
M  V30 30552 H 2911.39 3.27175 -2.38199 0
M  V30 30553 H 2909.96 2.77231 -1.44436 0
M  V30 30554 H 2909.18 1.56587 -3.61765 0
M  V30 30555 H 2910.47 2.44152 -4.46394 0
M  V30 30556 H 2909.87 5.02216 -2.60377 0
M  V30 30557 H 2908.42 5.59956 -3.33605 0
M  V30 30558 N 2911.86 1.53252 0.36763 0
M  V30 30559 C 2912.82 1.78875 1.43305 0
M  V30 30560 C 2913.82 0.659141 1.4667 0
M  V30 30561 O 2915.01 0.927332 1.47466 0
M  V30 30562 C 2912.14 1.90897 2.82438 0
M  V30 30563 H 2913.33 2.74026 1.21859 0
M  V30 30564 H 2910.89 1.44298 0.600643 0
M  V30 30565 H 2911.62 0.978055 3.092 0
M  V30 30566 H 2911.41 2.73056 2.81395 0
M  V30 30567 H 2912.9 2.1232 3.59597 0
M  V30 30568 N 2913.34 -0.627313 1.44577 0
M  V30 30569 C 2914.28 -1.76028 1.52042 0
M  V30 30570 C 2915.28 -1.64806 0.391825 0
M  V30 30571 O 2916.48 -1.70839 0.56693 0
M  V30 30572 H 2912.86 -0.581212 0.477176 0
M  V30 30573 H 2914.83 -1.66855 2.4739 0
M  V30 30574 C 2913.58 -3.14372 1.48544 0
M  V30 30575 H 2912.9 -3.23657 2.34704 0
M  V30 30576 H 2914.34 -3.93531 1.57828 0
M  V30 30577 C 2912.8 -3.36265 0.206779 0
M  V30 30578 O 2913.33 -3.95168 -0.721471 0
M  V30 30579 N 2911.54 -2.90397 0.108705 0
M  V30 30580 H 2911.08 -2.42645 0.864927 0
M  V30 30581 H 2911.04 -3.0542 -0.746068 0
M  V30 30582 N 2914.81 -1.31539 -0.868063 0
M  V30 30583 C 2915.75 -1.1517 -1.98163 0
M  V30 30584 C 2916.76 -0.0902621 -1.6255 0
M  V30 30585 O 2917.95 -0.33794 -1.75272 0
M  V30 30586 C 2915.05 -0.737834 -3.30771 0
M  V30 30587 C 2914.22 -1.88469 -3.94713 0
M  V30 30588 C 2913.28 -1.45657 -5.05639 0
M  V30 30589 O 2912.31 -2.16652 -5.26356 0
M  V30 30590 N 2913.51 -0.345032 -5.79474 0
M  V30 30591 H 2916.27 -2.11086 -2.1275 0
M  V30 30592 H 2913.83 -1.23898 -1.04215 0
M  V30 30593 H 2915.83 -0.434102 -4.02365 0
M  V30 30594 H 2914.4 0.129779 -3.1233 0
M  V30 30595 H 2913.62 -2.35564 -3.16075 0
M  V30 30596 H 2914.9 -2.6528 -4.3417 0
M  V30 30597 H 2914.3 0.24616 -5.65164 0
M  V30 30598 H 2912.86 -0.100843 -6.51722 0
M  V30 30599 N 2916.29 1.08262 -1.1453 0
M  V30 30600 C 2917.71 1.32749 -0.886 0
M  V30 30601 C 2917.91 1.95892 0.472062 0
M  V30 30602 O 2916.96 2.2129 1.21602 0
M  V30 30603 C 2918.28 2.2276 -2.01986 0
M  V30 30604 C 2919.82 2.36236 -2.05333 0
M  V30 30605 C 2920.3 3.2959 -3.18016 0
M  V30 30606 N 2921.79 3.37168 -3.17604 0
M  V30 30607 C 2922.53 4.09437 -4.01434 0
M  V30 30608 N 2922.02 4.84401 -4.95306 0
M  V30 30609 N 2923.81 4.05283 -3.89489 0
M  V30 30610 H 2915.97 0.656572 -2.01997 0
M  V30 30611 H 2918.23 0.351869 -0.88028 0
M  V30 30612 H 2917.93 1.8361 -2.99967 0
M  V30 30613 H 2917.81 3.23231 -1.94426 0
M  V30 30614 H 2920.2 2.74644 -1.07957 0
M  V30 30615 H 2920.28 1.35502 -2.16963 0
M  V30 30616 H 2919.92 2.91903 -4.15638 0
M  V30 30617 H 2919.85 4.30256 -3.03623 0
M  V30 30618 H 2922.34 2.83726 -2.49615 0
M  V30 30619 H 2922.65 5.37012 -5.55732 0
M  V30 30620 H 2921 4.83449 -4.99302 0
M  V30 30621 H 2924.19 3.45826 -3.15471 0
M  V30 30622 H 2924.36 4.61342 -4.55047 0
M  V30 30623 N 2917.77 0.940655 1.26449 0
M  V30 30624 C 2918.99 0.604155 1.98405 0
M  V30 30625 C 2919.42 -0.81379 1.69585 0
M  V30 30626 O 2918.78 -1.5481 0.943581 0
M  V30 30627 C 2918.83 0.852197 3.50385 0
M  V30 30628 O 2917.93 -0.0759406 4.1233 0
M  V30 30629 H 2917.27 0.231164 0.622462 0
M  V30 30630 H 2919.8 1.26344 1.60929 0
M  V30 30631 H 2919.81 0.772887 4.00613 0
M  V30 30632 H 2918.49 1.88572 3.70693 0
M  V30 30633 H 2917.06 0.0543843 3.7286 0
M  V30 30634 N 2919.25 -1.40821 0.707617 0
M  V30 30635 C 2920.66 -1.55001 0.380367 0
M  V30 30636 C 2920.86 -1.68064 -1.1116 0
M  V30 30637 O 2919.92 -1.66578 -1.89758 0
M  V30 30638 C 2921.23 -2.78275 1.13945 0
M  V30 30639 C 2922.78 -2.92085 1.12497 0
M  V30 30640 C 2923.26 -4.18262 1.86604 0
M  V30 30641 N 2924.75 -4.25245 1.83633 0
M  V30 30642 C 2925.48 -5.21763 2.37804 0
M  V30 30643 N 2924.98 -6.24239 3.00496 0
M  V30 30644 N 2926.77 -5.13787 2.27991 0
M  V30 30645 H 2918.92 -1.30587 1.67513 0
M  V30 30646 H 2921.18 -0.630888 0.70759 0
M  V30 30647 H 2920.89 -2.74873 2.19403 0
M  V30 30648 H 2920.76 -3.7015 0.725858 0
M  V30 30649 H 2923.15 -2.94995 0.0786083 0
M  V30 30650 H 2923.23 -2.0135 1.57771 0
M  V30 30651 H 2922.88 -4.16113 2.91226 0
M  V30 30652 H 2922.81 -5.07991 1.38755 0
M  V30 30653 H 2925.3 -3.51827 1.37936 0
M  V30 30654 H 2925.61 -6.94298 3.39367 0
M  V30 30655 H 2923.96 -6.24706 3.04578 0
M  V30 30656 H 2927.15 -4.32657 1.78676 0
M  V30 30657 H 2927.32 -5.88837 2.7051 0
M  V30 30658 N 2920.73 -0.453223 -1.50943 0
M  V30 30659 C 2921.96 0.105945 -2.06328 0
M  V30 30660 C 2922.36 1.35632 -1.31912 0
M  V30 30661 O 2921.71 1.79797 -0.376639 0
M  V30 30662 C 2921.77 0.477805 -3.56311 0
M  V30 30663 C 2921.43 -0.668005 -4.52091 0
M  V30 30664 C 2922.43 -1.54484 -4.96418 0
M  V30 30665 C 2920.11 -0.853255 -4.95 0
M  V30 30666 C 2922.11 -2.59148 -5.82341 0
M  V30 30667 C 2919.8 -1.90315 -5.80709 0
M  V30 30668 C 2920.79 -2.77064 -6.24279 0
M  V30 30669 O 2920.48 -3.80248 -7.08284 0
M  V30 30670 H 2920.21 0.00426059 -0.675987 0
M  V30 30671 H 2922.77 -0.635772 -1.95313 0
M  V30 30672 H 2921 1.27246 -3.65165 0
M  V30 30673 H 2922.69 0.96997 -3.9414 0
M  V30 30674 H 2923.45 -1.41332 -4.63951 0
M  V30 30675 H 2919.33 -0.187563 -4.60618 0
M  V30 30676 H 2922.88 -3.2689 -6.1627 0
M  V30 30677 H 2918.77 -2.0348 -6.1259 0
M  V30 30678 H 2919.54 -3.7702 -7.26497 0
M  V30 30679 N 2922.2 1.56509 -0.185151 0
M  V30 30680 C 2923.45 1.96904 0.455322 0
M  V30 30681 C 2923.77 1.0728 1.62837 0
M  V30 30682 O 2923.04 0.142001 1.95385 0
M  V30 30683 H 2921.62 0.727116 0.171206 0
M  V30 30684 H 2924.28 1.93027 -0.269564 0
M  V30 30685 H 2923.38 3.0151 0.806107 0
M  V30 30686 N 2923.68 -0.0885089 1.57351 0
M  V30 30687 C 2924.61 -1.10753 2.05562 0
M  V30 30688 C 2925.59 -1.4138 0.945814 0
M  V30 30689 O 2926.78 -1.51296 1.2175 0
M  V30 30690 C 2923.91 -2.42562 2.48558 0
M  V30 30691 C 2922.86 -2.26328 3.63263 0
M  V30 30692 C 2922.19 -3.63371 3.92257 0
M  V30 30693 C 2923.49 -1.69836 4.93916 0
M  V30 30694 H 2925.18 -0.706417 2.90947 0
M  V30 30695 H 2922.73 -0.33836 1.39968 0
M  V30 30696 H 2924.68 -3.14127 2.80895 0
M  V30 30697 H 2923.4 -2.84622 1.60181 0
M  V30 30698 H 2922.06 -1.57207 3.31182 0
M  V30 30699 H 2921.71 -4.02971 3.01037 0
M  V30 30700 H 2921.41 -3.53353 4.69484 0
M  V30 30701 H 2922.94 -4.36394 4.27075 0
M  V30 30702 H 2924.35 -2.31248 5.24592 0
M  V30 30703 H 2922.75 -1.70559 5.75352 0
M  V30 30704 H 2923.82 -0.658346 4.8041 0
M  V30 30705 N 2925.16 -1.53445 -0.359498 0
M  V30 30706 C 2926.09 -1.83293 -1.44658 0
M  V30 30707 C 2927.07 -0.686857 -1.55616 0
M  V30 30708 O 2928.26 -0.93728 -1.70084 0
M  V30 30709 C 2925.39 -2.02827 -2.81919 0
M  V30 30710 C 2924.34 -3.18611 -2.85782 0
M  V30 30711 C 2923.67 -3.2345 -4.25775 0
M  V30 30712 C 2924.97 -4.5707 -2.52754 0
M  V30 30713 H 2926.66 -2.74331 -1.19929 0
M  V30 30714 H 2924.21 -1.32 -0.575494 0
M  V30 30715 H 2926.16 -2.22291 -3.58001 0
M  V30 30716 H 2924.88 -1.08505 -3.08049 0
M  V30 30717 H 2923.54 -2.98977 -2.12151 0
M  V30 30718 H 2923.19 -2.26753 -4.4899 0
M  V30 30719 H 2922.89 -4.01245 -4.29274 0
M  V30 30720 H 2924.41 -3.45105 -5.03721 0
M  V30 30721 H 2925.83 -4.76654 -3.18549 0
M  V30 30722 H 2924.22 -5.37151 -2.6756 0
M  V30 30723 H 2925.29 -4.61767 -1.47985 0
M  V30 30724 N 2926.64 0.619637 -1.44908 0
M  V30 30725 C 2927.89 1.37498 -1.47571 0
M  V30 30726 C 2928.2 1.95251 -0.116741 0
M  V30 30727 O 2929.41 2.71492 -0.0209567 0
M  V30 30728 C 2927.86 2.49004 -2.59855 0
M  V30 30729 C 2927.47 1.97715 -4.02011 0
M  V30 30730 C 2929.21 3.26115 -2.71752 0
M  V30 30731 C 2927.12 3.06632 -5.05699 0
M  V30 30732 H 2926.05 0.51675 -0.549077 0
M  V30 30733 H 2928.7 0.665407 -1.7101 0
M  V30 30734 H 2927.08 3.2259 -2.29677 0
M  V30 30735 H 2928.26 1.30918 -4.41811 0
M  V30 30736 H 2926.57 1.33385 -3.94458 0
M  V30 30737 H 2929.17 4.07331 -3.46389 0
M  V30 30738 H 2929.51 3.76343 -1.77966 0
M  V30 30739 H 2930.05 2.59624 -3.01397 0
M  V30 30740 H 2926.78 2.61335 -6.01152 0
M  V30 30741 H 2926.3 3.72033 -4.7048 0
M  V30 30742 H 2927.98 3.71216 -5.29913 0
M  V30 30743 N 2928.12 1.31997 0.861075 0
M  V30 30744 C 2929.06 1.20395 1.9691 0
M  V30 30745 C 2930.03 0.087619 1.65869 0
M  V30 30746 O 2931.22 0.262044 1.88992 0
M  V30 30747 C 2928.36 0.926393 3.32433 0
M  V30 30748 C 2927.47 2.12691 3.76014 0
M  V30 30749 C 2926.61 1.78537 5.00298 0
M  V30 30750 C 2925.65 2.94946 5.36352 0
M  V30 30751 N 2924.78 2.60929 6.51813 0
M  V30 30752 H 2929.62 2.15174 2.06165 0
M  V30 30753 H 2927.16 1.07026 1.00915 0
M  V30 30754 H 2929.12 0.745989 4.10476 0
M  V30 30755 H 2927.75 0.0154145 3.22796 0
M  V30 30756 H 2926.8 2.41779 2.93678 0
M  V30 30757 H 2928.11 2.99788 3.98658 0
M  V30 30758 H 2927.27 1.57011 5.86031 0
M  V30 30759 H 2926 0.88644 4.79576 0
M  V30 30760 H 2925.01 3.17111 4.49133 0
M  V30 30761 H 2926.23 3.85562 5.59034 0
M  V30 30762 H 2924.18 1.73569 6.32621 0
M  V30 30763 H 2924.1 3.41556 6.74444 0
M  V30 30764 H 2925.37 2.42817 7.40716 0
M  V30 30765 N 2929.59 -1.07653 1.15103 0
M  V30 30766 C 2930.56 -2.12949 0.847662 0
M  V30 30767 C 2931.56 -1.60088 -0.151199 0
M  V30 30768 O 2932.75 -1.74025 0.0780705 0
M  V30 30769 C 2929.88 -3.39868 0.26506 0
M  V30 30770 H 2931.07 -2.41293 1.78095 0
M  V30 30771 H 2928.63 -1.23492 0.958094 0
M  V30 30772 H 2929.36 -3.17164 -0.67657 0
M  V30 30773 H 2929.15 -3.79536 0.98462 0
M  V30 30774 H 2930.64 -4.17541 0.0702855 0
M  V30 30775 N 2931.07 -0.947348 -1.25949 0
M  V30 30776 C 2932.32 -0.598212 -1.93462 0
M  V30 30777 C 2932.65 0.863674 -1.74273 0
M  V30 30778 O 2931.9 1.63407 -1.07687 0
M  V30 30779 C 2932.2 -0.894219 -3.46032 0
M  V30 30780 C 2931.87 -2.34097 -3.85369 0
M  V30 30781 C 2930.53 -2.73644 -3.95819 0
M  V30 30782 C 2932.88 -3.28087 -4.0498 0
M  V30 30783 C 2930.21 -4.06264 -4.23281 0
M  V30 30784 C 2932.56 -4.60311 -4.33932 0
M  V30 30785 C 2931.23 -4.99664 -4.42597 0
M  V30 30786 H 2930.5 -0.218901 -0.707929 0
M  V30 30787 H 2933.14 -1.19502 -1.49638 0
M  V30 30788 H 2931.45 -0.214943 -3.9121 0
M  V30 30789 H 2933.14 -0.602767 -3.96444 0
M  V30 30790 H 2929.73 -2.02424 -3.77786 0
M  V30 30791 H 2933.92 -2.98727 -3.96328 0
M  V30 30792 H 2929.17 -4.36408 -4.28203 0
M  V30 30793 H 2933.35 -5.33126 -4.48052 0
M  V30 30794 H 2930.98 -6.02454 -4.6363 0
M  V30 30795 N 2932.55 1.40444 -0.715075 0
M  V30 30796 C 2933.78 2.05731 -0.262576 0
M  V30 30797 C 2934.2 1.5352 1.08688 0
M  V30 30798 O 2933.56 0.670358 1.68451 0
M  V30 30799 C 2933.61 3.59718 -0.252013 0
M  V30 30800 O 2932.71 4.05206 0.766927 0
M  V30 30801 H 2932.05 0.652431 -0.123409 0
M  V30 30802 H 2934.58 1.79852 -0.975413 0
M  V30 30803 H 2934.59 4.07902 -0.0895254 0
M  V30 30804 H 2933.27 3.97085 -1.23679 0
M  V30 30805 H 2931.84 3.68484 0.572204 0
M  V30 30806 N 2934.03 0.461222 1.507 0
M  V30 30807 C 2934.96 -0.383824 2.24949 0
M  V30 30808 C 2935.94 -1.00462 1.27852 0
M  V30 30809 O 2937.12 -1.04247 1.57051 0
M  V30 30810 C 2934.25 -1.53694 3.01821 0
M  V30 30811 C 2933.3 -1.0345 4.13764 0
M  V30 30812 S 2934.13 0.0428427 5.35483 0
M  V30 30813 C 2935.29 -1.11438 6.159 0
M  V30 30814 H 2935.52 0.246478 2.96277 0
M  V30 30815 H 2933.05 0.245988 1.52428 0
M  V30 30816 H 2935.01 -2.19788 3.46704 0
M  V30 30817 H 2933.67 -2.13873 2.30038 0
M  V30 30818 H 2932.86 -1.89749 4.66917 0
M  V30 30819 H 2932.47 -0.451434 3.71265 0
M  V30 30820 H 2934.76 -2.02802 6.46435 0
M  V30 30821 H 2935.7 -0.62232 7.0536 0
M  V30 30822 H 2936.11 -1.36375 5.47779 0
M  V30 30823 N 2935.51 -1.56408 0.193449 0
M  V30 30824 C 2936.73 -2.01916 -0.451402 0
M  V30 30825 C 2937.15 -1.07359 -1.55304 0
M  V30 30826 O 2936.51 -0.0781832 -1.82332 0
M  V30 30827 C 2936.56 -3.47126 -1.00925 0
M  V30 30828 O 2936.28 -4.38073 0.0484393 0
M  V30 30829 C 2937.78 -4.08143 -1.73014 0
M  V30 30830 H 2935 -0.661334 -0.113484 0
M  V30 30831 H 2937.54 -2.02263 0.301671 0
M  V30 30832 H 2935.7 -3.47484 -1.71271 0
M  V30 30833 H 2936.11 -5.23218 -0.366552 0
M  V30 30834 H 2937.59 -5.11605 -2.0728 0
M  V30 30835 H 2938.06 -3.51507 -2.63324 0
M  V30 30836 H 2938.67 -4.11553 -1.07257 0
M  V30 30837 N 2936.98 0.0801629 -1.57396 0
M  V30 30838 C 2937.95 1.08047 -2.02135 0
M  V30 30839 C 2938.95 1.32083 -0.917093 0
M  V30 30840 O 2940.14 1.27945 -1.18219 0
M  V30 30841 C 2937.27 2.42612 -2.39484 0
M  V30 30842 H 2938.46 0.695049 -2.91735 0
M  V30 30843 H 2936.02 0.32565 -1.5287 0
M  V30 30844 H 2936.75 2.86002 -1.52884 0
M  V30 30845 H 2936.54 2.26509 -3.20056 0
M  V30 30846 H 2938.03 3.14529 -2.74702 0
M  V30 30847 N 2938.46 1.53634 0.351355 0
M  V30 30848 C 2939.43 1.80385 1.41399 0
M  V30 30849 C 2940.43 0.67466 1.45962 0
M  V30 30850 O 2941.62 0.94292 1.46474 0
M  V30 30851 C 2938.75 1.93881 2.80398 0
M  V30 30852 H 2939.94 2.75303 1.18946 0
M  V30 30853 H 2937.49 1.44927 0.585304 0
M  V30 30854 H 2938.23 1.01079 3.08145 0
M  V30 30855 H 2938.01 2.76025 2.78483 0
M  V30 30856 H 2939.5 2.16122 3.57325 0
M  V30 30857 N 2939.94 -0.611943 1.45234 0
M  V30 30858 C 2940.85 -1.75127 1.56102 0
M  V30 30859 C 2941.87 -1.68196 0.445676 0
M  V30 30860 O 2943.04 -1.8863 0.705751 0
M  V30 30861 C 2940.11 -3.11576 1.52057 0
M  V30 30862 C 2939.17 -3.29994 2.74595 0
M  V30 30863 C 2938.4 -4.59934 2.70734 0
M  V30 30864 O 2938.62 -5.41976 1.77816 0
M  V30 30865 O 2937.56 -4.8097 3.61872 0
M  V30 30866 H 2941.38 -1.6891 2.52395 0
M  V30 30867 H 2938.97 -0.775505 1.27696 0
M  V30 30868 H 2940.85 -3.92879 1.52393 0
M  V30 30869 H 2939.53 -3.18294 0.589141 0
M  V30 30870 H 2938.43 -2.48296 2.79822 0
M  V30 30871 H 2939.77 -3.2815 3.66849 0
M  V30 30872 N 2941.42 -1.32452 -0.854063 0
M  V30 30873 C 2942.65 -1.26048 -1.64072 0
M  V30 30874 C 2943.06 0.171423 -1.8802 0
M  V30 30875 O 2942.42 1.1087 -1.44962 0
M  V30 30876 C 2942.47 -2.01748 -2.99966 0
M  V30 30877 O 2942.19 -3.39351 -2.77078 0
M  V30 30878 C 2943.69 -2.02375 -3.9441 0
M  V30 30879 H 2940.91 -0.434871 -0.511007 0
M  V30 30880 H 2943.46 -1.74585 -1.06491 0
M  V30 30881 H 2941.61 -1.56932 -3.54191 0
M  V30 30882 H 2942.02 -3.78104 -3.63507 0
M  V30 30883 H 2943.5 -2.59824 -4.87027 0
M  V30 30884 H 2943.98 -1.01016 -4.27425 0
M  V30 30885 H 2944.58 -2.47141 -3.46123 0
M  V30 30886 N 2942.9 1.07041 -1.15672 0
M  V30 30887 C 2943.86 2.12497 -0.858943 0
M  V30 30888 C 2944.86 1.60165 0.142707 0
M  V30 30889 O 2946.05 1.73981 -0.0872984 0
M  V30 30890 C 2943.18 3.39723 -0.28308 0
M  V30 30891 H 2944.38 2.40345 -1.79372 0
M  V30 30892 H 2941.93 1.22982 -0.964629 0
M  V30 30893 H 2942.66 3.17518 0.65974 0
M  V30 30894 H 2942.45 3.79009 -1.00473 0
M  V30 30895 H 2943.94 4.17498 -0.0924277 0
M  V30 30896 N 2944.38 0.954014 1.25445 0
M  V30 30897 C 2945.79 0.658342 1.45389 0
M  V30 30898 C 2945.99 -0.784323 1.85609 0
M  V30 30899 O 2945.05 -1.55968 1.9857 0
M  V30 30900 C 2946.36 1.63074 2.52641 0
M  V30 30901 C 2947.91 1.64185 2.66481 0
M  V30 30902 C 2948.38 2.60188 3.76917 0
M  V30 30903 N 2949.87 2.58549 3.84326 0
M  V30 30904 C 2950.61 3.29511 4.69265 0
M  V30 30905 N 2950.11 4.09944 5.58496 0
M  V30 30906 N 2951.9 3.18401 4.63225 0
M  V30 30907 H 2944.05 1.88632 0.976304 0
M  V30 30908 H 2946.31 0.811345 0.490329 0
M  V30 30909 H 2946.02 2.66118 2.29944 0
M  V30 30910 H 2945.89 1.39277 3.50545 0
M  V30 30911 H 2948.28 0.618603 2.88543 0
M  V30 30912 H 2948.36 1.92041 1.68979 0
M  V30 30913 H 2948 3.62639 3.55605 0
M  V30 30914 H 2947.93 2.29618 4.73902 0
M  V30 30915 H 2950.43 2.00156 3.2054 0
M  V30 30916 H 2950.74 4.61011 6.20233 0
M  V30 30917 H 2949.08 4.14042 5.58206 0
M  V30 30918 H 2952.27 2.55037 3.92522 0
M  V30 30919 H 2952.45 3.7397 5.29198 0
M  V30 30920 N 2945.85 -1.40063 0.722513 0
M  V30 30921 C 2947.27 -1.54589 0.396786 0
M  V30 30922 C 2947.47 -1.69234 -1.09372 0
M  V30 30923 O 2946.53 -1.68581 -1.87981 0
M  V30 30924 C 2947.84 -2.77051 1.1689 0
M  V30 30925 C 2949.39 -2.90875 1.15589 0
M  V30 30926 C 2949.86 -4.16259 1.9103 0
M  V30 30927 N 2951.35 -4.23273 1.88133 0
M  V30 30928 C 2952.09 -5.19212 2.43324 0
M  V30 30929 N 2951.58 -6.21016 3.071 0
M  V30 30930 N 2953.38 -5.1134 2.33427 0
M  V30 30931 H 2945.53 -1.28803 1.68889 0
M  V30 30932 H 2947.79 -0.623348 0.714242 0
M  V30 30933 H 2947.5 -2.72531 2.22306 0
M  V30 30934 H 2947.37 -3.69359 0.765076 0
M  V30 30935 H 2949.76 -2.94895 0.109892 0
M  V30 30936 H 2949.84 -1.99665 1.59898 0
M  V30 30937 H 2949.48 -4.13 2.95623 0
M  V30 30938 H 2949.41 -5.0649 1.44135 0
M  V30 30939 H 2951.9 -3.50344 1.4166 0
M  V30 30940 H 2952.22 -6.9066 3.46712 0
M  V30 30941 H 2950.56 -6.2144 3.11186 0
M  V30 30942 H 2953.75 -4.30738 1.83255 0
M  V30 30943 H 2953.93 -5.85934 2.7674 0
M  V30 30944 N 2947.33 -0.469207 -1.50453 0
M  V30 30945 C 2948.56 0.0841771 -2.06729 0
M  V30 30946 C 2948.97 1.33675 -1.33328 0
M  V30 30947 O 2948.33 1.78017 -0.402009 0
M  V30 30948 C 2948.38 0.37419 -3.59558 0
M  V30 30949 O 2948.1 -0.828698 -4.30191 0
M  V30 30950 C 2949.6 0.974748 -4.32451 0
M  V30 30951 H 2946.82 -0.00624279 -0.670971 0
M  V30 30952 H 2949.37 -0.657449 -1.93644 0
M  V30 30953 H 2947.52 1.06575 -3.72452 0
M  V30 30954 H 2947.94 -0.572158 -5.2137 0
M  V30 30955 H 2949.41 1.12745 -5.40363 0
M  V30 30956 H 2949.89 1.96435 -3.92823 0
M  V30 30957 H 2950.49 0.321628 -4.24082 0
M  V30 30958 N 2948.81 1.56303 -0.201741 0
M  V30 30959 C 2950.23 1.58855 0.153997 0
M  V30 30960 C 2950.43 1.2181 1.60514 0
M  V30 30961 O 2949.48 0.943971 2.34191 0
M  V30 30962 C 2950.79 3.00303 -0.154372 0
M  V30 30963 C 2952.34 3.12856 -0.0950128 0
M  V30 30964 C 2952.82 4.56448 -0.376783 0
M  V30 30965 N 2954.31 4.62054 -0.32564 0
M  V30 30966 C 2955.04 5.71061 -0.51742 0
M  V30 30967 N 2954.54 6.88509 -0.76991 0
M  V30 30968 N 2956.33 5.60286 -0.451219 0
M  V30 30969 H 2948.48 1.78664 -1.14861 0
M  V30 30970 H 2950.75 0.8295 -0.458948 0
M  V30 30971 H 2950.45 3.31992 -1.1608 0
M  V30 30972 H 2950.33 3.73315 0.539948 0
M  V30 30973 H 2952.71 2.80976 0.902026 0
M  V30 30974 H 2952.79 2.42216 -0.822511 0
M  V30 30975 H 2952.44 4.89041 -1.37117 0
M  V30 30976 H 2952.37 5.25287 0.37168 0
M  V30 30977 H 2954.86 3.7765 -0.137375 0
M  V30 30978 H 2955.17 7.67484 -0.904879 0
M  V30 30979 H 2953.52 6.903 -0.80688 0
M  V30 30980 H 2956.71 4.67409 -0.254335 0
M  V30 30981 H 2956.88 6.45178 -0.604095 0
M  V30 30982 N 2950.29 -0.0718147 1.57436 0
M  V30 30983 C 2951.2 -1.10323 2.07041 0
M  V30 30984 C 2952.21 -1.42398 0.999943 0
M  V30 30985 O 2953.39 -1.52575 1.31464 0
M  V30 30986 C 2950.45 -2.39748 2.50443 0
M  V30 30987 C 2949.52 -2.14644 3.71788 0
M  V30 30988 C 2948.75 -3.37899 4.1311 0
M  V30 30989 O 2948.97 -4.47016 3.54306 0
M  V30 30990 O 2947.91 -3.26113 5.05899 0
M  V30 30991 H 2951.73 -0.71182 2.9524 0
M  V30 30992 H 2949.32 -0.285945 1.46638 0
M  V30 30993 H 2951.2 -3.15917 2.78881 0
M  V30 30994 H 2949.87 -2.78269 1.65373 0
M  V30 30995 H 2948.78 -1.36181 3.48433 0
M  V30 30996 H 2950.11 -1.81004 4.5771 0
M  V30 30997 N 2951.77 -1.53818 -0.343203 0
M  V30 30998 C 2953.01 -1.7108 -1.08341 0
M  V30 30999 C 2953.34 -0.474166 -1.88632 0
M  V30 31000 O 2952.6 0.544083 -1.87985 0
M  V30 31001 C 2952.89 -2.92629 -2.0519 0
M  V30 31002 C 2952.56 -4.28219 -1.41208 0
M  V30 31003 C 2951.22 -4.65085 -1.23487 0
M  V30 31004 C 2953.57 -5.12447 -0.951183 0
M  V30 31005 C 2950.9 -5.83797 -0.582962 0
M  V30 31006 C 2953.25 -6.31824 -0.313181 0
M  V30 31007 C 2951.92 -6.67385 -0.123662 0
M  V30 31008 H 2951.19 -0.626028 -0.396447 0
M  V30 31009 H 2953.84 -1.88035 -0.362656 0
M  V30 31010 H 2952.14 -2.7028 -2.83648 0
M  V30 31011 H 2953.84 -3.03179 -2.62456 0
M  V30 31012 H 2950.43 -3.99203 -1.55998 0
M  V30 31013 H 2954.61 -4.84497 -1.07594 0
M  V30 31014 H 2949.87 -6.09923 -0.424747 0
M  V30 31015 H 2954.04 -6.96381 0.0520403 0
M  V30 31016 H 2951.67 -7.59232 0.383532 0
M  V30 31017 N 2953.24 0.604233 -1.45557 0
M  V30 31018 C 2954.66 0.925345 -1.30037 0
M  V30 31019 C 2954.86 1.99869 -0.255868 0
M  V30 31020 O 2953.92 2.50076 0.349032 0
M  V30 31021 C 2955.23 1.36309 -2.6803 0
M  V30 31022 C 2956.78 1.47712 -2.75953 0
M  V30 31023 C 2957.25 1.94861 -4.14479 0
M  V30 31024 N 2958.74 2.02089 -4.1679 0
M  V30 31025 C 2959.48 2.398 -5.20849 0
M  V30 31026 N 2958.97 2.76456 -6.35251 0
M  V30 31027 N 2960.77 2.40168 -5.08208 0
M  V30 31028 H 2952.92 -0.105157 -2.1214 0
M  V30 31029 H 2955.18 0.0156137 -0.947871 0
M  V30 31030 H 2954.89 0.648568 -3.45668 0
M  V30 31031 H 2954.76 2.32894 -2.96715 0
M  V30 31032 H 2957.15 2.18255 -1.98617 0
M  V30 31033 H 2957.23 0.494327 -2.50978 0
M  V30 31034 H 2956.87 1.24904 -4.92302 0
M  V30 31035 H 2956.8 2.9406 -4.36848 0
M  V30 31036 H 2959.29 1.76338 -3.34236 0
M  V30 31037 H 2959.61 3.04122 -7.10443 0
M  V30 31038 H 2957.95 2.74144 -6.38647 0
M  V30 31039 H 2961.14 2.1094 -4.17878 0
M  V30 31040 H 2961.32 2.69231 -5.89422 0
M  V30 31041 N 2954.72 1.32903 0.847027 0
M  V30 31042 C 2955.95 1.27059 1.63923 0
M  V30 31043 C 2956.37 -0.157103 1.87443 0
M  V30 31044 O 2955.73 -1.11103 1.43268 0
M  V30 31045 C 2955.78 2.04318 2.9713 0
M  V30 31046 O 2954.88 1.3962 3.88046 0
M  V30 31047 H 2954.22 0.437523 0.49947 0
M  V30 31048 H 2956.75 1.75338 1.0544 0
M  V30 31049 H 2956.76 2.14778 3.46892 0
M  V30 31050 H 2955.44 3.08133 2.79333 0
M  V30 31051 H 2954.01 1.37756 3.46522 0
M  V30 31052 N 2956.2 -1.06426 1.16238 0
M  V30 31053 C 2957.61 -1.60666 0.950971 0
M  V30 31054 C 2957.96 -1.89577 -0.505457 0
M  V30 31055 O 2957.09 -1.6682 -1.3784 0
M  V30 31056 C 2957.68 -2.91901 1.71987 0
M  V30 31057 C 2956.24 -3.42847 1.55348 0
M  V30 31058 C 2955.39 -2.1676 1.72946 0
M  V30 31059 H 2958.34 -0.893936 1.31128 0
M  V30 31060 H 2958.36 -3.61251 1.1949 0
M  V30 31061 H 2957.87 -2.70826 2.77983 0
M  V30 31062 H 2955.97 -3.68984 0.517865 0
M  V30 31063 H 2956.09 -4.18263 2.33651 0
M  V30 31064 H 2954.45 -2.26916 1.15677 0
M  V30 31065 H 2955.23 -1.9817 2.80327 0
M  V30 31066 N 2957.68 -0.960653 -1.24937 0
M  V30 31067 C 2959.09 -0.65856 -1.74699 0
M  V30 31068 C 2959.44 0.825927 -1.77969 0
M  V30 31069 O 2958.57 1.64632 -1.40447 0
M  V30 31070 C 2959.16 -1.18873 -3.17261 0
M  V30 31071 C 2957.72 -0.936678 -3.64559 0
M  V30 31072 C 2956.87 -1.32822 -2.43421 0
M  V30 31073 H 2959.82 -1.13678 -1.10739 0
M  V30 31074 H 2959.84 -0.551655 -3.7648 0
M  V30 31075 H 2959.35 -2.26917 -3.1485 0
M  V30 31076 H 2957.45 0.128542 -3.72378 0
M  V30 31077 H 2957.56 -1.57737 -4.52389 0
M  V30 31078 H 2955.93 -0.746591 -2.43512 0
M  V30 31079 H 2956.71 -2.418 -2.43696 0
M  V30 31080 N 2959.16 1.39677 -0.729931 0
M  V30 31081 C 2960.09 2.29152 -0.0470991 0
M  V30 31082 C 2961.1 1.46561 0.708782 0
M  V30 31083 O 2962.29 1.69692 0.553785 0
M  V30 31084 C 2959.39 3.25091 0.957555 0
M  V30 31085 C 2958.56 4.36601 0.264244 0
M  V30 31086 C 2957.62 5.12884 1.17629 0
M  V30 31087 O 2956.65 5.65411 0.655678 0
M  V30 31088 N 2957.85 5.23603 2.5064 0
M  V30 31089 H 2960.62 2.88394 -0.815415 0
M  V30 31090 H 2958.18 1.51203 -0.578734 0
M  V30 31091 H 2960.17 3.72997 1.57019 0
M  V30 31092 H 2958.74 2.66915 1.62712 0
M  V30 31093 H 2957.96 3.90637 -0.5288 0
M  V30 31094 H 2959.25 5.08339 -0.216433 0
M  V30 31095 H 2958.64 4.82436 2.95418 0
M  V30 31096 H 2957.2 5.74967 3.07012 0
M  V30 31097 N 2960.63 0.47718 1.50202 0
M  V30 31098 C 2961.54 -0.318987 2.32421 0
M  V30 31099 C 2962.56 -0.990208 1.43076 0
M  V30 31100 O 2963.74 -0.976842 1.76124 0
M  V30 31101 C 2960.8 -1.38323 3.17911 0
M  V30 31102 C 2959.86 -0.727962 4.23083 0
M  V30 31103 C 2959.1 -1.74149 5.04488 0
M  V30 31104 O 2959.32 -2.96872 4.87056 0
M  V30 31105 O 2958.25 -1.30996 5.87472 0
M  V30 31106 H 2962.08 0.353334 3.01638 0
M  V30 31107 H 2959.66 0.238917 1.47477 0
M  V30 31108 H 2961.55 -1.99953 3.7094 0
M  V30 31109 H 2960.22 -2.03891 2.51417 0
M  V30 31110 H 2959.13 -0.0725442 3.7403 0
M  V30 31111 H 2960.46 -0.115129 4.92065 0
M  V30 31112 N 2962.11 -1.56194 0.210027 0
M  V30 31113 C 2963.04 -2.1703 -0.736929 0
M  V30 31114 C 2964.06 -1.13618 -1.16597 0
M  V30 31115 O 2965.25 -1.40648 -1.09911 0
M  V30 31116 C 2962.35 -2.72972 -2.00847 0
M  V30 31117 C 2961.52 -4.01438 -1.73684 0
M  V30 31118 C 2960.58 -4.42058 -2.85431 0
M  V30 31119 O 2959.6 -5.09187 -2.54396 0
M  V30 31120 N 2960.81 -4.0679 -4.14128 0
M  V30 31121 H 2963.57 -2.98916 -0.216604 0
M  V30 31122 H 2961.13 -1.61875 0.0285956 0
M  V30 31123 H 2963.12 -2.97123 -2.74773 0
M  V30 31124 H 2961.69 -1.95455 -2.43959 0
M  V30 31125 H 2960.91 -3.85263 -0.834608 0
M  V30 31126 H 2962.2 -4.85266 -1.52952 0
M  V30 31127 H 2961.6 -3.52824 -4.4219 0
M  V30 31128 H 2960.16 -4.35859 -4.84634 0
M  V30 31129 N 2963.59 0.0634645 -1.57472 0
M  V30 31130 C 2964.84 0.759895 -1.86838 0
M  V30 31131 C 2965.15 1.78319 -0.803854 0
M  V30 31132 O 2966.36 2.52978 -0.985622 0
M  V30 31133 C 2964.81 1.40245 -3.31451 0
M  V30 31134 C 2964.42 0.41729 -4.46052 0
M  V30 31135 C 2966.17 2.08075 -3.70007 0
M  V30 31136 C 2964.07 1.06623 -5.81709 0
M  V30 31137 H 2963 0.287555 -0.697014 0
M  V30 31138 H 2965.65 0.0133591 -1.83495 0
M  V30 31139 H 2964.04 2.19753 -3.29431 0
M  V30 31140 H 2965.21 -0.348583 -4.5948 0
M  V30 31141 H 2963.53 -0.157028 -4.16104 0
M  V30 31142 H 2966.12 2.57418 -4.68658 0
M  V30 31143 H 2966.47 2.88387 -3.00231 0
M  V30 31144 H 2967 1.35388 -3.74052 0
M  V30 31145 H 2963.74 0.303259 -6.54798 0
M  V30 31146 H 2963.26 1.80276 -5.72067 0
M  V30 31147 H 2964.94 1.58365 -6.27319 0
M  V30 31148 N 2965.07 1.53998 0.33504 0
M  V30 31149 C 2966.02 1.83291 1.43203 0
M  V30 31150 C 2967.01 0.70398 1.54079 0
M  V30 31151 O 2968.22 0.887459 1.56602 0
M  V30 31152 H 2964.59 0.580826 0.477645 0
M  V30 31153 H 2966.56 2.75051 1.15714 0
M  V30 31154 C 2965.31 2.06688 2.79599 0
M  V30 31155 H 2964.63 2.93013 2.71999 0
M  V30 31156 H 2966.07 2.31145 3.55455 0
M  V30 31157 C 2964.53 0.85494 3.25872 0
M  V30 31158 O 2965.06 0.0585354 4.01657 0
M  V30 31159 N 2963.27 0.669779 2.82776 0
M  V30 31160 H 2962.82 1.31905 2.21267 0
M  V30 31161 H 2962.77 -0.139634 3.1409 0
M  V30 31162 N 2966.55 -0.596505 1.45875 0
M  V30 31163 C 2967.48 -1.72068 1.49892 0
M  V30 31164 C 2968.46 -1.58694 0.354252 0
M  V30 31165 O 2969.64 -1.80102 0.556387 0
M  V30 31166 C 2966.77 -3.10001 1.36445 0
M  V30 31167 C 2965.81 -3.41934 2.54919 0
M  V30 31168 S 2966.65 -3.35538 4.17342 0
M  V30 31169 C 2967.8 -4.76031 4.0638 0
M  V30 31170 H 2968.04 -1.684 2.45008 0
M  V30 31171 H 2965.57 -0.774097 1.33593 0
M  V30 31172 H 2967.53 -3.8958 1.29375 0
M  V30 31173 H 2966.19 -3.11173 0.427817 0
M  V30 31174 H 2965.38 -4.42391 2.41466 0
M  V30 31175 H 2964.98 -2.69893 2.58909 0
M  V30 31176 H 2967.28 -5.66098 3.72209 0
M  V30 31177 H 2968.22 -4.94541 5.06789 0
M  V30 31178 H 2968.63 -4.52233 3.37854 0
M  V30 31179 N 2968.02 -1.3335 -0.839967 0
M  V30 31180 C 2968.95 -1.26139 -1.96498 0
M  V30 31181 C 2969.94 -0.142182 -1.69505 0
M  V30 31182 O 2971.12 -0.331777 -1.91345 0
M  V30 31183 C 2968.25 -0.998719 -3.3263 0
M  V30 31184 C 2967.2 -2.08075 -3.74017 0
M  V30 31185 C 2966.53 -1.67023 -5.07944 0
M  V30 31186 C 2967.83 -3.49738 -3.87918 0
M  V30 31187 H 2969.52 -2.20266 -2.02789 0
M  V30 31188 H 2967.07 -1.06037 -0.974278 0
M  V30 31189 H 2969.02 -0.934768 -4.10902 0
M  V30 31190 H 2967.75 -0.0218333 -3.26593 0
M  V30 31191 H 2966.41 -2.1351 -2.98008 0
M  V30 31192 H 2966.05 -0.680404 -4.98377 0
M  V30 31193 H 2965.75 -2.39431 -5.36606 0
M  V30 31194 H 2967.28 -1.62092 -5.88692 0
M  V30 31195 H 2968.69 -3.4681 -4.56504 0
M  V30 31196 H 2967.09 -4.20621 -4.28016 0
M  V30 31197 H 2968.16 -3.88324 -2.90401 0
M  V30 31198 N 2969.5 1.05808 -1.16801 0
M  V30 31199 C 2970.43 2.15363 -0.902279 0
M  V30 31200 C 2971.41 1.69408 0.153321 0
M  V30 31201 O 2972.6 1.942 0.00438619 0
M  V30 31202 C 2969.73 3.44895 -0.407972 0
M  V30 31203 C 2968.68 4.04384 -1.40204 0
M  V30 31204 C 2968.01 5.29186 -0.765941 0
M  V30 31205 C 2969.31 4.42593 -2.77324 0
M  V30 31206 H 2971 2.3785 -1.81846 0
M  V30 31207 H 2968.55 1.14309 -0.875751 0
M  V30 31208 H 2970.5 4.20879 -0.209524 0
M  V30 31209 H 2969.23 3.22042 0.543723 0
M  V30 31210 H 2967.88 3.30463 -1.58712 0
M  V30 31211 H 2967.53 5.02632 0.192394 0
M  V30 31212 H 2967.23 5.69947 -1.42949 0
M  V30 31213 H 2968.76 6.07862 -0.577626 0
M  V30 31214 H 2970.17 5.09637 -2.6257 0
M  V30 31215 H 2968.57 4.94353 -3.40198 0
M  V30 31216 H 2969.64 3.53225 -3.32205 0
M  V30 31217 N 2970.98 0.967265 1.24426 0
M  V30 31218 C 2971.91 0.454896 2.2464 0
M  V30 31219 C 2972.93 -0.436125 1.5685 0
M  V30 31220 O 2974.11 -0.24237 1.76847 0
M  V30 31221 C 2971.21 -0.362613 3.36954 0
M  V30 31222 C 2970.39 0.5184 4.34317 0
M  V30 31223 C 2969.45 -0.24303 5.25638 0
M  V30 31224 O 2968.47 0.36289 5.68042 0
M  V30 31225 N 2969.67 -1.53272 5.599 0
M  V30 31226 H 2972.44 1.31652 2.69235 0
M  V30 31227 H 2970 0.839039 1.38462 0
M  V30 31228 H 2971.99 -0.880024 3.95016 0
M  V30 31229 H 2970.56 -1.12517 2.91648 0
M  V30 31230 H 2969.78 1.21679 3.7495 0
M  V30 31231 H 2971.07 1.11928 4.96336 0
M  V30 31232 H 2970.47 -2.04673 5.27376 0
M  V30 31233 H 2969.03 -1.99583 6.20492 0
M  V30 31234 N 2972.46 -1.39288 0.737328 0
M  V30 31235 C 2973.71 -2.00466 0.286292 0
M  V30 31236 C 2974.03 -1.58509 -1.12718 0
M  V30 31237 O 2973.29 -0.806288 -1.78318 0
M  V30 31238 C 2973.59 -3.55793 0.3385 0
M  V30 31239 C 2973.25 -4.17408 1.70532 0
M  V30 31240 C 2971.92 -4.33951 2.07941 0
M  V30 31241 C 2974.27 -4.51566 2.60264 0
M  V30 31242 C 2971.6 -4.81942 3.34587 0
M  V30 31243 C 2973.95 -5.00967 3.86284 0
M  V30 31244 C 2972.61 -5.15717 4.23783 0
M  V30 31245 H 2971.88 -0.733557 0.104762 0
M  V30 31246 H 2974.53 -1.6658 0.944627 0
M  V30 31247 H 2972.83 -3.89718 -0.40341 0
M  V30 31248 H 2974.53 -4.0099 -0.028655 0
M  V30 31249 H 2971.12 -4.04935 1.40447 0
M  V30 31250 H 2975.31 -4.38402 2.32631 0
M  V30 31251 H 2970.56 -4.91548 3.63581 0
M  V30 31252 H 2974.74 -5.2637 4.55969 0
M  V30 31253 H 2972.36 -5.52665 5.21982 0
M  V30 31254 N 2973.94 -0.485139 -1.49947 0
M  V30 31255 C 2974.88 0.301689 -2.2882 0
M  V30 31256 C 2975.85 0.974659 -1.34498 0
M  V30 31257 O 2977.04 0.984389 -1.63445 0
M  V30 31258 C 2974.18 1.36955 -3.16761 0
M  V30 31259 C 2973.29 0.709952 -4.26126 0
M  V30 31260 C 2972.43 1.7569 -5.01305 0
M  V30 31261 C 2971.47 1.07831 -6.02527 0
M  V30 31262 N 2970.6 2.06874 -6.7093 0
M  V30 31263 H 2975.44 -0.377179 -2.95603 0
M  V30 31264 H 2972.98 -0.197852 -1.45763 0
M  V30 31265 H 2974.94 2.00049 -3.6611 0
M  V30 31266 H 2973.57 2.01739 -2.51994 0
M  V30 31267 H 2972.62 -0.0338947 -3.80385 0
M  V30 31268 H 2973.93 0.174991 -4.98493 0
M  V30 31269 H 2973.09 2.4633 -5.54443 0
M  V30 31270 H 2971.83 2.32569 -4.28676 0
M  V30 31271 H 2970.83 0.35761 -5.48636 0
M  V30 31272 H 2972.06 0.516226 -6.77135 0
M  V30 31273 H 2970 2.62744 -6.01084 0
M  V30 31274 H 2969.92 1.58401 -7.39219 0
M  V30 31275 H 2971.19 2.7685 -7.2868 0
M  V30 31276 N 2975.42 1.56081 -0.218307 0
M  V30 31277 C 2976.69 1.90039 0.463109 0
M  V30 31278 C 2977.07 1.13518 1.7798 0
M  V30 31279 O 2976.42 0.24349 2.27199 0
M  V30 31280 C 2976.63 3.42717 0.659232 0
M  V30 31281 C 2977.98 4.13416 0.96813 0
M  V30 31282 O 2979 3.48298 0.746133 0
M  V30 31283 O 2977.86 5.28547 1.38927 0
M  V30 31284 H 2974.96 0.790055 0.244422 0
M  V30 31285 H 2977.5 1.67693 -0.26025 0
M  V30 31286 H 2976.27 3.9037 -0.269653 0
M  V30 31287 H 2975.9 3.70832 1.4342 0
M  V30 31288 N 2976.89 -0.0551124 1.57504 0
M  V30 31289 C 2978.14 -0.749587 1.87685 0
M  V30 31290 C 2978.46 -1.77263 0.812578 0
M  V30 31291 O 2977.73 -1.95271 -0.156906 0
M  V30 31292 H 2976.31 -0.279834 0.692605 0
M  V30 31293 H 2978.97 -0.0272402 1.94881 0
M  V30 31294 H 2978.07 -1.25543 2.85736 0
M  V30 31295 N 2978.37 -1.54173 -0.326869 0
M  V30 31296 C 2979.6 -1.76179 -1.08483 0
M  V30 31297 C 2980.01 -0.508819 -1.81814 0
M  V30 31298 O 2979.37 0.520331 -1.74925 0
M  V30 31299 C 2979.42 -2.9528 -2.08547 0
M  V30 31300 O 2979.14 -4.15733 -1.38194 0
M  V30 31301 C 2980.64 -3.29471 -2.96587 0
M  V30 31302 H 2977.86 -0.588239 -0.322825 0
M  V30 31303 H 2980.41 -2.01051 -0.374001 0
M  V30 31304 H 2978.56 -2.72692 -2.75169 0
M  V30 31305 H 2978.98 -4.82703 -2.05177 0
M  V30 31306 H 2980.45 -4.16116 -3.62701 0
M  V30 31307 H 2980.93 -2.46494 -3.63507 0
M  V30 31308 H 2981.53 -3.54126 -2.35531 0
M  V30 31309 N 2979.85 0.58876 -1.4619 0
M  V30 31310 C 2981.13 1.34876 -1.41661 0
M  V30 31311 C 2981.51 2.10877 -0.0969284 0
M  V30 31312 O 2980.85 2.09098 0.921431 0
M  V30 31313 C 2981.06 2.27983 -2.64244 0
M  V30 31314 C 2982.41 2.90003 -3.10135 0
M  V30 31315 O 2983.44 2.38298 -2.6475 0
M  V30 31316 O 2982.3 3.83901 -3.8895 0
M  V30 31317 H 2979.39 0.605708 -0.563069 0
M  V30 31318 H 2981.94 0.610281 -1.58347 0
M  V30 31319 H 2980.71 1.71211 -3.51856 0
M  V30 31320 H 2980.33 3.0918 -2.49987 0
M  V30 31321 N 2981.33 1.33794 0.832883 0
M  V30 31322 C 2982.24 1.26595 1.97511 0
M  V30 31323 C 2983.25 0.175421 1.73113 0
M  V30 31324 O 2984.43 0.400097 1.97386 0
M  V30 31325 C 2981.49 1.01127 3.31624 0
M  V30 31326 C 2980.56 2.1924 3.69097 0
M  V30 31327 C 2979.79 1.94977 4.96809 0
M  V30 31328 O 2980.01 0.903054 5.63206 0
M  V30 31329 O 2978.95 2.81669 5.31927 0
M  V30 31330 H 2982.77 2.22667 2.06526 0
M  V30 31331 H 2980.36 1.139 0.966806 0
M  V30 31332 H 2982.24 0.886643 4.11967 0
M  V30 31333 H 2980.91 0.0808789 3.23599 0
M  V30 31334 H 2979.82 2.37259 2.89239 0
M  V30 31335 H 2981.15 3.10634 3.81795 0
M  V30 31336 N 2982.81 -1.05187 1.1736 0
M  V30 31337 C 2983.72 -2.16441 0.905022 0
M  V30 31338 C 2984.73 -1.73537 -0.12683 0
M  V30 31339 O 2985.91 -2.01332 0.052448 0
M  V30 31340 C 2982.97 -3.44121 0.422079 0
M  V30 31341 C 2982.03 -4.0147 1.52053 0
M  V30 31342 C 2981.27 -5.23057 1.06053 0
M  V30 31343 O 2981.49 -5.70336 -0.085302 0
M  V30 31344 O 2980.42 -5.72648 1.85359 0
M  V30 31345 H 2984.25 -2.41946 1.83564 0
M  V30 31346 H 2981.83 -1.14934 0.95449 0
M  V30 31347 H 2983.72 -4.21095 0.160282 0
M  V30 31348 H 2982.39 -3.20116 -0.480387 0
M  V30 31349 H 2981.3 -3.25936 1.8362 0
M  V30 31350 H 2982.63 -4.29794 2.3987 0
M  V30 31351 N 2984.28 -0.97385 -1.23911 0
M  V30 31352 C 2985.56 -0.555762 -1.87538 0
M  V30 31353 C 2985.94 0.967129 -1.87643 0
M  V30 31354 O 2985.29 1.84108 -1.35338 0
M  V30 31355 C 2985.5 -1.15433 -3.29357 0
M  V30 31356 C 2986.85 -1.24301 -4.05998 0
M  V30 31357 O 2987.87 -1.10729 -3.38552 0
M  V30 31358 O 2986.73 -1.45822 -5.26686 0
M  V30 31359 H 2983.82 -0.186202 -0.805765 0
M  V30 31360 H 2986.37 -1.06851 -1.31837 0
M  V30 31361 H 2985.14 -2.19684 -3.23813 0
M  V30 31362 H 2984.76 -0.625994 -3.92641 0
M  V30 31363 N 2985.76 1.38895 -0.744705 0
M  V30 31364 C 2987 2.02161 -0.301727 0
M  V30 31365 C 2987.37 1.57828 1.09335 0
M  V30 31366 O 2988.57 2.13361 1.63495 0
M  V30 31367 C 2986.84 3.55033 -0.410663 0
M  V30 31368 S 2988.4 4.38773 -0.0489573 0
M  V30 31369 H 2985.21 0.701208 -0.117595 0
M  V30 31370 H 2987.82 1.69546 -0.973364 0
M  V30 31371 H 2986.52 3.84788 -1.42712 0
M  V30 31372 H 2986.05 3.92413 0.278462 0
M  V30 31373 H 2988.07 4.82348 1.16426 0
M  V30 31374 N 2987.24 0.493084 1.49688 0
M  V30 31375 C 2988.65 0.043336 1.8665 0
M  V30 31376 C 2989 -1.36833 1.4061 0
M  V30 31377 O 2988.13 -2.01833 0.780538 0
M  V30 31378 C 2988.72 0.0718665 3.38724 0
M  V30 31379 C 2987.28 -0.322504 3.75016 0
M  V30 31380 C 2986.43 0.447848 2.7366 0
M  V30 31381 H 2989.38 0.706271 1.42118 0
M  V30 31382 H 2989.4 -0.725282 3.73524 0
M  V30 31383 H 2988.91 1.09941 3.72202 0
M  V30 31384 H 2987.01 -1.35358 3.47144 0
M  V30 31385 H 2987.13 -0.00855838 4.79099 0
M  V30 31386 H 2985.49 -0.101309 2.54498 0
M  V30 31387 H 2986.27 1.47532 3.09982 0
M  V30 31388 N 2988.72 -1.55963 0.226582 0
M  V30 31389 C 2989.65 -2.23499 -0.67604 0
M  V30 31390 C 2990.63 -1.20839 -1.19716 0
M  V30 31391 O 2991.81 -1.49438 -1.24024 0
M  V30 31392 C 2988.94 -2.91879 -1.88212 0
M  V30 31393 C 2987.9 -4.01055 -1.49463 0
M  V30 31394 C 2987.22 -4.56756 -2.77989 0
M  V30 31395 C 2988.52 -5.17843 -0.68086 0
M  V30 31396 H 2990.22 -2.99187 -0.112937 0
M  V30 31397 H 2987.76 -1.43903 -0.0528793 0
M  V30 31398 H 2989.72 -3.37819 -2.51905 0
M  V30 31399 H 2988.44 -2.13647 -2.47027 0
M  V30 31400 H 2987.1 -3.55853 -0.881136 0
M  V30 31401 H 2986.75 -3.75248 -3.34959 0
M  V30 31402 H 2986.45 -5.30442 -2.52794 0
M  V30 31403 H 2987.97 -5.05417 -3.42616 0
M  V30 31404 H 2989.39 -5.60134 -1.22161 0
M  V30 31405 H 2987.78 -5.97792 -0.525793 0
M  V30 31406 H 2988.85 -4.83899 0.311431 0
M  V30 31407 N 2990.2 0.0467589 -1.57531 0
M  V30 31408 C 2991.61 0.595572 -1.76946 0
M  V30 31409 C 2991.96 1.76572 -0.855385 0
M  V30 31410 O 2991.08 2.16352 -0.045706 0
M  V30 31411 C 2991.68 1.08719 -3.20883 0
M  V30 31412 C 2990.24 1.58166 -3.41556 0
M  V30 31413 C 2989.38 0.51192 -2.72534 0
M  V30 31414 H 2992.34 -0.179464 -1.57682 0
M  V30 31415 H 2992.36 1.95522 -3.26422 0
M  V30 31416 H 2991.87 0.23533 -3.87386 0
M  V30 31417 H 2989.97 2.45595 -2.80203 0
M  V30 31418 H 2990.08 1.64135 -4.50107 0
M  V30 31419 H 2988.45 0.962857 -2.35799 0
M  V30 31420 H 2989.23 -0.330177 -3.41709 0
M  V30 31421 N 2991.67 1.54344 0.318688 0
M  V30 31422 C 2992.58 1.87099 1.41531 0
M  V30 31423 C 2993.6 0.763381 1.5636 0
M  V30 31424 O 2994.78 1.05814 1.71363 0
M  V30 31425 C 2991.84 2.09591 2.76174 0
M  V30 31426 C 2990.9 3.33375 2.7048 0
M  V30 31427 C 2990.14 3.54785 3.98702 0
M  V30 31428 O 2990.36 2.7954 4.97206 0
M  V30 31429 O 2989.29 4.48273 4.01666 0
M  V30 31430 H 2993.12 2.80359 1.16759 0
M  V30 31431 H 2990.7 1.40311 0.513156 0
M  V30 31432 H 2992.59 2.25688 3.55869 0
M  V30 31433 H 2991.26 1.19519 3.00827 0
M  V30 31434 H 2990.17 3.22659 1.89319 0
M  V30 31435 H 2991.5 4.2352 2.50782 0
M  V30 31436 N 2993.15 -0.580999 1.465 0
M  V30 31437 C 2994.06 -1.71776 1.59781 0
M  V30 31438 C 2995.08 -1.67212 0.481252 0
M  V30 31439 O 2996.25 -1.8709 0.745603 0
M  V30 31440 C 2993.32 -3.0828 1.58632 0
M  V30 31441 C 2992.38 -3.24095 2.81533 0
M  V30 31442 C 2991.61 -4.54087 2.80429 0
M  V30 31443 O 2991.84 -5.38082 1.89272 0
M  V30 31444 O 2990.77 -4.73186 3.71993 0
M  V30 31445 H 2994.6 -1.63518 2.55921 0
M  V30 31446 H 2992.18 -0.748245 1.29312 0
M  V30 31447 H 2994.06 -3.89558 1.60693 0
M  V30 31448 H 2992.74 -3.16972 0.656523 0
M  V30 31449 H 2991.65 -2.42304 2.85025 0
M  V30 31450 H 2992.98 -3.20295 3.73727 0
M  V30 31451 N 2994.63 -1.34234 -0.825776 0
M  V30 31452 C 2995.88 -1.25773 -1.57684 0
M  V30 31453 C 2996.19 0.171338 -1.94848 0
M  V30 31454 O 2997.4 0.378076 -2.68855 0
M  V30 31455 C 2995.85 -2.20459 -2.84474 0
M  V30 31456 C 2995.46 -3.68607 -2.54623 0
M  V30 31457 C 2997.21 -2.209 -3.62496 0
M  V30 31458 C 2995.11 -4.55171 -3.77589 0
M  V30 31459 H 2994.04 -0.467213 -0.591801 0
M  V30 31460 H 2996.69 -1.59381 -0.909393 0
M  V30 31461 H 2995.08 -1.79799 -3.52829 0
M  V30 31462 H 2996.25 -4.17788 -1.94397 0
M  V30 31463 H 2994.57 -3.70586 -1.89882 0
M  V30 31464 H 2997.16 -2.82797 -4.53795 0
M  V30 31465 H 2997.51 -1.20753 -3.98402 0
M  V30 31466 H 2998.04 -2.5999 -3.01081 0
M  V30 31467 H 2994.78 -5.56243 -3.46806 0
M  V30 31468 H 2994.3 -4.10727 -4.37108 0
M  V30 31469 H 2995.98 -4.69635 -4.4503 0
M  V30 31470 N 2996.11 1.04563 -1.17917 0
M  V30 31471 C 2997.52 1.29863 -0.927784 0
M  V30 31472 C 2997.72 1.97295 0.409501 0
M  V30 31473 O 2996.78 2.25046 1.14501 0
M  V30 31474 C 2998.09 2.16221 -2.08971 0
M  V30 31475 C 2999.64 2.29584 -2.12745 0
M  V30 31476 C 3000.12 3.19306 -3.28341 0
M  V30 31477 N 3001.61 3.26893 -3.2817 0
M  V30 31478 C 3002.34 3.96458 -4.14256 0
M  V30 31479 N 3001.84 4.68398 -5.10466 0
M  V30 31480 N 3003.63 3.92687 -4.02186 0
M  V30 31481 H 2995.78 0.591975 -2.03984 0
M  V30 31482 H 2998.05 0.323685 -0.891029 0
M  V30 31483 H 2997.75 1.73973 -3.05657 0
M  V30 31484 H 2997.63 3.16882 -2.04611 0
M  V30 31485 H 3000.01 2.7107 -1.1664 0
M  V30 31486 H 3000.09 1.28531 -2.21164 0
M  V30 31487 H 2999.74 2.78532 -4.24715 0
M  V30 31488 H 2999.67 4.20379 -3.17158 0
M  V30 31489 H 3002.16 2.75641 -2.58516 0
M  V30 31490 H 3002.47 5.1906 -5.72536 0
M  V30 31491 H 3000.82 4.67319 -5.1443 0
M  V30 31492 H 3004.01 3.35614 -3.26314 0
M  V30 31493 H 3004.18 4.46632 -4.69494 0
M  V30 31494 N 2997.59 0.980408 1.23393 0
M  V30 31495 C 2998.52 0.478696 2.24145 0
M  V30 31496 C 2999.53 -0.419464 1.57303 0
M  V30 31497 O 3000.72 -0.223599 1.77094 0
M  V30 31498 C 2997.82 -0.326854 3.3732 0
M  V30 31499 C 2996.99 0.564436 4.33743 0
M  V30 31500 C 2996.05 -0.187265 5.25867 0
M  V30 31501 O 2995.08 0.423118 5.67625 0
M  V30 31502 N 2996.28 -1.47325 5.61494 0
M  V30 31503 H 2999.05 1.34501 2.67824 0
M  V30 31504 H 2996.61 0.853677 1.37564 0
M  V30 31505 H 2998.6 -0.838078 3.95927 0
M  V30 31506 H 2997.17 -1.09417 2.92825 0
M  V30 31507 H 2996.39 1.25649 3.73639 0
M  V30 31508 H 2997.68 1.17186 4.95121 0
M  V30 31509 H 2997.07 -1.99067 5.29517 0
M  V30 31510 H 2995.63 -1.92991 6.22573 0
M  V30 31511 N 2999.06 -1.38498 0.75206 0
M  V30 31512 C 3000.34 -1.94206 0.23311 0
M  V30 31513 C 3000.72 -1.68748 -1.26835 0
M  V30 31514 O 3000.07 -1.02517 -2.04212 0
M  V30 31515 C 3000.28 -3.4406 0.585151 0
M  V30 31516 C 3001.63 -4.21101 0.543945 0
M  V30 31517 O 3002.65 -3.52334 0.523353 0
M  V30 31518 O 3001.51 -5.4369 0.553531 0
M  V30 31519 H 2998.6 -0.825587 0.0483194 0
M  V30 31520 H 3001.15 -1.479 0.832079 0
M  V30 31521 H 2999.92 -3.56091 1.62218 0
M  V30 31522 H 2999.55 -3.97578 -0.0419039 0
M  V30 31523 N 3000.54 -0.501015 -1.49424 0
M  V30 31524 C 3001.47 0.266734 -2.31972 0
M  V30 31525 C 3002.45 0.962538 -1.40247 0
M  V30 31526 O 3003.64 0.953938 -1.69156 0
M  V30 31527 C 3000.77 1.33157 -3.20759 0
M  V30 31528 C 2999.72 0.755646 -4.21277 0
M  V30 31529 C 2999.05 1.921 -4.99001 0
M  V30 31530 C 3000.35 -0.253304 -5.21685 0
M  V30 31531 H 3002.04 -0.422289 -2.96407 0
M  V30 31532 H 2999.59 -0.20453 -1.4254 0
M  V30 31533 H 3001.54 1.8764 -3.77319 0
M  V30 31534 H 3000.27 2.04978 -2.54266 0
M  V30 31535 H 2998.92 0.232573 -3.65862 0
M  V30 31536 H 2998.57 2.6269 -4.28956 0
M  V30 31537 H 2998.27 1.54172 -5.67014 0
M  V30 31538 H 2999.8 2.47016 -5.58404 0
M  V30 31539 H 3001.21 0.203382 -5.72939 0
M  V30 31540 H 2999.61 -0.548427 -5.97589 0
M  V30 31541 H 3000.68 -1.16918 -4.70594 0
M  V30 31542 N 3002.02 1.5584 -0.234849 0
M  V30 31543 C 3002.95 2.23855 0.664177 0
M  V30 31544 C 3003.93 1.21472 1.19074 0
M  V30 31545 O 3005.12 1.50094 1.2323 0
M  V30 31546 C 3002.25 2.92874 1.86661 0
M  V30 31547 C 3001.2 4.01842 1.47334 0
M  V30 31548 C 3000.53 4.58224 2.75563 0
M  V30 31549 C 3001.83 5.18197 0.653388 0
M  V30 31550 H 3003.52 2.99243 0.0970687 0
M  V30 31551 H 3001.07 1.43929 0.0452471 0
M  V30 31552 H 3003.02 3.39151 2.5011 0
M  V30 31553 H 3001.74 2.14954 2.45891 0
M  V30 31554 H 3000.4 3.56316 0.862252 0
M  V30 31555 H 3000.05 3.7702 3.32964 0
M  V30 31556 H 2999.75 5.31775 2.49977 0
M  V30 31557 H 3001.28 5.07227 3.39931 0
M  V30 31558 H 3002.69 5.60774 1.19189 0
M  V30 31559 H 3001.09 5.98063 0.494083 0
M  V30 31560 H 3002.16 4.83727 -0.337089 0
M  V30 31561 N 3003.5 -0.038404 1.57553 0
M  V30 31562 C 3004.78 -0.765971 1.79978 0
M  V30 31563 C 3005.16 -1.9407 0.83066 0
M  V30 31564 O 3004.5 -2.28134 -0.129203 0
M  V30 31565 C 3004.71 -1.20776 3.27436 0
M  V30 31566 C 3006.06 -1.62751 3.9217 0
M  V30 31567 O 3007.09 -1.30258 3.31529 0
M  V30 31568 O 3005.95 -2.23026 4.98921 0
M  V30 31569 H 3003.04 -0.369641 0.739794 0
M  V30 31570 H 3005.59 -0.0159014 1.69693 0
M  V30 31571 H 3004.36 -0.368724 3.89559 0
M  V30 31572 H 3003.98 -2.01813 3.42575 0
M  V30 31573 N 3004.98 -1.54511 -0.310498 0
M  V30 31574 C 3006.22 -1.7334 -1.04688 0
M  V30 31575 C 3006.55 -0.514071 -1.87583 0
M  V30 31576 O 3005.81 0.504086 -1.89096 0
M  V30 31577 C 3006.11 -2.96916 -1.98937 0
M  V30 31578 C 3005.77 -4.31118 -1.32093 0
M  V30 31579 C 3004.43 -4.676 -1.13594 0
M  V30 31580 C 3006.79 -5.14349 -0.842271 0
M  V30 31581 C 3004.11 -5.84902 -0.458999 0
M  V30 31582 C 3006.47 -6.32346 -0.179091 0
M  V30 31583 C 3005.13 -6.67498 0.0179284 0
M  V30 31584 H 3004.4 -0.634296 -0.383079 0
M  V30 31585 H 3007.05 -1.88762 -0.32269 0
M  V30 31586 H 3005.35 -2.76235 -2.77851 0
M  V30 31587 H 3007.05 -3.08678 -2.55966 0
M  V30 31588 H 3003.64 -4.02422 -1.47495 0
M  V30 31589 H 3007.82 -4.8667 -0.972928 0
M  V30 31590 H 3003.08 -6.10687 -0.295277 0
M  V30 31591 H 3007.25 -6.96113 0.199741 0
M  V30 31592 H 3004.88 -7.58248 0.54449 0
M  V30 31593 N 3006.46 0.573222 -1.46806 0
M  V30 31594 C 3007.41 1.67671 -1.545 0
M  V30 31595 C 3008.39 1.55716 -0.405144 0
M  V30 31596 O 3009.58 1.64469 -0.654126 0
M  V30 31597 C 3006.71 3.06457 -1.54722 0
M  V30 31598 C 3005.8 3.23675 -2.74035 0
M  V30 31599 N 3006.19 3.11016 -3.98877 0
M  V30 31600 C 3004.49 3.54638 -2.70459 0
M  V30 31601 C 3005.19 3.30494 -4.78695 0
M  V30 31602 N 3004.16 3.56089 -4.10733 0
M  V30 31603 H 3007.96 1.56429 -2.48812 0
M  V30 31604 H 3005.48 0.777529 -1.42577 0
M  V30 31605 H 3007.48 3.85668 -1.58323 0
M  V30 31606 H 3006.14 3.18824 -0.614942 0
M  V30 31607 H 3007.15 2.8868 -4.29981 0
M  V30 31608 H 3003.82 3.7363 -1.86297 0
M  V30 31609 H 3005.21 3.2581 -5.8762 0
M  V30 31610 N 3007.93 1.3467 0.818645 0
M  V30 31611 C 3008.87 1.22445 1.93752 0
M  V30 31612 C 3009.88 0.150529 1.62103 0
M  V30 31613 O 3011.07 0.402759 1.73897 0
M  V30 31614 C 3008.17 0.860089 3.27804 0
M  V30 31615 C 3007.34 2.02988 3.87446 0
M  V30 31616 C 3006.4 1.64323 4.99884 0
M  V30 31617 O 3005.43 2.36038 5.17953 0
M  V30 31618 N 3006.63 0.559862 5.77794 0
M  V30 31619 H 3009.39 2.18837 2.04769 0
M  V30 31620 H 3006.95 1.27681 0.995449 0
M  V30 31621 H 3008.95 0.583139 4.00477 0
M  V30 31622 H 3007.52 -0.0137704 3.12597 0
M  V30 31623 H 3006.74 2.47132 3.07114 0
M  V30 31624 H 3008.02 2.81211 4.24025 0
M  V30 31625 H 3007.42 -0.0362335 5.65688 0
M  V30 31626 H 3005.98 0.342655 6.50899 0
M  V30 31627 N 3009.41 -1.03936 1.1847 0
M  V30 31628 C 3010.69 -1.74155 0.890466 0
M  V30 31629 C 3011.07 -2.02204 -0.606373 0
M  V30 31630 O 3010.42 -1.66825 -1.56147 0
M  V30 31631 C 3010.63 -3.02582 1.73911 0
M  V30 31632 C 3011.97 -3.76294 1.96693 0
M  V30 31633 O 3013 -3.12484 1.70975 0
M  V30 31634 O 3011.86 -4.90983 2.39995 0
M  V30 31635 H 3008.95 -0.757914 0.330902 0
M  V30 31636 H 3011.5 -1.0999 1.2923 0
M  V30 31637 H 3010.27 -2.78001 2.75374 0
M  V30 31638 H 3009.89 -3.74486 1.33588 0
M  V30 31639 N 3010.89 -0.986938 -1.22871 0
M  V30 31640 C 3011.82 -0.552104 -2.26879 0
M  V30 31641 C 3012.8 0.418019 -1.64884 0
M  V30 31642 O 3013.99 0.309957 -1.9171 0
M  V30 31643 C 3011.12 0.139898 -3.47018 0
M  V30 31644 C 3010.07 -0.748165 -4.2141 0
M  V30 31645 C 3009.4 0.0764192 -5.34645 0
M  V30 31646 C 3010.7 -2.04214 -4.80722 0
M  V30 31647 H 3012.39 -1.42147 -2.63504 0
M  V30 31648 H 3009.94 -0.684942 -1.26667 0
M  V30 31649 H 3011.89 0.455453 -4.18931 0
M  V30 31650 H 3010.61 1.04377 -3.09472 0
M  V30 31651 H 3009.27 -1.04727 -3.51323 0
M  V30 31652 H 3008.92 0.981023 -4.93341 0
M  V30 31653 H 3008.62 -0.514709 -5.85341 0
M  V30 31654 H 3010.14 0.386206 -6.09377 0
M  V30 31655 H 3011.56 -1.79093 -5.44609 0
M  V30 31656 H 3009.95 -2.58159 -5.41732 0
M  V30 31657 H 3011.02 -2.72476 -4.01105 0
M  V30 31658 N 3012.37 1.38098 -0.759394 0
M  V30 31659 C 3013.3 2.3301 -0.151118 0
M  V30 31660 C 3014.28 1.55161 0.697072 0
M  V30 31661 O 3015.46 1.83453 0.637069 0
M  V30 31662 C 3012.59 3.3936 0.738364 0
M  V30 31663 C 3011.55 4.27999 -0.00754933 0
M  V30 31664 C 3010.87 5.25255 1.00057 0
M  V30 31665 C 3012.17 5.08811 -1.17935 0
M  V30 31666 H 3013.87 2.84129 -0.943983 0
M  V30 31667 H 3011.41 1.3661 -0.455386 0
M  V30 31668 H 3013.37 4.04727 1.17362 0
M  V30 31669 H 3012.09 2.86738 1.56361 0
M  V30 31670 H 3010.75 3.64146 -0.423443 0
M  V30 31671 H 3010.4 4.68918 1.82003 0
M  V30 31672 H 3010.1 5.85416 0.506096 0
M  V30 31673 H 3011.62 5.93498 1.43501 0
M  V30 31674 H 3013.04 5.67386 -0.821362 0
M  V30 31675 H 3011.43 5.78236 -1.60507 0
M  V30 31676 H 3012.5 4.42209 -1.98946 0
M  V30 31677 N 3013.85 0.508932 1.49156 0
M  V30 31678 C 3014.81 -0.254299 2.27785 0
M  V30 31679 C 3015.81 -0.886837 1.34134 0
M  V30 31680 O 3017 -0.75014 1.57221 0
M  V30 31681 C 3014.13 -1.36567 3.1235 0
M  V30 31682 H 3015.32 0.435767 2.96717 0
M  V30 31683 H 3012.88 0.264155 1.54052 0
M  V30 31684 H 3013.61 -2.08964 2.48001 0
M  V30 31685 H 3013.4 -0.917476 3.81215 0
M  V30 31686 H 3014.89 -1.90308 3.71716 0
M  V30 31687 N 3015.32 -1.55714 0.243111 0
M  V30 31688 C 3016.27 -2.17876 -0.671877 0
M  V30 31689 C 3017.26 -1.13349 -1.14197 0
M  V30 31690 O 3018.45 -1.39271 -1.09237 0
M  V30 31691 C 3015.58 -2.87885 -1.87022 0
M  V30 31692 C 3014.66 -3.99663 -1.41881 0
M  V30 31693 N 3015.06 -5.01189 -0.681377 0
M  V30 31694 C 3013.35 -4.12148 -1.7044 0
M  V30 31695 C 3014.05 -5.79971 -0.448183 0
M  V30 31696 N 3013.03 -5.34111 -1.01128 0
M  V30 31697 H 3016.83 -2.93729 -0.100269 0
M  V30 31698 H 3014.35 -1.62337 0.0452656 0
M  V30 31699 H 3016.34 -3.30844 -2.53669 0
M  V30 31700 H 3015 -2.13534 -2.44609 0
M  V30 31701 H 3016.01 -5.16836 -0.331868 0
M  V30 31702 H 3012.69 -3.48966 -2.29192 0
M  V30 31703 H 3014.08 -6.71754 0.140259 0
M  V30 31704 N 3016.8 0.030048 -1.57571 0
M  V30 31705 C 3018.04 0.725913 -1.91076 0
M  V30 31706 C 3018.41 1.72573 -0.841575 0
M  V30 31707 O 3019.61 2.46977 -1.06092 0
M  V30 31708 C 3017.88 1.37882 -3.29732 0
M  V30 31709 S 3019.44 2.10398 -3.85069 0
M  V30 31710 H 3016.26 0.240503 -0.669088 0
M  V30 31711 H 3018.86 -0.0194184 -1.9549 0
M  V30 31712 H 3017.56 0.637903 -4.05412 0
M  V30 31713 H 3017.09 2.16272 -3.28618 0
M  V30 31714 H 3019.11 3.37527 -3.63717 0
M  V30 31715 N 3018.28 1.54674 0.3023 0
M  V30 31716 C 3019.53 1.73549 1.03562 0
M  V30 31717 C 3019.85 0.523481 1.87842 0
M  V30 31718 O 3019.12 -0.462261 1.90368 0
M  V30 31719 H 3017.7 0.639935 0.385347 0
M  V30 31720 H 3020.36 1.92024 0.333598 0
M  V30 31721 H 3019.46 2.62418 1.68947 0
M  V30 31722 N 3019.76 -0.565428 1.47108 0
M  V30 31723 C 3021.01 -1.31926 1.52572 0
M  V30 31724 C 3021.32 -1.94684 0.189127 0
M  V30 31725 O 3022.53 -2.71227 0.121705 0
M  V30 31726 C 3020.98 -2.39189 2.68918 0
M  V30 31727 C 3020.59 -1.82658 4.09072 0
M  V30 31728 C 3022.33 -3.15805 2.83668 0
M  V30 31729 C 3020.24 -2.87652 5.16731 0
M  V30 31730 H 3019.17 -0.496015 0.567877 0
M  V30 31731 H 3021.82 -0.601479 1.73362 0
M  V30 31732 H 3020.2 -3.13844 2.41491 0
M  V30 31733 H 3021.38 -1.1443 4.46366 0
M  V30 31734 H 3019.69 -1.18653 3.99137 0
M  V30 31735 H 3022.29 -3.94194 3.61268 0
M  V30 31736 H 3022.63 -3.69478 1.91811 0
M  V30 31737 H 3023.17 -2.48259 3.10825 0
M  V30 31738 H 3019.91 -2.38843 6.10438 0
M  V30 31739 H 3019.43 -3.54316 4.83963 0
M  V30 31740 H 3021.1 -3.51293 5.43325 0
M  V30 31741 N 3021.24 -1.35102 -0.811492 0
M  V30 31742 C 3022.17 -1.23471 -1.931 0
M  V30 31743 C 3023.18 -0.159124 -1.6202 0
M  V30 31744 O 3024.37 -0.411975 -1.73681 0
M  V30 31745 C 3021.47 -0.877461 -3.27344 0
M  V30 31746 C 3020.64 -2.0504 -3.86364 0
M  V30 31747 C 3019.7 -1.66972 -4.99006 0
M  V30 31748 O 3018.73 -2.38781 -5.16693 0
M  V30 31749 N 3019.93 -0.590496 -5.77489 0
M  V30 31750 H 3022.7 -2.1992 -2.03606 0
M  V30 31751 H 3020.26 -1.28207 -0.988664 0
M  V30 31752 H 3022.25 -0.604369 -4.00162 0
M  V30 31753 H 3020.82 -0.00280762 -3.126 0
M  V30 31754 H 3020.04 -2.48758 -3.058 0
M  V30 31755 H 3021.33 -2.83456 -4.22528 0
M  V30 31756 H 3020.72 0.00623316 -5.657 0
M  V30 31757 H 3019.28 -0.377169 -6.50708 0
M  V30 31758 N 3022.71 1.03306 -1.19019 0
M  V30 31759 C 3023.64 2.13401 -0.947757 0
M  V30 31760 C 3024.63 1.69695 0.117353 0
M  V30 31761 O 3025.81 1.94165 -0.0368074 0
M  V30 31762 C 3022.94 3.43952 -0.481037 0
M  V30 31763 C 3021.89 4.01319 -1.4875 0
M  V30 31764 C 3021.22 5.27442 -0.878017 0
M  V30 31765 C 3022.52 4.36611 -2.8665 0
M  V30 31766 H 3024.21 2.33939 -1.8685 0
M  V30 31767 H 3021.76 1.12426 -0.899801 0
M  V30 31768 H 3023.71 4.2034 -0.298751 0
M  V30 31769 H 3022.44 3.23123 0.475291 0
M  V30 31770 H 3021.1 3.27022 -1.65686 0
M  V30 31771 H 3020.74 5.02927 0.0857348 0
M  V30 31772 H 3020.44 5.66786 -1.55006 0
M  V30 31773 H 3021.97 6.065 -0.706433 0
M  V30 31774 H 3023.38 5.03953 -2.73321 0
M  V30 31775 H 3021.78 4.87026 -3.50608 0
M  V30 31776 H 3022.85 3.46099 -3.39623 0
M  V30 31777 N 3024.19 0.99344 1.22346 0
M  V30 31778 C 3025.47 0.585528 1.8663 0
M  V30 31779 C 3025.85 -0.937154 1.89158 0
M  V30 31780 O 3025.2 -1.81932 1.3825 0
M  V30 31781 C 3025.41 1.20658 3.27479 0
M  V30 31782 C 3026.76 1.30745 4.03969 0
M  V30 31783 O 3027.78 1.16101 3.36748 0
M  V30 31784 O 3026.64 1.54183 5.243 0
M  V30 31785 H 3023.73 0.198998 0.802701 0
M  V30 31786 H 3026.28 1.08935 1.3012 0
M  V30 31787 H 3025.05 2.24808 3.20277 0
M  V30 31788 H 3024.67 0.688381 3.91596 0
M  V30 31789 N 3025.67 -1.37693 0.766707 0
M  V30 31790 C 3026.92 -1.99419 0.3281 0
M  V30 31791 C 3027.24 -1.61168 -1.09772 0
M  V30 31792 O 3026.51 -0.874717 -1.75287 0
M  V30 31793 H 3025.09 -0.737569 0.118323 0
M  V30 31794 H 3027.75 -1.68253 0.983715 0
M  V30 31795 H 3026.85 -3.09504 0.401701 0
M  V30 31796 N 3027.15 -0.516835 -1.48884 0
M  V30 31797 C 3028.06 0.257252 -2.33185 0
M  V30 31798 C 3029.07 0.951926 -1.45652 0
M  V30 31799 O 3030.25 0.929803 -1.78652 0
M  V30 31800 C 3027.32 1.29845 -3.21467 0
M  V30 31801 C 3026.38 0.615533 -4.24864 0
M  V30 31802 C 3025.61 1.60713 -5.08927 0
M  V30 31803 O 3025.83 2.83854 -4.94755 0
M  V30 31804 O 3024.77 1.15374 -5.90739 0
M  V30 31805 H 3028.59 -0.433183 -3.00595 0
M  V30 31806 H 3026.18 -0.277934 -1.46792 0
M  V30 31807 H 3028.06 1.90048 -3.76111 0
M  V30 31808 H 3026.73 1.97153 -2.56734 0
M  V30 31809 H 3025.64 -0.0266486 -3.74091 0
M  V30 31810 H 3026.97 -0.0153736 -4.92198 0
M  V30 31811 N 3028.63 1.55583 -0.251365 0
M  V30 31812 C 3029.54 2.25214 0.656939 0
M  V30 31813 C 3030.55 1.26979 1.18964 0
M  V30 31814 O 3031.73 1.59864 1.22496 0
M  V30 31815 C 3028.79 2.94144 1.83522 0
M  V30 31816 C 3027.85 4.078 1.34155 0
M  V30 31817 C 3027.09 4.73433 2.46366 0
M  V30 31818 O 3027.31 4.38163 3.65197 0
M  V30 31819 O 3026.24 5.61857 2.15871 0
M  V30 31820 H 3030.07 3.03556 0.0935862 0
M  V30 31821 H 3027.66 1.49387 -0.01969 0
M  V30 31822 H 3029.54 3.37545 2.52273 0
M  V30 31823 H 3028.21 2.18739 2.3861 0
M  V30 31824 H 3027.12 3.68907 0.621184 0
M  V30 31825 H 3028.45 4.85036 0.836694 0
M  V30 31826 N 3030.1 -0.0216912 1.57585 0
M  V30 31827 C 3031.01 -1.0368 2.10446 0
M  V30 31828 C 3032.03 -1.39145 1.04474 0
M  V30 31829 O 3033.21 -1.48315 1.36252 0
M  V30 31830 C 3030.27 -2.31659 2.57944 0
M  V30 31831 C 3029.33 -2.02708 3.78429 0
M  V30 31832 C 3028.57 -3.24585 4.23651 0
M  V30 31833 O 3028.79 -4.35518 3.68348 0
M  V30 31834 O 3027.72 -3.09853 5.16018 0
M  V30 31835 H 3031.55 -0.617531 2.97355 0
M  V30 31836 H 3029.13 -0.239148 1.47474 0
M  V30 31837 H 3031.02 -3.06884 2.88791 0
M  V30 31838 H 3029.69 -2.72867 1.74142 0
M  V30 31839 H 3028.6 -1.25027 3.52589 0
M  V30 31840 H 3029.93 -1.66351 4.63237 0
M  V30 31841 N 3031.58 -1.54832 -0.294093 0
M  V30 31842 C 3032.49 -1.89327 -1.38537 0
M  V30 31843 C 3033.51 -0.78816 -1.55126 0
M  V30 31844 O 3034.69 -1.08527 -1.69658 0
M  V30 31845 C 3031.75 -2.13959 -2.72805 0
M  V30 31846 C 3030.81 -3.37636 -2.65142 0
M  V30 31847 C 3030.04 -3.61083 -3.93007 0
M  V30 31848 O 3030.27 -2.87415 -4.92695 0
M  V30 31849 O 3029.2 -4.54606 -3.94483 0
M  V30 31850 H 3033.03 -2.82181 -1.12284 0
M  V30 31851 H 3030.61 -1.41109 -0.490769 0
M  V30 31852 H 3032.49 -2.31321 -3.52234 0
M  V30 31853 H 3031.17 -1.2429 -2.98887 0
M  V30 31854 H 3030.08 -3.2563 -1.84162 0
M  V30 31855 H 3031.41 -4.27456 -2.44012 0
M  V30 31856 N 3033.06 0.557619 -1.47405 0
M  V30 31857 C 3034.47 1.13974 -1.47874 0
M  V30 31858 C 3034.82 1.94809 -0.23321 0
M  V30 31859 O 3033.95 2.06028 0.661908 0
M  V30 31860 C 3034.54 2.07363 -2.67929 0
M  V30 31861 C 3033.1 2.60848 -2.71359 0
M  V30 31862 C 3032.25 1.37219 -2.40969 0
M  V30 31863 H 3035.2 0.344241 -1.54921 0
M  V30 31864 H 3035.22 2.91232 -2.44876 0
M  V30 31865 H 3034.73 1.48502 -3.58565 0
M  V30 31866 H 3032.83 3.23508 -1.84861 0
M  V30 31867 H 3032.95 3.01869 -3.72037 0
M  V30 31868 H 3031.31 1.67878 -1.91543 0
M  V30 31869 H 3032.09 0.801524 -3.33812 0
M  V30 31870 N 3034.54 1.35531 0.804316 0
M  V30 31871 C 3035.45 1.30756 1.94782 0
M  V30 31872 C 3036.47 0.212102 1.72702 0
M  V30 31873 O 3037.64 0.441875 1.96493 0
M  V30 31874 C 3034.71 1.08139 3.29404 0
M  V30 31875 C 3033.77 2.27019 3.64363 0
M  V30 31876 C 3033 2.05471 4.92562 0
M  V30 31877 O 3033.22 1.02231 5.61164 0
M  V30 31878 O 3032.16 2.92889 5.25833 0
M  V30 31879 H 3035.98 2.26998 2.01757 0
M  V30 31880 H 3033.57 1.15925 0.942428 0
M  V30 31881 H 3035.45 0.973828 4.09993 0
M  V30 31882 H 3034.13 0.149501 3.23355 0
M  V30 31883 H 3033.03 2.4334 2.84141 0
M  V30 31884 H 3034.37 3.18663 3.7512 0
M  V30 31885 N 3036.02 -1.02674 1.19565 0
M  V30 31886 C 3036.93 -2.14472 0.950728 0
M  V30 31887 C 3037.94 -1.73767 -0.0899914 0
M  V30 31888 O 3039.12 -2.01175 0.0951417 0
M  V30 31889 C 3036.18 -3.43148 0.494977 0
M  V30 31890 C 3035.25 -3.98155 1.60534 0
M  V30 31891 C 3034.48 -5.2069 1.17124 0
M  V30 31892 O 3034.7 -5.70389 0.0356939 0
M  V30 31893 O 3033.64 -5.68587 1.97464 0
M  V30 31894 H 3037.46 -2.37998 1.88655 0
M  V30 31895 H 3035.05 -1.12884 0.978655 0
M  V30 31896 H 3036.93 -4.2066 0.249566 0
M  V30 31897 H 3035.6 -3.21063 -0.412378 0
M  V30 31898 H 3034.51 -3.21968 1.90493 0
M  V30 31899 H 3035.84 -4.24609 2.48933 0
M  V30 31900 N 3037.5 -0.999914 -1.21817 0
M  V30 31901 C 3038.41 -0.565199 -2.2769 0
M  V30 31902 C 3039.42 0.389368 -1.69588 0
M  V30 31903 O 3040.6 0.254464 -1.99786 0
M  V30 31904 C 3037.66 0.106371 -3.46537 0
M  V30 31905 C 3036.72 -0.892038 -4.1993 0
M  V30 31906 C 3035.96 -0.252421 -5.33103 0
M  V30 31907 O 3036.18 0.952004 -5.62399 0
M  V30 31908 O 3035.11 -0.960802 -5.94182 0
M  V30 31909 H 3038.94 -1.44618 -2.67057 0
M  V30 31910 H 3036.52 -0.768522 -1.28118 0
M  V30 31911 H 3038.41 0.482228 -4.18632 0
M  V30 31912 H 3037.08 0.961811 -3.09081 0
M  V30 31913 H 3035.99 -1.31896 -3.50078 0
M  V30 31914 H 3037.32 -1.7169 -4.61284 0
M  V30 31915 N 3038.97 1.37284 -0.773999 0
M  V30 31916 C 3040.2 2.03905 -0.350794 0
M  V30 31917 C 3040.62 1.58375 1.02776 0
M  V30 31918 O 3039.97 0.766039 1.65644 0
M  V30 31919 C 3040.02 3.59418 -0.387399 0
M  V30 31920 O 3039.75 4.03283 -1.71157 0
M  V30 31921 C 3041.25 4.43275 0.0471201 0
M  V30 31922 H 3038.47 0.654773 -0.146675 0
M  V30 31923 H 3041.01 1.75573 -1.04855 0
M  V30 31924 H 3039.17 3.86514 0.261797 0
M  V30 31925 H 3039.58 4.97813 -1.65175 0
M  V30 31926 H 3041.05 5.51992 -0.0296445 0
M  V30 31927 H 3041.53 4.25259 1.09778 0
M  V30 31928 H 3042.14 4.21409 -0.573974 0
M  V30 31929 N 3040.45 0.524724 1.48608 0
M  V30 31930 C 3041.68 -0.00739309 2.06899 0
M  V30 31931 C 3042.09 -1.28634 1.38198 0
M  V30 31932 O 3041.45 -1.76403 0.467802 0
M  V30 31933 C 3041.5 -0.240485 3.60699 0
M  V30 31934 O 3041.22 0.98779 4.26819 0
M  V30 31935 C 3042.72 -0.813576 4.3577 0
M  V30 31936 H 3039.94 0.0311411 0.670277 0
M  V30 31937 H 3042.49 0.728866 1.9107 0
M  V30 31938 H 3040.64 -0.926779 3.76151 0
M  V30 31939 H 3041.06 0.765267 5.18887 0
M  V30 31940 H 3042.53 -0.926124 5.44175 0
M  V30 31941 H 3043.01 -1.81721 3.99843 0
M  V30 31942 H 3043.61 -0.164011 4.24984 0
M  V30 31943 N 3041.93 -1.55447 0.259613 0
M  V30 31944 C 3042.86 -2.24883 -0.62848 0
M  V30 31945 C 3043.84 -1.23351 -1.17126 0
M  V30 31946 O 3045.03 -1.52035 -1.20826 0
M  V30 31947 C 3042.16 -2.95806 -1.81978 0
M  V30 31948 C 3041.11 -4.04135 -1.40922 0
M  V30 31949 C 3040.44 -4.6255 -2.68238 0
M  V30 31950 C 3041.74 -5.19171 -0.570864 0
M  V30 31951 H 3043.43 -2.99359 -0.0494495 0
M  V30 31952 H 3040.98 -1.43983 -0.0223435 0
M  V30 31953 H 3042.93 -3.43087 -2.44683 0
M  V30 31954 H 3041.65 -2.18839 -2.4244 0
M  V30 31955 H 3040.31 -3.57642 -0.805456 0
M  V30 31956 H 3039.96 -3.82269 -3.26924 0
M  V30 31957 H 3039.66 -5.35685 -2.41486 0
M  V30 31958 H 3041.18 -5.12571 -3.31818 0
M  V30 31959 H 3042.6 -5.62599 -1.10252 0
M  V30 31960 H 3040.99 -5.98773 -0.398874 0
M  V30 31961 H 3042.06 -4.83129 0.414003 0
M  V30 31962 N 3043.41 0.0133338 -1.57594 0
M  V30 31963 C 3044.66 0.699562 -1.89606 0
M  V30 31964 C 3044.98 1.75046 -0.85929 0
M  V30 31965 O 3044.25 1.95618 0.105078 0
M  V30 31966 H 3042.83 0.261373 -0.699781 0
M  V30 31967 H 3045.49 -0.0244386 -1.94885 0
M  V30 31968 H 3044.58 1.17923 -2.88965 0
M  V30 31969 N 3044.89 1.54985 0.285878 0
M  V30 31970 C 3046.11 1.79322 1.04204 0
M  V30 31971 C 3046.54 0.558374 1.79621 0
M  V30 31972 O 3045.89 -0.491631 1.74507 0
M  V30 31973 C 3045.94 3.00954 1.98643 0
M  V30 31974 O 3045.05 2.75137 3.07202 0
M  V30 31975 H 3044.39 0.593079 0.298586 0
M  V30 31976 H 3046.92 2.02103 0.3187 0
M  V30 31977 H 3046.93 3.29337 2.40834 0
M  V30 31978 H 3045.6 3.90484 1.4316 0
M  V30 31979 H 3044.18 2.57814 2.69418 0
M  V30 31980 N 3046.36 -0.549794 1.47699 0
M  V30 31981 C 3047.78 -0.876445 1.33381 0
M  V30 31982 C 3047.98 -1.98782 0.329872 0
M  V30 31983 O 3047.04 -2.51199 -0.255977 0
M  V30 31984 C 3048.35 -1.26267 2.72905 0
M  V30 31985 C 3049.9 -1.37368 2.81245 0
M  V30 31986 C 3050.37 -1.79344 4.21426 0
M  V30 31987 N 3051.86 -1.86481 4.24004 0
M  V30 31988 C 3052.6 -2.20304 5.2939 0
M  V30 31989 N 3052.09 -2.52688 6.45074 0
M  V30 31990 N 3053.89 -2.21141 5.16772 0
M  V30 31991 H 3046.04 0.183819 2.11603 0
M  V30 31992 H 3048.3 0.0195767 0.947798 0
M  V30 31993 H 3048.01 -0.519828 3.47837 0
M  V30 31994 H 3047.88 -2.21722 3.05155 0
M  V30 31995 H 3050.27 -2.10733 2.06581 0
M  V30 31996 H 3050.35 -0.400837 2.5264 0
M  V30 31997 H 3049.99 -1.06546 4.96599 0
M  V30 31998 H 3049.92 -2.77644 4.47461 0
M  V30 31999 H 3052.41 -1.63811 3.4055 0
M  V30 32000 H 3052.73 -2.77545 7.21241 0
M  V30 32001 H 3051.07 -2.50252 6.48382 0
M  V30 32002 H 3054.26 -1.95285 4.25419 0
M  V30 32003 H 3054.44 -2.4717 5.99008 0
M  V30 32004 N 3047.84 -1.35955 -0.797117 0
M  V30 32005 C 3048.77 -1.32326 -1.92385 0
M  V30 32006 C 3049.75 -0.196037 -1.68967 0
M  V30 32007 O 3050.94 -0.392484 -1.90193 0
M  V30 32008 C 3048.07 -1.10404 -3.29285 0
M  V30 32009 C 3047.02 -2.19868 -3.67208 0
M  V30 32010 C 3046.35 -1.83099 -5.02373 0
M  V30 32011 C 3047.65 -3.61902 -3.76595 0
M  V30 32012 H 3049.34 -2.26606 -1.95679 0
M  V30 32013 H 3046.89 -1.09083 -0.94005 0
M  V30 32014 H 3048.84 -1.06502 -4.0772 0
M  V30 32015 H 3047.57 -0.125725 -3.26358 0
M  V30 32016 H 3046.22 -2.22883 -2.91065 0
M  V30 32017 H 3045.87 -0.838614 -4.9596 0
M  V30 32018 H 3045.57 -2.56382 -5.28718 0
M  V30 32019 H 3047.1 -1.80739 -5.83237 0
M  V30 32020 H 3048.51 -3.61157 -4.4524 0
M  V30 32021 H 3046.91 -4.34026 -4.14417 0
M  V30 32022 H 3047.98 -3.97366 -2.77899 0
M  V30 32023 N 3049.32 1.02038 -1.20108 0
M  V30 32024 C 3050.25 2.10136 -0.889832 0
M  V30 32025 C 3051.23 1.61844 0.156567 0
M  V30 32026 O 3052.42 1.88475 0.0309861 0
M  V30 32027 C 3049.54 3.37056 -0.333286 0
M  V30 32028 C 3048.59 4.04233 -1.36008 0
M  V30 32029 S 3049.42 4.4864 -2.92373 0
M  V30 32030 C 3050.58 5.78767 -2.38285 0
M  V30 32031 H 3050.81 2.36214 -1.80527 0
M  V30 32032 H 3048.34 1.151 -1.02914 0
M  V30 32033 H 3050.3 4.10496 -0.0187229 0
M  V30 32034 H 3048.96 3.09057 0.560598 0
M  V30 32035 H 3048.16 4.95533 -0.919961 0
M  V30 32036 H 3047.76 3.37001 -1.62192 0
M  V30 32037 H 3050.05 6.53751 -1.7781 0
M  V30 32038 H 3050.99 6.2757 -3.27966 0
M  V30 32039 H 3051.4 5.34848 -1.8055 0
M  V30 32040 N 3050.8 1.00636 1.21285 0
M  V30 32041 C 3052.02 0.708476 1.94924 0
M  V30 32042 C 3052.45 -0.722752 1.7366 0
M  V30 32043 O 3051.81 -1.49591 1.02432 0
M  V30 32044 C 3051.85 1.03673 3.45376 0
M  V30 32045 O 3050.96 0.142733 4.12153 0
M  V30 32046 H 3050.3 0.263834 0.609334 0
M  V30 32047 H 3052.83 1.34697 1.54006 0
M  V30 32048 H 3052.84 0.984156 3.95952 0
M  V30 32049 H 3051.51 2.07957 3.60176 0
M  V30 32050 H 3050.09 0.251953 3.72048 0
M  V30 32051 N 3052.28 -1.36872 0.781268 0
M  V30 32052 C 3053.21 -2.32741 0.188169 0
M  V30 32053 C 3054.19 -1.5625 -0.672299 0
M  V30 32054 O 3055.37 -1.84444 -0.607802 0
M  V30 32055 C 3052.5 -3.40492 -0.684281 0
M  V30 32056 C 3051.46 -4.27933 0.0756394 0
M  V30 32057 C 3050.78 -5.2678 -0.916875 0
M  V30 32058 C 3052.08 -5.0687 1.26015 0
M  V30 32059 H 3053.78 -2.82591 0.989066 0
M  V30 32060 H 3051.32 -1.35868 0.477062 0
M  V30 32061 H 3053.28 -4.06543 -1.10908 0
M  V30 32062 H 3052 -2.89189 -1.5178 0
M  V30 32063 H 3050.66 -3.63427 0.481322 0
M  V30 32064 H 3050.31 -4.71754 -1.7452 0
M  V30 32065 H 3050.01 -5.86148 -0.412897 0
M  V30 32066 H 3051.53 -5.95706 -1.34041 0
M  V30 32067 H 3052.94 -5.66007 0.911524 0
M  V30 32068 H 3051.34 -5.7561 1.69686 0
M  V30 32069 H 3052.41 -4.38988 2.05956 0
M  V30 32070 N 3053.75 -0.532597 -1.48328 0
M  V30 32071 C 3054.68 0.21747 -2.32485 0
M  V30 32072 C 3055.67 0.932573 -1.42257 0
M  V30 32073 O 3056.85 0.917843 -1.71141 0
M  V30 32074 C 3053.98 1.26324 -3.23511 0
M  V30 32075 C 3052.93 0.666117 -4.22785 0
M  V30 32076 C 3052.26 1.81473 -5.02963 0
M  V30 32077 C 3053.56 -0.363905 -5.21031 0
M  V30 32078 H 3055.25 -0.485066 -2.95445 0
M  V30 32079 H 3052.8 -0.234719 -1.42074 0
M  V30 32080 H 3054.75 1.79594 -3.81214 0
M  V30 32081 H 3053.48 1.99539 -2.58557 0
M  V30 32082 H 3052.14 0.154916 -3.66273 0
M  V30 32083 H 3051.78 2.53532 -4.34431 0
M  V30 32084 H 3051.48 1.4211 -5.70157 0
M  V30 32085 H 3053.01 2.35116 -5.63518 0
M  V30 32086 H 3054.42 0.0818072 -5.73242 0
M  V30 32087 H 3052.82 -0.675061 -5.96291 0
M  V30 32088 H 3053.89 -1.26873 -4.68008 0
M  V30 32089 N 3055.23 1.55307 -0.267853 0
M  V30 32090 C 3056.14 2.25898 0.633015 0
M  V30 32091 C 3057.16 1.28233 1.1761 0
M  V30 32092 O 3058.33 1.61155 1.20794 0
M  V30 32093 C 3055.4 2.96074 1.80391 0
M  V30 32094 C 3054.46 4.092 1.29822 0
M  V30 32095 C 3053.69 4.7602 2.41331 0
M  V30 32096 O 3053.92 4.42012 3.60529 0
M  V30 32097 O 3052.85 5.64115 2.09899 0
M  V30 32098 H 3056.68 3.03638 0.0613848 0
M  V30 32099 H 3054.26 1.49358 -0.0355334 0
M  V30 32100 H 3056.14 3.40201 2.48679 0
M  V30 32101 H 3054.82 2.21257 2.36277 0
M  V30 32102 H 3053.73 3.69545 0.582021 0
M  V30 32103 H 3055.06 4.85897 0.785202 0
M  V30 32104 N 3056.71 -0.00497598 1.57599 0
M  V30 32105 C 3057.66 -0.997989 2.08108 0
M  V30 32106 C 3058.63 -1.34444 0.975398 0
M  V30 32107 O 3059.81 -1.44367 1.24751 0
M  V30 32108 C 3056.95 -2.2863 2.585 0
M  V30 32109 C 3056.07 -1.99932 3.82951 0
M  V30 32110 C 3055.2 -3.22809 4.21863 0
M  V30 32111 C 3054.24 -2.89774 5.39164 0
M  V30 32112 N 3053.38 -4.05173 5.73393 0
M  V30 32113 H 3058.22 -0.560333 2.92685 0
M  V30 32114 H 3055.75 -0.265027 1.44693 0
M  V30 32115 H 3057.71 -3.03938 2.85793 0
M  V30 32116 H 3056.34 -2.70074 1.76805 0
M  V30 32117 H 3055.39 -1.15014 3.62596 0
M  V30 32118 H 3056.71 -1.7158 4.68361 0
M  V30 32119 H 3055.86 -4.06466 4.50411 0
M  V30 32120 H 3054.6 -3.54295 3.35151 0
M  V30 32121 H 3053.6 -2.04523 5.10343 0
M  V30 32122 H 3054.83 -2.5954 6.27547 0
M  V30 32123 H 3052.77 -4.36565 4.8964 0
M  V30 32124 H 3052.69 -3.80327 6.53366 0
M  V30 32125 H 3053.96 -4.89633 6.06531 0
M  V30 32126 N 3058.19 -1.55135 -0.277654 0
M  V30 32127 C 3059.43 -1.75782 -1.01137 0
M  V30 32128 C 3059.77 -0.554752 -1.86108 0
M  V30 32129 O 3059.04 0.44778 -1.89275 0
M  V30 32130 C 3059.33 -3.0603 -1.89783 0
M  V30 32131 C 3059.18 -4.36682 -1.07836 0
M  V30 32132 C 3060.5 -3.32287 -2.88571 0
M  V30 32133 H 3057.62 -0.639546 -0.366265 0
M  V30 32134 H 3060.26 -1.87864 -0.284122 0
M  V30 32135 H 3058.41 -2.95861 -2.51791 0
M  V30 32136 H 3060.08 -4.58803 -0.479351 0
M  V30 32137 H 3058.32 -4.32118 -0.381688 0
M  V30 32138 H 3058.99 -5.24134 -1.7317 0
M  V30 32139 H 3061.47 -3.42219 -2.36696 0
M  V30 32140 H 3060.35 -4.24696 -3.47742 0
M  V30 32141 H 3060.61 -2.51702 -3.63453 0
M  V30 32142 N 3059.67 0.541953 -1.47989 0
M  V30 32143 C 3061.08 0.869359 -1.33844 0
M  V30 32144 C 3061.28 1.98604 -0.340409 0
M  V30 32145 O 3060.34 2.51331 0.242652 0
M  V30 32146 C 3061.65 1.24818 -2.73571 0
M  V30 32147 C 3063.2 1.35875 -2.8197 0
M  V30 32148 C 3063.67 1.77106 -4.22371 0
M  V30 32149 N 3065.17 1.8423 -4.24987 0
M  V30 32150 C 3065.9 2.17493 -5.30551 0
M  V30 32151 N 3065.4 2.49264 -6.46405 0
M  V30 32152 N 3067.19 2.18397 -5.17937 0
M  V30 32153 H 3059.34 -0.195038 -2.11503 0
M  V30 32154 H 3061.6 -0.0246029 -0.947681 0
M  V30 32155 H 3061.31 0.501374 -3.48108 0
M  V30 32156 H 3061.18 2.201 -3.06326 0
M  V30 32157 H 3063.57 2.09635 -2.07695 0
M  V30 32158 H 3063.65 0.387434 -2.52849 0
M  V30 32159 H 3063.3 1.03911 -4.97157 0
M  V30 32160 H 3063.23 2.75267 -4.48927 0
M  V30 32161 H 3065.72 1.62003 -3.41414 0
M  V30 32162 H 3066.03 2.73716 -7.22703 0
M  V30 32163 H 3064.37 2.4681 -6.497 0
M  V30 32164 H 3067.57 1.93026 -4.26449 0
M  V30 32165 H 3067.74 2.4399 -6.00311 0
M  V30 32166 N 3061.15 1.36376 0.789896 0
M  V30 32167 C 3062.08 1.33345 1.91681 0
M  V30 32168 C 3063.06 0.204995 1.6886 0
M  V30 32169 O 3064.24 0.402565 1.89982 0
M  V30 32170 C 3061.37 1.12148 3.28694 0
M  V30 32171 C 3060.33 2.21813 3.66037 0
M  V30 32172 C 3059.65 1.8576 5.01395 0
M  V30 32173 C 3060.95 3.63894 3.74671 0
M  V30 32174 H 3062.65 2.2764 1.94474 0
M  V30 32175 H 3060.19 1.0958 0.934252 0
M  V30 32176 H 3062.14 1.08663 4.07149 0
M  V30 32177 H 3060.87 0.143031 3.26287 0
M  V30 32178 H 3059.53 2.24423 2.89879 0
M  V30 32179 H 3059.18 0.864904 4.95508 0
M  V30 32180 H 3058.88 2.59182 5.2735 0
M  V30 32181 H 3060.4 1.8383 5.82271 0
M  V30 32182 H 3061.81 3.63514 4.43318 0
M  V30 32183 H 3060.21 4.36217 4.1211 0
M  V30 32184 H 3061.28 3.98834 2.75788 0
M  V30 32185 N 3062.62 -1.014 1.20647 0
M  V30 32186 C 3063.87 -1.75298 1.01973 0
M  V30 32187 C 3064.2 -1.88991 -0.44677 0
M  V30 32188 O 3063.48 -1.41764 -1.33166 0
M  V30 32189 C 3063.76 -3.17071 1.70699 0
M  V30 32190 C 3063.61 -3.11156 3.2481 0
M  V30 32191 C 3064.93 -4.15799 1.44219 0
M  V30 32192 H 3062.05 -0.636312 0.371856 0
M  V30 32193 H 3064.69 -1.18275 1.48698 0
M  V30 32194 H 3062.84 -3.65757 1.30974 0
M  V30 32195 H 3064.52 -2.70254 3.73846 0
M  V30 32196 H 3062.76 -2.48486 3.5558 0
M  V30 32197 H 3063.43 -4.11386 3.68056 0
M  V30 32198 H 3065.91 -3.75779 1.78687 0
M  V30 32199 H 3064.78 -5.13158 1.94834 0
M  V30 32200 H 3065.04 -4.40546 0.37033 0
M  V30 32201 N 3064.1 -1.01278 -1.2075 0
M  V30 32202 C 3065.05 -0.579771 -2.23399 0
M  V30 32203 C 3066.02 0.398178 -1.61257 0
M  V30 32204 O 3067.2 0.298477 -1.88451 0
M  V30 32205 C 3064.34 0.0796399 -3.45008 0
M  V30 32206 C 3063.46 -0.942417 -4.21595 0
M  V30 32207 C 3062.59 -0.254457 -5.3059 0
M  V30 32208 C 3061.63 -1.26353 -5.98917 0
M  V30 32209 N 3060.77 -0.602507 -6.9951 0
M  V30 32210 H 3065.61 -1.45976 -2.59798 0
M  V30 32211 H 3063.14 -0.730809 -1.27662 0
M  V30 32212 H 3065.1 0.479052 -4.14441 0
M  V30 32213 H 3063.73 0.923299 -3.09314 0
M  V30 32214 H 3062.78 -1.46002 -3.51266 0
M  V30 32215 H 3064.1 -1.71 -4.68573 0
M  V30 32216 H 3063.25 0.200656 -6.06368 0
M  V30 32217 H 3061.99 0.545468 -4.8464 0
M  V30 32218 H 3060.99 -1.72907 -5.21903 0
M  V30 32219 H 3062.22 -2.06467 -6.46953 0
M  V30 32220 H 3060.17 0.177619 -6.55759 0
M  V30 32221 H 3060.08 -1.30822 -7.44595 0
M  V30 32222 H 3061.35 -0.170857 -7.79313 0
M  V30 32223 N 3065.58 1.36456 -0.788516 0
M  V30 32224 C 3066.53 2.30062 -0.18439 0
M  V30 32225 C 3067.5 1.51932 0.671253 0
M  V30 32226 O 3068.68 1.80442 0.62012 0
M  V30 32227 C 3065.82 3.38424 0.675536 0
M  V30 32228 C 3064.93 4.31543 -0.19855 0
M  V30 32229 C 3064.07 5.26987 0.667664 0
M  V30 32230 C 3063.11 6.11747 -0.207933 0
M  V30 32231 N 3062.25 6.99382 0.617212 0
M  V30 32232 H 3067.09 2.81141 -0.988106 0
M  V30 32233 H 3064.62 1.38384 -0.498839 0
M  V30 32234 H 3066.58 3.99896 1.18909 0
M  V30 32235 H 3065.21 2.88667 1.44469 0
M  V30 32236 H 3064.26 3.71233 -0.83006 0
M  V30 32237 H 3065.57 4.91097 -0.87325 0
M  V30 32238 H 3064.73 5.93745 1.24706 0
M  V30 32239 H 3063.47 4.67886 1.37599 0
M  V30 32240 H 3062.47 5.43952 -0.799734 0
M  V30 32241 H 3063.7 6.72923 -0.913848 0
M  V30 32242 H 3061.64 6.4279 1.30985 0
M  V30 32243 H 3061.56 7.56 0.000174369 0
M  V30 32244 H 3062.83 7.7051 1.18046 0
M  V30 32245 N 3067.06 0.540456 1.48043 0
M  V30 32246 C 3068 -0.216556 2.29782 0
M  V30 32247 C 3068.97 -0.92407 1.38022 0
M  V30 32248 O 3070.16 -0.923049 1.66986 0
M  V30 32249 C 3067.3 -1.25104 3.21625 0
M  V30 32250 C 3066.41 -0.551309 4.28468 0
M  V30 32251 C 3065.55 -1.56963 5.0748 0
M  V30 32252 C 3064.59 -0.853942 6.06114 0
M  V30 32253 N 3063.72 -1.8183 6.78146 0
M  V30 32254 H 3068.56 0.48663 2.94 0
M  V30 32255 H 3066.1 0.251815 1.44929 0
M  V30 32256 H 3068.06 -1.86323 3.73282 0
M  V30 32257 H 3066.69 -1.92248 2.59308 0
M  V30 32258 H 3065.74 0.175049 3.79997 0
M  V30 32259 H 3067.05 0.0101419 4.98799 0
M  V30 32260 H 3066.21 -2.25582 5.63203 0
M  V30 32261 H 3064.95 -2.16499 4.37012 0
M  V30 32262 H 3063.95 -0.153741 5.49585 0
M  V30 32263 H 3065.18 -0.264556 6.78584 0
M  V30 32264 H 3063.12 -2.40254 6.10421 0
M  V30 32265 H 3063.04 -1.30856 7.44589 0
M  V30 32266 H 3064.31 -2.49615 7.38453 0
M  V30 32267 N 3068.54 -1.55163 0.276085 0
M  V30 32268 C 3069.45 -2.26231 -0.621026 0
M  V30 32269 C 3070.46 -1.28855 -1.16929 0
M  V30 32270 O 3071.64 -1.61793 -1.19937 0
M  V30 32271 C 3068.7 -2.97027 -1.78819 0
M  V30 32272 C 3067.76 -4.09883 -1.2765 0
M  V30 32273 C 3067 -4.77293 -2.38803 0
M  V30 32274 O 3067.22 -4.43918 -3.5818 0
M  V30 32275 O 3066.15 -5.6522 -2.06905 0
M  V30 32276 H 3069.98 -3.03666 -0.0452812 0
M  V30 32277 H 3067.56 -1.49337 0.0434537 0
M  V30 32278 H 3069.45 -3.41515 -2.46871 0
M  V30 32279 H 3068.12 -2.22507 -2.351 0
M  V30 32280 H 3067.03 -3.69848 -0.562415 0
M  V30 32281 H 3068.36 -4.86306 -0.759423 0
M  V30 32282 N 3070.01 -0.00338196 -1.576 0
M  V30 32283 C 3070.92 1.00319 -2.12069 0
M  V30 32284 C 3071.94 1.37465 -1.06674 0
M  V30 32285 O 3073.12 1.46129 -1.38594 0
M  V30 32286 C 3070.18 2.27526 -2.61597 0
M  V30 32287 C 3069.24 1.96661 -3.81606 0
M  V30 32288 C 3068.47 3.17804 -4.28761 0
M  V30 32289 O 3068.7 4.29603 -3.7523 0
M  V30 32290 O 3067.63 3.01604 -5.20882 0
M  V30 32291 H 3071.46 0.570147 -2.983 0
M  V30 32292 H 3069.04 0.215656 -1.47835 0
M  V30 32293 H 3070.92 3.02251 -2.93636 0
M  V30 32294 H 3069.6 2.70062 -1.78461 0
M  V30 32295 H 3068.51 1.19402 -3.54534 0
M  V30 32296 H 3069.84 1.5896 -4.65825 0
M  V30 32297 N 3071.49 1.5528 0.269423 0
M  V30 32298 C 3072.44 1.88405 1.33312 0
M  V30 32299 C 3073.41 0.735907 1.48908 0
M  V30 32300 O 3074.59 0.987507 1.63257 0
M  V30 32301 C 3071.73 2.16459 2.68774 0
M  V30 32302 C 3070.85 3.43961 2.61371 0
M  V30 32303 C 3069.98 3.61697 3.89036 0
M  V30 32304 C 3069.02 4.82879 3.76158 0
M  V30 32305 N 3068.16 4.97254 4.95664 0
M  V30 32306 H 3073 2.79128 1.04363 0
M  V30 32307 H 3070.53 1.38192 0.504123 0
M  V30 32308 H 3072.49 2.30725 3.47594 0
M  V30 32309 H 3071.12 1.28967 2.95918 0
M  V30 32310 H 3070.17 3.38148 1.74241 0
M  V30 32311 H 3071.49 4.32918 2.47756 0
M  V30 32312 H 3070.64 3.758 4.76298 0
M  V30 32313 H 3069.38 2.70931 4.05521 0
M  V30 32314 H 3068.38 4.68776 2.87279 0
M  V30 32315 H 3069.61 5.75083 3.61187 0
M  V30 32316 H 3067.56 4.0942 5.12554 0
M  V30 32317 H 3067.47 5.80262 4.84594 0
M  V30 32318 H 3068.74 5.15745 5.84489 0
M  V30 32319 N 3072.97 -0.534097 1.48274 0
M  V30 32320 C 3074.38 -1.11607 1.49669 0
M  V30 32321 C 3074.73 -1.94413 0.264173 0
M  V30 32322 O 3073.86 -2.07055 -0.629047 0
M  V30 32323 C 3074.45 -2.03074 2.71194 0
M  V30 32324 C 3073.01 -2.56498 2.75474 0
M  V30 32325 C 3072.16 -1.33368 2.43122 0
M  V30 32326 H 3075.11 -0.319551 1.5545 0
M  V30 32327 H 3075.13 -2.87299 2.49478 0
M  V30 32328 H 3074.64 -1.42779 3.60882 0
M  V30 32329 H 3072.74 -3.20526 1.89984 0
M  V30 32330 H 3072.86 -2.95912 3.76793 0
M  V30 32331 H 3071.22 -1.6481 1.9419 0
M  V30 32332 H 3072 -0.748316 3.35045 0
M  V30 32333 N 3074.45 -1.36793 -0.782652 0
M  V30 32334 C 3075.36 -1.33839 -1.92677 0
M  V30 32335 C 3076.37 -0.23955 -1.72343 0
M  V30 32336 O 3077.55 -0.47308 -1.95765 0
M  V30 32337 C 3074.61 -1.13366 -3.27642 0
M  V30 32338 C 3073.68 -2.32787 -3.60706 0
M  V30 32339 C 3072.91 -2.13282 -4.89231 0
M  V30 32340 O 3073.13 -1.11146 -5.59466 0
M  V30 32341 O 3072.07 -3.01217 -5.21106 0
M  V30 32342 H 3075.89 -2.30179 -1.9812 0
M  V30 32343 H 3073.48 -1.1741 -0.923866 0
M  V30 32344 H 3075.36 -1.03893 -4.08392 0
M  V30 32345 H 3074.03 -0.200925 -3.23076 0
M  V30 32346 H 3072.94 -2.4783 -2.80234 0
M  V30 32347 H 3074.27 -3.2459 -3.70003 0
M  V30 32348 N 3075.93 1.00759 -1.21184 0
M  V30 32349 C 3076.84 2.12933 -0.984729 0
M  V30 32350 C 3077.85 1.73888 0.0623351 0
M  V30 32351 O 3079.03 2.00998 -0.127135 0
M  V30 32352 C 3076.09 3.42318 -0.549507 0
M  V30 32353 C 3075.15 3.95551 -1.66848 0
M  V30 32354 C 3074.39 5.1876 -1.25393 0
M  V30 32355 O 3074.61 5.7026 -0.126433 0
M  V30 32356 O 3073.54 5.65374 -2.06485 0
M  V30 32357 H 3077.37 2.34967 -1.92417 0
M  V30 32358 H 3074.96 1.11312 -0.99649 0
M  V30 32359 H 3076.84 4.2021 -0.316458 0
M  V30 32360 H 3075.51 3.21678 0.361248 0
M  V30 32361 H 3074.42 3.18897 -1.95591 0
M  V30 32362 H 3075.75 4.20595 -2.55657 0
M  V30 32363 N 3077.4 1.01917 1.20211 0
M  V30 32364 C 3078.31 0.601351 2.26762 0
M  V30 32365 C 3079.33 -0.362339 1.70185 0
M  V30 32366 O 3080.51 -0.222647 2.00166 0
M  V30 32367 C 3077.57 -0.051227 3.46662 0
M  V30 32368 C 3076.63 0.958732 4.18458 0
M  V30 32369 C 3075.87 0.337201 5.32634 0
M  V30 32370 O 3076.09 -0.862411 5.63843 0
M  V30 32371 O 3075.02 1.05521 5.92578 0
M  V30 32372 H 3078.85 1.48849 2.64722 0
M  V30 32373 H 3076.43 0.788807 1.26879 0
M  V30 32374 H 3078.32 -0.415566 4.19346 0
M  V30 32375 H 3076.99 -0.912517 3.10572 0
M  V30 32376 H 3075.9 1.37448 3.47935 0
M  V30 32377 H 3077.23 1.79007 4.58495 0
M  V30 32378 N 3078.88 -1.36036 0.795742 0
M  V30 32379 C 3080.3 -1.52268 0.478172 0
M  V30 32380 C 3080.5 -1.74793 -1.00247 0
M  V30 32381 O 3079.55 -1.78308 -1.7878 0
M  V30 32382 C 3080.87 -2.70466 1.31411 0
M  V30 32383 C 3082.42 -2.84339 1.30845 0
M  V30 32384 C 3082.89 -4.05548 2.12826 0
M  V30 32385 N 3084.38 -4.12706 2.10305 0
M  V30 32386 C 3085.12 -5.05584 2.70504 0
M  V30 32387 N 3084.61 -6.03865 3.39587 0
M  V30 32388 N 3086.41 -4.98247 2.60204 0
M  V30 32389 H 3078.56 -1.1967 1.75479 0
M  V30 32390 H 3080.82 -0.584611 0.74628 0
M  V30 32391 H 3080.53 -2.60363 2.3644 0
M  V30 32392 H 3080.4 -3.64785 0.95979 0
M  V30 32393 H 3082.79 -2.93898 0.266055 0
M  V30 32394 H 3082.87 -1.90909 1.70257 0
M  V30 32395 H 3082.51 -3.96749 3.171 0
M  V30 32396 H 3082.44 -4.98138 1.70781 0
M  V30 32397 H 3084.93 -3.42342 1.60032 0
M  V30 32398 H 3085.25 -6.7131 3.82835 0
M  V30 32399 H 3083.59 -6.04071 3.4369 0
M  V30 32400 H 3086.78 -4.20418 2.0583 0
M  V30 32401 H 3086.95 -5.70441 3.0741 0
M  V30 32402 N 3080.36 -0.5483 -1.47755 0
M  V30 32403 C 3081.59 -0.0235115 -2.07387 0
M  V30 32404 C 3082.01 1.25671 -1.39958 0
M  V30 32405 O 3081.37 1.7506 -0.471574 0
M  V30 32406 C 3081.42 0.164605 -3.60224 0
M  V30 32407 O 3080.52 1.22921 -3.93655 0
M  V30 32408 H 3079.86 -0.0473273 -0.662311 0
M  V30 32409 H 3082.39 -0.761442 -1.89903 0
M  V30 32410 H 3082.4 0.381588 -4.06212 0
M  V30 32411 H 3081.08 -0.770497 -4.08701 0
M  V30 32412 H 3079.65 0.993432 -3.59424 0
M  V30 32413 N 3081.84 1.55014 -0.28431 0
M  V30 32414 C 3082.8 2.21578 0.586143 0
M  V30 32415 C 3083.8 1.19652 1.07425 0
M  V30 32416 O 3084.99 1.44497 0.972951 0
M  V30 32417 C 3082.12 2.889 1.80968 0
M  V30 32418 H 3083.32 2.999 0.00481982 0
M  V30 32419 H 3080.87 1.56261 -0.0349971 0
M  V30 32420 H 3081.6 2.14615 2.43127 0
M  V30 32421 H 3081.39 3.63602 1.4675 0
M  V30 32422 H 3082.88 3.39728 2.42847 0
M  V30 32423 N 3083.32 0.0117398 1.57596 0
M  V30 32424 C 3084.23 -0.991927 2.12598 0
M  V30 32425 C 3085.24 -1.36897 1.07402 0
M  V30 32426 O 3086.42 -1.45392 1.39367 0
M  V30 32427 C 3083.48 -2.26136 2.628 0
M  V30 32428 C 3082.54 -1.94635 3.82643 0
M  V30 32429 C 3081.78 -3.15526 4.30441 0
M  V30 32430 O 3082 -4.27607 3.77503 0
M  V30 32431 O 3080.93 -2.98837 5.22475 0
M  V30 32432 H 3084.76 -0.554319 2.98598 0
M  V30 32433 H 3082.35 -0.207813 1.47948 0
M  V30 32434 H 3084.23 -3.0069 2.95235 0
M  V30 32435 H 3082.9 -2.69111 1.79891 0
M  V30 32436 H 3081.81 -1.1752 3.55162 0
M  V30 32437 H 3083.14 -1.56488 4.66661 0
M  V30 32438 N 3084.79 -1.55421 -0.261185 0
M  V30 32439 C 3085.7 -1.92223 -1.3449 0
M  V30 32440 C 3086.72 -0.820887 -1.53419 0
M  V30 32441 O 3087.9 -1.12102 -1.67318 0
M  V30 32442 C 3084.96 -2.19697 -2.68205 0
M  V30 32443 C 3084.02 -3.43184 -2.57921 0
M  V30 32444 C 3083.26 -3.69338 -3.8526 0
M  V30 32445 O 3083.48 -2.97801 -4.86488 0
M  V30 32446 O 3082.41 -4.62871 -3.84752 0
M  V30 32447 H 3086.24 -2.84499 -1.06273 0
M  V30 32448 H 3083.82 -1.42119 -0.460727 0
M  V30 32449 H 3085.71 -2.3874 -3.47248 0
M  V30 32450 H 3084.38 -1.30602 -2.96184 0
M  V30 32451 H 3083.29 -3.29463 -1.77214 0
M  V30 32452 H 3084.62 -4.32536 -2.3489 0
M  V30 32453 N 3086.27 0.526227 -1.48555 0
M  V30 32454 C 3087.5 1.31126 -1.60688 0
M  V30 32455 C 3087.92 1.8617 -0.268734 0
M  V30 32456 O 3087.28 1.64595 0.760138 0
M  V30 32457 C 3087.33 2.43531 -2.65942 0
M  V30 32458 O 3086.43 3.46674 -2.23362 0
M  V30 32459 H 3085.77 0.388202 -0.538698 0
M  V30 32460 H 3088.3 0.632791 -1.94569 0
M  V30 32461 H 3088.31 2.89663 -2.87332 0
M  V30 32462 H 3086.99 2.02829 -3.63088 0
M  V30 32463 H 3085.57 3.06635 -2.12201 0
M  V30 32464 N 3087.75 1.37206 0.775387 0
M  V30 32465 C 3088.7 1.32674 1.88855 0
M  V30 32466 C 3089.67 0.192928 1.64976 0
M  V30 32467 O 3090.85 0.381706 1.86943 0
M  V30 32468 C 3087.99 1.13593 3.25869 0
M  V30 32469 C 3087.11 2.36173 3.61727 0
M  V30 32470 C 3086.24 2.09993 4.87931 0
M  V30 32471 C 3085.28 3.28459 5.16509 0
M  V30 32472 N 3084.42 3.01853 6.339 0
M  V30 32473 H 3089.26 2.2785 1.92064 0
M  V30 32474 H 3086.79 1.13227 0.939046 0
M  V30 32475 H 3088.75 1.00553 4.04901 0
M  V30 32476 H 3087.38 0.22067 3.22045 0
M  V30 32477 H 3086.43 2.59967 2.77708 0
M  V30 32478 H 3087.75 3.24535 3.78786 0
M  V30 32479 H 3086.9 1.93963 5.74859 0
M  V30 32480 H 3085.64 1.18964 4.72968 0
M  V30 32481 H 3084.64 3.45032 4.28057 0
M  V30 32482 H 3085.87 4.20334 5.33382 0
M  V30 32483 H 3083.81 2.1345 6.20302 0
M  V30 32484 H 3083.73 3.83757 6.51357 0
M  V30 32485 H 3085 2.89433 7.23774 0
M  V30 32486 N 3089.23 -1.00115 1.21716 0
M  V30 32487 C 3090.64 -1.55399 1.0348 0
M  V30 32488 C 3090.99 -1.9199 -0.404256 0
M  V30 32489 O 3090.12 -1.73892 -1.28804 0
M  V30 32490 C 3090.71 -2.82374 1.87218 0
M  V30 32491 C 3089.27 -3.3413 1.73303 0
M  V30 32492 C 3088.42 -2.07288 1.84193 0
M  V30 32493 H 3091.37 -0.823171 1.35682 0
M  V30 32494 H 3091.39 -3.5441 1.38471 0
M  V30 32495 H 3090.9 -2.5571 2.91948 0
M  V30 32496 H 3089 -3.6572 0.712727 0
M  V30 32497 H 3089.11 -4.0529 2.55493 0
M  V30 32498 H 3087.48 -2.20466 1.27542 0
M  V30 32499 H 3088.26 -1.83032 2.90438 0
M  V30 32500 N 3090.71 -1.02553 -1.19669 0
M  V30 32501 C 3092.12 -0.741988 -1.41304 0
M  V30 32502 C 3092.32 0.674774 -1.89866 0
M  V30 32503 O 3091.38 1.44126 -2.07326 0
M  V30 32504 C 3092.69 -1.77527 -2.42703 0
M  V30 32505 C 3094.24 -1.79443 -2.56455 0
M  V30 32506 C 3094.72 -2.81721 -3.61106 0
M  V30 32507 N 3096.21 -2.80517 -3.68598 0
M  V30 32508 C 3096.94 -3.5631 -4.49256 0
M  V30 32509 N 3096.44 -4.41808 -5.33645 0
M  V30 32510 N 3098.23 -3.44867 -4.43873 0
M  V30 32511 H 3090.38 -1.94003 -0.864666 0
M  V30 32512 H 3092.64 -0.838553 -0.442191 0
M  V30 32513 H 3092.35 -2.79071 -2.14037 0
M  V30 32514 H 3092.22 -1.59478 -3.41828 0
M  V30 32515 H 3094.61 -0.78578 -2.84446 0
M  V30 32516 H 3094.69 -2.01566 -1.57495 0
M  V30 32517 H 3094.34 -3.82755 -3.33857 0
M  V30 32518 H 3094.27 -2.56857 -4.59709 0
M  V30 32519 H 3096.76 -2.18504 -3.08325 0
M  V30 32520 H 3097.07 -4.96388 -5.92299 0
M  V30 32521 H 3095.42 -4.45883 -5.33117 0
M  V30 32522 H 3098.61 -2.77488 -3.76985 0
M  V30 32523 H 3098.78 -4.04188 -5.06494 0
M  V30 32524 N 3092.19 1.35612 -0.802945 0
M  V30 32525 C 3093.41 2.03645 -0.392882 0
M  V30 32526 C 3093.84 1.60122 0.987047 0
M  V30 32527 O 3093.19 0.77613 1.63847 0
M  V30 32528 C 3093.24 3.57387 -0.480271 0
M  V30 32529 O 3092.35 4.09263 0.507679 0
M  V30 32530 H 3091.69 0.643262 -0.164652 0
M  V30 32531 H 3094.22 1.73285 -1.08782 0
M  V30 32532 H 3094.23 4.06507 -0.348754 0
M  V30 32533 H 3092.9 3.88415 -1.48682 0
M  V30 32534 H 3091.48 3.71377 0.336704 0
M  V30 32535 N 3093.66 0.556128 1.47462 0
M  V30 32536 C 3094.59 -0.180456 2.32802 0
M  V30 32537 C 3095.57 -0.909823 1.43723 0
M  V30 32538 O 3096.76 -0.8905 1.7258 0
M  V30 32539 C 3093.89 -1.21161 3.2548 0
M  V30 32540 C 3092.84 -0.598771 4.23791 0
M  V30 32541 C 3092.17 -1.73448 5.05786 0
M  V30 32542 C 3093.47 0.44675 5.20386 0
M  V30 32543 H 3095.16 0.532007 2.94635 0
M  V30 32544 H 3092.71 0.257292 1.41683 0
M  V30 32545 H 3094.66 -1.73506 3.84023 0
M  V30 32546 H 3093.39 -1.954 2.61699 0
M  V30 32547 H 3092.05 -0.0966253 3.66473 0
M  V30 32548 H 3091.69 -2.46589 4.3841 0
M  V30 32549 H 3091.39 -1.33021 5.72345 0
M  V30 32550 H 3092.92 -2.26121 5.67187 0
M  V30 32551 H 3094.33 0.00940096 5.73299 0
M  V30 32552 H 3092.73 0.76984 5.95142 0
M  V30 32553 H 3093.8 1.34303 4.6593 0
M  V30 32554 N 3095.14 -1.54861 0.292527 0
M  V30 32555 C 3096.07 -2.20631 -0.62085 0
M  V30 32556 C 3097.09 -1.19639 -1.1041 0
M  V30 32557 O 3098.28 -1.46276 -1.02301 0
M  V30 32558 C 3095.38 -2.83235 -1.86095 0
M  V30 32559 C 3094.55 -4.1008 -1.52161 0
M  V30 32560 C 3093.61 -4.56567 -2.61597 0
M  V30 32561 O 3092.63 -5.21956 -2.27047 0
M  V30 32562 N 3093.84 -4.2817 -3.91983 0
M  V30 32563 H 3096.6 -2.99644 -0.0578501 0
M  V30 32564 H 3094.16 -1.61496 0.114362 0
M  V30 32565 H 3096.15 -3.1127 -2.58636 0
M  V30 32566 H 3094.72 -2.08112 -2.33256 0
M  V30 32567 H 3093.94 -3.89146 -0.629215 0
M  V30 32568 H 3095.23 -4.92691 -1.27015 0
M  V30 32569 H 3094.63 -3.75767 -4.22866 0
M  V30 32570 H 3093.19 -4.60936 -4.60849 0
M  V30 32571 N 3096.62 -0.0200973 -1.57587 0
M  V30 32572 C 3097.53 0.980638 -2.13121 0
M  V30 32573 C 3098.55 1.36326 -1.08126 0
M  V30 32574 O 3099.72 1.4465 -1.40136 0
M  V30 32575 C 3096.79 2.24739 -2.63995 0
M  V30 32576 C 3095.85 1.92603 -3.8367 0
M  V30 32577 C 3095.08 3.13238 -4.32108 0
M  V30 32578 O 3095.3 4.25599 -3.79765 0
M  V30 32579 O 3094.24 2.96062 -5.24052 0
M  V30 32580 H 3098.06 0.538476 -2.98888 0
M  V30 32581 H 3095.65 0.199964 -1.48056 0
M  V30 32582 H 3097.53 2.9912 -2.96826 0
M  V30 32583 H 3096.21 2.68154 -1.81316 0
M  V30 32584 H 3095.11 1.15635 -3.5578 0
M  V30 32585 H 3096.45 1.54011 -4.67484 0
M  V30 32586 N 3098.1 1.55557 0.252939 0
M  V30 32587 C 3099.03 1.92822 1.31688 0
M  V30 32588 C 3100.01 0.792426 1.50515 0
M  V30 32589 O 3101.19 1.05222 1.63224 0
M  V30 32590 C 3098.32 2.21766 2.67277 0
M  V30 32591 C 3097.28 3.37541 2.63154 0
M  V30 32592 C 3096.6 3.52012 4.02482 0
M  V30 32593 C 3097.9 4.73396 2.20667 0
M  V30 32594 H 3099.6 2.81941 1.00746 0
M  V30 32595 H 3097.14 1.35651 0.483195 0
M  V30 32596 H 3099.1 2.46425 3.41837 0
M  V30 32597 H 3097.82 1.29468 2.99843 0
M  V30 32598 H 3096.48 3.12882 1.91052 0
M  V30 32599 H 3096.13 2.57144 4.32303 0
M  V30 32600 H 3095.83 4.29864 4.00613 0
M  V30 32601 H 3097.35 3.78985 4.78751 0
M  V30 32602 H 3098.77 4.97466 2.84957 0
M  V30 32603 H 3097.16 5.54307 2.29921 0
M  V30 32604 H 3098.23 4.70864 1.15823 0
M  V30 32605 N 3099.58 -0.518341 1.48832 0
M  V30 32606 C 3100.82 -1.2754 1.57675 0
M  V30 32607 C 3101.15 -1.92519 0.254948 0
M  V30 32608 O 3100.43 -1.7987 -0.740075 0
M  V30 32609 C 3100.71 -2.3558 2.72349 0
M  V30 32610 C 3100.57 -1.75216 4.1427 0
M  V30 32611 C 3101.88 -3.37269 2.82732 0
M  V30 32612 H 3099 -0.462351 0.573934 0
M  V30 32613 H 3101.65 -0.576236 1.81051 0
M  V30 32614 H 3099.8 -2.95215 2.52548 0
M  V30 32615 H 3101.47 -1.19543 4.45542 0
M  V30 32616 H 3099.71 -1.05698 4.20726 0
M  V30 32617 H 3100.38 -2.53498 4.9035 0
M  V30 32618 H 3102.86 -2.87604 3.00704 0
M  V30 32619 H 3101.73 -4.10246 3.64677 0
M  V30 32620 H 3101.99 -3.98536 1.91367 0
M  V30 32621 N 3101.05 -1.37615 -0.7681 0
M  V30 32622 C 3102.28 -1.364 -1.56236 0
M  V30 32623 C 3102.7 0.0475508 -1.8804 0
M  V30 32624 O 3102.06 1.02561 -1.49502 0
M  V30 32625 C 3102.11 -2.21294 -2.84712 0
M  V30 32626 O 3101.21 -1.62007 -3.79246 0
M  V30 32627 H 3100.55 -0.465899 -0.473111 0
M  V30 32628 H 3103.08 -1.81187 -0.950383 0
M  V30 32629 H 3103.09 -2.34638 -3.3378 0
M  V30 32630 H 3101.77 -3.23894 -2.60893 0
M  V30 32631 H 3100.35 -1.57725 -3.37901 0
M  V30 32632 N 3102.53 0.994677 -1.22245 0
M  V30 32633 C 3103.48 2.06884 -0.95828 0
M  V30 32634 C 3104.47 1.60646 0.0904198 0
M  V30 32635 O 3105.66 1.76594 -0.119868 0
M  V30 32636 C 3102.79 3.3909 -0.536003 0
M  V30 32637 C 3101.87 3.91967 -1.61934 0
M  V30 32638 N 3102.26 4.18089 -2.84666 0
M  V30 32639 C 3100.56 4.20353 -1.49061 0
M  V30 32640 C 3101.26 4.61042 -3.54705 0
M  V30 32641 N 3100.24 4.64629 -2.82172 0
M  V30 32642 H 3104.04 2.25019 -1.8906 0
M  V30 32643 H 3101.55 1.17627 -1.11972 0
M  V30 32644 H 3103.55 4.15607 -0.32807 0
M  V30 32645 H 3102.21 3.22356 0.389434 0
M  V30 32646 H 3103.22 4.06335 -3.21111 0
M  V30 32647 H 3099.9 4.12701 -0.631227 0
M  V30 32648 H 3101.29 4.8989 -4.59845 0
M  V30 32649 N 3104.01 1.03186 1.19123 0
M  V30 32650 C 3104.94 0.559777 2.21228 0
M  V30 32651 C 3105.92 -0.40097 1.57579 0
M  V30 32652 O 3107.1 -0.317366 1.85809 0
M  V30 32653 C 3104.23 -0.183383 3.38203 0
M  V30 32654 C 3103.28 0.729256 4.20219 0
M  V30 32655 S 3104.11 2.20715 4.87899 0
M  V30 32656 C 3105.27 1.47459 6.08282 0
M  V30 32657 H 3105.5 1.42489 2.60929 0
M  V30 32658 H 3103.03 0.842051 1.29417 0
M  V30 32659 H 3104.99 -0.606013 4.06002 0
M  V30 32660 H 3103.65 -1.02426 2.9693 0
M  V30 32661 H 3102.84 0.155361 5.0376 0
M  V30 32662 H 3102.45 1.09034 3.57754 0
M  V30 32663 H 3104.74 0.762805 6.73192 0
M  V30 32664 H 3105.68 2.28671 6.7016 0
M  V30 32665 H 3106.09 0.970778 5.5609 0
M  V30 32666 N 3105.49 -1.35184 0.810125 0
M  V30 32667 C 3106.73 -1.98961 0.392733 0
M  V30 32668 C 3107.07 -1.64111 -1.03832 0
M  V30 32669 O 3106.34 -0.90623 -1.72098 0
M  V30 32670 C 3106.63 -3.55392 0.580411 0
M  V30 32671 C 3106.48 -4.00027 2.05666 0
M  V30 32672 C 3107.8 -4.40099 0.00830353 0
M  V30 32673 H 3104.92 -0.722761 0.14417 0
M  V30 32674 H 3107.56 -1.6028 1.02032 0
M  V30 32675 H 3105.71 -3.88473 0.0461789 0
M  V30 32676 H 3107.38 -3.77339 2.65354 0
M  V30 32677 H 3105.62 -3.50807 2.55181 0
M  V30 32678 H 3106.29 -5.08879 2.13884 0
M  V30 32679 H 3108.77 -4.13498 0.46459 0
M  V30 32680 H 3107.65 -5.48638 0.16951 0
M  V30 32681 H 3107.91 -4.28562 -1.08569 0
M  V30 32682 N 3106.97 -0.56394 -1.47165 0
M  V30 32683 C 3108.21 -0.0424694 -2.02756 0
M  V30 32684 C 3108.55 1.30668 -1.43665 0
M  V30 32685 O 3107.82 1.85185 -0.594708 0
M  V30 32686 C 3108.1 0.043416 -3.60074 0
M  V30 32687 C 3107.96 -1.3333 -4.29585 0
M  V30 32688 C 3109.28 0.753492 -4.33602 0
M  V30 32689 H 3106.39 -0.0169076 -0.736806 0
M  V30 32690 H 3109.04 -0.727527 -1.75519 0
M  V30 32691 H 3107.19 0.626839 -3.8341 0
M  V30 32692 H 3108.86 -1.96045 -4.17569 0
M  V30 32693 H 3107.1 -1.90617 -3.89676 0
M  V30 32694 H 3107.77 -1.22586 -5.38216 0
M  V30 32695 H 3110.25 0.258053 -4.15299 0
M  V30 32696 H 3109.12 0.782564 -5.43293 0
M  V30 32697 H 3109.39 1.81101 -4.03305 0
M  V30 32698 N 3108.44 1.54704 -0.300735 0
M  V30 32699 C 3109.86 1.59513 0.0526594 0
M  V30 32700 C 3110.06 1.31771 1.52442 0
M  V30 32701 O 3109.12 1.091 2.27714 0
M  V30 32702 C 3110.43 2.98714 -0.345041 0
M  V30 32703 C 3111.98 3.11618 -0.293785 0
M  V30 32704 C 3112.45 4.53127 -0.666304 0
M  V30 32705 N 3113.94 4.59048 -0.618829 0
M  V30 32706 C 3114.68 5.66614 -0.879546 0
M  V30 32707 N 3114.17 6.82219 -1.20622 0
M  V30 32708 N 3115.97 5.56282 -0.806626 0
M  V30 32709 H 3108.12 1.70997 -1.25991 0
M  V30 32710 H 3110.38 0.798634 -0.510772 0
M  V30 32711 H 3110.09 3.23937 -1.36958 0
M  V30 32712 H 3109.96 3.75994 0.301441 0
M  V30 32713 H 3112.35 2.86144 0.72151 0
M  V30 32714 H 3112.43 2.36494 -0.974886 0
M  V30 32715 H 3112.07 4.79331 -1.67941 0
M  V30 32716 H 3112 5.26587 0.0368649 0
M  V30 32717 H 3114.49 3.76012 -0.377268 0
M  V30 32718 H 3114.81 7.60176 -1.39114 0
M  V30 32719 H 3113.15 6.83771 -1.24425 0
M  V30 32720 H 3116.34 4.64845 -0.551074 0
M  V30 32721 H 3116.52 6.4003 -1.01318 0
M  V30 32722 N 3109.92 0.0284543 1.57574 0
M  V30 32723 C 3111.17 -0.64551 1.92885 0
M  V30 32724 C 3111.52 -1.69774 0.905233 0
M  V30 32725 O 3110.82 -1.91438 -0.0788172 0
M  V30 32726 C 3111.01 -1.30555 3.32701 0
M  V30 32727 C 3110.84 -0.318769 4.48569 0
M  V30 32728 C 3109.61 0.0811261 5.05235 0
M  V30 32729 C 3111.81 0.426665 5.12527 0
M  V30 32730 N 3109.79 1.06314 6.04624 0
M  V30 32731 C 3111.16 1.26245 6.07011 0
M  V30 32732 C 3113.22 0.487437 4.95508 0
M  V30 32733 C 3111.92 2.15353 6.86306 0
M  V30 32734 C 3113.94 1.36585 5.75412 0
M  V30 32735 C 3113.31 2.18942 6.6951 0
M  V30 32736 H 3109.41 -0.208542 0.75368 0
M  V30 32737 H 3111.99 0.0954732 1.94466 0
M  V30 32738 H 3110.16 -2.01667 3.31941 0
M  V30 32739 H 3111.89 -1.93648 3.55362 0
M  V30 32740 H 3108.65 -0.293181 4.72692 0
M  V30 32741 H 3109.07 1.55037 6.59009 0
M  V30 32742 H 3113.71 -0.135037 4.22584 0
M  V30 32743 H 3111.43 2.78656 7.58536 0
M  V30 32744 H 3115.02 1.41715 5.64277 0
M  V30 32745 H 3113.9 2.85812 7.30261 0
M  V30 32746 N 3111.4 -1.55689 -0.244686 0
M  V30 32747 C 3112.36 -1.89697 -1.28637 0
M  V30 32748 C 3113.36 -0.773608 -1.40968 0
M  V30 32749 O 3114.55 -1.04158 -1.39631 0
M  V30 32750 C 3111.69 -2.12737 -2.66375 0
M  V30 32751 H 3112.88 -2.82843 -0.996983 0
M  V30 32752 H 3110.43 -1.48615 -0.484077 0
M  V30 32753 H 3111.17 -1.22067 -3.0045 0
M  V30 32754 H 3110.95 -2.94553 -2.58806 0
M  V30 32755 H 3112.44 -2.40224 -3.41588 0
M  V30 32756 N 3112.88 0.510441 -1.49105 0
M  V30 32757 C 3113.81 1.62947 -1.61186 0
M  V30 32758 C 3114.82 1.55091 -0.49503 0
M  V30 32759 O 3116.01 1.61195 -0.766699 0
M  V30 32760 C 3113.11 3.01696 -1.54378 0
M  V30 32761 C 3112.29 3.34834 -2.81434 0
M  V30 32762 C 3111.34 4.52951 -2.6781 0
M  V30 32763 O 3110.37 4.55202 -3.41731 0
M  V30 32764 N 3111.57 5.52302 -1.78725 0
M  V30 32765 H 3114.34 1.53014 -2.57695 0
M  V30 32766 H 3111.9 0.698126 -1.46075 0
M  V30 32767 H 3113.89 3.7862 -1.42931 0
M  V30 32768 H 3112.46 3.05604 -0.657651 0
M  V30 32769 H 3111.68 2.46898 -3.07303 0
M  V30 32770 H 3112.97 3.53767 -3.65687 0
M  V30 32771 H 3112.37 5.53276 -1.17906 0
M  V30 32772 H 3110.92 6.28366 -1.73205 0
M  V30 32773 N 3114.36 1.38021 0.760791 0
M  V30 32774 C 3115.27 1.36887 1.90523 0
M  V30 32775 C 3116.28 0.266938 1.7194 0
M  V30 32776 O 3117.46 0.504164 1.94988 0
M  V30 32777 C 3114.52 1.18564 3.25797 0
M  V30 32778 C 3113.58 2.38496 3.56956 0
M  V30 32779 C 3112.82 2.21038 4.85776 0
M  V30 32780 O 3113.04 1.20033 5.57627 0
M  V30 32781 O 3111.97 3.09469 5.16248 0
M  V30 32782 H 3115.8 2.33302 1.94433 0
M  V30 32783 H 3113.39 1.18865 0.90507 0
M  V30 32784 H 3115.27 1.10377 4.06688 0
M  V30 32785 H 3113.94 0.252298 3.22715 0
M  V30 32786 H 3112.85 2.52257 2.76256 0
M  V30 32787 H 3114.18 3.30436 3.64792 0
M  V30 32788 N 3115.83 -0.98818 1.22771 0
M  V30 32789 C 3117.11 -1.70222 0.96353 0
M  V30 32790 C 3117.49 -2.04594 -0.520066 0
M  V30 32791 O 3116.84 -1.73297 -1.48931 0
M  V30 32792 C 3117.05 -2.94934 1.86588 0
M  V30 32793 C 3118.4 -3.67613 2.12476 0
M  V30 32794 O 3119.42 -3.04951 1.84075 0
M  V30 32795 O 3118.28 -4.80363 2.60603 0
M  V30 32796 H 3115.37 -0.743197 0.36275 0
M  V30 32797 H 3117.92 -1.0441 1.33778 0
M  V30 32798 H 3116.69 -2.66071 2.86918 0
M  V30 32799 H 3116.32 -3.68484 1.49351 0
M  V30 32800 N 3117.31 -1.03816 -1.18575 0
M  V30 32801 C 3118.56 -0.740069 -1.88492 0
M  V30 32802 C 3118.89 0.732024 -1.80199 0
M  V30 32803 O 3118.14 1.54969 -1.19512 0
M  V30 32804 C 3118.44 -1.14843 -3.38446 0
M  V30 32805 C 3118.11 -2.62038 -3.66943 0
M  V30 32806 C 3116.77 -3.02251 -3.7443 0
M  V30 32807 C 3119.12 -3.57223 -3.79527 0
M  V30 32808 C 3116.45 -4.36543 -3.91979 0
M  V30 32809 C 3118.8 -4.9123 -3.98592 0
M  V30 32810 C 3117.47 -5.31118 -4.04314 0
M  V30 32811 H 3116.74 -0.270811 -0.689741 0
M  V30 32812 H 3119.38 -1.30272 -1.40362 0
M  V30 32813 H 3117.69 -0.504541 -3.88538 0
M  V30 32814 H 3119.38 -0.895179 -3.9088 0
M  V30 32815 H 3115.97 -2.29889 -3.6173 0
M  V30 32816 H 3120.16 -3.27302 -3.73077 0
M  V30 32817 H 3115.41 -4.66969 -3.94652 0
M  V30 32818 H 3119.59 -5.64892 -4.07271 0
M  V30 32819 H 3117.22 -6.35185 -4.17664 0
M  V30 32820 N 3118.79 1.34753 -0.817283 0
M  V30 32821 C 3120.04 1.9875 -0.403279 0
M  V30 32822 C 3120.37 1.6466 1.0296 0
M  V30 32823 O 3119.64 0.915344 1.71615 0
M  V30 32824 C 3119.93 3.55079 -0.59925 0
M  V30 32825 C 3119.78 3.98931 -2.07784 0
M  V30 32826 C 3121.1 4.40089 -0.0316429 0
M  V30 32827 H 3118.22 0.721987 -0.148001 0
M  V30 32828 H 3120.86 1.59736 -1.0288 0
M  V30 32829 H 3119.01 3.88443 -0.0667799 0
M  V30 32830 H 3120.68 3.75927 -2.67352 0
M  V30 32831 H 3118.93 3.49448 -2.57037 0
M  V30 32832 H 3119.6 5.07737 -2.1658 0
M  V30 32833 H 3122.07 4.13246 -0.486512 0
M  V30 32834 H 3120.95 5.48541 -0.198604 0
M  V30 32835 H 3121.21 4.29132 1.06295 0
M  V30 32836 N 3120.27 0.571737 1.46864 0
M  V30 32837 C 3121.2 -0.205439 2.28277 0
M  V30 32838 C 3122.21 -0.86581 1.37868 0
M  V30 32839 O 3123.4 -0.737218 1.62565 0
M  V30 32840 C 3120.5 -1.3096 3.12574 0
M  V30 32841 C 3119.68 -0.743252 4.31039 0
M  V30 32842 C 3118.74 -1.73373 4.96818 0
M  V30 32843 O 3117.76 -1.2741 5.54757 0
M  V30 32844 N 3118.96 -3.06755 4.9283 0
M  V30 32845 H 3121.73 0.492992 2.95617 0
M  V30 32846 H 3119.29 0.408771 1.56655 0
M  V30 32847 H 3121.28 -1.97125 3.53446 0
M  V30 32848 H 3119.85 -1.91105 2.47381 0
M  V30 32849 H 3119.07 0.0955697 3.94084 0
M  V30 32850 H 3120.36 -0.344467 5.07633 0
M  V30 32851 H 3119.76 -3.4673 4.46984 0
M  V30 32852 H 3118.31 -3.68439 5.37676 0
M  V30 32853 N 3121.75 -1.54542 0.308935 0
M  V30 32854 C 3122.97 -2.05172 -0.30316 0
M  V30 32855 C 3123.4 -1.18437 -1.46131 0
M  V30 32856 O 3122.76 -0.190194 -1.803 0
M  V30 32857 C 3122.8 -3.53145 -0.729464 0
M  V30 32858 O 3121.91 -3.69404 -1.83342 0
M  V30 32859 H 3121.25 -0.661506 -0.0574949 0
M  V30 32860 H 3123.78 -1.9952 0.45309 0
M  V30 32861 H 3123.79 -3.95144 -1.01612 0
M  V30 32862 H 3122.46 -4.15733 0.117695 0
M  V30 32863 H 3121.04 -3.3931 -1.5467 0
M  V30 32864 N 3123.23 -0.0368104 -1.57557 0
M  V30 32865 C 3124.64 0.50094 -1.79854 0
M  V30 32866 C 3124.99 1.71789 -0.947779 0
M  V30 32867 O 3124.11 2.15805 -0.160325 0
M  V30 32868 C 3124.71 0.915569 -3.26194 0
M  V30 32869 C 3123.27 1.39839 -3.4946 0
M  V30 32870 C 3122.41 0.366736 -2.74864 0
M  V30 32871 H 3125.36 -0.262796 -1.56509 0
M  V30 32872 H 3125.39 1.77944 -3.36327 0
M  V30 32873 H 3124.9 0.0296545 -3.88089 0
M  V30 32874 H 3123 2.30397 -2.92828 0
M  V30 32875 H 3123.11 1.40046 -4.58175 0
M  V30 32876 H 3121.48 0.836512 -2.40571 0
M  V30 32877 H 3122.26 -0.510845 -3.39478 0
M  V30 32878 N 3124.7 1.55817 0.236426 0
M  V30 32879 C 3125.61 1.94338 1.31415 0
M  V30 32880 C 3126.63 0.845191 1.52094 0
M  V30 32881 O 3127.81 1.14749 1.65513 0
M  V30 32882 C 3124.87 2.23936 2.64676 0
M  V30 32883 C 3123.93 3.47244 2.52429 0
M  V30 32884 C 3123.16 3.75421 3.79335 0
M  V30 32885 O 3123.39 3.05503 4.81689 0
M  V30 32886 O 3122.32 4.68934 3.77339 0
M  V30 32887 H 3126.15 2.86154 1.01734 0
M  V30 32888 H 3123.73 1.42833 0.438059 0
M  V30 32889 H 3125.61 2.44234 3.43406 0
M  V30 32890 H 3124.29 1.35297 2.94068 0
M  V30 32891 H 3123.2 3.32241 1.7195 0
M  V30 32892 H 3124.53 4.36218 2.27979 0
M  V30 32893 N 3126.18 -0.502526 1.49373 0
M  V30 32894 C 3127.11 -1.61291 1.68842 0
M  V30 32895 C 3128.09 -1.61397 0.537125 0
M  V30 32896 O 3129.28 -1.78161 0.772795 0
M  V30 32897 C 3126.41 -2.99781 1.75352 0
M  V30 32898 C 3125.36 -3.1454 2.90256 0
M  V30 32899 C 3124.69 -4.54366 2.81878 0
M  V30 32900 C 3125.99 -2.94709 4.31212 0
M  V30 32901 H 3127.68 -1.45252 2.61806 0
M  V30 32902 H 3125.23 -0.697348 1.25988 0
M  V30 32903 H 3127.18 -3.77359 1.87558 0
M  V30 32904 H 3125.9 -3.16905 0.789869 0
M  V30 32905 H 3124.56 -2.39387 2.7765 0
M  V30 32906 H 3124.21 -4.68364 1.83424 0
M  V30 32907 H 3123.91 -4.65182 3.58998 0
M  V30 32908 H 3125.44 -5.34007 2.9609 0
M  V30 32909 H 3126.85 -3.62058 4.44508 0
M  V30 32910 H 3125.25 -3.16998 5.09541 0
M  V30 32911 H 3126.32 -1.90849 4.45763 0
M  V30 32912 N 3127.66 -1.38422 -0.75346 0
M  V30 32913 C 3128.91 -1.34836 -1.51483 0
M  V30 32914 C 3129.24 0.0615039 -1.94103 0
M  V30 32915 O 3128.51 1.02271 -1.65441 0
M  V30 32916 C 3128.8 -2.30416 -2.76732 0
M  V30 32917 C 3128.65 -3.80263 -2.40249 0
M  V30 32918 C 3129.97 -2.24125 -3.78756 0
M  V30 32919 H 3127.09 -0.491112 -0.549526 0
M  V30 32920 H 3129.73 -1.69271 -0.862977 0
M  V30 32921 H 3127.88 -2.01181 -3.32353 0
M  V30 32922 H 3129.55 -4.20172 -1.90402 0
M  V30 32923 H 3127.79 -3.97938 -1.72707 0
M  V30 32924 H 3128.47 -4.42601 -3.29861 0
M  V30 32925 H 3130.94 -2.49934 -3.32674 0
M  V30 32926 H 3129.82 -2.93112 -4.64087 0
M  V30 32927 H 3130.08 -1.24013 -4.2435 0
M  V30 32928 N 3129.14 0.981655 -1.23294 0
M  V30 32929 C 3130.55 1.24762 -0.995317 0
M  V30 32930 C 3130.75 1.99188 0.304344 0
M  V30 32931 O 3129.81 2.30799 1.0241 0
M  V30 32932 C 3131.12 2.0484 -2.20139 0
M  V30 32933 C 3132.67 2.17984 -2.24615 0
M  V30 32934 C 3133.15 3.01452 -3.44805 0
M  V30 32935 N 3134.64 3.09037 -3.45036 0
M  V30 32936 C 3135.37 3.73942 -4.34689 0
M  V30 32937 N 3134.87 4.40681 -5.34577 0
M  V30 32938 N 3136.66 3.70816 -4.22436 0
M  V30 32939 H 3128.81 0.483016 -2.06835 0
M  V30 32940 H 3131.07 0.275998 -0.906934 0
M  V30 32941 H 3130.78 1.57527 -3.14449 0
M  V30 32942 H 3130.65 3.0559 -2.21121 0
M  V30 32943 H 3133.04 2.64506 -1.30845 0
M  V30 32944 H 3133.12 1.16627 -2.27666 0
M  V30 32945 H 3132.77 2.55627 -4.38882 0
M  V30 32946 H 3132.7 4.02976 -3.38996 0
M  V30 32947 H 3135.19 2.6155 -2.72763 0
M  V30 32948 H 3135.5 4.87981 -5.99245 0
M  V30 32949 H 3133.85 4.39393 -5.38478 0
M  V30 32950 H 3137.04 3.17845 -3.43645 0
M  V30 32951 H 3137.21 4.21117 -4.92508 0
M  V30 32952 N 3130.62 1.04444 1.18022 0
M  V30 32953 C 3131.58 0.643174 2.19991 0
M  V30 32954 C 3132.58 -0.301416 1.5795 0
M  V30 32955 O 3133.77 -0.0863035 1.73986 0
M  V30 32956 C 3130.9 -0.0564609 3.40853 0
M  V30 32957 H 3132.09 1.54559 2.57005 0
M  V30 32958 H 3129.65 0.837432 1.31973 0
M  V30 32959 H 3130.38 -0.972499 3.09375 0
M  V30 32960 H 3130.17 0.622507 3.87127 0
M  V30 32961 H 3131.66 -0.323579 4.16344 0
M  V30 32962 N 3132.09 -1.34317 0.824418 0
M  V30 32963 C 3133.03 -2.27386 0.192584 0
M  V30 32964 C 3134 -1.48961 -0.651875 0
M  V30 32965 O 3135.19 -1.78175 -0.615289 0
M  V30 32966 C 3132.32 -3.3072 -0.7309 0
M  V30 32967 C 3131.36 -4.26485 0.0362234 0
M  V30 32968 S 3132.19 -5.17296 1.38439 0
M  V30 32969 C 3133.35 -6.24164 0.465822 0
M  V30 32970 H 3133.58 -2.80627 0.981622 0
M  V30 32971 H 3131.12 -1.41388 0.620396 0
M  V30 32972 H 3133.07 -3.90744 -1.25815 0
M  V30 32973 H 3131.74 -2.76323 -1.49347 0
M  V30 32974 H 3130.93 -4.99582 -0.665881 0
M  V30 32975 H 3130.53 -3.70722 0.494076 0
M  V30 32976 H 3132.82 -6.76636 -0.342038 0
M  V30 32977 H 3133.77 -6.98425 1.16652 0
M  V30 32978 H 3134.17 -5.64475 0.0535887 0
M  V30 32979 N 3133.57 -0.579517 -1.46558 0
M  V30 32980 C 3134.82 -0.0638773 -2.02399 0
M  V30 32981 C 3135.15 1.29481 -1.45137 0
M  V30 32982 O 3134.4 1.8611 -0.605094 0
M  V30 32983 C 3134.7 0.0552175 -3.57357 0
M  V30 32984 C 3134.37 -1.23547 -4.33644 0
M  V30 32985 C 3133.03 -1.58908 -4.54205 0
M  V30 32986 C 3135.38 -2.08973 -4.77472 0
M  V30 32987 C 3132.71 -2.79501 -5.15845 0
M  V30 32988 C 3135.06 -3.28789 -5.40445 0
M  V30 32989 C 3133.72 -3.64437 -5.59234 0
M  V30 32990 H 3132.99 -0.0233744 -0.740631 0
M  V30 32991 H 3135.64 -0.755513 -1.75967 0
M  V30 32992 H 3133.95 0.829963 -3.82908 0
M  V30 32993 H 3135.64 0.469894 -3.98237 0
M  V30 32994 H 3132.23 -0.950173 -4.17935 0
M  V30 32995 H 3136.42 -1.82958 -4.61346 0
M  V30 32996 H 3131.67 -3.07261 -5.28584 0
M  V30 32997 H 3135.85 -3.95255 -5.73364 0
M  V30 32998 H 3133.47 -4.57972 -6.06767 0
M  V30 32999 N 3135.05 1.54376 -0.317127 0
M  V30 33000 C 3136.28 2.0533 0.292275 0
M  V30 33001 C 3136.7 1.1921 1.45501 0
M  V30 33002 O 3136.06 0.199753 1.80196 0
M  V30 33003 C 3136.11 3.53527 0.710725 0
M  V30 33004 O 3135.21 3.70371 1.8138 0
M  V30 33005 H 3134.55 0.661802 0.053986 0
M  V30 33006 H 3137.08 1.99277 -0.463664 0
M  V30 33007 H 3137.09 3.95678 0.995147 0
M  V30 33008 H 3135.77 4.15665 -0.139741 0
M  V30 33009 H 3134.34 3.40126 1.52869 0
M  V30 33010 N 3136.53 0.0451655 1.57535 0
M  V30 33011 C 3137.46 -0.929334 2.14209 0
M  V30 33012 C 3138.44 -1.32856 1.06223 0
M  V30 33013 O 3139.62 -1.40434 1.34134 0
M  V30 33014 C 3136.75 -2.20624 2.68221 0
M  V30 33015 C 3135.71 -1.94727 3.81137 0
M  V30 33016 C 3135.03 -3.2882 4.21641 0
M  V30 33017 C 3136.33 -1.27365 5.06533 0
M  V30 33018 H 3138.03 -0.457296 2.95887 0
M  V30 33019 H 3135.57 -0.218519 1.42332 0
M  V30 33020 H 3137.53 -2.89191 3.06507 0
M  V30 33021 H 3136.25 -2.70022 1.83727 0
M  V30 33022 H 3134.91 -1.28573 3.43314 0
M  V30 33023 H 3134.56 -3.76008 3.34106 0
M  V30 33024 H 3134.26 -3.12293 4.97742 0
M  V30 33025 H 3135.78 -3.98629 4.62523 0
M  V30 33026 H 3137.2 -1.85957 5.42303 0
M  V30 33027 H 3135.59 -1.21184 5.87737 0
M  V30 33028 H 3136.66 -0.248827 4.84261 0
M  V30 33029 N 3138.01 -1.5594 -0.228159 0
M  V30 33030 C 3138.94 -1.94893 -1.28604 0
M  V30 33031 C 3139.92 -0.816271 -1.49235 0
M  V30 33032 O 3141.1 -1.07806 -1.61529 0
M  V30 33033 C 3138.23 -2.2599 -2.63715 0
M  V30 33034 C 3137.19 -3.41685 -2.57751 0
M  V30 33035 C 3136.51 -3.5837 -3.96831 0
M  V30 33036 C 3137.81 -4.76846 -2.13107 0
M  V30 33037 H 3139.51 -2.83508 -0.962481 0
M  V30 33038 H 3137.05 -1.36403 -0.461553 0
M  V30 33039 H 3139.01 -2.51832 -3.37874 0
M  V30 33040 H 3137.73 -1.34222 -2.97745 0
M  V30 33041 H 3136.39 -3.15881 -1.8605 0
M  V30 33042 H 3136.04 -2.63989 -4.28157 0
M  V30 33043 H 3135.74 -4.36183 -3.93724 0
M  V30 33044 H 3137.26 -3.86554 -4.72661 0
M  V30 33045 H 3138.67 -5.01937 -2.77006 0
M  V30 33046 H 3137.07 -5.57895 -2.21074 0
M  V30 33047 H 3138.14 -4.72647 -1.08317 0
M  V30 33048 N 3139.48 0.494597 -1.49638 0
M  V30 33049 C 3140.43 1.59246 -1.63171 0
M  V30 33050 C 3141.42 1.53349 -0.487116 0
M  V30 33051 O 3142.61 1.60771 -0.740388 0
M  V30 33052 C 3139.74 2.97825 -1.70749 0
M  V30 33053 C 3138.83 3.08694 -2.90807 0
M  V30 33054 N 3139.22 2.89435 -4.14802 0
M  V30 33055 C 3137.51 3.39803 -2.88877 0
M  V30 33056 C 3138.22 3.04654 -4.95541 0
M  V30 33057 N 3137.19 3.33816 -4.29031 0
M  V30 33058 H 3140.99 1.4302 -2.56754 0
M  V30 33059 H 3138.51 0.700859 -1.46498 0
M  V30 33060 H 3140.5 3.76733 -1.78543 0
M  V30 33061 H 3139.16 3.15116 -0.783079 0
M  V30 33062 H 3140.18 2.65482 -4.44679 0
M  V30 33063 H 3136.85 3.6323 -2.05841 0
M  V30 33064 H 3138.24 2.94203 -6.04065 0
M  V30 33065 N 3140.96 1.3882 0.746109 0
M  V30 33066 C 3142.38 1.20181 1.05018 0
M  V30 33067 C 3142.58 0.0556625 2.01423 0
M  V30 33068 O 3141.63 -0.596207 2.4536 0
M  V30 33069 C 3142.95 2.53132 1.6231 0
M  V30 33070 C 3144.5 2.59881 1.74445 0
M  V30 33071 C 3144.97 3.93026 2.35148 0
M  V30 33072 N 3146.46 3.94606 2.4257 0
M  V30 33073 C 3147.2 4.94394 2.90451 0
M  V30 33074 N 3146.69 6.0458 3.38311 0
M  V30 33075 N 3148.49 4.8178 2.89559 0
M  V30 33076 H 3140.64 2.12133 0.106514 0
M  V30 33077 H 3142.9 0.94161 0.10988 0
M  V30 33078 H 3142.61 3.37496 0.9894 0
M  V30 33079 H 3142.48 2.72061 2.61271 0
M  V30 33080 H 3144.87 1.75907 2.3694 0
M  V30 33081 H 3144.95 2.44812 0.741678 0
M  V30 33082 H 3144.59 4.77426 1.73284 0
M  V30 33083 H 3144.52 4.0541 3.36081 0
M  V30 33084 H 3147.01 3.15025 2.08729 0
M  V30 33085 H 3147.33 6.76645 3.73324 0
M  V30 33086 H 3145.67 6.0819 3.36349 0
M  V30 33087 H 3148.86 3.94807 2.51485 0
M  V30 33088 H 3149.03 5.59698 3.26561 0
M  V30 33089 N 3142.44 -0.975103 1.23812 0
M  V30 33090 C 3143.37 -2.07106 0.981815 0
M  V30 33091 C 3144.39 -1.62735 -0.0460925 0
M  V30 33092 O 3145.57 -1.77485 0.19007 0
M  V30 33093 C 3142.67 -3.35785 0.458423 0
M  V30 33094 C 3141.85 -4.09101 1.54774 0
M  V30 33095 C 3140.91 -5.16055 1.02829 0
M  V30 33096 O 3139.93 -5.42641 1.71841 0
M  V30 33097 N 3141.13 -5.80328 -0.141141 0
M  V30 33098 H 3143.9 -2.2967 1.92541 0
M  V30 33099 H 3141.46 -1.14219 1.14742 0
M  V30 33100 H 3143.45 -4.04587 0.0958397 0
M  V30 33101 H 3142.02 -3.10149 -0.390714 0
M  V30 33102 H 3141.24 -3.3468 2.08285 0
M  V30 33103 H 3142.53 -4.54849 2.28014 0
M  V30 33104 H 3141.93 -5.61121 -0.718283 0
M  V30 33105 H 3140.49 -6.5028 -0.444938 0
M  V30 33106 N 3143.92 -1.05068 -1.17467 0
M  V30 33107 C 3145.15 -0.779236 -1.91341 0
M  V30 33108 C 3145.56 0.668733 -1.76988 0
M  V30 33109 O 3144.9 1.46846 -1.10372 0
M  V30 33110 C 3144.96 -1.07866 -3.42936 0
M  V30 33111 C 3144.63 -2.52256 -3.81072 0
M  V30 33112 C 3145.62 -3.50463 -3.84021 0
M  V30 33113 C 3143.31 -2.87232 -4.12071 0
M  V30 33114 C 3145.3 -4.81691 -4.17436 0
M  V30 33115 C 3142.99 -4.18664 -4.45156 0
M  V30 33116 C 3143.99 -5.15704 -4.47816 0
M  V30 33117 O 3143.67 -6.44778 -4.80122 0
M  V30 33118 H 3143.41 -0.282874 -0.61397 0
M  V30 33119 H 3145.96 -1.4042 -1.49905 0
M  V30 33120 H 3144.19 -0.396598 -3.84661 0
M  V30 33121 H 3145.88 -0.793427 -3.9807 0
M  V30 33122 H 3146.65 -3.24781 -3.60197 0
M  V30 33123 H 3142.52 -2.12365 -4.09173 0
M  V30 33124 H 3146.07 -5.57428 -4.19427 0
M  V30 33125 H 3141.97 -4.44109 -4.68441 0
M  V30 33126 H 3142.73 -6.4958 -4.97984 0
M  V30 33127 N 3145.4 1.33878 -0.831529 0
M  V30 33128 C 3146.67 1.92517 -0.345941 0
M  V30 33129 C 3147.05 1.75856 1.16781 0
M  V30 33130 O 3146.4 1.14249 1.97887 0
M  V30 33131 C 3146.61 3.40063 -0.784752 0
M  V30 33132 C 3147.96 4.17214 -0.788534 0
M  V30 33133 O 3148.98 3.48684 -0.727884 0
M  V30 33134 O 3147.84 5.39537 -0.869576 0
M  V30 33135 H 3144.94 0.821366 -0.0963713 0
M  V30 33136 H 3147.48 1.42798 -0.916893 0
M  V30 33137 H 3146.25 3.46028 -1.82703 0
M  V30 33138 H 3145.88 3.97146 -0.189967 0
M  V30 33139 N 3146.87 0.587281 1.46249 0
M  V30 33140 C 3148.12 0.0744628 2.01963 0
M  V30 33141 C 3148.44 -1.29187 1.46068 0
M  V30 33142 O 3147.71 -1.84904 0.647109 0
M  V30 33143 H 3146.29 0.0245367 0.746597 0
M  V30 33144 H 3148.96 0.764095 1.79298 0
M  V30 33145 H 3148.05 0.00890379 3.12099 0
M  V30 33146 N 3148.35 -1.54206 0.325309 0
M  V30 33147 C 3149.28 -2.27346 -0.532534 0
M  V30 33148 C 3150.26 -1.28208 -1.11789 0
M  V30 33149 O 3151.45 -1.57023 -1.14269 0
M  V30 33150 C 3148.58 -3.03258 -1.69268 0
M  V30 33151 C 3147.53 -4.09748 -1.23655 0
M  V30 33152 C 3146.86 -4.73511 -2.48378 0
M  V30 33153 C 3148.16 -5.21125 -0.350152 0
M  V30 33154 H 3149.85 -2.993 0.0775635 0
M  V30 33155 H 3147.4 -1.43948 0.0387446 0
M  V30 33156 H 3149.35 -3.53156 -2.29911 0
M  V30 33157 H 3148.08 -2.28925 -2.3294 0
M  V30 33158 H 3146.73 -3.60737 -0.653043 0
M  V30 33159 H 3146.38 -3.95791 -3.10417 0
M  V30 33160 H 3146.08 -5.45445 -2.18548 0
M  V30 33161 H 3147.61 -5.26183 -3.09779 0
M  V30 33162 H 3149.02 -5.66769 -0.862912 0
M  V30 33163 H 3147.42 -5.99926 -0.144555 0
M  V30 33164 H 3148.49 -4.80939 0.618542 0
M  V30 33165 N 3149.83 -0.0535194 -1.57509 0
M  V30 33166 C 3151.08 0.618514 -1.92403 0
M  V30 33167 C 3151.4 1.71244 -0.93276 0
M  V30 33168 O 3150.67 1.95888 0.0220151 0
M  V30 33169 H 3149.25 0.231457 -0.710237 0
M  V30 33170 H 3151.91 -0.107074 -1.94606 0
M  V30 33171 H 3151.01 1.05561 -2.93706 0
M  V30 33172 N 3151.31 1.56059 0.219886 0
M  V30 33173 C 3152.22 1.95721 1.29346 0
M  V30 33174 C 3153.24 0.861275 1.51189 0
M  V30 33175 O 3154.41 1.16498 1.64287 0
M  V30 33176 C 3151.48 2.26731 2.62286 0
M  V30 33177 C 3150.54 3.49902 2.48731 0
M  V30 33178 C 3149.77 3.79423 3.75332 0
M  V30 33179 O 3149.99 3.10595 4.78421 0
M  V30 33180 O 3148.93 4.7291 3.72344 0
M  V30 33181 H 3152.75 2.87217 0.986929 0
M  V30 33182 H 3150.34 1.4329 0.422885 0
M  V30 33183 H 3152.22 2.47863 3.40796 0
M  V30 33184 H 3150.9 1.38409 2.92617 0
M  V30 33185 H 3149.8 3.34046 1.68416 0
M  V30 33186 H 3151.14 4.38612 2.2334 0
M  V30 33187 N 3152.79 -0.486655 1.49898 0
M  V30 33188 C 3153.72 -1.59491 1.70543 0
M  V30 33189 C 3154.7 -1.60818 0.554213 0
M  V30 33190 O 3155.88 -1.77332 0.791648 0
M  V30 33191 C 3153.01 -2.97905 1.78522 0
M  V30 33192 C 3151.97 -3.11444 2.93576 0
M  V30 33193 C 3151.29 -4.51351 2.86682 0
M  V30 33194 C 3152.59 -2.90119 4.34313 0
M  V30 33195 H 3154.29 -1.42467 2.63331 0
M  V30 33196 H 3151.83 -0.683947 1.26721 0
M  V30 33197 H 3153.79 -3.75348 1.9155 0
M  V30 33198 H 3152.51 -3.16049 0.823437 0
M  V30 33199 H 3151.17 -2.36429 2.80173 0
M  V30 33200 H 3150.82 -4.66392 1.88381 0
M  V30 33201 H 3150.52 -4.61348 3.63912 0
M  V30 33202 H 3152.04 -5.30836 3.01737 0
M  V30 33203 H 3153.46 -3.57323 4.48323 0
M  V30 33204 H 3151.85 -3.11576 5.12875 0
M  V30 33205 H 3152.92 -1.86111 4.47762 0
M  V30 33206 N 3154.27 -1.39214 -0.738737 0
M  V30 33207 C 3155.2 -1.40367 -1.866 0
M  V30 33208 C 3156.18 -0.267525 -1.67983 0
M  V30 33209 O 3157.36 -0.472798 -1.88357 0
M  V30 33210 C 3154.49 -1.2427 -3.24306 0
M  V30 33211 C 3153.45 -2.35245 -3.57552 0
M  V30 33212 C 3152.77 -2.04241 -4.94155 0
M  V30 33213 C 3154.07 -3.77549 -3.60907 0
M  V30 33214 H 3155.77 -2.34701 -1.85892 0
M  V30 33215 H 3153.31 -1.12972 -0.892939 0
M  V30 33216 H 3155.26 -1.23699 -4.02836 0
M  V30 33217 H 3153.99 -0.264032 -3.25531 0
M  V30 33218 H 3152.65 -2.35027 -2.8135 0
M  V30 33219 H 3152.3 -1.04821 -4.91957 0
M  V30 33220 H 3152 -2.78576 -5.17368 0
M  V30 33221 H 3153.52 -2.05313 -5.75047 0
M  V30 33222 H 3154.93 -3.79717 -4.29521 0
M  V30 33223 H 3153.33 -4.51212 -3.95636 0
M  V30 33224 H 3154.4 -4.08795 -2.60796 0
M  V30 33225 N 3155.74 0.968523 -1.24328 0
M  V30 33226 C 3157.16 1.23699 -1.00849 0
M  V30 33227 C 3157.36 1.995 0.2832 0
M  V30 33228 O 3156.42 2.31873 0.999567 0
M  V30 33229 C 3157.73 2.02494 -2.22299 0
M  V30 33230 C 3159.28 2.15589 -2.26915 0
M  V30 33231 C 3159.75 2.97778 -3.47983 0
M  V30 33232 N 3161.24 3.05361 -3.48295 0
M  V30 33233 C 3161.98 3.69311 -4.38631 0
M  V30 33234 N 3161.47 4.34986 -5.39221 0
M  V30 33235 N 3163.27 3.66314 -4.26345 0
M  V30 33236 H 3155.42 0.461051 -2.07336 0
M  V30 33237 H 3157.68 0.266364 -0.90981 0
M  V30 33238 H 3157.39 1.54183 -3.16102 0
M  V30 33239 H 3157.26 3.03228 -2.2435 0
M  V30 33240 H 3159.65 2.63104 -1.33643 0
M  V30 33241 H 3159.73 1.14205 -2.2889 0
M  V30 33242 H 3159.37 2.50958 -4.41568 0
M  V30 33243 H 3159.3 3.99358 -3.43251 0
M  V30 33244 H 3161.79 2.58643 -2.75522 0
M  V30 33245 H 3162.11 4.81598 -6.04387 0
M  V30 33246 H 3160.45 4.33657 -5.43108 0
M  V30 33247 H 3163.64 3.14183 -3.46997 0
M  V30 33248 H 3163.82 4.1587 -4.96947 0
M  V30 33249 N 3157.22 1.0569 1.16908 0
M  V30 33250 C 3158.18 0.666471 2.19296 0
M  V30 33251 C 3159.18 -0.284646 1.58261 0
M  V30 33252 O 3160.37 -0.0678451 1.74068 0
M  V30 33253 C 3157.51 -0.0203056 3.40894 0
M  V30 33254 H 3158.7 1.57276 2.55351 0
M  V30 33255 H 3156.25 0.851382 1.31077 0
M  V30 33256 H 3156.99 -0.939631 3.10389 0
M  V30 33257 H 3156.77 0.663532 3.86445 0
M  V30 33258 H 3158.26 -0.279402 4.16664 0
M  V30 33259 N 3158.7 -1.33435 0.838617 0
M  V30 33260 C 3159.63 -2.31733 0.286713 0
M  V30 33261 C 3160.61 -1.58961 -0.605423 0
M  V30 33262 O 3161.8 -1.86855 -0.529026 0
M  V30 33263 C 3158.93 -3.43088 -0.539251 0
M  V30 33264 C 3157.88 -4.27227 0.257072 0
M  V30 33265 C 3157.21 -5.30195 -0.692625 0
M  V30 33266 C 3158.51 -5.01069 1.474 0
M  V30 33267 H 3160.2 -2.78142 1.10803 0
M  V30 33268 H 3157.75 -1.33722 0.534259 0
M  V30 33269 H 3159.7 -4.10881 -0.935652 0
M  V30 33270 H 3158.42 -2.95367 -1.39378 0
M  V30 33271 H 3157.08 -3.61058 0.63503 0
M  V30 33272 H 3156.73 -4.78731 -1.54354 0
M  V30 33273 H 3156.43 -5.87371 -0.16392 0
M  V30 33274 H 3157.95 -6.00855 -1.08655 0
M  V30 33275 H 3159.37 -5.61632 1.15077 0
M  V30 33276 H 3157.76 -5.67895 1.93947 0
M  V30 33277 H 3158.83 -4.29857 2.2439 0
M  V30 33278 N 3160.18 -0.595029 -1.45935 0
M  V30 33279 C 3161.59 -0.171812 -1.85908 0
M  V30 33280 C 3161.94 1.26822 -1.49702 0
M  V30 33281 O 3161.06 1.95977 -0.917722 0
M  V30 33282 C 3161.66 -0.305035 -3.37424 0
M  V30 33283 C 3160.22 0.0633973 -3.76347 0
M  V30 33284 C 3159.37 -0.635303 -2.69924 0
M  V30 33285 H 3162.32 -0.802495 -1.36915 0
M  V30 33286 H 3162.34 0.466246 -3.77633 0
M  V30 33287 H 3161.85 -1.3532 -3.63744 0
M  V30 33288 H 3159.95 1.11123 -3.55644 0
M  V30 33289 H 3160.06 -0.321503 -4.7802 0
M  V30 33290 H 3158.43 -0.0742502 -2.54592 0
M  V30 33291 H 3159.21 -1.68536 -2.99083 0
M  V30 33292 N 3161.66 1.54031 -0.333483 0
M  V30 33293 C 3163.07 1.59589 0.0188125 0
M  V30 33294 C 3163.27 1.34975 1.49613 0
M  V30 33295 O 3162.33 1.13905 2.25348 0
M  V30 33296 C 3163.64 2.97915 -0.408325 0
M  V30 33297 C 3165.19 3.10925 -0.359818 0
M  V30 33298 C 3165.66 4.51612 -0.762269 0
M  V30 33299 N 3167.15 4.57632 -0.716061 0
M  V30 33300 C 3167.89 5.64621 -0.999536 0
M  V30 33301 N 3167.39 6.79507 -1.35065 0
M  V30 33302 N 3169.18 5.54446 -0.92444 0
M  V30 33303 H 3161.33 1.68286 -1.2959 0
M  V30 33304 H 3163.59 0.78762 -0.527598 0
M  V30 33305 H 3163.3 3.20959 -1.43799 0
M  V30 33306 H 3163.17 3.76548 0.221619 0
M  V30 33307 H 3165.56 2.8761 0.660652 0
M  V30 33308 H 3165.64 2.34373 -1.02483 0
M  V30 33309 H 3165.28 4.75661 -1.7807 0
M  V30 33310 H 3165.21 5.26547 -0.0748403 0
M  V30 33311 H 3167.71 3.75127 -0.456941 0
M  V30 33312 H 3168.02 7.57054 -1.55207 0
M  V30 33313 H 3166.36 6.80978 -1.38901 0
M  V30 33314 H 3169.55 4.63571 -0.649551 0
M  V30 33315 H 3169.73 6.37737 -1.14871 0
M  V30 33316 N 3163.13 0.0618717 1.57479 0
M  V30 33317 C 3164.1 -0.89409 2.11042 0
M  V30 33318 C 3165.1 -1.2329 1.03229 0
M  V30 33319 O 3166.29 -1.16782 1.29258 0
M  V30 33320 C 3163.42 -2.20065 2.60354 0
M  V30 33321 H 3164.61 -0.429567 2.96808 0
M  V30 33322 H 3162.16 -0.186693 1.55181 0
M  V30 33323 H 3162.9 -2.71075 1.78013 0
M  V30 33324 H 3162.68 -1.96774 3.3915 0
M  V30 33325 H 3164.17 -2.88519 3.01905 0
M  V30 33326 N 3164.61 -1.56173 -0.211607 0
M  V30 33327 C 3165.84 -1.83474 -0.949772 0
M  V30 33328 C 3166.25 -0.640084 -1.78044 0
M  V30 33329 O 3165.59 0.40067 -1.79277 0
M  V30 33330 C 3165.66 -3.0465 -1.90862 0
M  V30 33331 C 3165.32 -4.39243 -1.26152 0
M  V30 33332 C 3166.32 -5.15865 -0.646507 0
M  V30 33333 C 3164 -4.85972 -1.27031 0
M  V30 33334 C 3166 -6.37381 -0.0489192 0
M  V30 33335 C 3163.68 -6.07428 -0.66888 0
M  V30 33336 C 3164.68 -6.82974 -0.0592487 0
M  V30 33337 O 3164.37 -8.02132 0.532797 0
M  V30 33338 H 3164.1 -0.613705 -0.283447 0
M  V30 33339 H 3166.65 -2.04121 -0.228904 0
M  V30 33340 H 3164.88 -2.79847 -2.66875 0
M  V30 33341 H 3166.57 -3.18738 -2.51318 0
M  V30 33342 H 3167.34 -4.80865 -0.631971 0
M  V30 33343 H 3163.22 -4.27137 -1.73421 0
M  V30 33344 H 3166.76 -6.96289 0.427536 0
M  V30 33345 H 3162.66 -6.41899 -0.680862 0
M  V30 33346 H 3163.43 -8.1738 0.428086 0
M  V30 33347 N 3166.09 0.478699 -1.50154 0
M  V30 33348 C 3167.32 1.25479 -1.64507 0
M  V30 33349 C 3167.73 1.85976 -0.325328 0
M  V30 33350 O 3167.09 1.68878 0.691855 0
M  V30 33351 C 3167.14 2.36902 -2.73057 0
M  V30 33352 O 3166.86 1.78887 -3.99914 0
M  V30 33353 C 3168.36 3.27907 -2.98315 0
M  V30 33354 H 3165.58 0.379771 -0.553186 0
M  V30 33355 H 3168.13 0.572255 -1.9633 0
M  V30 33356 H 3166.28 3.00945 -2.43949 0
M  V30 33357 H 3166.7 2.52203 -4.59884 0
M  V30 33358 H 3168.17 4.02317 -3.77949 0
M  V30 33359 H 3168.65 3.86236 -2.09089 0
M  V30 33360 H 3169.25 2.69609 -3.28924 0
M  V30 33361 N 3167.57 1.39603 0.731343 0
M  V30 33362 C 3168.82 1.36336 1.48645 0
M  V30 33363 C 3169.13 -0.0367039 1.95566 0
M  V30 33364 O 3170.34 -0.191969 2.7082 0
M  V30 33365 C 3168.79 2.39532 2.68612 0
M  V30 33366 C 3168.4 3.85272 2.28625 0
M  V30 33367 C 3170.14 2.45347 3.46418 0
M  V30 33368 C 3168.05 4.80101 3.45337 0
M  V30 33369 H 3166.98 0.506871 0.558209 0
M  V30 33370 H 3169.63 1.65267 0.797438 0
M  V30 33371 H 3168.01 2.03677 3.39605 0
M  V30 33372 H 3169.19 4.30187 1.65154 0
M  V30 33373 H 3167.5 3.82786 1.63902 0
M  V30 33374 H 3170.1 3.13386 4.33236 0
M  V30 33375 H 3170.44 1.47911 3.89138 0
M  V30 33376 H 3170.98 2.80113 2.82456 0
M  V30 33377 H 3167.72 5.78812 3.07663 0
M  V30 33378 H 3167.24 4.39862 4.07776 0
M  V30 33379 H 3168.91 4.99176 4.11621 0
M  V30 33380 N 3169.05 -0.961916 1.2484 0
M  V30 33381 C 3170.27 -1.74578 1.1197 0
M  V30 33382 C 3170.7 -1.85302 -0.323254 0
M  V30 33383 O 3170.05 -1.32815 -1.2341 0
M  V30 33384 C 3170.1 -3.14131 1.77071 0
M  V30 33385 O 3169.21 -3.9893 1.04541 0
M  V30 33386 H 3168.55 -0.536417 0.391348 0
M  V30 33387 H 3171.08 -1.20623 1.65261 0
M  V30 33388 H 3171.09 -3.64626 1.83062 0
M  V30 33389 H 3169.76 -3.05641 2.82057 0
M  V30 33390 H 3168.34 -3.57405 1.06378 0
M  V30 33391 N 3170.52 -1.06308 -1.16346 0
M  V30 33392 C 3171.94 -0.804249 -1.6849 0
M  V30 33393 C 3172.29 0.672126 -1.84328 0
M  V30 33394 O 3171.41 1.52136 -1.53894 0
M  V30 33395 C 3172.01 -1.45333 -3.06045 0
M  V30 33396 C 3170.57 -1.24227 -3.55309 0
M  V30 33397 C 3169.71 -1.52974 -2.31288 0
M  V30 33398 H 3172.66 -1.22654 -1.00706 0
M  V30 33399 H 3172.68 -0.868739 -3.7045 0
M  V30 33400 H 3172.2 -2.52784 -2.94485 0
M  V30 33401 H 3170.3 -0.187513 -3.72128 0
M  V30 33402 H 3170.41 -1.9551 -4.37393 0
M  V30 33403 H 3168.77 -0.950283 -2.36309 0
M  V30 33404 H 3169.56 -2.61584 -2.22326 0
M  V30 33405 N 3172 1.32989 -0.845682 0
M  V30 33406 C 3173.23 2.02292 -0.457471 0
M  V30 33407 C 3173.65 1.63181 0.935606 0
M  V30 33408 O 3173.01 0.827864 1.61295 0
M  V30 33409 C 3173.06 3.55679 -0.593728 0
M  V30 33410 O 3172.16 4.10671 0.377218 0
M  V30 33411 H 3171.5 0.637698 -0.185033 0
M  V30 33412 H 3174.03 1.69736 -1.1424 0
M  V30 33413 H 3174.04 4.05191 -0.477905 0
M  V30 33414 H 3172.72 3.83489 -1.60964 0
M  V30 33415 H 3171.3 3.7226 0.218383 0
M  V30 33416 N 3173.48 0.60276 1.45618 0
M  V30 33417 C 3174.71 0.100465 2.07157 0
M  V30 33418 C 3175.13 -1.2039 1.44526 0
M  V30 33419 O 3174.49 -1.73189 0.536221 0
M  V30 33420 C 3174.54 -0.030797 3.60587 0
M  V30 33421 O 3173.64 -1.08227 3.97946 0
M  V30 33422 H 3172.98 0.0718759 0.660098 0
M  V30 33423 H 3175.51 0.831399 1.86946 0
M  V30 33424 H 3175.52 -0.230563 4.07348 0
M  V30 33425 H 3174.2 0.921652 4.05559 0
M  V30 33426 H 3172.77 -0.85935 3.62863 0
M  V30 33427 N 3174.96 -1.53852 0.341647 0
M  V30 33428 C 3176.2 -2.0118 -0.255827 0
M  V30 33429 C 3176.54 -1.22912 -1.50354 0
M  V30 33430 O 3175.81 -0.316232 -1.91912 0
M  V30 33431 C 3176.1 -3.5553 -0.571871 0
M  V30 33432 C 3175.95 -4.4451 0.687805 0
M  V30 33433 C 3177.27 -4.1783 -1.38225 0
M  V30 33434 H 3174.39 -0.731297 -0.0915081 0
M  V30 33435 H 3177.03 -1.84302 0.461808 0
M  V30 33436 H 3175.18 -3.70043 -1.18324 0
M  V30 33437 H 3176.85 -4.41837 1.3258 0
M  V30 33438 H 3175.09 -4.1345 1.31308 0
M  V30 33439 H 3175.76 -5.50385 0.421955 0
M  V30 33440 H 3178.24 -4.07003 -0.865303 0
M  V30 33441 H 3177.12 -5.25904 -1.57214 0
M  V30 33442 H 3177.38 -3.72327 -2.38379 0
M  V30 33443 N 3176.44 -0.0702223 -1.57443 0
M  V30 33444 C 3177.35 0.912339 -2.16133 0
M  V30 33445 C 3178.36 1.32817 -1.12409 0
M  V30 33446 O 3179.54 1.40119 -1.44667 0
M  V30 33447 C 3176.6 2.16226 -2.71011 0
M  V30 33448 C 3175.66 1.80299 -3.89603 0
M  V30 33449 C 3174.9 2.99333 -4.41855 0
M  V30 33450 O 3175.12 4.13302 -3.93113 0
M  V30 33451 O 3174.05 2.7924 -5.33206 0
M  V30 33452 H 3177.88 0.443114 -3.0045 0
M  V30 33453 H 3175.47 0.15276 -1.48617 0
M  V30 33454 H 3177.35 2.89525 -3.06192 0
M  V30 33455 H 3176.02 2.62249 -1.89755 0
M  V30 33456 H 3174.93 1.04257 -3.59279 0
M  V30 33457 H 3176.26 1.3906 -4.72147 0
M  V30 33458 N 3177.91 1.56283 0.203321 0
M  V30 33459 C 3179.19 1.70959 0.950385 0
M  V30 33460 C 3179.57 0.622683 2.01707 0
M  V30 33461 O 3178.92 -0.367595 2.25524 0
M  V30 33462 C 3179.13 3.12974 1.54428 0
M  V30 33463 C 3180.48 3.72953 2.02957 0
M  V30 33464 O 3181.5 3.16051 1.64287 0
M  V30 33465 O 3180.36 4.72798 2.74089 0
M  V30 33466 H 3177.45 0.696978 0.445141 0
M  V30 33467 H 3180 1.68591 0.193666 0
M  V30 33468 H 3178.77 3.83549 0.774983 0
M  V30 33469 H 3178.4 3.19536 2.36606 0
M  V30 33470 N 3179.39 -0.470729 1.50406 0
M  V30 33471 C 3180.62 -1.24605 1.6517 0
M  V30 33472 C 3181.04 -1.85801 0.335186 0
M  V30 33473 O 3180.39 -1.69242 -0.68289 0
M  V30 33474 C 3180.44 -2.3545 2.74309 0
M  V30 33475 O 3180.17 -1.76764 4.00857 0
M  V30 33476 C 3181.67 -3.26321 3.0005 0
M  V30 33477 H 3178.89 -0.376832 0.555192 0
M  V30 33478 H 3181.43 -0.561835 1.96631 0
M  V30 33479 H 3179.59 -2.99647 2.45542 0
M  V30 33480 H 3180 -2.49761 4.61215 0
M  V30 33481 H 3181.47 -4.00307 3.80077 0
M  V30 33482 H 3181.95 -3.85122 2.11134 0
M  V30 33483 H 3182.56 -2.6786 3.3035 0
M  V30 33484 N 3180.87 -1.39989 -0.72393 0
M  V30 33485 C 3181.8 -1.33988 -1.84722 0
M  V30 33486 C 3182.78 -0.211651 -1.61217 0
M  V30 33487 O 3183.97 -0.393938 -1.84338 0
M  V30 33488 C 3181.09 -1.08322 -3.20911 0
M  V30 33489 C 3180.14 -2.23485 -3.63259 0
M  V30 33490 S 3180.97 -3.85833 -3.7134 0
M  V30 33491 C 3182.13 -3.62414 -5.10301 0
M  V30 33492 H 3182.36 -2.29053 -1.89531 0
M  V30 33493 H 3179.89 -1.26176 -0.889889 0
M  V30 33494 H 3181.85 -0.941991 -3.99546 0
M  V30 33495 H 3180.51 -0.149259 -3.13745 0
M  V30 33496 H 3179.71 -2.01147 -4.62121 0
M  V30 33497 H 3179.31 -2.33868 -2.91859 0
M  V30 33498 H 3181.6 -3.20365 -5.9697 0
M  V30 33499 H 3182.54 -4.60778 -5.37671 0
M  V30 33500 H 3182.95 -2.96277 -4.805 0
M  V30 33501 N 3182.35 0.955282 -1.25348 0
M  V30 33502 C 3183.57 1.73981 -1.12895 0
M  V30 33503 C 3184 1.8547 0.313423 0
M  V30 33504 O 3183.36 1.33467 1.22704 0
M  V30 33505 C 3183.41 3.13187 -1.78735 0
M  V30 33506 O 3182.51 3.9837 -1.06655 0
M  V30 33507 H 3181.85 0.534334 -0.394187 0
M  V30 33508 H 3184.38 1.19745 -1.65899 0
M  V30 33509 H 3184.39 3.6365 -1.84994 0
M  V30 33510 H 3183.07 3.04141 -2.83674 0
M  V30 33511 H 3181.64 3.56836 -1.08272 0
M  V30 33512 N 3183.83 1.06924 1.1578 0
M  V30 33513 C 3184.76 0.707084 2.22537 0
M  V30 33514 C 3185.74 -0.303441 1.67372 0
M  V30 33515 O 3186.92 -0.177155 1.9339 0
M  V30 33516 C 3184.05 0.0994879 3.47157 0
M  V30 33517 C 3183.01 1.03669 4.15255 0
M  V30 33518 C 3182.33 0.292068 5.33902 0
M  V30 33519 C 3183.63 2.36845 4.65512 0
M  V30 33520 H 3185.33 1.59962 2.53086 0
M  V30 33521 H 3182.87 0.770573 1.21648 0
M  V30 33522 H 3184.83 -0.165778 4.21074 0
M  V30 33523 H 3183.55 -0.828099 3.15927 0
M  V30 33524 H 3182.21 1.2868 3.43274 0
M  V30 33525 H 3181.86 -0.63884 4.98927 0
M  V30 33526 H 3181.56 0.916716 5.80405 0
M  V30 33527 H 3183.08 0.0344988 6.1059 0
M  V30 33528 H 3184.5 2.16184 5.30978 0
M  V30 33529 H 3182.89 2.94865 5.22661 0
M  V30 33530 H 3183.96 2.9946 3.81381 0
M  V30 33531 N 3185.31 -1.32538 0.852723 0
M  V30 33532 C 3186.24 -2.31416 0.311275 0
M  V30 33533 C 3187.22 -1.59594 -0.588529 0
M  V30 33534 O 3188.4 -1.87406 -0.509178 0
M  V30 33535 C 3185.53 -3.43641 -0.502831 0
M  V30 33536 C 3184.49 -4.26931 0.302371 0
M  V30 33537 C 3183.81 -5.309 -0.636351 0
M  V30 33538 C 3185.11 -4.99478 1.52706 0
M  V30 33539 H 3186.81 -2.76951 1.13747 0
M  V30 33540 H 3184.35 -1.33148 0.548412 0
M  V30 33541 H 3186.3 -4.11851 -0.89202 0
M  V30 33542 H 3185.03 -2.96828 -1.36237 0
M  V30 33543 H 3183.69 -3.60364 0.67329 0
M  V30 33544 H 3183.34 -4.80342 -1.49268 0
M  V30 33545 H 3183.04 -5.87512 -0.101612 0
M  V30 33546 H 3184.56 -6.01973 -1.02276 0
M  V30 33547 H 3185.97 -5.6038 1.21027 0
M  V30 33548 H 3184.37 -5.65806 1.99959 0
M  V30 33549 H 3185.44 -4.27453 2.28936 0
M  V30 33550 N 3186.78 -0.610474 -1.45296 0
M  V30 33551 C 3187.69 0.108434 -2.34349 0
M  V30 33552 C 3188.71 0.85737 -1.51411 0
M  V30 33553 O 3189.89 0.814304 -1.84204 0
M  V30 33554 C 3186.95 1.09138 -3.29074 0
M  V30 33555 C 3186.01 0.344089 -4.27919 0
M  V30 33556 C 3185.24 1.28021 -5.18118 0
M  V30 33557 O 3185.47 2.51815 -5.11806 0
M  V30 33558 O 3184.4 0.775716 -5.9688 0
M  V30 33559 H 3188.23 -0.623474 -2.97231 0
M  V30 33560 H 3185.81 -0.370725 -1.44727 0
M  V30 33561 H 3187.69 1.65744 -3.87436 0
M  V30 33562 H 3186.37 1.80427 -2.68752 0
M  V30 33563 H 3185.28 -0.264502 -3.73164 0
M  V30 33564 H 3186.61 -0.328362 -4.91103 0
M  V30 33565 N 3188.26 1.53669 -0.349801 0
M  V30 33566 C 3189.5 2.02926 0.245059 0
M  V30 33567 C 3189.87 1.23192 1.47268 0
M  V30 33568 O 3191.07 1.62378 2.14212 0
M  V30 33569 C 3189.34 3.53215 0.54533 0
M  V30 33570 S 3190.9 4.24368 1.11611 0
M  V30 33571 H 3187.71 0.707291 0.0725243 0
M  V30 33572 H 3190.32 1.89285 -0.489013 0
M  V30 33573 H 3189.02 4.08854 -0.355858 0
M  V30 33574 H 3188.55 3.70987 1.3089 0
M  V30 33575 H 3190.57 4.34218 2.40144 0
M  V30 33576 N 3189.74 0.0785709 1.57404 0
M  V30 33577 C 3190.67 -0.883688 2.16132 0
M  V30 33578 C 3191.65 -1.30573 1.09017 0
M  V30 33579 O 3192.84 -1.37557 1.37083 0
M  V30 33580 C 3189.97 -2.14885 2.7284 0
M  V30 33581 C 3188.92 -1.86599 3.85182 0
M  V30 33582 C 3188.25 -3.19803 4.28521 0
M  V30 33583 C 3189.55 -1.16592 5.0912 0
M  V30 33584 H 3191.24 -0.394431 2.9679 0
M  V30 33585 H 3188.79 -0.188279 1.42764 0
M  V30 33586 H 3190.74 -2.82624 3.12572 0
M  V30 33587 H 3189.46 -2.66065 1.89413 0
M  V30 33588 H 3188.12 -1.21262 3.45964 0
M  V30 33589 H 3187.77 -3.68837 3.42006 0
M  V30 33590 H 3187.47 -3.01665 5.04254 0
M  V30 33591 H 3188.99 -3.88728 4.70874 0
M  V30 33592 H 3190.41 -1.74412 5.46126 0
M  V30 33593 H 3188.8 -1.0869 5.90175 0
M  V30 33594 H 3189.87 -0.146052 4.8468 0
M  V30 33595 N 3191.22 -1.56389 -0.19503 0
M  V30 33596 C 3192.47 -1.80271 -0.913604 0
M  V30 33597 C 3192.79 -0.651638 -1.8379 0
M  V30 33598 O 3192.06 0.330023 -1.931 0
M  V30 33599 H 3190.64 -0.66496 -0.340348 0
M  V30 33600 H 3193.3 -1.93866 -0.200525 0
M  V30 33601 H 3192.39 -2.73433 -1.50468 0
M  V30 33602 N 3192.7 0.462746 -1.50653 0
M  V30 33603 C 3193.63 1.57737 -1.66288 0
M  V30 33604 C 3194.64 1.53438 -0.544121 0
M  V30 33605 O 3195.83 1.58675 -0.817594 0
M  V30 33606 C 3192.93 2.96632 -1.63898 0
M  V30 33607 C 3192.1 3.2571 -2.91944 0
M  V30 33608 C 3191.16 4.44201 -2.82084 0
M  V30 33609 O 3190.19 4.44099 -3.5604 0
M  V30 33610 N 3191.39 5.46337 -1.96205 0
M  V30 33611 H 3194.15 1.44738 -2.62433 0
M  V30 33612 H 3191.72 0.6513 -1.48222 0
M  V30 33613 H 3193.71 3.73881 -1.54904 0
M  V30 33614 H 3192.28 3.03357 -0.754544 0
M  V30 33615 H 3191.5 2.36996 -3.15002 0
M  V30 33616 H 3192.79 3.41953 -3.76756 0
M  V30 33617 H 3192.18 5.49245 -1.35449 0
M  V30 33618 H 3190.74 6.22537 -1.93108 0
M  V30 33619 N 3194.17 1.40371 0.716495 0
M  V30 33620 C 3195.42 1.37905 1.47191 0
M  V30 33621 C 3195.74 -0.0159595 1.95593 0
M  V30 33622 O 3196.94 -0.163234 2.71009 0
M  V30 33623 C 3195.4 2.42368 2.66056 0
M  V30 33624 C 3195.01 3.87675 2.24526 0
M  V30 33625 C 3196.75 2.49007 3.43796 0
M  V30 33626 C 3194.66 4.83736 3.40225 0
M  V30 33627 H 3193.59 0.512763 0.552802 0
M  V30 33628 H 3196.24 1.66103 0.779865 0
M  V30 33629 H 3194.62 2.07268 3.37426 0
M  V30 33630 H 3195.79 4.31914 1.60582 0
M  V30 33631 H 3194.11 3.84503 1.59833 0
M  V30 33632 H 3196.71 3.17964 4.29887 0
M  V30 33633 H 3197.05 1.5203 3.87547 0
M  V30 33634 H 3197.58 2.83093 2.79469 0
M  V30 33635 H 3194.32 5.82043 3.01507 0
M  V30 33636 H 3193.84 4.44163 4.03088 0
M  V30 33637 H 3195.52 5.03514 4.06303 0
M  V30 33638 N 3195.65 -0.948621 1.25853 0
M  V30 33639 C 3197.07 -1.22079 1.02805 0
M  V30 33640 C 3197.27 -1.99925 -0.251426 0
M  V30 33641 O 3196.32 -2.33434 -0.962551 0
M  V30 33642 C 3197.64 -1.98932 2.25492 0
M  V30 33643 C 3199.19 -2.11952 2.30316 0
M  V30 33644 C 3199.66 -2.92204 3.52676 0
M  V30 33645 N 3201.15 -2.99781 3.53109 0
M  V30 33646 C 3201.89 -3.62286 4.44451 0
M  V30 33647 N 3201.38 -4.26352 5.46073 0
M  V30 33648 N 3203.18 -3.59485 4.32119 0
M  V30 33649 H 3195.33 -0.428007 2.08043 0
M  V30 33650 H 3197.59 -0.251856 0.913933 0
M  V30 33651 H 3197.3 -1.49134 3.18515 0
M  V30 33652 H 3197.17 -2.9962 2.29145 0
M  V30 33653 H 3199.56 -2.60944 1.37812 0
M  V30 33654 H 3199.64 -1.10549 2.30678 0
M  V30 33655 H 3199.28 -2.43901 4.45505 0
M  V30 33656 H 3199.21 -3.93846 3.49561 0
M  V30 33657 H 3201.7 -2.54227 2.79602 0
M  V30 33658 H 3202.02 -4.71921 6.11972 0
M  V30 33659 H 3200.36 -4.24962 5.49939 0
M  V30 33660 H 3203.55 -3.08623 3.51951 0
M  V30 33661 H 3203.72 -4.07911 5.035 0
M  V30 33662 N 3197.13 -1.07536 -1.15212 0
M  V30 33663 C 3198.36 -0.820917 -1.90462 0
M  V30 33664 C 3198.78 0.620274 -1.77579 0
M  V30 33665 O 3198.14 1.43364 -1.10979 0
M  V30 33666 C 3198.19 -1.23633 -3.38744 0
M  V30 33667 O 3197.29 -0.382788 -4.1062 0
M  V30 33668 H 3196.63 -0.298911 -0.592915 0
M  V30 33669 H 3199.16 -1.43447 -1.45891 0
M  V30 33670 H 3199.17 -1.21333 -3.89541 0
M  V30 33671 H 3197.85 -2.28602 -3.47439 0
M  V30 33672 H 3196.42 -0.468439 -3.69946 0
M  V30 33673 N 3198.61 1.32084 -0.85974 0
M  V30 33674 C 3199.54 2.31248 -0.323543 0
M  V30 33675 C 3200.52 1.59904 0.580057 0
M  V30 33676 O 3201.7 1.87673 0.499232 0
M  V30 33677 C 3198.83 3.43902 0.4846 0
M  V30 33678 C 3197.79 4.26764 -0.325008 0
M  V30 33679 C 3197.11 5.3123 0.608187 0
M  V30 33680 C 3198.41 4.98661 -1.55353 0
M  V30 33681 H 3200.11 2.76344 -1.15214 0
M  V30 33682 H 3197.65 1.32855 -0.555465 0
M  V30 33683 H 3199.61 4.12318 0.870166 0
M  V30 33684 H 3198.33 2.97547 1.34661 0
M  V30 33685 H 3196.99 3.60002 -0.692391 0
M  V30 33686 H 3196.64 4.81126 1.46719 0
M  V30 33687 H 3196.34 5.87558 0.0704538 0
M  V30 33688 H 3197.86 6.02507 0.990819 0
M  V30 33689 H 3199.28 5.5973 -1.23997 0
M  V30 33690 H 3197.67 5.64737 -2.02957 0
M  V30 33691 H 3198.74 4.26233 -2.312 0
M  V30 33692 N 3200.09 0.618171 1.4497 0
M  V30 33693 C 3201.02 -0.0815544 2.33358 0
M  V30 33694 C 3202 -0.848047 1.47452 0
M  V30 33695 O 3203.18 -0.816501 1.76201 0
M  V30 33696 C 3200.31 -1.07247 3.30326 0
M  V30 33697 C 3199.27 -0.418488 4.25949 0
M  V30 33698 C 3198.59 -1.5184 5.12688 0
M  V30 33699 C 3199.89 0.667062 5.18023 0
M  V30 33700 H 3201.59 0.656494 2.92114 0
M  V30 33701 H 3199.13 0.317153 1.40464 0
M  V30 33702 H 3201.09 -1.57062 3.91036 0
M  V30 33703 H 3199.81 -1.84125 2.69751 0
M  V30 33704 H 3198.47 0.0588952 3.66553 0
M  V30 33705 H 3198.12 -2.27772 4.48474 0
M  V30 33706 H 3197.82 -1.08626 5.77472 0
M  V30 33707 H 3199.34 -2.01861 5.76268 0
M  V30 33708 H 3200.75 0.252548 5.72743 0
M  V30 33709 H 3199.15 1.02157 5.91341 0
M  V30 33710 H 3200.22 1.53944 4.59814 0
M  V30 33711 N 3201.56 -1.53481 0.357946 0
M  V30 33712 C 3202.81 -2.00324 -0.235206 0
M  V30 33713 C 3203.13 -1.24946 -1.50492 0
M  V30 33714 O 3204.33 -1.62339 -2.1762 0
M  V30 33715 C 3202.79 -3.56822 -0.469685 0
M  V30 33716 C 3202.4 -4.4107 0.784955 0
M  V30 33717 C 3204.14 -4.12041 -1.02091 0
M  V30 33718 C 3202.05 -5.89105 0.520481 0
M  V30 33719 H 3200.98 -0.748407 -0.0916685 0
M  V30 33720 H 3203.63 -1.77232 0.475505 0
M  V30 33721 H 3202.01 -3.76037 -1.24146 0
M  V30 33722 H 3203.18 -4.33629 1.55894 0
M  V30 33723 H 3201.5 -3.96916 1.25885 0
M  V30 33724 H 3204.1 -5.20266 -1.23397 0
M  V30 33725 H 3204.44 -3.66157 -1.98077 0
M  V30 33726 H 3204.97 -3.96594 -0.309485 0
M  V30 33727 H 3201.71 -6.39251 1.45046 0
M  V30 33728 H 3201.23 -5.99414 -0.215148 0
M  V30 33729 H 3202.91 -6.46842 0.143119 0
M  V30 33730 N 3203.04 -0.0869173 -1.5736 0
M  V30 33731 C 3204.29 0.579564 -1.94342 0
M  V30 33732 C 3204.62 1.6834 -0.968268 0
M  V30 33733 O 3203.9 1.945 4.87768e-05 0
M  V30 33734 C 3204.18 1.14239 -3.41499 0
M  V30 33735 C 3204.03 0.044176 -4.49778 0
M  V30 33736 C 3205.35 2.0433 -3.89792 0
M  V30 33737 H 3202.47 0.209208 -0.706683 0
M  V30 33738 H 3205.11 -0.155964 -1.89359 0
M  V30 33739 H 3203.26 1.76923 -3.45876 0
M  V30 33740 H 3204.93 -0.58967 -4.57516 0
M  V30 33741 H 3203.18 -0.623282 -4.29299 0
M  V30 33742 H 3203.85 0.478652 -5.49921 0
M  V30 33743 H 3206.32 1.51562 -3.87515 0
M  V30 33744 H 3205.2 2.4064 -4.93339 0
M  V30 33745 H 3205.46 2.95751 -3.28608 0
M  V30 33746 N 3204.52 1.5649 0.186734 0
M  V30 33747 C 3205.45 1.91747 1.25562 0
M  V30 33748 C 3206.47 0.808965 1.41278 0
M  V30 33749 O 3207.65 1.08739 1.41556 0
M  V30 33750 C 3204.75 2.14159 2.62658 0
M  V30 33751 C 3203.93 3.45337 2.68442 0
M  V30 33752 C 3202.99 3.56761 3.86792 0
M  V30 33753 O 3202.01 4.29513 3.73506 0
M  V30 33754 N 3203.21 2.90467 5.02602 0
M  V30 33755 H 3205.98 2.84033 0.956301 0
M  V30 33756 H 3203.54 1.57459 0.376603 0
M  V30 33757 H 3205.53 2.19081 3.40273 0
M  V30 33758 H 3204.1 1.28331 2.85044 0
M  V30 33759 H 3203.32 3.52209 1.77038 0
M  V30 33760 H 3204.61 4.31686 2.69303 0
M  V30 33761 H 3204.01 2.31203 5.16296 0
M  V30 33762 H 3202.57 3.01006 5.78134 0
M  V30 33763 N 3206 -0.45475 1.50897 0
M  V30 33764 C 3206.93 -1.56998 1.6561 0
M  V30 33765 C 3207.91 -1.54595 0.503897 0
M  V30 33766 O 3209.09 -1.73978 0.725516 0
M  V30 33767 C 3206.22 -2.95584 1.65372 0
M  V30 33768 C 3205.27 -3.1608 2.86349 0
M  V30 33769 S 3206.1 -2.94232 4.47424 0
M  V30 33770 C 3207.26 -4.3513 4.49903 0
M  V30 33771 H 3207.49 -1.4428 2.59943 0
M  V30 33772 H 3205.02 -0.64324 1.40363 0
M  V30 33773 H 3206.98 -3.75475 1.65918 0
M  V30 33774 H 3205.64 -3.05678 0.72246 0
M  V30 33775 H 3204.83 -4.17362 2.82533 0
M  V30 33776 H 3204.44 -2.43987 2.83454 0
M  V30 33777 H 3206.73 -5.28044 4.24471 0
M  V30 33778 H 3207.67 -4.43986 5.51618 0
M  V30 33779 H 3208.08 -4.17972 3.7942 0
M  V30 33780 N 3207.48 -1.40749 -0.709041 0
M  V30 33781 C 3208.72 -1.39106 -1.46608 0
M  V30 33782 C 3209.05 0.00361939 -1.95 0
M  V30 33783 O 3208.32 0.959511 -1.70793 0
M  V30 33784 H 3206.9 -0.511989 -0.543945 0
M  V30 33785 H 3209.56 -1.75864 -0.84011 0
M  V30 33786 H 3208.65 -2.06998 -2.33577 0
M  V30 33787 N 3208.96 0.941933 -1.26354 0
M  V30 33788 C 3210.37 1.50285 -1.10776 0
M  V30 33789 C 3210.72 1.937 0.312194 0
M  V30 33790 O 3209.84 1.7984 1.20361 0
M  V30 33791 C 3210.44 2.7312 -2.00477 0
M  V30 33792 C 3209 3.25481 -1.89047 0
M  V30 33793 C 3208.14 1.98264 -1.93873 0
M  V30 33794 H 3211.09 0.757498 -1.39455 0
M  V30 33795 H 3211.12 3.47399 -1.55222 0
M  V30 33796 H 3210.63 2.4149 -3.03816 0
M  V30 33797 H 3208.73 3.61903 -0.886405 0
M  V30 33798 H 3208.84 3.92638 -2.74539 0
M  V30 33799 H 3207.21 2.14129 -1.37916 0
M  V30 33800 H 3207.99 1.68967 -2.9884 0
M  V30 33801 N 3210.43 1.08146 1.1464 0
M  V30 33802 C 3211.37 0.666938 2.19282 0
M  V30 33803 C 3212.38 -0.28464 1.60292 0
M  V30 33804 O 3213.57 -0.0727069 1.78352 0
M  V30 33805 C 3210.67 -0.0397976 3.38877 0
M  V30 33806 C 3209.84 0.930004 4.27399 0
M  V30 33807 C 3208.9 0.259083 5.25562 0
M  V30 33808 O 3207.93 0.902661 5.61997 0
M  V30 33809 N 3209.13 -0.992077 5.7196 0
M  V30 33810 H 3211.89 1.56715 2.55461 0
M  V30 33811 H 3209.45 0.967193 1.29834 0
M  V30 33812 H 3211.45 -0.499513 4.01605 0
M  V30 33813 H 3210.02 -0.842065 3.01045 0
M  V30 33814 H 3209.24 1.56863 3.61646 0
M  V30 33815 H 3210.52 1.58726 4.83408 0
M  V30 33816 H 3209.92 -1.53474 5.44483 0
M  V30 33817 H 3208.48 -1.39533 6.3669 0
M  V30 33818 N 3211.91 -1.31626 0.866732 0
M  V30 33819 C 3212.82 -2.3236 0.323448 0
M  V30 33820 C 3213.84 -1.64573 -0.564966 0
M  V30 33821 O 3215.01 -1.96019 -0.462454 0
M  V30 33822 C 3212.08 -3.43513 -0.468985 0
M  V30 33823 C 3211.14 -4.26966 0.447004 0
M  V30 33824 C 3210.37 -5.32812 -0.307705 0
M  V30 33825 O 3210.6 -5.49324 -1.5362 0
M  V30 33826 O 3209.53 -6.00979 0.332759 0
M  V30 33827 H 3213.36 -2.80743 1.15832 0
M  V30 33828 H 3210.94 -1.35467 0.630011 0
M  V30 33829 H 3212.82 -4.11272 -0.918333 0
M  V30 33830 H 3211.5 -2.97298 -1.28046 0
M  V30 33831 H 3210.4 -3.61973 0.944783 0
M  V30 33832 H 3211.74 -4.76738 1.22398 0
M  V30 33833 N 3213.39 -0.62585 -1.4464 0
M  V30 33834 C 3214.3 0.0835721 -2.34451 0
M  V30 33835 C 3215.32 0.841263 -1.52311 0
M  V30 33836 O 3216.49 0.794721 -1.85057 0
M  V30 33837 C 3213.56 1.05642 -3.30213 0
M  V30 33838 C 3212.62 0.298683 -4.2826 0
M  V30 33839 C 3211.85 1.22519 -5.19447 0
M  V30 33840 O 3212.07 2.46372 -5.14448 0
M  V30 33841 O 3211.01 0.712365 -5.9767 0
M  V30 33842 H 3214.83 -0.654964 -2.96553 0
M  V30 33843 H 3212.42 -0.386055 -1.44326 0
M  V30 33844 H 3214.3 1.61625 -3.89172 0
M  V30 33845 H 3212.98 1.77566 -2.70651 0
M  V30 33846 H 3211.88 -0.304066 -3.72862 0
M  V30 33847 H 3213.22 -0.380431 -4.90728 0
M  V30 33848 N 3214.87 1.53289 -0.36608 0
M  V30 33849 C 3215.82 2.27266 0.495279 0
M  V30 33850 C 3216.81 1.30263 1.08296 0
M  V30 33851 O 3218.02 1.47889 1.0261 0
M  V30 33852 H 3214.39 0.730522 0.178442 0
M  V30 33853 H 3216.36 2.98021 -0.150406 0
M  V30 33854 C 3215.11 3.07508 1.62277 0
M  V30 33855 H 3214.43 3.81994 1.17986 0
M  V30 33856 H 3215.87 3.62448 2.20018 0
M  V30 33857 C 3214.33 2.1838 2.56538 0
M  V30 33858 O 3214.86 1.79493 3.59368 0
M  V30 33859 N 3213.07 1.83003 2.25739 0
M  V30 33860 H 3212.62 2.14825 1.42155 0
M  V30 33861 H 3212.57 1.23655 2.89062 0
M  V30 33862 N 3216.35 0.0952613 1.57312 0
M  V30 33863 C 3217.28 -0.860715 2.17057 0
M  V30 33864 C 3218.26 -1.29409 1.10396 0
M  V30 33865 O 3219.44 -1.36095 1.38534 0
M  V30 33866 C 3216.57 -2.11979 2.75104 0
M  V30 33867 C 3215.53 -1.82503 3.87139 0
M  V30 33868 C 3214.85 -3.1524 4.31889 0
M  V30 33869 C 3216.15 -1.11185 5.10328 0
M  V30 33870 H 3217.85 -0.362931 2.97192 0
M  V30 33871 H 3215.39 -0.173126 1.42955 0
M  V30 33872 H 3217.34 -2.79293 3.15552 0
M  V30 33873 H 3216.07 -2.64041 1.92224 0
M  V30 33874 H 3214.73 -1.17586 3.47231 0
M  V30 33875 H 3214.38 -3.65189 3.45899 0
M  V30 33876 H 3214.08 -2.963 5.07425 0
M  V30 33877 H 3215.6 -3.83712 4.74971 0
M  V30 33878 H 3217.01 -1.6861 5.47945 0
M  V30 33879 H 3215.41 -1.02424 5.91295 0
M  V30 33880 H 3216.48 -0.0946374 4.84808 0
M  V30 33881 N 3217.82 -1.56587 -0.178432 0
M  V30 33882 C 3218.76 -1.90948 -1.24956 0
M  V30 33883 C 3219.73 -0.771449 -1.43134 0
M  V30 33884 O 3220.92 -1.02408 -1.58256 0
M  V30 33885 C 3218.05 -2.15421 -2.61364 0
M  V30 33886 C 3217.09 -3.38115 -2.59963 0
M  V30 33887 S 3217.92 -4.92713 -2.09747 0
M  V30 33888 C 3219.08 -5.20273 -3.47946 0
M  V30 33889 H 3219.31 -2.81502 -0.956238 0
M  V30 33890 H 3216.85 -1.49582 -0.382683 0
M  V30 33891 H 3218.8 -2.30203 -3.39878 0
M  V30 33892 H 3217.47 -1.25588 -2.879 0
M  V30 33893 H 3216.66 -3.52417 -3.60303 0
M  V30 33894 H 3216.26 -3.22413 -1.89541 0
M  V30 33895 H 3218.55 -5.11815 -4.43905 0
M  V30 33896 H 3219.5 -6.21938 -3.38525 0
M  V30 33897 H 3219.9 -4.47861 -3.43629 0
M  V30 33898 N 3219.3 0.446741 -1.51136 0
M  V30 33899 C 3220.55 1.19385 -1.62574 0
M  V30 33900 C 3220.86 1.92565 -0.343234 0
M  V30 33901 O 3222.07 2.69402 -0.336851 0
M  V30 33902 C 3220.53 2.17062 -2.87075 0
M  V30 33903 C 3220.13 1.49573 -4.22293 0
M  V30 33904 C 3221.88 2.92264 -3.07867 0
M  V30 33905 C 3219.78 2.4568 -5.37955 0
M  V30 33906 H 3218.71 0.44932 -0.605497 0
M  V30 33907 H 3221.37 0.461815 -1.77594 0
M  V30 33908 H 3219.75 2.93661 -2.65667 0
M  V30 33909 H 3220.92 0.785975 -4.54047 0
M  V30 33910 H 3219.24 0.865606 -4.07304 0
M  V30 33911 H 3221.83 3.6424 -3.91451 0
M  V30 33912 H 3222.18 3.53068 -2.20565 0
M  V30 33913 H 3222.71 2.22774 -3.2957 0
M  V30 33914 H 3219.45 1.8958 -6.27487 0
M  V30 33915 H 3218.97 3.14737 -5.10589 0
M  V30 33916 H 3220.65 3.07007 -5.69522 0
M  V30 33917 N 3220.78 1.41123 0.701567 0
M  V30 33918 C 3221.71 1.38425 1.82678 0
M  V30 33919 C 3222.72 0.28737 1.60244 0
M  V30 33920 O 3223.91 0.548688 1.69858 0
M  V30 33921 C 3221.01 1.13481 3.19336 0
M  V30 33922 C 3220.19 2.35094 3.68849 0
M  V30 33923 C 3219.25 2.06097 4.84159 0
M  V30 33924 O 3218.27 2.79085 4.96085 0
M  V30 33925 N 3219.47 1.04753 5.7097 0
M  V30 33926 H 3222.24 2.35404 1.85486 0
M  V30 33927 H 3219.8 1.35658 0.883658 0
M  V30 33928 H 3221.79 0.920447 3.94094 0
M  V30 33929 H 3220.36 0.251207 3.11589 0
M  V30 33930 H 3219.58 2.72271 2.85065 0
M  V30 33931 H 3220.87 3.16136 3.98667 0
M  V30 33932 H 3220.27 0.443321 5.6396 0
M  V30 33933 H 3218.82 0.893063 6.45653 0
M  V30 33934 N 3222.26 -0.935219 1.26852 0
M  V30 33935 C 3223.48 -1.72163 1.15648 0
M  V30 33936 C 3223.91 -1.85946 -0.283876 0
M  V30 33937 O 3223.27 -1.35402 -1.20565 0
M  V30 33938 C 3223.31 -3.10304 1.83695 0
M  V30 33939 O 3222.42 -3.96623 1.12979 0
M  V30 33940 H 3221.76 -0.527995 0.402638 0
M  V30 33941 H 3224.29 -1.1709 1.67783 0
M  V30 33942 H 3224.3 -3.60661 1.90755 0
M  V30 33943 H 3222.97 -2.9959 2.88477 0
M  V30 33944 H 3221.55 -3.55068 1.13935 0
M  V30 33945 N 3223.74 -1.08752 -1.14065 0
M  V30 33946 C 3224.99 -0.814267 -1.84533 0
M  V30 33947 C 3225.3 0.662323 -1.84045 0
M  V30 33948 O 3226.5 1.05087 -2.50338 0
M  V30 33949 C 3224.96 -1.40669 -3.31271 0
M  V30 33950 C 3224.57 -2.91532 -3.40166 0
M  V30 33951 C 3226.31 -1.21208 -4.06828 0
M  V30 33952 C 3224.22 -3.43894 -4.81135 0
M  V30 33953 H 3223.15 -0.300939 -0.691341 0
M  V30 33954 H 3225.8 -1.30937 -1.2856 0
M  V30 33955 H 3224.18 -0.839283 -3.87004 0
M  V30 33956 H 3225.36 -3.54439 -2.94465 0
M  V30 33957 H 3223.67 -3.09947 -2.78068 0
M  V30 33958 H 3226.27 -1.5779 -5.10888 0
M  V30 33959 H 3226.61 -0.152165 -4.16022 0
M  V30 33960 H 3227.14 -1.74661 -3.57405 0
M  V30 33961 H 3223.88 -4.49474 -4.7713 0
M  V30 33962 H 3223.4 -2.85747 -5.2736 0
M  V30 33963 H 3225.08 -3.4069 -5.50036 0
M  V30 33964 N 3225.21 1.31165 -0.873701 0
M  V30 33965 C 3226.46 1.96181 -0.485531 0
M  V30 33966 C 3226.78 1.69381 0.96618 0
M  V30 33967 O 3226.05 1.01124 1.67782 0
M  V30 33968 H 3224.63 0.725834 -0.17656 0
M  V30 33969 H 3227.3 1.59904 -1.11431 0
M  V30 33970 H 3226.39 3.05333 -0.646379 0
M  V30 33971 N 3226.69 0.633512 1.44307 0
M  V30 33972 C 3227.64 -0.0821547 2.32455 0
M  V30 33973 C 3228.63 -0.833362 1.47484 0
M  V30 33974 O 3229.84 -0.745992 1.63814 0
M  V30 33975 H 3226.22 -0.0453388 0.750632 0
M  V30 33976 H 3228.19 0.679333 2.90564 0
M  V30 33977 C 3226.94 -1.04852 3.31514 0
M  V30 33978 H 3226.26 -0.479909 3.96909 0
M  V30 33979 H 3227.7 -1.51872 3.95867 0
M  V30 33980 C 3226.16 -2.13494 2.60619 0
M  V30 33981 O 3226.69 -3.21609 2.40688 0
M  V30 33982 N 3224.89 -1.89495 2.20318 0
M  V30 33983 H 3224.44 -1.01577 2.36728 0
M  V30 33984 H 3224.4 -2.62385 1.7321 0
M  V30 33985 N 3228.17 -1.53093 0.374204 0
M  V30 33986 C 3229.42 -2.00562 -0.213946 0
M  V30 33987 C 3229.73 -1.26536 -1.49158 0
M  V30 33988 O 3230.94 -1.64638 -2.15886 0
M  V30 33989 C 3229.39 -3.573 -0.431813 0
M  V30 33990 C 3229 -4.40212 0.831692 0
M  V30 33991 C 3230.75 -4.13101 -0.977149 0
M  V30 33992 C 3228.65 -5.8852 0.582934 0
M  V30 33993 H 3227.58 -0.749337 -0.0837255 0
M  V30 33994 H 3230.23 -1.76718 0.494276 0
M  V30 33995 H 3228.62 -3.77332 -1.20151 0
M  V30 33996 H 3229.79 -4.31951 1.60484 0
M  V30 33997 H 3228.11 -3.95558 1.30087 0
M  V30 33998 H 3230.7 -5.21546 -1.17872 0
M  V30 33999 H 3231.05 -3.68238 -1.94182 0
M  V30 34000 H 3231.58 -3.969 -0.267403 0
M  V30 34001 H 3228.32 -6.37677 1.51818 0
M  V30 34002 H 3227.84 -5.99608 -0.15156 0
M  V30 34003 H 3229.52 -6.46654 0.211718 0
M  V30 34004 N 3229.65 -0.103603 -1.57259 0
M  V30 34005 C 3230.58 0.889104 -2.10167 0
M  V30 34006 C 3231.56 1.27087 -1.01428 0
M  V30 34007 O 3232.74 1.37462 -1.28982 0
M  V30 34008 C 3229.87 2.1877 -2.58568 0
M  V30 34009 C 3228.92 1.95515 -3.79046 0
M  V30 34010 S 3229.75 1.18541 -5.22215 0
M  V30 34011 C 3230.91 2.49613 -5.73972 0
M  V30 34012 H 3231.14 0.439031 -2.9404 0
M  V30 34013 H 3228.67 0.109863 -1.54009 0
M  V30 34014 H 3230.63 2.9339 -2.87111 0
M  V30 34015 H 3229.29 2.60897 -1.74905 0
M  V30 34016 H 3228.48 2.91698 -4.11009 0
M  V30 34017 H 3228.09 1.29022 -3.5104 0
M  V30 34018 H 3230.38 3.45543 -5.82758 0
M  V30 34019 H 3231.32 2.22217 -6.72328 0
M  V30 34020 H 3231.73 2.58275 -5.0195 0
M  V30 34021 N 3231.13 1.56679 0.170126 0
M  V30 34022 C 3232.07 1.97422 1.22993 0
M  V30 34023 C 3233.07 0.863143 1.45761 0
M  V30 34024 O 3234.27 1.04826 1.46327 0
M  V30 34025 H 3230.65 0.628129 0.413471 0
M  V30 34026 H 3232.62 2.85755 0.859452 0
M  V30 34027 C 3231.37 2.35126 2.56146 0
M  V30 34028 H 3230.69 3.20162 2.3945 0
M  V30 34029 H 3232.13 2.67477 3.28986 0
M  V30 34030 C 3230.59 1.19512 3.14989 0
M  V30 34031 O 3231.12 0.483427 3.9878 0
M  V30 34032 N 3229.33 0.965381 2.74096 0
M  V30 34033 H 3228.87 1.54588 2.06059 0
M  V30 34034 H 3228.83 0.193667 3.13803 0
M  V30 34035 N 3232.6 -0.43872 1.5137 0
M  V30 34036 C 3233.55 -1.55305 1.73156 0
M  V30 34037 C 3234.55 -1.58499 0.597853 0
M  V30 34038 O 3235.75 -1.62261 0.779198 0
M  V30 34039 H 3232.13 -0.51594 0.547092 0
M  V30 34040 H 3234.1 -1.34103 2.66569 0
M  V30 34041 C 3232.85 -2.92974 1.87248 0
M  V30 34042 H 3232.17 -2.91247 2.73889 0
M  V30 34043 H 3233.61 -3.70314 2.06504 0
M  V30 34044 C 3232.07 -3.3092 0.631945 0
M  V30 34045 O 3232.6 -4.01129 -0.214028 0
M  V30 34046 N 3230.81 -2.86668 0.47644 0
M  V30 34047 H 3230.35 -2.29704 1.16593 0
M  V30 34048 H 3230.31 -3.12419 -0.352348 0
M  V30 34049 N 3234.08 -1.41493 -0.694073 0
M  V30 34050 C 3235.03 -1.43459 -1.80798 0
M  V30 34051 C 3236 -0.288785 -1.6357 0
M  V30 34052 O 3237.18 -0.49005 -1.84399 0
M  V30 34053 C 3234.32 -1.32399 -3.18692 0
M  V30 34054 C 3233.44 -2.56861 -3.47342 0
M  V30 34055 C 3232.57 -2.38084 -4.74857 0
M  V30 34056 C 3231.61 -3.58014 -4.9648 0
M  V30 34057 N 3230.75 -3.38298 -6.15223 0
M  V30 34058 H 3235.59 -2.3866 -1.78453 0
M  V30 34059 H 3233.13 -1.18509 -0.871434 0
M  V30 34060 H 3235.08 -1.23989 -3.9835 0
M  V30 34061 H 3233.71 -0.408056 -3.2021 0
M  V30 34062 H 3232.77 -2.75716 -2.62078 0
M  V30 34063 H 3234.08 -3.46067 -3.5922 0
M  V30 34064 H 3233.23 -2.27149 -5.62573 0
M  V30 34065 H 3231.97 -1.46337 -4.65228 0
M  V30 34066 H 3230.98 -3.69402 -4.07213 0
M  V30 34067 H 3232.2 -4.50717 -5.07968 0
M  V30 34068 H 3230.15 -2.49252 -6.06803 0
M  V30 34069 H 3230.06 -4.2108 -6.27875 0
M  V30 34070 H 3231.33 -3.31138 -7.05668 0
M  V30 34071 N 3235.56 0.928479 -1.27346 0
M  V30 34072 C 3236.81 1.67857 -1.13807 0
M  V30 34073 C 3237.14 1.9162 0.315516 0
M  V30 34074 O 3236.41 1.50601 1.23084 0
M  V30 34075 C 3236.7 3.04558 -1.92136 0
M  V30 34076 C 3236.55 2.88042 -3.45474 0
M  V30 34077 C 3237.87 4.04876 -1.7252 0
M  V30 34078 H 3234.99 0.609184 -0.414806 0
M  V30 34079 H 3237.63 1.0775 -1.56492 0
M  V30 34080 H 3235.78 3.55865 -1.55859 0
M  V30 34081 H 3237.45 2.43858 -3.91575 0
M  V30 34082 H 3235.7 2.234 -3.71853 0
M  V30 34083 H 3236.37 3.85054 -3.95521 0
M  V30 34084 H 3238.84 3.62577 -2.04149 0
M  V30 34085 H 3237.72 4.98517 -2.29721 0
M  V30 34086 H 3237.98 4.36949 -0.672933 0
M  V30 34087 N 3237.04 1.09355 1.13486 0
M  V30 34088 C 3238.29 0.829158 1.84746 0
M  V30 34089 C 3238.61 -0.645215 1.83486 0
M  V30 34090 O 3237.87 -1.49091 1.26769 0
M  V30 34091 C 3238.17 1.3086 3.32581 0
M  V30 34092 C 3237.83 2.79247 3.54023 0
M  V30 34093 C 3236.5 3.19771 3.59583 0
M  V30 34094 C 3238.85 3.74924 3.62052 0
M  V30 34095 C 3236.18 4.54747 3.70704 0
M  V30 34096 C 3238.53 5.09688 3.74701 0
M  V30 34097 C 3237.19 5.49804 3.78513 0
M  V30 34098 H 3236.46 0.303411 0.676035 0
M  V30 34099 H 3239.11 1.36821 1.33986 0
M  V30 34100 H 3237.41 0.689343 3.85688 0
M  V30 34101 H 3239.11 1.08065 3.86164 0
M  V30 34102 H 3235.7 2.46886 3.5035 0
M  V30 34103 H 3239.88 3.4473 3.57037 0
M  V30 34104 H 3235.14 4.85267 3.71923 0
M  V30 34105 H 3239.31 5.8368 3.79856 0
M  V30 34106 H 3236.94 6.54389 3.86883 0
M  V30 34107 N 3238.52 -1.307 0.880644 0
M  V30 34108 C 3239.75 -2.00181 0.510975 0
M  V30 34109 C 3240.16 -1.66212 -0.903884 0
M  V30 34110 O 3239.5 -0.893117 -1.60528 0
M  V30 34111 C 3239.56 -3.54443 0.600837 0
M  V30 34112 C 3239.22 -4.11917 1.97923 0
M  V30 34113 C 3240.22 -4.28233 2.94809 0
M  V30 34114 C 3237.91 -4.47397 2.28344 0
M  V30 34115 C 3239.9 -4.79235 4.20253 0
M  V30 34116 C 3237.59 -4.98099 3.54035 0
M  V30 34117 C 3238.59 -5.1397 4.49805 0
M  V30 34118 O 3238.27 -5.63579 5.73266 0
M  V30 34119 H 3238.01 -0.646814 0.196488 0
M  V30 34120 H 3240.56 -1.67656 1.18661 0
M  V30 34121 H 3238.79 -3.86475 -0.131764 0
M  V30 34122 H 3240.48 -4.05172 0.243067 0
M  V30 34123 H 3241.24 -4.01129 2.72617 0
M  V30 34124 H 3237.12 -4.34314 1.54571 0
M  V30 34125 H 3240.67 -4.91538 4.95012 0
M  V30 34126 H 3236.56 -5.24638 3.76066 0
M  V30 34127 H 3237.33 -5.81929 5.75587 0
M  V30 34128 N 3240 -0.641156 -1.43969 0
M  V30 34129 C 3240.93 0.0962912 -2.28998 0
M  V30 34130 C 3241.94 0.799046 -1.41842 0
M  V30 34131 O 3243.13 0.658817 -1.65897 0
M  V30 34132 C 3240.23 1.15897 -3.18467 0
M  V30 34133 C 3239.4 0.536752 -4.34094 0
M  V30 34134 C 3238.46 1.49472 -5.04524 0
M  V30 34135 O 3237.49 1.00797 -5.60204 0
M  V30 34136 N 3238.69 2.82892 -5.06904 0
M  V30 34137 H 3241.45 -0.633474 -2.92929 0
M  V30 34138 H 3239.02 -0.483048 -1.54526 0
M  V30 34139 H 3241.01 1.80037 -3.62448 0
M  V30 34140 H 3239.58 1.79085 -2.56218 0
M  V30 34141 H 3238.8 -0.283483 -3.93179 0
M  V30 34142 H 3240.09 0.101877 -5.08698 0
M  V30 34143 H 3239.48 3.25009 -4.63018 0
M  V30 34144 H 3238.04 3.42366 -5.54643 0
M  V30 34145 N 3241.47 1.52892 -0.382318 0
M  V30 34146 C 3242.42 2.2304 0.472987 0
M  V30 34147 C 3243.41 1.2317 1.03528 0
M  V30 34148 O 3244.6 1.4854 0.96254 0
M  V30 34149 C 3241.73 3.03554 1.60343 0
M  V30 34150 C 3240.81 4.10814 1.05322 0
M  V30 34151 N 3241.21 5.05289 0.227371 0
M  V30 34152 C 3239.5 4.2582 1.3264 0
M  V30 34153 C 3240.2 5.81651 -0.0758054 0
M  V30 34154 N 3239.18 5.41046 0.526292 0
M  V30 34155 H 3242.98 2.93439 -0.164592 0
M  V30 34156 H 3240.5 1.6127 -0.191239 0
M  V30 34157 H 3242.49 3.52339 2.22851 0
M  V30 34158 H 3241.15 2.34689 2.2439 0
M  V30 34159 H 3242.16 5.17725 -0.134805 0
M  V30 34160 H 3238.84 3.68184 1.96843 0
M  V30 34161 H 3240.23 6.67763 -0.744493 0
M  V30 34162 N 3242.95 0.111941 1.57202 0
M  V30 34163 C 3244.36 -0.414559 1.82039 0
M  V30 34164 C 3244.71 -1.67072 1.02866 0
M  V30 34165 O 3243.84 -2.14795 0.263106 0
M  V30 34166 C 3244.43 -0.758895 3.30191 0
M  V30 34167 C 3242.99 -1.23006 3.55734 0
M  V30 34168 C 3242.14 -0.235177 2.76301 0
M  V30 34169 H 3245.09 0.337169 1.55077 0
M  V30 34170 H 3245.11 -1.61695 3.44434 0
M  V30 34171 H 3244.62 0.155541 3.87788 0
M  V30 34172 H 3242.72 -2.16164 3.03487 0
M  V30 34173 H 3242.84 -1.18026 4.64335 0
M  V30 34174 H 3241.2 -0.720779 2.44288 0
M  V30 34175 H 3241.98 0.672233 3.36654 0
M  V30 34176 N 3244.43 -1.56767 -0.161814 0
M  V30 34177 C 3245.38 -1.98071 -1.21945 0
M  V30 34178 C 3246.37 -0.870861 -1.45301 0
M  V30 34179 O 3247.58 -1.05601 -1.45769 0
M  V30 34180 H 3243.95 -0.630313 -0.410134 0
M  V30 34181 H 3245.92 -2.86207 -0.844285 0
M  V30 34182 C 3244.67 -2.36481 -2.54896 0
M  V30 34183 H 3244 -3.21427 -2.37749 0
M  V30 34184 H 3245.44 -2.69218 -3.27563 0
M  V30 34185 C 3243.89 -1.21181 -3.14351 0
M  V30 34186 O 3244.42 -0.504569 -3.98518 0
M  V30 34187 N 3242.63 -0.979903 -2.7358 0
M  V30 34188 H 3242.18 -1.55679 -2.05236 0
M  V30 34189 H 3242.14 -0.210306 -3.13696 0
M  V30 34190 N 3245.91 0.430686 -1.51601 0
M  V30 34191 C 3246.84 1.53051 -1.76345 0
M  V30 34192 C 3247.82 1.5865 -0.613517 0
M  V30 34193 O 3249 1.74271 -0.856918 0
M  V30 34194 C 3246.13 2.91074 -1.89456 0
M  V30 34195 C 3245.09 3.00333 -3.04933 0
M  V30 34196 C 3244.41 4.404 -3.03236 0
M  V30 34197 C 3245.71 2.738 -4.44782 0
M  V30 34198 H 3247.41 1.32596 -2.68438 0
M  V30 34199 H 3244.95 0.636444 -1.29172 0
M  V30 34200 H 3246.91 3.67981 -2.05349 0
M  V30 34201 H 3245.63 3.12775 -0.940169 0
M  V30 34202 H 3244.29 2.25867 -2.88755 0
M  V30 34203 H 3243.94 4.59079 -2.05561 0
M  V30 34204 H 3243.64 4.47524 -3.80784 0
M  V30 34205 H 3245.16 5.19272 -3.21231 0
M  V30 34206 H 3246.58 3.40437 -4.61276 0
M  V30 34207 H 3244.97 2.92326 -5.24085 0
M  V30 34208 H 3246.04 1.69364 -4.54361 0
M  V30 34209 N 3247.39 1.4186 0.686559 0
M  V30 34210 C 3248.32 1.38839 1.81105 0
M  V30 34211 C 3249.3 0.254321 1.60599 0
M  V30 34212 O 3250.48 0.442673 1.83228 0
M  V30 34213 C 3247.61 1.16793 3.17926 0
M  V30 34214 C 3246.65 2.33037 3.57206 0
M  V30 34215 S 3247.49 3.95543 3.60979 0
M  V30 34216 C 3248.64 3.75817 5.00512 0
M  V30 34217 H 3248.88 2.33998 1.83391 0
M  V30 34218 H 3246.41 1.28491 0.856123 0
M  V30 34219 H 3248.37 1.04759 3.96908 0
M  V30 34220 H 3247.03 0.23239 3.13239 0
M  V30 34221 H 3246.22 2.13329 4.56625 0
M  V30 34222 H 3245.82 2.41524 2.85556 0
M  V30 34223 H 3248.11 3.3608 5.88266 0
M  V30 34224 H 3249.06 4.74871 5.25265 0
M  V30 34225 H 3249.47 3.08913 4.72476 0
M  V30 34226 N 3248.86 -0.921712 1.27837 0
M  V30 34227 C 3250.28 -1.19871 1.05371 0
M  V30 34228 C 3250.48 -2.00414 -0.208962 0
M  V30 34229 O 3249.54 -2.35423 -0.91282 0
M  V30 34230 C 3250.85 -1.94104 2.29661 0
M  V30 34231 C 3252.4 -2.07019 2.3476 0
M  V30 34232 C 3252.87 -2.84658 3.58795 0
M  V30 34233 N 3254.36 -2.92223 3.59388 0
M  V30 34234 C 3255.1 -3.52777 4.52036 0
M  V30 34235 N 3254.59 -4.14673 5.54993 0
M  V30 34236 N 3256.39 -3.50239 4.39647 0
M  V30 34237 H 3248.54 -0.383782 2.08904 0
M  V30 34238 H 3250.8 -0.232413 0.919069 0
M  V30 34239 H 3250.51 -1.42344 3.21607 0
M  V30 34240 H 3250.38 -2.94692 2.35449 0
M  V30 34241 H 3252.77 -2.57962 1.43316 0
M  V30 34242 H 3252.85 -1.05632 2.32971 0
M  V30 34243 H 3252.49 -2.34396 4.50578 0
M  V30 34244 H 3252.42 -3.86343 3.57836 0
M  V30 34245 H 3254.91 -2.48239 2.84932 0
M  V30 34246 H 3255.23 -4.58834 6.21845 0
M  V30 34247 H 3253.57 -4.13201 5.58829 0
M  V30 34248 H 3256.76 -3.01088 3.58418 0
M  V30 34249 H 3256.94 -3.97139 5.1204 0
M  V30 34250 N 3250.34 -1.09956 -1.12905 0
M  V30 34251 C 3251.3 -0.747402 -2.16671 0
M  V30 34252 C 3252.3 0.225713 -1.59208 0
M  V30 34253 O 3253.49 0.0031942 -1.742 0
M  V30 34254 C 3250.63 -0.106229 -3.40734 0
M  V30 34255 H 3251.82 -1.66645 -2.49338 0
M  V30 34256 H 3249.37 -0.899444 -1.27827 0
M  V30 34257 H 3250.11 0.823785 -3.13663 0
M  V30 34258 H 3249.89 -0.806501 -3.83716 0
M  V30 34259 H 3251.38 0.124567 -4.17414 0
M  V30 34260 N 3251.82 1.30231 -0.887563 0
M  V30 34261 C 3252.75 2.30509 -0.372521 0
M  V30 34262 C 3253.73 1.61099 0.546008 0
M  V30 34263 O 3254.92 1.8869 0.459312 0
M  V30 34264 C 3252.05 3.44853 0.411544 0
M  V30 34265 C 3251 4.25979 -0.415458 0
M  V30 34266 C 3250.33 5.324 0.495369 0
M  V30 34267 C 3251.63 4.95254 -1.65895 0
M  V30 34268 H 3253.32 2.73838 -1.2105 0
M  V30 34269 H 3250.87 1.31647 -0.583521 0
M  V30 34270 H 3252.82 4.14071 0.782511 0
M  V30 34271 H 3251.54 3.00336 1.28319 0
M  V30 34272 H 3250.2 3.58452 -0.768597 0
M  V30 34273 H 3249.85 4.8413 1.3648 0
M  V30 34274 H 3249.55 5.87575 -0.0541917 0
M  V30 34275 H 3251.07 6.04473 0.862795 0
M  V30 34276 H 3252.49 5.56974 -1.35842 0
M  V30 34277 H 3250.88 5.60305 -2.14891 0
M  V30 34278 H 3251.95 4.21233 -2.40189 0
M  V30 34279 N 3253.3 0.648782 1.43627 0
M  V30 34280 C 3254.55 0.160055 2.01465 0
M  V30 34281 C 3254.87 -1.22875 1.51415 0
M  V30 34282 O 3254.14 -1.81993 0.724951 0
M  V30 34283 H 3252.72 0.0561803 0.744884 0
M  V30 34284 H 3255.38 0.839453 1.75895 0
M  V30 34285 H 3254.48 0.141268 3.1178 0
M  V30 34286 N 3254.78 -1.52688 0.390421 0
M  V30 34287 C 3255.71 -2.22914 -0.488341 0
M  V30 34288 C 3256.69 -1.23027 -1.06316 0
M  V30 34289 O 3257.87 -1.52017 -1.11459 0
M  V30 34290 C 3255 -2.94323 -1.67606 0
M  V30 34291 C 3254.04 -4.08487 -1.22639 0
M  V30 34292 S 3254.88 -5.351 -0.206998 0
M  V30 34293 C 3256.03 -6.10031 -1.40048 0
M  V30 34294 H 3256.27 -2.97104 0.108001 0
M  V30 34295 H 3253.8 -1.53409 0.174615 0
M  V30 34296 H 3255.76 -3.36074 -2.35722 0
M  V30 34297 H 3254.42 -2.1981 -2.24371 0
M  V30 34298 H 3253.61 -4.57557 -2.11323 0
M  V30 34299 H 3253.21 -3.68755 -0.624132 0
M  V30 34300 H 3255.51 -6.3627 -2.32736 0
M  V30 34301 H 3256.45 -7.01689 -0.950681 0
M  V30 34302 H 3256.86 -5.40821 -1.6178 0
M  V30 34303 N 3256.25 -0.120276 -1.5714 0
M  V30 34304 C 3257.2 0.840632 -2.11937 0
M  V30 34305 C 3258.19 1.22732 -1.04046 0
M  V30 34306 O 3259.38 1.1982 -1.30277 0
M  V30 34307 C 3256.51 2.09018 -2.72335 0
M  V30 34308 C 3255.6 1.7278 -3.87309 0
M  V30 34309 N 3255.99 1.07223 -4.94304 0
M  V30 34310 C 3254.28 2.02229 -3.97517 0
M  V30 34311 C 3254.99 0.901525 -5.74672 0
M  V30 34312 N 3253.96 1.42693 -5.24538 0
M  V30 34313 H 3257.76 0.330257 -2.92039 0
M  V30 34314 H 3255.28 0.0821529 -1.62192 0
M  V30 34315 H 3257.27 2.78827 -3.09937 0
M  V30 34316 H 3255.93 2.60598 -1.93698 0
M  V30 34317 H 3256.95 0.736068 -5.12643 0
M  V30 34318 H 3253.62 2.55847 -3.29922 0
M  V30 34319 H 3255.01 0.386856 -6.70785 0
M  V30 34320 N 3257.73 1.56851 0.153498 0
M  V30 34321 C 3258.64 2.01031 1.20928 0
M  V30 34322 C 3259.66 0.924624 1.474 0
M  V30 34323 O 3260.83 1.23361 1.59198 0
M  V30 34324 C 3257.9 2.37651 2.52434 0
M  V30 34325 C 3256.96 3.60136 2.33667 0
M  V30 34326 C 3256.19 3.95 3.58902 0
M  V30 34327 O 3256.42 3.30607 4.64817 0
M  V30 34328 O 3255.35 4.88276 3.51951 0
M  V30 34329 H 3259.18 2.91144 0.864222 0
M  V30 34330 H 3256.76 1.44955 0.36173 0
M  V30 34331 H 3258.64 2.62094 3.29977 0
M  V30 34332 H 3257.32 1.50695 2.86483 0
M  V30 34333 H 3256.23 3.40889 1.54097 0
M  V30 34334 H 3257.56 4.4769 2.04536 0
M  V30 34335 N 3259.21 -0.42264 1.51827 0
M  V30 34336 C 3260.44 -1.19287 1.69051 0
M  V30 34337 C 3260.85 -1.8464 0.394127 0
M  V30 34338 O 3260.21 -1.71329 -0.628701 0
M  V30 34339 C 3260.26 -2.26604 2.81661 0
M  V30 34340 O 3259.98 -1.63921 4.06277 0
M  V30 34341 C 3261.48 -3.1661 3.10279 0
M  V30 34342 H 3258.7 -0.358978 0.5669 0
M  V30 34343 H 3261.25 -0.498994 1.98319 0
M  V30 34344 H 3259.4 -2.91683 2.5495 0
M  V30 34345 H 3259.82 -2.34961 4.68928 0
M  V30 34346 H 3261.29 -3.88012 3.9262 0
M  V30 34347 H 3261.77 -3.7821 2.2328 0
M  V30 34348 H 3262.37 -2.57215 3.38704 0
M  V30 34349 N 3260.69 -1.42222 -0.679027 0
M  V30 34350 C 3261.93 -1.42677 -1.44122 0
M  V30 34351 C 3262.27 -0.0414721 -1.94156 0
M  V30 34352 O 3261.54 0.93358 -1.7063 0
M  V30 34353 C 3261.83 -2.44761 -2.64129 0
M  V30 34354 C 3261.68 -3.92464 -2.19755 0
M  V30 34355 C 3263 -2.43887 -3.66343 0
M  V30 34356 H 3260.12 -0.51955 -0.52272 0
M  V30 34357 H 3262.76 -1.73608 -0.772036 0
M  V30 34358 H 3260.91 -2.18515 -3.21222 0
M  V30 34359 H 3262.58 -4.29674 -1.67862 0
M  V30 34360 H 3260.82 -4.06534 -1.5137 0
M  V30 34361 H 3261.49 -4.59464 -3.05936 0
M  V30 34362 H 3263.97 -2.67217 -3.18958 0
M  V30 34363 H 3262.85 -3.17301 -4.47897 0
M  V30 34364 H 3263.11 -1.46333 -4.1718 0
M  V30 34365 N 3262.17 0.91492 -1.28324 0
M  V30 34366 C 3263.1 2.01839 -1.06472 0
M  V30 34367 C 3264.08 1.62589 0.0188396 0
M  V30 34368 O 3265.26 1.88059 -0.128858 0
M  V30 34369 C 3262.39 3.33019 -0.617744 0
M  V30 34370 C 3261.43 3.91252 -1.69777 0
M  V30 34371 S 3262.27 4.22247 -3.29344 0
M  V30 34372 C 3263.42 5.5649 -2.86478 0
M  V30 34373 H 3263.66 2.20065 -1.99897 0
M  V30 34374 H 3261.19 1.05964 -1.12299 0
M  V30 34375 H 3263.15 4.0886 -0.366553 0
M  V30 34376 H 3261.81 3.12696 0.296654 0
M  V30 34377 H 3261 4.85953 -1.33662 0
M  V30 34378 H 3260.6 3.22043 -1.9017 0
M  V30 34379 H 3262.9 6.36329 -2.32576 0
M  V30 34380 H 3263.84 5.97517 -3.79973 0
M  V30 34381 H 3264.25 5.17622 -2.25229 0
M  V30 34382 N 3263.64 1.10553 1.1232 0
M  V30 34383 C 3264.55 0.767901 2.21676 0
M  V30 34384 C 3265.57 -0.235102 1.72404 0
M  V30 34385 O 3266.75 -0.0735558 2.01266 0
M  V30 34386 C 3263.81 0.20606 3.46087 0
M  V30 34387 C 3262.87 1.26649 4.10193 0
M  V30 34388 C 3262.11 0.731367 5.28665 0
M  V30 34389 O 3262.33 -0.44179 5.68687 0
M  V30 34390 O 3261.26 1.49186 5.83118 0
M  V30 34391 H 3265.09 1.68075 2.52952 0
M  V30 34392 H 3262.67 0.880749 1.20678 0
M  V30 34393 H 3264.56 -0.103361 4.21273 0
M  V30 34394 H 3263.23 -0.679629 3.16485 0
M  V30 34395 H 3262.14 1.62879 3.36781 0
M  V30 34396 H 3263.47 2.12524 4.43953 0
M  V30 34397 N 3265.12 -1.29758 0.894457 0
M  V30 34398 C 3266.37 -1.96061 0.51847 0
M  V30 34399 C 3266.7 -1.70382 -0.931852 0
M  V30 34400 O 3265.98 -1.01384 -1.65986 0
M  V30 34401 C 3266.26 -3.50981 0.805252 0
M  V30 34402 C 3266.11 -3.86138 2.30689 0
M  V30 34403 C 3267.43 -4.39156 0.288173 0
M  V30 34404 H 3264.55 -0.71213 0.189843 0
M  V30 34405 H 3267.19 -1.53466 1.12018 0
M  V30 34406 H 3265.34 -3.87392 0.293139 0
M  V30 34407 H 3267.01 -3.597 2.88814 0
M  V30 34408 H 3265.26 -3.33868 2.76974 0
M  V30 34409 H 3265.93 -4.94246 2.45814 0
M  V30 34410 H 3268.4 -4.09707 0.726619 0
M  V30 34411 H 3267.28 -5.4645 0.518081 0
M  V30 34412 H 3267.54 -4.34599 -0.810942 0
M  V30 34413 N 3266.6 -0.65639 -1.4328 0
M  V30 34414 C 3267.53 0.0830869 -2.28049 0
M  V30 34415 C 3268.51 0.826787 -1.40011 0
M  V30 34416 O 3269.7 0.825706 -1.69453 0
M  V30 34417 C 3266.82 1.12447 -3.19489 0
M  V30 34418 C 3265.87 0.478452 -4.23808 0
M  V30 34419 S 3266.7 -0.750341 -5.30217 0
M  V30 34420 C 3267.86 0.290424 -6.25226 0
M  V30 34421 H 3268.09 -0.635973 -2.90418 0
M  V30 34422 H 3265.62 -0.445329 -1.47838 0
M  V30 34423 H 3267.58 1.72027 -3.72716 0
M  V30 34424 H 3266.24 1.81586 -2.56291 0
M  V30 34425 H 3265.44 1.2636 -4.87903 0
M  V30 34426 H 3265.04 -0.0433168 -3.73975 0
M  V30 34427 H 3267.33 1.15568 -6.67571 0
M  V30 34428 H 3268.27 -0.315583 -7.07396 0
M  V30 34429 H 3268.68 0.627653 -5.61 0
M  V30 34430 N 3268.08 1.52478 -0.398513 0
M  V30 34431 C 3269.33 2.01991 0.180984 0
M  V30 34432 C 3269.66 1.28408 1.45688 0
M  V30 34433 O 3268.93 0.387241 1.90606 0
M  V30 34434 C 3269.22 3.57408 0.439525 0
M  V30 34435 C 3269.07 4.41651 -0.852308 0
M  V30 34436 C 3270.39 4.22672 1.22623 0
M  V30 34437 H 3267.51 0.734189 0.0643035 0
M  V30 34438 H 3270.15 1.82461 -0.529892 0
M  V30 34439 H 3268.3 3.74179 1.04509 0
M  V30 34440 H 3269.97 4.36612 -1.48887 0
M  V30 34441 H 3268.21 4.08292 -1.46562 0
M  V30 34442 H 3268.89 5.4844 -0.625936 0
M  V30 34443 H 3271.36 4.09934 0.71365 0
M  V30 34444 H 3270.24 5.31377 1.37587 0
M  V30 34445 H 3270.5 3.80918 2.24396 0
M  V30 34446 N 3269.56 0.128608 1.57074 0
M  V30 34447 C 3270.51 -0.83527 2.17085 0
M  V30 34448 C 3271.5 -1.26853 1.12271 0
M  V30 34449 O 3272.71 -1.23915 1.30557 0
M  V30 34450 H 3269.08 -0.287504 0.694871 0
M  V30 34451 H 3271.05 -0.304746 2.9684 0
M  V30 34452 C 3269.8 -2.07172 2.7924 0
M  V30 34453 H 3269.12 -1.74729 3.59597 0
M  V30 34454 H 3270.56 -2.72598 3.24756 0
M  V30 34455 C 3269.02 -2.86776 1.76808 0
M  V30 34456 O 3269.55 -3.82492 1.2273 0
M  V30 34457 N 3267.76 -2.50953 1.4653 0
M  V30 34458 H 3267.31 -1.73183 1.90697 0
M  V30 34459 H 3267.26 -3.0451 0.78238 0
M  V30 34460 N 3271.04 -1.5693 -0.145178 0
M  V30 34461 C 3272.28 -1.83721 -0.858754 0
M  V30 34462 C 3272.61 -0.710484 -1.80737 0
M  V30 34463 O 3271.89 0.285757 -1.92389 0
M  V30 34464 C 3272.17 -3.21013 -1.63164 0
M  V30 34465 C 3272.03 -4.4425 -0.704393 0
M  V30 34466 C 3273.34 -3.55548 -2.59371 0
M  V30 34467 H 3270.46 -0.668286 -0.310746 0
M  V30 34468 H 3273.11 -1.89596 -0.123885 0
M  V30 34469 H 3271.26 -3.16136 -2.25811 0
M  V30 34470 H 3272.93 -4.61215 -0.0887889 0
M  V30 34471 H 3271.17 -4.33798 -0.014093 0
M  V30 34472 H 3271.84 -5.36924 -1.28126 0
M  V30 34473 H 3274.32 -3.61048 -2.06842 0
M  V30 34474 H 3273.19 -4.52639 -3.10498 0
M  V30 34475 H 3273.45 -2.816 -3.40814 0
M  V30 34476 N 3272.51 0.414582 -1.52049 0
M  V30 34477 C 3273.44 1.51172 -1.77958 0
M  V30 34478 C 3274.42 1.57991 -0.63031 0
M  V30 34479 O 3275.61 1.73353 -0.875354 0
M  V30 34480 C 3272.74 2.89048 -1.92532 0
M  V30 34481 C 3271.69 2.97082 -3.08101 0
M  V30 34482 C 3271.02 4.37159 -3.0789 0
M  V30 34483 C 3272.32 2.69067 -4.47661 0
M  V30 34484 H 3274.01 1.29741 -2.69829 0
M  V30 34485 H 3271.56 0.622707 -1.2984 0
M  V30 34486 H 3273.51 3.65782 -2.0924 0
M  V30 34487 H 3272.24 3.11761 -0.97329 0
M  V30 34488 H 3270.9 2.22792 -2.91135 0
M  V30 34489 H 3270.54 4.56873 -2.10419 0
M  V30 34490 H 3270.24 4.4346 -3.85509 0
M  V30 34491 H 3271.77 5.15835 -3.26721 0
M  V30 34492 H 3273.18 3.35526 -4.64861 0
M  V30 34493 H 3271.58 2.86751 -5.27156 0
M  V30 34494 H 3272.65 1.64536 -4.56132 0
M  V30 34495 N 3273.99 1.4258 0.671475 0
M  V30 34496 C 3275.24 1.42944 1.42869 0
M  V30 34497 C 3275.56 0.0480826 1.94941 0
M  V30 34498 O 3274.83 -0.913891 1.73277 0
M  V30 34499 H 3273.41 0.526231 0.530179 0
M  V30 34500 H 3276.07 1.7803 0.793187 0
M  V30 34501 H 3275.17 2.13118 2.28007 0
M  V30 34502 N 3275.47 -0.908102 1.28807 0
M  V30 34503 C 3276.72 -1.65452 1.16061 0
M  V30 34504 C 3277.04 -1.92831 -0.290023 0
M  V30 34505 O 3276.31 -1.54846 -1.19999 0
M  V30 34506 H 3274.89 -0.613253 0.426533 0
M  V30 34507 H 3277.55 -1.08933 1.61616 0
M  V30 34508 H 3276.65 -2.6145 1.70442 0
M  V30 34509 N 3276.95 -1.11147 -1.11732 0
M  V30 34510 C 3278.2 -0.856749 -1.83042 0
M  V30 34511 C 3278.52 0.619375 -1.84902 0
M  V30 34512 O 3277.79 1.44987 -1.31741 0
M  V30 34513 H 3276.37 -0.313962 -0.677818 0
M  V30 34514 H 3279.03 -1.40324 -1.3526 0
M  V30 34515 H 3278.12 -1.22621 -2.87003 0
M  V30 34516 N 3278.43 1.29282 -0.901326 0
M  V30 34517 C 3279.34 2.3142 -0.384941 0
M  V30 34518 C 3280.35 1.66013 0.521134 0
M  V30 34519 O 3281.53 1.97176 0.410321 0
M  V30 34520 C 3278.59 3.44636 0.377744 0
M  V30 34521 C 3277.65 4.25631 -0.560049 0
M  V30 34522 C 3276.89 5.33441 0.166332 0
M  V30 34523 O 3277.11 5.53204 1.39002 0
M  V30 34524 O 3276.04 5.99886 -0.491981 0
M  V30 34525 H 3279.87 2.77573 -1.23235 0
M  V30 34526 H 3277.45 1.33749 -0.665706 0
M  V30 34527 H 3279.34 4.13562 0.808969 0
M  V30 34528 H 3278.01 3.00588 1.20118 0
M  V30 34529 H 3276.92 3.59341 -1.04042 0
M  V30 34530 H 3278.25 4.73326 -1.34995 0
M  V30 34531 N 3279.9 0.663979 1.4293 0
M  V30 34532 C 3281.13 0.188237 2.06544 0
M  V30 34533 C 3281.55 -1.14152 1.49502 0
M  V30 34534 O 3280.91 -1.70759 0.609194 0
M  V30 34535 C 3280.96 0.122168 3.60393 0
M  V30 34536 O 3280.06 -0.912509 4.02178 0
M  V30 34537 H 3279.4 0.0998083 0.656456 0
M  V30 34538 H 3281.93 0.909941 1.83252 0
M  V30 34539 H 3281.94 -0.057585 4.07959 0
M  V30 34540 H 3280.62 1.09283 4.01285 0
M  V30 34541 H 3279.2 -0.704674 3.66181 0
M  V30 34542 N 3281.38 -1.52265 0.406593 0
M  V30 34543 C 3282.33 -2.26944 -0.420142 0
M  V30 34544 C 3283.3 -1.29253 -1.04321 0
M  V30 34545 O 3284.48 -1.58111 -1.06796 0
M  V30 34546 C 3281.62 -3.09219 -1.53224 0
M  V30 34547 C 3280.74 -4.21863 -0.930345 0
M  V30 34548 C 3279.87 -4.91502 -2.01493 0
M  V30 34549 C 3278.91 -5.96112 -1.38984 0
M  V30 34550 N 3278.05 -6.59278 -2.41446 0
M  V30 34551 H 3282.89 -2.97164 0.223118 0
M  V30 34552 H 3280.42 -1.46594 0.121868 0
M  V30 34553 H 3282.38 -3.55224 -2.18797 0
M  V30 34554 H 3281.01 -2.41175 -2.14557 0
M  V30 34555 H 3280.06 -3.80047 -0.163742 0
M  V30 34556 H 3281.38 -4.96911 -0.433698 0
M  V30 34557 H 3280.53 -5.40899 -2.74798 0
M  V30 34558 H 3279.27 -4.16016 -2.54523 0
M  V30 34559 H 3278.27 -5.46037 -0.642117 0
M  V30 34560 H 3279.5 -6.73539 -0.867268 0
M  V30 34561 H 3277.45 -5.86624 -2.93613 0
M  V30 34562 H 3277.36 -7.29993 -1.96586 0
M  V30 34563 H 3278.63 -7.13315 -3.14328 0
M  V30 34564 N 3282.86 -0.136936 -1.57004 0
M  V30 34565 C 3283.77 0.819849 -2.19808 0
M  V30 34566 C 3284.79 1.2793 -1.17941 0
M  V30 34567 O 3285.96 1.33857 -1.5048 0
M  V30 34568 C 3283.03 2.04537 -2.79938 0
M  V30 34569 C 3282.09 1.63613 -3.969 0
M  V30 34570 C 3281.32 2.80323 -4.54153 0
M  V30 34571 O 3281.54 3.96256 -4.10289 0
M  V30 34572 O 3280.48 2.56374 -5.4457 0
M  V30 34573 H 3284.3 0.315284 -3.02059 0
M  V30 34574 H 3281.89 0.0895889 -1.49131 0
M  V30 34575 H 3283.77 2.76278 -3.18196 0
M  V30 34576 H 3282.45 2.53965 -2.00707 0
M  V30 34577 H 3281.35 0.889252 -3.63377 0
M  V30 34578 H 3282.69 1.1891 -4.77621 0
M  V30 34579 N 3284.34 1.57005 0.136853 0
M  V30 34580 C 3285.59 1.8309 0.846225 0
M  V30 34581 C 3285.9 0.719797 1.81874 0
M  V30 34582 O 3287.11 0.86654 2.573 0
M  V30 34583 C 3285.56 3.24548 1.55553 0
M  V30 34584 C 3285.17 4.4362 0.624911 0
M  V30 34585 C 3286.91 3.59897 2.25109 0
M  V30 34586 C 3284.82 5.76102 1.33643 0
M  V30 34587 H 3283.75 0.682841 0.319756 0
M  V30 34588 H 3286.4 1.83233 0.0989419 0
M  V30 34589 H 3284.78 3.18821 2.34881 0
M  V30 34590 H 3285.96 4.60606 -0.133864 0
M  V30 34591 H 3284.27 4.16383 0.0372484 0
M  V30 34592 H 3286.87 4.56139 2.79 0
M  V30 34593 H 3287.21 2.86451 3.02079 0
M  V30 34594 H 3287.75 3.67329 1.52689 0
M  V30 34595 H 3284.49 6.52671 0.608381 0
M  V30 34596 H 3284.01 5.63035 2.06766 0
M  V30 34597 H 3285.68 6.19249 1.87456 0
M  V30 34598 N 3285.82 -0.406513 1.52267 0
M  V30 34599 C 3287.23 -0.745324 1.41128 0
M  V30 34600 C 3287.43 -1.94732 0.517837 0
M  V30 34601 O 3286.49 -2.52495 -0.0153843 0
M  V30 34602 C 3287.8 -0.996809 2.83697 0
M  V30 34603 C 3289.35 -1.09936 2.93058 0
M  V30 34604 C 3289.82 -1.38359 4.36601 0
M  V30 34605 N 3291.32 -1.45219 4.39847 0
M  V30 34606 C 3292.05 -1.68843 5.47978 0
M  V30 34607 N 3291.55 -1.90053 6.66222 0
M  V30 34608 N 3293.34 -1.70879 5.35497 0
M  V30 34609 H 3285.49 0.384669 2.08888 0
M  V30 34610 H 3287.75 0.109826 0.941617 0
M  V30 34611 H 3287.46 -0.185924 3.51208 0
M  V30 34612 H 3287.33 -1.91627 3.24899 0
M  V30 34613 H 3289.72 -1.90084 2.25726 0
M  V30 34614 H 3289.8 -0.158211 2.5531 0
M  V30 34615 H 3289.45 -0.587284 5.04493 0
M  V30 34616 H 3289.38 -2.33731 4.71887 0
M  V30 34617 H 3291.87 -1.30606 3.54613 0
M  V30 34618 H 3292.18 -2.07537 7.44411 0
M  V30 34619 H 3290.52 -1.87313 6.69282 0
M  V30 34620 H 3293.72 -1.53848 4.42096 0
M  V30 34621 H 3293.89 -1.88951 6.1984 0
M  V30 34622 N 3287.29 -1.42934 -0.663904 0
M  V30 34623 C 3288.54 -1.43984 -1.4239 0
M  V30 34624 C 3288.87 -0.0602144 -1.94407 0
M  V30 34625 O 3288.12 0.933142 -1.7202 0
M  V30 34626 C 3288.42 -2.42035 -2.62971 0
M  V30 34627 C 3288.09 -3.88163 -2.29434 0
M  V30 34628 C 3286.75 -4.27964 -2.2 0
M  V30 34629 C 3289.1 -4.80294 -2.02404 0
M  V30 34630 C 3286.43 -5.57863 -1.81676 0
M  V30 34631 C 3288.78 -6.10545 -1.65582 0
M  V30 34632 C 3287.45 -6.49334 -1.54665 0
M  V30 34633 H 3286.72 -0.526874 -0.521042 0
M  V30 34634 H 3289.36 -1.75945 -0.756011 0
M  V30 34635 H 3287.67 -2.03439 -3.34843 0
M  V30 34636 H 3289.37 -2.40106 -3.2117 0
M  V30 34637 H 3285.96 -3.56657 -2.37684 0
M  V30 34638 H 3290.14 -4.50323 -2.08621 0
M  V30 34639 H 3285.4 -5.86766 -1.71802 0
M  V30 34640 H 3289.57 -6.81414 -1.43695 0
M  V30 34641 H 3287.2 -7.49896 -1.24739 0
M  V30 34642 N 3288.77 0.901258 -1.29287 0
M  V30 34643 C 3290.18 1.46684 -1.15501 0
M  V30 34644 C 3290.53 1.94595 0.250412 0
M  V30 34645 O 3289.66 1.83578 1.14578 0
M  V30 34646 C 3290.25 2.66603 -2.09065 0
M  V30 34647 C 3288.81 3.19302 -1.99307 0
M  V30 34648 C 3287.96 1.91996 -2.00082 0
M  V30 34649 H 3290.91 0.712748 -1.41794 0
M  V30 34650 H 3290.93 3.42285 -1.66196 0
M  V30 34651 H 3290.44 2.31702 -3.11345 0
M  V30 34652 H 3288.55 3.589 -1.00109 0
M  V30 34653 H 3288.66 3.83705 -2.86892 0
M  V30 34654 H 3287.02 2.09633 -1.44658 0
M  V30 34655 H 3287.81 1.59374 -3.04064 0
M  V30 34656 N 3290.25 1.11738 1.11141 0
M  V30 34657 C 3291.2 0.778551 2.17272 0
M  V30 34658 C 3292.17 -0.251376 1.64187 0
M  V30 34659 O 3293.35 -0.127595 1.90373 0
M  V30 34660 C 3290.49 0.231306 3.44324 0
M  V30 34661 C 3289.61 1.31817 4.11398 0
M  V30 34662 C 3288.74 0.731132 5.26144 0
M  V30 34663 C 3287.78 1.79763 5.85108 0
M  V30 34664 N 3286.92 1.22985 6.91245 0
M  V30 34665 H 3291.76 1.68774 2.456 0
M  V30 34666 H 3289.29 0.84278 1.20564 0
M  V30 34667 H 3291.25 -0.103971 4.1707 0
M  V30 34668 H 3289.88 -0.641064 3.1637 0
M  V30 34669 H 3288.93 1.77035 3.36694 0
M  V30 34670 H 3290.25 2.12493 4.51274 0
M  V30 34671 H 3289.4 0.346093 6.05712 0
M  V30 34672 H 3288.14 -0.106914 4.87583 0
M  V30 34673 H 3287.14 2.19194 5.04216 0
M  V30 34674 H 3288.37 2.63876 6.25737 0
M  V30 34675 H 3286.31 0.413505 6.54695 0
M  V30 34676 H 3286.23 1.97329 7.29793 0
M  V30 34677 H 3287.5 0.871806 7.74609 0
M  V30 34678 N 3291.73 -1.28802 0.90817 0
M  V30 34679 C 3292.66 -2.25701 0.336803 0
M  V30 34680 C 3293.64 -1.52805 -0.555822 0
M  V30 34681 O 3294.82 -1.81728 -0.500731 0
M  V30 34682 C 3291.95 -3.34699 -0.519095 0
M  V30 34683 C 3291 -4.25391 0.307378 0
M  V30 34684 S 3291.83 -5.07444 1.71057 0
M  V30 34685 C 3292.99 -6.19938 0.861824 0
M  V30 34686 H 3293.22 -2.73816 1.1581 0
M  V30 34687 H 3290.75 -1.37156 0.709057 0
M  V30 34688 H 3292.71 -3.97954 -1.00711 0
M  V30 34689 H 3291.37 -2.85261 -1.31472 0
M  V30 34690 H 3290.56 -5.02805 -0.346818 0
M  V30 34691 H 3290.17 -3.6683 0.728842 0
M  V30 34692 H 3292.46 -6.77442 0.0889701 0
M  V30 34693 H 3293.4 -6.89593 1.60833 0
M  V30 34694 H 3293.81 -5.62991 0.412465 0
M  V30 34695 N 3293.21 -0.67155 -1.42576 0
M  V30 34696 C 3294.45 -0.192752 -2.01882 0
M  V30 34697 C 3294.79 1.19651 -1.52962 0
M  V30 34698 O 3294.06 1.80263 -0.730436 0
M  V30 34699 C 3294.34 -0.223798 -3.59404 0
M  V30 34700 C 3294.2 -1.64828 -4.18511 0
M  V30 34701 C 3295.52 0.429781 -4.37996 0
M  V30 34702 H 3292.63 -0.0715154 -0.733522 0
M  V30 34703 H 3295.28 -0.855718 -1.69639 0
M  V30 34704 H 3293.43 0.340708 -3.87003 0
M  V30 34705 H 3295.1 -2.26479 -4.01877 0
M  V30 34706 H 3293.34 -2.18997 -3.74463 0
M  V30 34707 H 3294.01 -1.62172 -5.2764 0
M  V30 34708 H 3296.49 -0.0507164 -4.16069 0
M  V30 34709 H 3295.36 0.377407 -5.47601 0
M  V30 34710 H 3295.63 1.50686 -4.15627 0
M  V30 34711 N 3294.68 1.52047 -0.414663 0
M  V30 34712 C 3295.91 2.06291 0.15865 0
M  V30 34713 C 3296.33 1.28423 1.38395 0
M  V30 34714 O 3295.68 0.33757 1.79351 0
M  V30 34715 C 3295.74 3.57975 0.503571 0
M  V30 34716 O 3295.46 4.32899 -0.673072 0
M  V30 34717 C 3296.96 4.28655 1.13002 0
M  V30 34718 H 3294.18 0.67076 0.0179504 0
M  V30 34719 H 3296.72 1.95888 -0.587212 0
M  V30 34720 H 3294.88 3.68368 1.19933 0
M  V30 34721 H 3295.29 5.23094 -0.383827 0
M  V30 34722 H 3296.76 5.35947 1.32153 0
M  V30 34723 H 3297.24 3.85486 2.10469 0
M  V30 34724 H 3297.85 4.22647 0.474305 0
M  V30 34725 N 3296.16 0.145261 1.56929 0
M  V30 34726 C 3297.39 -0.516528 2.00865 0
M  V30 34727 C 3297.81 -1.5774 1.02469 0
M  V30 34728 O 3297.17 -1.813 0.000177307 0
M  V30 34729 C 3297.22 -1.09557 3.43554 0
M  V30 34730 O 3296.32 -2.21049 3.48154 0
M  V30 34731 H 3295.66 -0.12651 0.651837 0
M  V30 34732 H 3298.19 0.241481 2.0317 0
M  V30 34733 H 3298.2 -1.42466 3.82318 0
M  V30 34734 H 3296.88 -0.318677 4.14677 0
M  V30 34735 H 3295.46 -1.89381 3.21231 0
M  V30 34736 N 3297.64 -1.57075 -0.128525 0
M  V30 34737 C 3298.88 -1.86162 -0.843979 0
M  V30 34738 C 3299.25 -0.732011 -1.77498 0
M  V30 34739 O 3300.45 -0.904402 -2.53128 0
M  V30 34740 C 3298.72 -3.20464 -1.58232 0
M  V30 34741 S 3300.28 -3.71158 -2.34066 0
M  V30 34742 H 3297.09 -0.652739 -0.281873 0
M  V30 34743 H 3299.7 -1.95229 -0.102868 0
M  V30 34744 H 3298.4 -4.0063 -0.890175 0
M  V30 34745 H 3297.93 -3.1445 -2.36399 0
M  V30 34746 H 3299.95 -3.41898 -3.59611 0
M  V30 34747 N 3299.12 0.398432 -1.5248 0
M  V30 34748 C 3300.36 1.15343 -1.68746 0
M  V30 34749 C 3300.72 1.87488 -0.413772 0
M  V30 34750 O 3301.92 2.64961 -0.45267 0
M  V30 34751 C 3300.2 2.11306 -2.88244 0
M  V30 34752 S 3301.75 2.9477 -3.25048 0
M  V30 34753 H 3298.57 0.390588 -0.594106 0
M  V30 34754 H 3301.17 0.439195 -1.90503 0
M  V30 34755 H 3299.88 1.5701 -3.79178 0
M  V30 34756 H 3299.41 2.87253 -2.68792 0
M  V30 34757 H 3301.42 4.13356 -2.74502 0
M  V30 34758 N 3300.6 1.43284 0.656314 0
M  V30 34759 C 3302.01 1.26616 0.971623 0
M  V30 34760 C 3302.21 0.183647 2.00661 0
M  V30 34761 O 3301.27 -0.43896 2.48655 0
M  V30 34762 C 3302.58 2.62942 1.45883 0
M  V30 34763 C 3304.13 2.70449 1.57564 0
M  V30 34764 C 3304.61 4.07185 2.09677 0
M  V30 34765 N 3306.1 4.09234 2.16984 0
M  V30 34766 C 3306.83 5.11865 2.58421 0
M  V30 34767 N 3306.33 6.24872 2.99177 0
M  V30 34768 N 3308.12 4.9922 2.58334 0
M  V30 34769 H 3300.27 2.12381 -0.0286104 0
M  V30 34770 H 3302.53 0.946692 0.0497751 0
M  V30 34771 H 3302.24 3.43105 0.772762 0
M  V30 34772 H 3302.11 2.88126 2.4344 0
M  V30 34773 H 3304.5 1.9062 2.25273 0
M  V30 34774 H 3304.58 2.49033 0.584485 0
M  V30 34775 H 3304.23 4.87479 1.42571 0
M  V30 34776 H 3304.16 4.25963 3.09618 0
M  V30 34777 H 3306.65 3.27661 1.88272 0
M  V30 34778 H 3306.96 6.99018 3.29536 0
M  V30 34779 H 3305.31 6.28349 2.96989 0
M  V30 34780 H 3308.5 4.10002 2.25868 0
M  V30 34781 H 3308.67 5.79333 2.90305 0
M  V30 34782 N 3302.08 -0.894389 1.29763 0
M  V30 34783 C 3303.32 -1.64537 1.18042 0
M  V30 34784 C 3303.65 -1.9266 -0.266936 0
M  V30 34785 O 3302.91 -1.53918 -1.20863 0
M  V30 34786 C 3303.2 -2.99865 1.94463 0
M  V30 34787 C 3302.87 -2.9133 3.44148 0
M  V30 34788 C 3301.53 -2.88709 3.84968 0
M  V30 34789 C 3303.88 -2.80147 4.39508 0
M  V30 34790 C 3301.21 -2.72732 5.19456 0
M  V30 34791 C 3303.56 -2.65708 5.74092 0
M  V30 34792 C 3302.23 -2.61457 6.14163 0
M  V30 34793 H 3301.5 -0.602082 0.431947 0
M  V30 34794 H 3304.15 -1.0406 1.6076 0
M  V30 34795 H 3302.45 -3.64239 1.44352 0
M  V30 34796 H 3304.15 -3.56913 1.82794 0
M  V30 34797 H 3300.74 -2.94174 3.11704 0
M  V30 34798 H 3304.92 -2.81244 4.0892 0
M  V30 34799 H 3300.18 -2.67848 5.49606 0
M  V30 34800 H 3304.35 -2.56027 6.47629 0
M  V30 34801 H 3301.98 -2.48834 7.18321 0
M  V30 34802 N 3303.55 -1.12326 -1.10547 0
M  V30 34803 C 3304.48 -0.812454 -2.1891 0
M  V30 34804 C 3305.46 0.223241 -1.68629 0
M  V30 34805 O 3306.65 0.0846843 -1.94015 0
M  V30 34806 C 3303.78 -0.265008 -3.46287 0
M  V30 34807 C 3302.73 -1.23363 -4.09836 0
M  V30 34808 C 3302.06 -0.546467 -5.319 0
M  V30 34809 C 3303.36 -2.58786 -4.53682 0
M  V30 34810 H 3305.05 -1.71855 -2.45166 0
M  V30 34811 H 3302.6 -0.827735 -1.17833 0
M  V30 34812 H 3304.55 -0.0353105 -4.21385 0
M  V30 34813 H 3303.28 0.676423 -3.19519 0
M  V30 34814 H 3301.94 -1.44912 -3.36743 0
M  V30 34815 H 3301.58 0.400068 -5.01406 0
M  V30 34816 H 3301.28 -1.19259 -5.7537 0
M  V30 34817 H 3302.81 -0.32578 -6.0973 0
M  V30 34818 H 3304.22 -2.41272 -5.20058 0
M  V30 34819 H 3302.62 -3.19466 -5.07998 0
M  V30 34820 H 3303.69 -3.17315 -3.66659 0
M  V30 34821 N 3305.03 1.28319 -0.914988 0
M  V30 34822 C 3306.27 1.96696 -0.555899 0
M  V30 34823 C 3306.64 1.7043 0.88417 0
M  V30 34824 O 3307.84 2.32388 1.3509 0
M  V30 34825 C 3306.11 3.46948 -0.858003 0
M  V30 34826 S 3307.67 4.34602 -0.605518 0
M  V30 34827 H 3304.48 0.680609 -0.205652 0
M  V30 34828 H 3307.09 1.55819 -1.1807 0
M  V30 34829 H 3305.79 3.6356 -1.904 0
M  V30 34830 H 3305.32 3.92774 -0.2219 0
M  V30 34831 H 3307.34 4.93225 0.542571 0
M  V30 34832 N 3306.51 0.679102 1.42218 0
M  V30 34833 C 3307.74 0.211378 2.05516 0
M  V30 34834 C 3308.15 -1.13824 1.51132 0
M  V30 34835 O 3307.49 -1.71906 0.647624 0
M  V30 34836 C 3307.55 0.0736639 3.59425 0
M  V30 34837 C 3307.22 1.35268 4.36522 0
M  V30 34838 C 3308.21 2.28706 4.66893 0
M  V30 34839 C 3305.9 1.60147 4.76086 0
M  V30 34840 C 3307.89 3.45298 5.35769 0
M  V30 34841 C 3305.58 2.77027 5.44701 0
M  V30 34842 C 3306.58 3.69426 5.74468 0
M  V30 34843 O 3306.27 4.84261 6.41674 0
M  V30 34844 H 3306 0.0993435 0.66866 0
M  V30 34845 H 3308.55 0.927466 1.83268 0
M  V30 34846 H 3306.78 -0.698043 3.80348 0
M  V30 34847 H 3308.47 -0.354741 4.04347 0
M  V30 34848 H 3309.24 2.10736 4.36824 0
M  V30 34849 H 3305.12 0.890967 4.52308 0
M  V30 34850 H 3308.66 4.17438 5.5892 0
M  V30 34851 H 3304.56 2.9492 5.74188 0
M  V30 34852 H 3305.32 4.83862 6.60167 0
M  V30 34853 N 3307.99 -1.51825 0.42272 0
M  V30 34854 C 3309.23 -2.01954 -0.148606 0
M  V30 34855 C 3309.56 -1.30767 -1.4398 0
M  V30 34856 O 3308.82 -0.406702 -1.91427 0
M  V30 34857 C 3309.12 -3.5481 -0.429454 0
M  V30 34858 C 3308.78 -4.44204 0.774166 0
M  V30 34859 C 3307.44 -4.68358 1.10428 0
M  V30 34860 C 3309.8 -4.96745 1.57779 0
M  V30 34861 C 3307.12 -5.42298 2.23897 0
M  V30 34862 C 3309.48 -5.71928 2.70335 0
M  V30 34863 C 3308.14 -5.9435 3.03817 0
M  V30 34864 H 3307.41 -0.739002 -0.0543787 0
M  V30 34865 H 3310.06 -1.82916 0.566924 0
M  V30 34866 H 3308.36 -3.72101 -1.22671 0
M  V30 34867 H 3310.06 -3.91119 -0.884692 0
M  V30 34868 H 3306.65 -4.25592 0.506909 0
M  V30 34869 H 3310.83 -4.77981 1.33597 0
M  V30 34870 H 3306.09 -5.57876 2.50169 0
M  V30 34871 H 3310.26 -6.11632 3.32984 0
M  V30 34872 H 3307.89 -6.51424 3.91855 0
M  V30 34873 N 3309.47 -0.153581 -1.5685 0
M  V30 34874 C 3310.71 0.498551 -1.98227 0
M  V30 34875 C 3311.07 1.61603 -1.03674 0
M  V30 34876 O 3312.27 2.32948 -1.34121 0
M  V30 34877 C 3310.54 0.985618 -3.43541 0
M  V30 34878 S 3312.1 1.64143 -4.06943 0
M  V30 34879 H 3308.92 0.160981 -0.692536 0
M  V30 34880 H 3311.52 -0.246852 -1.93935 0
M  V30 34881 H 3310.22 0.161636 -4.10082 0
M  V30 34882 H 3309.76 1.76549 -3.5156 0
M  V30 34883 H 3311.77 2.92893 -4.00535 0
M  V30 34884 N 3310.94 1.57141 0.120193 0
M  V30 34885 C 3312.36 1.52408 0.473691 0
M  V30 34886 C 3312.56 0.866386 1.81923 0
M  V30 34887 O 3311.62 0.448217 2.4849 0
M  V30 34888 C 3312.93 2.97172 0.459285 0
M  V30 34889 C 3314.48 3.08255 0.542921 0
M  V30 34890 C 3314.95 4.54577 0.558916 0
M  V30 34891 N 3316.44 4.59027 0.620388 0
M  V30 34892 C 3317.18 5.69656 0.654192 0
M  V30 34893 N 3316.67 6.89784 0.645714 0
M  V30 34894 N 3318.47 5.57761 0.69711 0
M  V30 34895 H 3310.62 1.98282 -0.761455 0
M  V30 34896 H 3312.88 0.905474 -0.280752 0
M  V30 34897 H 3312.59 3.48656 -0.461715 0
M  V30 34898 H 3312.46 3.54546 1.28752 0
M  V30 34899 H 3314.85 2.56774 1.45434 0
M  V30 34900 H 3314.93 2.53878 -0.312981 0
M  V30 34901 H 3314.57 5.06703 -0.348456 0
M  V30 34902 H 3314.5 5.06765 1.43168 0
M  V30 34903 H 3316.99 3.72558 0.633153 0
M  V30 34904 H 3317.31 7.69854 0.674098 0
M  V30 34905 H 3315.65 6.9229 0.613157 0
M  V30 34906 H 3318.84 4.6282 0.701089 0
M  V30 34907 H 3319.02 6.43988 0.719987 0
M  V30 34908 N 3312.42 -0.39034 1.5269 0
M  V30 34909 C 3313.67 -1.13269 1.66892 0
M  V30 34910 C 3313.98 -1.91158 0.414467 0
M  V30 34911 O 3315.19 -2.67966 0.436606 0
M  V30 34912 C 3313.65 -2.06258 2.94933 0
M  V30 34913 C 3313.25 -1.33797 4.27554 0
M  V30 34914 C 3315 -2.80637 3.18502 0
M  V30 34915 C 3312.91 -2.25545 5.46702 0
M  V30 34916 H 3311.84 -0.426538 0.621756 0
M  V30 34917 H 3314.49 -0.395584 1.79185 0
M  V30 34918 H 3312.87 -2.83599 2.76383 0
M  V30 34919 H 3314.04 -0.616916 4.56652 0
M  V30 34920 H 3312.36 -0.713841 4.10236 0
M  V30 34921 H 3314.95 -3.4946 4.04699 0
M  V30 34922 H 3315.3 -3.44638 2.33517 0
M  V30 34923 H 3315.83 -2.10389 3.37611 0
M  V30 34924 H 3312.57 -1.6616 6.34091 0
M  V30 34925 H 3312.09 -2.9557 5.21918 0
M  V30 34926 H 3313.77 -2.85658 5.80524 0
M  V30 34927 N 3313.9 -1.4363 -0.648706 0
M  V30 34928 C 3315.13 -1.49151 -1.44114 0
M  V30 34929 C 3315.55 -0.111985 -1.87766 0
M  V30 34930 O 3314.91 0.895221 -1.57656 0
M  V30 34931 C 3314.96 -2.44628 -2.64933 0
M  V30 34932 O 3314.06 -1.93566 -3.64151 0
M  V30 34933 H 3313.4 -0.504319 -0.431924 0
M  V30 34934 H 3315.93 -1.8859 -0.793406 0
M  V30 34935 H 3315.94 -2.62082 -3.12693 0
M  V30 34936 H 3314.62 -3.4484 -2.32504 0
M  V30 34937 H 3313.19 -1.85794 -3.23318 0
M  V30 34938 N 3315.38 0.887495 -1.30236 0
M  V30 34939 C 3316.79 1.17035 -1.08512 0
M  V30 34940 C 3316.99 2.00897 0.155752 0
M  V30 34941 O 3316.05 2.3776 0.850081 0
M  V30 34942 C 3317.36 1.87947 -2.34727 0
M  V30 34943 C 3318.91 2.00722 -2.40166 0
M  V30 34944 C 3319.39 2.75045 -3.66216 0
M  V30 34945 N 3320.88 2.82592 -3.67009 0
M  V30 34946 C 3321.61 3.40668 -4.6123 0
M  V30 34947 N 3321.11 3.99813 -5.65793 0
M  V30 34948 N 3322.9 3.38459 -4.48778 0
M  V30 34949 H 3315.05 0.32826 -2.09848 0
M  V30 34950 H 3317.32 0.207964 -0.924908 0
M  V30 34951 H 3317.02 1.33768 -3.25268 0
M  V30 34952 H 3316.9 2.88346 -2.4318 0
M  V30 34953 H 3319.28 2.54072 -1.50105 0
M  V30 34954 H 3319.36 0.994176 -2.3569 0
M  V30 34955 H 3319.01 2.22368 -4.56634 0
M  V30 34956 H 3318.94 3.7672 -3.67953 0
M  V30 34957 H 3321.43 2.40597 -2.91413 0
M  V30 34958 H 3321.74 4.42186 -6.33791 0
M  V30 34959 H 3320.09 3.9824 -5.69588 0
M  V30 34960 H 3323.28 2.91479 -3.66275 0
M  V30 34961 H 3323.45 3.83424 -5.22389 0
M  V30 34962 N 3316.86 1.12911 1.0995 0
M  V30 34963 C 3317.79 0.759343 2.16256 0
M  V30 34964 C 3318.8 -0.216398 1.61355 0
M  V30 34965 O 3319.99 0.00300362 1.785 0
M  V30 34966 C 3317.09 0.103967 3.3874 0
M  V30 34967 C 3316.26 1.11044 4.2307 0
M  V30 34968 C 3315.32 0.481759 5.2399 0
M  V30 34969 O 3314.35 1.14021 5.57663 0
M  V30 34970 N 3315.55 -0.748596 5.75653 0
M  V30 34971 H 3318.32 1.67409 2.48585 0
M  V30 34972 H 3315.88 1.02139 1.25615 0
M  V30 34973 H 3317.87 -0.328729 4.03363 0
M  V30 34974 H 3316.44 -0.713623 3.04345 0
M  V30 34975 H 3315.66 1.7206 3.54667 0
M  V30 34976 H 3316.95 1.79086 4.76241 0
M  V30 34977 H 3316.34 -1.30243 5.50503 0
M  V30 34978 H 3314.9 -1.12403 6.42035 0
M  V30 34979 N 3318.33 -1.27832 0.92178 0
M  V30 34980 C 3319.28 -2.29017 0.406668 0
M  V30 34981 C 3320.28 -1.6167 -0.505886 0
M  V30 34982 O 3321.48 -1.75807 -0.386243 0
M  V30 34983 H 3317.86 -0.743473 0.112927 0
M  V30 34984 H 3319.83 -2.69884 1.273 0
M  V30 34985 C 3318.58 -3.46124 -0.330722 0
M  V30 34986 H 3317.9 -3.98155 0.362277 0
M  V30 34987 H 3319.34 -4.189 -0.655665 0
M  V30 34988 C 3317.8 -2.99562 -1.54156 0
M  V30 34989 O 3318.33 -3.02725 -2.64047 0
M  V30 34990 N 3316.54 -2.55128 -1.39133 0
M  V30 34991 H 3316.08 -2.52755 -0.497275 0
M  V30 34992 H 3316.04 -2.24336 -2.20274 0
M  V30 34993 N 3319.81 -0.686634 -1.41856 0
M  V30 34994 C 3320.74 0.0233886 -2.29188 0
M  V30 34995 C 3321.76 0.753515 -1.44312 0
M  V30 34996 O 3322.95 0.605704 -1.67909 0
M  V30 34997 C 3320.05 1.05707 -3.21993 0
M  V30 34998 C 3319.22 0.398376 -4.35582 0
M  V30 34999 C 3318.28 1.33345 -5.09024 0
M  V30 35000 O 3317.3 0.829235 -5.63127 0
M  V30 35001 N 3318.51 2.66622 -5.15648 0
M  V30 35002 H 3321.27 -0.726346 -2.90765 0
M  V30 35003 H 3318.83 -0.531964 -1.52911 0
M  V30 35004 H 3320.82 1.68415 -3.67993 0
M  V30 35005 H 3319.39 1.70843 -2.61785 0
M  V30 35006 H 3318.61 -0.408427 -3.92078 0
M  V30 35007 H 3319.9 -0.0600134 -5.08765 0
M  V30 35008 H 3319.3 3.10114 -4.73123 0
M  V30 35009 H 3317.86 3.24548 -5.65254 0
M  V30 35010 N 3321.29 1.51599 -0.430766 0
M  V30 35011 C 3322.71 1.59385 -0.0827182 0
M  V30 35012 C 3322.91 1.44217 1.40726 0
M  V30 35013 O 3321.96 1.28006 2.17648 0
M  V30 35014 C 3323.28 2.94715 -0.596962 0
M  V30 35015 C 3324.82 3.08007 -0.556826 0
M  V30 35016 C 3325.3 4.4585 -1.04793 0
M  V30 35017 N 3326.79 4.52151 -1.00565 0
M  V30 35018 C 3327.52 5.57121 -1.35659 0
M  V30 35019 N 3327.02 6.69541 -1.78006 0
M  V30 35020 N 3328.81 5.47445 -1.27518 0
M  V30 35021 H 3320.96 1.59704 -1.4003 0
M  V30 35022 H 3323.23 0.752472 -0.576619 0
M  V30 35023 H 3322.93 3.11164 -1.63919 0
M  V30 35024 H 3322.81 3.77196 -0.0183005 0
M  V30 35025 H 3325.19 2.91229 0.476406 0
M  V30 35026 H 3325.28 2.27381 -1.17181 0
M  V30 35027 H 3324.92 4.63374 -2.0796 0
M  V30 35028 H 3324.85 5.25005 -0.409553 0
M  V30 35029 H 3327.34 3.71462 -0.694583 0
M  V30 35030 H 3327.65 7.45651 -2.03039 0
M  V30 35031 H 3326 6.70766 -1.81927 0
M  V30 35032 H 3329.19 4.58502 -0.94305 0
M  V30 35033 H 3329.36 6.29141 -1.55197 0
M  V30 35034 N 3322.77 0.161897 1.56766 0
M  V30 35035 C 3323.99 -0.495195 2.01402 0
M  V30 35036 C 3324.42 -1.56644 1.04136 0
M  V30 35037 O 3323.78 -1.8129 0.0194066 0
M  V30 35038 C 3323.82 -1.05907 3.44697 0
M  V30 35039 O 3322.93 -2.17344 3.50479 0
M  V30 35040 H 3322.27 -0.119589 0.653142 0
M  V30 35041 H 3324.8 0.263016 2.02902 0
M  V30 35042 H 3324.81 -1.38403 3.83808 0
M  V30 35043 H 3323.48 -0.274677 4.14992 0
M  V30 35044 H 3322.06 -1.85963 3.23221 0
M  V30 35045 N 3324.25 -1.57203 -0.111858 0
M  V30 35046 C 3325.18 -1.96076 -1.16745 0
M  V30 35047 C 3326.16 -0.831463 -1.39734 0
M  V30 35048 O 3327.34 -1.09028 -1.5377 0
M  V30 35049 C 3324.47 -2.26313 -2.51993 0
M  V30 35050 C 3323.51 -3.48837 -2.45388 0
M  V30 35051 S 3324.35 -5.01166 -1.88661 0
M  V30 35052 C 3325.5 -5.34563 -3.25567 0
M  V30 35053 H 3325.74 -2.85304 -0.835983 0
M  V30 35054 H 3323.27 -1.51071 -0.318895 0
M  V30 35055 H 3325.23 -2.44411 -3.29808 0
M  V30 35056 H 3323.89 -1.37685 -2.82315 0
M  V30 35057 H 3323.08 -3.67382 -3.45031 0
M  V30 35058 H 3322.68 -3.30162 -1.75696 0
M  V30 35059 H 3324.98 -5.30182 -4.21798 0
M  V30 35060 H 3325.92 -6.35736 -3.11842 0
M  V30 35061 H 3326.33 -4.62032 -3.24325 0
M  V30 35062 N 3325.72 0.382237 -1.52894 0
M  V30 35063 C 3326.97 1.1266 -1.68268 0
M  V30 35064 C 3327.3 1.89777 -0.426007 0
M  V30 35065 O 3326.55 1.86539 0.591747 0
M  V30 35066 C 3326.85 2.12571 -2.87312 0
M  V30 35067 C 3326.52 1.5206 -4.24486 0
M  V30 35068 C 3325.18 1.35283 -4.61792 0
M  V30 35069 C 3327.53 1.08129 -5.0986 0
M  V30 35070 C 3324.86 0.731346 -5.82124 0
M  V30 35071 C 3327.21 0.473875 -6.30823 0
M  V30 35072 C 3325.88 0.293467 -6.66855 0
M  V30 35073 H 3325.15 0.412251 -0.615736 0
M  V30 35074 H 3327.79 0.410392 -1.87051 0
M  V30 35075 H 3326.1 2.90435 -2.62973 0
M  V30 35076 H 3327.8 2.70087 -2.96402 0
M  V30 35077 H 3324.39 1.66107 -3.95103 0
M  V30 35078 H 3328.57 1.19889 -4.81602 0
M  V30 35079 H 3323.83 0.579831 -6.08644 0
M  V30 35080 H 3328 0.125201 -6.96287 0
M  V30 35081 H 3325.63 -0.190187 -7.59962 0
M  V30 35082 N 3327.2 1.43972 0.64108 0
M  V30 35083 C 3328.48 1.36707 1.39895 0
M  V30 35084 C 3328.86 0.0208422 2.1109 0
M  V30 35085 O 3328.21 -0.996214 2.0564 0
M  V30 35086 C 3328.42 2.55853 2.37361 0
M  V30 35087 C 3329.77 2.99479 3.00995 0
M  V30 35088 O 3330.79 2.55987 2.47688 0
M  V30 35089 O 3329.65 3.74858 3.97673 0
M  V30 35090 H 3326.74 0.540866 0.625614 0
M  V30 35091 H 3329.29 1.56044 0.66697 0
M  V30 35092 H 3328.06 3.45455 1.83784 0
M  V30 35093 H 3327.68 2.38678 3.17991 0
M  V30 35094 N 3328.68 -0.880575 1.30704 0
M  V30 35095 C 3329.63 -1.97416 1.14065 0
M  V30 35096 C 3330.62 -1.60807 0.0545823 0
M  V30 35097 O 3331.81 -1.74797 0.278375 0
M  V30 35098 C 3328.94 -3.32887 0.839121 0
M  V30 35099 C 3328.02 -3.75796 1.96566 0
M  V30 35100 N 3328.41 -3.90762 3.21152 0
M  V30 35101 C 3326.71 -4.05226 1.86301 0
M  V30 35102 C 3327.41 -4.27234 3.94774 0
M  V30 35103 N 3326.39 -4.37337 3.22858 0
M  V30 35104 H 3330.19 -2.07083 2.08551 0
M  V30 35105 H 3327.7 -1.07068 1.22108 0
M  V30 35106 H 3329.7 -4.10966 0.700923 0
M  V30 35107 H 3328.36 -3.24553 -0.0976237 0
M  V30 35108 H 3329.37 -3.75774 3.5639 0
M  V30 35109 H 3326.05 -4.05341 1.00023 0
M  V30 35110 H 3327.44 -4.46499 5.02084 0
M  V30 35111 N 3330.16 -1.13492 -1.09349 0
M  V30 35112 C 3331.09 -0.835627 -2.18036 0
M  V30 35113 C 3332.07 0.205343 -1.68856 0
M  V30 35114 O 3333.26 0.0641016 -1.94094 0
M  V30 35115 C 3330.39 -0.301721 -3.45987 0
M  V30 35116 C 3329.34 -1.27703 -4.08505 0
M  V30 35117 C 3328.67 -0.602851 -5.31291 0
M  V30 35118 C 3329.97 -2.63583 -4.50912 0
M  V30 35119 H 3331.66 -1.74446 -2.43329 0
M  V30 35120 H 3329.21 -0.840186 -1.16948 0
M  V30 35121 H 3331.16 -0.0800021 -4.21324 0
M  V30 35122 H 3329.88 0.642496 -3.20218 0
M  V30 35123 H 3328.54 -1.48475 -3.35187 0
M  V30 35124 H 3328.19 0.346865 -5.01803 0
M  V30 35125 H 3327.89 -1.25355 -5.74073 0
M  V30 35126 H 3329.41 -0.390432 -6.0935 0
M  V30 35127 H 3330.83 -2.46774 -5.1747 0
M  V30 35128 H 3329.22 -3.24836 -5.04581 0
M  V30 35129 H 3330.29 -3.21186 -3.63273 0
M  V30 35130 N 3331.64 1.27341 -0.928546 0
M  V30 35131 C 3332.86 1.98973 -0.585195 0
M  V30 35132 C 3333.29 1.68801 0.829935 0
M  V30 35133 O 3332.65 0.928765 1.55704 0
M  V30 35134 C 3332.69 3.51183 -0.818724 0
M  V30 35135 O 3331.8 4.12239 0.115283 0
M  V30 35136 H 3331.14 0.62464 -0.225214 0
M  V30 35137 H 3333.67 1.62128 -1.24803 0
M  V30 35138 H 3333.68 4.01332 -0.734624 0
M  V30 35139 H 3332.35 3.72476 -1.85026 0
M  V30 35140 H 3330.93 3.72895 -0.0188026 0
M  V30 35141 N 3333.12 0.694147 1.4149 0
M  V30 35142 C 3334.35 0.233164 2.0528 0
M  V30 35143 C 3334.75 -1.12214 1.52331 0
M  V30 35144 O 3334.1 -1.71209 0.66582 0
M  V30 35145 C 3334.16 0.111782 3.59326 0
M  V30 35146 C 3333.82 1.3989 4.35063 0
M  V30 35147 C 3334.82 2.33645 4.64441 0
M  V30 35148 C 3332.5 1.65188 4.74361 0
M  V30 35149 C 3334.5 3.50961 5.32076 0
M  V30 35150 C 3332.19 2.82789 5.41732 0
M  V30 35151 C 3333.18 3.75498 5.70517 0
M  V30 35152 O 3332.87 4.9104 6.36502 0
M  V30 35153 H 3332.6 0.10643 0.667569 0
M  V30 35154 H 3335.16 0.946852 1.82274 0
M  V30 35155 H 3333.39 -0.657663 3.81067 0
M  V30 35156 H 3335.08 -0.311835 4.047 0
M  V30 35157 H 3335.84 2.15358 4.34564 0
M  V30 35158 H 3331.72 0.93889 4.51338 0
M  V30 35159 H 3335.27 4.23343 5.54461 0
M  V30 35160 H 3331.16 3.00994 5.71028 0
M  V30 35161 H 3331.93 4.90836 6.54998 0
M  V30 35162 N 3334.59 -1.51368 0.438799 0
M  V30 35163 C 3335.52 -2.3067 -0.362427 0
M  V30 35164 C 3336.5 -1.36147 -1.01971 0
M  V30 35165 O 3337.69 -1.65067 -1.02307 0
M  V30 35166 C 3334.82 -3.14979 -1.46307 0
M  V30 35167 C 3333.77 -4.17792 -0.929198 0
M  V30 35168 C 3333.1 -4.9063 -2.1257 0
M  V30 35169 C 3334.4 -5.22287 0.03737 0
M  V30 35170 H 3336.09 -2.979 0.299363 0
M  V30 35171 H 3333.64 -1.43264 0.145415 0
M  V30 35172 H 3335.59 -3.69237 -2.03081 0
M  V30 35173 H 3334.32 -2.45573 -2.15317 0
M  V30 35174 H 3332.98 -3.64587 -0.383658 0
M  V30 35175 H 3332.62 -4.17727 -2.80203 0
M  V30 35176 H 3332.32 -5.60154 -1.77486 0
M  V30 35177 H 3333.85 -5.47713 -2.69895 0
M  V30 35178 H 3335.26 -5.71608 -0.440119 0
M  V30 35179 H 3333.66 -5.99345 0.300854 0
M  V30 35180 H 3334.73 -4.75026 0.973586 0
M  V30 35181 N 3336.07 -0.170208 -1.56678 0
M  V30 35182 C 3337 0.756174 -2.20917 0
M  V30 35183 C 3337.98 1.23995 -1.16445 0
M  V30 35184 O 3339.17 1.29331 -1.4487 0
M  V30 35185 C 3336.3 1.98612 -2.84905 0
M  V30 35186 C 3335.25 1.63824 -3.95406 0
M  V30 35187 C 3334.58 2.94275 -4.46438 0
M  V30 35188 C 3335.88 0.867104 -5.15052 0
M  V30 35189 H 3337.57 0.220723 -2.98585 0
M  V30 35190 H 3335.12 0.104723 -1.43619 0
M  V30 35191 H 3337.07 2.6392 -3.28518 0
M  V30 35192 H 3335.79 2.54569 -2.04603 0
M  V30 35193 H 3334.45 1.00885 -3.52445 0
M  V30 35194 H 3334.1 3.48269 -3.62929 0
M  V30 35195 H 3333.8 2.71752 -5.20984 0
M  V30 35196 H 3335.33 3.60614 -4.92737 0
M  V30 35197 H 3336.74 1.42275 -5.55365 0
M  V30 35198 H 3335.14 0.74096 -5.95508 0
M  V30 35199 H 3336.21 -0.136778 -4.84707 0
M  V30 35200 N 3337.55 1.5726 0.10352 0
M  V30 35201 C 3338.46 2.04777 1.14472 0
M  V30 35202 C 3339.48 0.97105 1.44384 0
M  V30 35203 O 3340.65 1.28364 1.55192 0
M  V30 35204 C 3337.72 2.45562 2.44745 0
M  V30 35205 C 3336.78 3.67388 2.22091 0
M  V30 35206 C 3336.01 4.06219 3.46153 0
M  V30 35207 O 3336.23 3.45227 4.54064 0
M  V30 35208 O 3335.17 4.99226 3.36239 0
M  V30 35209 H 3338.99 2.93746 0.771159 0
M  V30 35210 H 3336.58 1.46032 0.31543 0
M  V30 35211 H 3338.46 2.7246 3.21471 0
M  V30 35212 H 3337.14 1.59733 2.81544 0
M  V30 35213 H 3336.04 3.45619 1.43173 0
M  V30 35214 H 3337.38 4.5397 1.90189 0
M  V30 35215 N 3339.03 -0.374123 1.53095 0
M  V30 35216 C 3339.98 -1.47821 1.79588 0
M  V30 35217 C 3340.97 -1.55821 0.66454 0
M  V30 35218 O 3342.18 -1.5881 0.847318 0
M  V30 35219 H 3338.55 -0.492272 0.568482 0
M  V30 35220 H 3340.52 -1.22676 2.72017 0
M  V30 35221 C 3339.27 -2.84768 1.99505 0
M  V30 35222 H 3338.59 -2.79368 2.85996 0
M  V30 35223 H 3340.03 -3.61222 2.22024 0
M  V30 35224 C 3338.49 -3.27942 0.771731 0
M  V30 35225 O 3339.02 -4.01676 -0.0437031 0
M  V30 35226 N 3337.23 -2.84389 0.597597 0
M  V30 35227 H 3336.78 -2.24552 1.26231 0
M  V30 35228 H 3336.73 -3.13633 -0.219523 0
M  V30 35229 N 3340.51 -1.4431 -0.633436 0
M  V30 35230 C 3341.73 -1.50671 -1.42524 0
M  V30 35231 C 3342.16 -0.131894 -1.87637 0
M  V30 35232 O 3341.51 0.878449 -1.58597 0
M  V30 35233 C 3341.56 -2.47424 -2.62324 0
M  V30 35234 O 3340.67 -1.97417 -3.62078 0
M  V30 35235 H 3340.01 -0.508872 -0.426551 0
M  V30 35236 H 3342.54 -1.89421 -0.773359 0
M  V30 35237 H 3342.55 -2.65384 -3.09896 0
M  V30 35238 H 3341.22 -3.47287 -2.28834 0
M  V30 35239 H 3339.8 -1.89213 -3.2133 0
M  V30 35240 N 3341.98 0.873632 -1.3117 0
M  V30 35241 C 3343.23 1.62317 -1.20407 0
M  V30 35242 C 3343.55 1.93532 0.238795 0
M  V30 35243 O 3342.82 1.57973 1.15851 0
M  V30 35244 H 3341.4 0.601728 -0.442642 0
M  V30 35245 H 3344.07 1.0461 -1.64447 0
M  V30 35246 H 3343.16 2.56839 -1.77314 0
M  V30 35247 N 3343.46 1.1407 1.08746 0
M  V30 35248 C 3344.71 0.901383 1.80438 0
M  V30 35249 C 3345.02 -0.573758 1.86996 0
M  V30 35250 O 3346.23 -0.93023 2.55067 0
M  V30 35251 C 3344.69 1.56314 3.24182 0
M  V30 35252 C 3344.29 3.0743 3.2587 0
M  V30 35253 C 3346.04 1.4048 4.00582 0
M  V30 35254 C 3343.95 3.66458 4.6418 0
M  V30 35255 H 3342.88 0.333581 0.676195 0
M  V30 35256 H 3345.53 1.36922 1.22166 0
M  V30 35257 H 3343.91 1.02297 3.82559 0
M  V30 35258 H 3345.08 3.68085 2.77219 0
M  V30 35259 H 3343.4 3.22861 2.62963 0
M  V30 35260 H 3345.99 1.81985 5.02778 0
M  V30 35261 H 3346.34 0.350481 4.14822 0
M  V30 35262 H 3346.87 1.91514 3.48665 0
M  V30 35263 H 3343.61 4.71727 4.55142 0
M  V30 35264 H 3343.13 3.10583 5.13126 0
M  V30 35265 H 3344.81 3.66545 5.33154 0
M  V30 35266 N 3344.94 -1.26847 0.935286 0
M  V30 35267 C 3346.19 -1.93641 0.578579 0
M  V30 35268 C 3346.51 -1.73798 -0.884266 0
M  V30 35269 O 3345.78 -1.09014 -1.62766 0
M  V30 35270 H 3344.36 -0.716584 0.210989 0
M  V30 35271 H 3347.02 -1.54405 1.18933 0
M  V30 35272 H 3346.12 -3.01902 0.791321 0
M  V30 35273 N 3346.42 -0.701641 -1.4112 0
M  V30 35274 C 3347.35 -0.0546384 -2.33436 0
M  V30 35275 C 3348.33 0.760635 -1.52146 0
M  V30 35276 O 3349.51 0.712382 -1.80662 0
M  V30 35277 C 3346.64 0.878058 -3.36017 0
M  V30 35278 C 3345.6 0.169436 -4.27664 0
M  V30 35279 C 3344.92 1.2169 -5.20668 0
M  V30 35280 C 3346.22 -0.967949 -5.13252 0
M  V30 35281 H 3347.92 -0.825688 -2.87789 0
M  V30 35282 H 3345.46 -0.398508 -1.38376 0
M  V30 35283 H 3347.42 1.33997 -3.99528 0
M  V30 35284 H 3346.14 1.68084 -2.80027 0
M  V30 35285 H 3344.8 -0.272506 -3.65586 0
M  V30 35286 H 3344.45 2.01237 -4.60991 0
M  V30 35287 H 3344.15 0.747734 -5.82823 0
M  V30 35288 H 3345.67 1.6792 -5.87056 0
M  V30 35289 H 3347.09 -0.586045 -5.70297 0
M  V30 35290 H 3345.48 -1.3646 -5.84379 0
M  V30 35291 H 3346.55 -1.8049 -4.50057 0
M  V30 35292 N 3347.9 1.51133 -0.446821 0
M  V30 35293 C 3349.14 2.01766 0.116228 0
M  V30 35294 C 3349.47 1.33241 1.42379 0
M  V30 35295 O 3348.74 0.469948 1.9018 0
M  V30 35296 H 3347.32 0.745586 0.0459427 0
M  V30 35297 H 3349.98 1.85701 -0.591697 0
M  V30 35298 H 3349.07 3.10793 0.285303 0
M  V30 35299 N 3349.37 0.178515 1.56586 0
M  V30 35300 C 3350.31 -0.787818 2.1417 0
M  V30 35301 C 3351.29 -1.22103 1.07376 0
M  V30 35302 O 3352.47 -1.31152 1.35394 0
M  V30 35303 C 3349.6 -2.06184 2.68711 0
M  V30 35304 C 3348.64 -1.77208 3.87943 0
M  V30 35305 S 3349.48 -0.934909 5.27276 0
M  V30 35306 C 3350.63 -2.21944 5.85228 0
M  V30 35307 H 3350.86 -0.298241 2.958 0
M  V30 35308 H 3348.4 -0.0362582 1.54357 0
M  V30 35309 H 3350.36 -2.79357 3.00782 0
M  V30 35310 H 3349.02 -2.52255 1.87153 0
M  V30 35311 H 3348.21 -2.71756 4.24458 0
M  V30 35312 H 3347.81 -1.12126 3.56797 0
M  V30 35313 H 3350.1 -3.17345 5.9858 0
M  V30 35314 H 3351.05 -1.89886 6.82165 0
M  V30 35315 H 3351.45 -2.34033 5.13701 0
M  V30 35316 N 3350.85 -1.57312 -0.0951784 0
M  V30 35317 C 3351.78 -1.98741 -1.14169 0
M  V30 35318 C 3352.8 -0.889958 -1.36322 0
M  V30 35319 O 3353.99 -1.16807 -1.34975 0
M  V30 35320 C 3351.09 -2.29108 -2.49725 0
M  V30 35321 C 3350.26 -3.60401 -2.47851 0
M  V30 35322 C 3349.32 -3.78705 -3.65334 0
M  V30 35323 O 3348.34 -4.50559 -3.47829 0
M  V30 35324 N 3349.55 -3.19276 -4.84812 0
M  V30 35325 H 3352.31 -2.89126 -0.789075 0
M  V30 35326 H 3349.87 -1.59387 -0.284159 0
M  V30 35327 H 3351.86 -2.38547 -3.26921 0
M  V30 35328 H 3350.43 -1.44731 -2.77077 0
M  V30 35329 H 3349.65 -3.61932 -1.56202 0
M  V30 35330 H 3350.94 -4.46653 -2.43677 0
M  V30 35331 H 3350.34 -2.60911 -5.01938 0
M  V30 35332 H 3348.9 -3.34201 -5.59601 0
M  V30 35333 N 3352.33 0.365999 -1.53291 0
M  V30 35334 C 3353.58 1.1065 -1.69119 0
M  V30 35335 C 3353.9 1.89846 -0.44536 0
M  V30 35336 O 3353.17 1.88294 0.540583 0
M  V30 35337 H 3351.75 0.411479 -0.623453 0
M  V30 35338 H 3354.41 0.412715 -1.9048 0
M  V30 35339 H 3353.51 1.79654 -2.55208 0
M  V30 35340 N 3353.81 1.44644 0.625774 0
M  V30 35341 C 3355.03 1.51424 1.41723 0
M  V30 35342 C 3355.46 0.141843 1.87564 0
M  V30 35343 O 3354.82 -0.870026 1.5906 0
M  V30 35344 C 3354.86 2.48812 2.61008 0
M  V30 35345 O 3353.97 1.99334 3.61026 0
M  V30 35346 H 3353.31 0.511127 0.423846 0
M  V30 35347 H 3355.84 1.89828 0.763303 0
M  V30 35348 H 3355.85 2.67023 3.08484 0
M  V30 35349 H 3354.52 3.48495 2.26989 0
M  V30 35350 H 3353.1 1.90915 3.20322 0
M  V30 35351 N 3355.29 -0.866663 1.31631 0
M  V30 35352 C 3356.51 -1.65267 1.24477 0
M  V30 35353 C 3356.93 -1.87848 -0.189357 0
M  V30 35354 O 3356.29 -1.43897 -1.12249 0
M  V30 35355 C 3356.34 -3.01878 1.98877 0
M  V30 35356 O 3356.06 -2.80304 3.36692 0
M  V30 35357 C 3357.56 -3.96323 1.98602 0
M  V30 35358 H 3354.78 -0.515134 0.429975 0
M  V30 35359 H 3357.32 -1.08152 1.73561 0
M  V30 35360 H 3355.48 -3.55672 1.53545 0
M  V30 35361 H 3355.89 -3.67099 3.74618 0
M  V30 35362 H 3357.37 -4.89484 2.55165 0
M  V30 35363 H 3357.84 -4.2837 0.969332 0
M  V30 35364 H 3358.45 -3.48466 2.43827 0
M  V30 35365 N 3356.77 -1.14645 -1.0814 0
M  V30 35366 C 3358.18 -0.927015 -1.6206 0
M  V30 35367 C 3358.53 0.533545 -1.88806 0
M  V30 35368 O 3357.65 1.40302 -1.64756 0
M  V30 35369 C 3358.25 -1.67635 -2.94422 0
M  V30 35370 C 3356.81 -1.50241 -3.45115 0
M  V30 35371 C 3355.95 -1.69709 -2.19304 0
M  V30 35372 H 3358.9 -1.29786 -0.913303 0
M  V30 35373 H 3358.93 -1.14114 -3.62985 0
M  V30 35374 H 3358.44 -2.73932 -2.74923 0
M  V30 35375 H 3356.54 -0.463032 -3.69712 0
M  V30 35376 H 3356.65 -2.27416 -4.21686 0
M  V30 35377 H 3355.02 -1.12295 -2.28609 0
M  V30 35378 H 3355.8 -2.77355 -2.0231 0
M  V30 35379 N 3358.24 1.26349 -0.942 0
M  V30 35380 C 3359.17 2.28722 -0.469953 0
M  V30 35381 C 3360.15 1.63269 0.47719 0
M  V30 35382 O 3361.34 1.90468 0.378869 0
M  V30 35383 C 3358.47 3.46288 0.26491 0
M  V30 35384 C 3357.42 4.23833 -0.595756 0
M  V30 35385 C 3356.75 5.34022 0.269114 0
M  V30 35386 C 3358.05 4.87772 -1.86751 0
M  V30 35387 H 3359.74 2.68457 -1.32555 0
M  V30 35388 H 3357.29 1.29054 -0.638832 0
M  V30 35389 H 3359.24 4.17017 0.606185 0
M  V30 35390 H 3357.97 3.05508 1.15466 0
M  V30 35391 H 3356.63 3.5487 -0.919938 0
M  V30 35392 H 3356.27 4.89483 1.15824 0
M  V30 35393 H 3355.97 5.86816 -0.303354 0
M  V30 35394 H 3357.5 6.07589 0.605641 0
M  V30 35395 H 3358.91 5.50711 -1.59343 0
M  V30 35396 H 3357.31 5.50687 -2.38462 0
M  V30 35397 H 3358.38 4.10667 -2.57839 0
M  V30 35398 N 3359.72 0.709115 1.40746 0
M  V30 35399 C 3361 0.17328 1.94831 0
M  V30 35400 C 3361.38 -1.31964 1.64768 0
M  V30 35401 O 3360.73 -2.07268 0.96189 0
M  V30 35402 C 3360.94 0.479074 3.45696 0
M  V30 35403 C 3362.28 0.414196 4.22575 0
M  V30 35404 O 3363.31 0.414761 3.53777 0
M  V30 35405 O 3362.17 0.386082 5.45135 0
M  V30 35406 H 3359.26 0.0229092 0.826683 0
M  V30 35407 H 3361.81 0.786205 1.50389 0
M  V30 35408 H 3360.58 1.51191 3.60911 0
M  V30 35409 H 3360.2 -0.164142 3.97261 0
M  V30 35410 N 3361.2 -1.50894 0.454829 0
M  V30 35411 C 3362.45 -2.02523 -0.105892 0
M  V30 35412 C 3362.78 -1.33726 -1.40822 0
M  V30 35413 O 3362.05 -0.457716 -1.89038 0
M  V30 35414 C 3362.34 -3.58793 -0.306572 0
M  V30 35415 C 3362.19 -4.38184 1.01564 0
M  V30 35416 C 3363.51 -4.26932 -1.06851 0
M  V30 35417 H 3360.63 -0.73607 -0.0370102 0
M  V30 35418 H 3363.27 -1.80369 0.597246 0
M  V30 35419 H 3361.42 -3.778 -0.905496 0
M  V30 35420 H 3363.09 -4.30786 1.64989 0
M  V30 35421 H 3361.33 -4.02571 1.61615 0
M  V30 35422 H 3362.01 -5.45739 0.829054 0
M  V30 35423 H 3364.48 -4.12301 -0.561014 0
M  V30 35424 H 3363.36 -5.36117 -1.1777 0
M  V30 35425 H 3363.62 -3.88984 -2.10104 0
M  V30 35426 N 3362.68 -0.186817 -1.56489 0
M  V30 35427 C 3363.64 0.723558 -2.17479 0
M  V30 35428 C 3364.64 1.14697 -1.127 0
M  V30 35429 O 3365.83 1.06141 -1.3813 0
M  V30 35430 C 3362.96 1.9868 -2.77018 0
M  V30 35431 H 3364.16 0.19235 -2.99283 0
M  V30 35432 H 3361.71 0.0627879 -1.56174 0
M  V30 35433 H 3362.44 2.56072 -1.98991 0
M  V30 35434 H 3362.23 1.69201 -3.53714 0
M  V30 35435 H 3363.72 2.63616 -3.23877 0
M  V30 35436 N 3364.16 1.57361 0.0868344 0
M  V30 35437 C 3365.12 2.01675 1.08903 0
M  V30 35438 C 3366.12 0.911486 1.32471 0
M  V30 35439 O 3367.31 1.17676 1.28445 0
M  V30 35440 C 3364.44 2.38453 2.43625 0
M  V30 35441 H 3365.63 2.91437 0.707409 0
M  V30 35442 H 3363.19 1.52731 0.332127 0
M  V30 35443 H 3363.92 1.5167 2.86647 0
M  V30 35444 H 3363.71 3.19093 2.27864 0
M  V30 35445 H 3365.2 2.73366 3.15691 0
M  V30 35446 N 3365.63 -0.357865 1.53483 0
M  V30 35447 C 3366.6 -1.42163 1.79784 0
M  V30 35448 C 3367.6 -1.46247 0.668467 0
M  V30 35449 O 3368.79 -1.46872 0.936703 0
M  V30 35450 C 3365.92 -2.81217 1.92691 0
M  V30 35451 H 3367.11 -1.20112 2.74797 0
M  V30 35452 H 3364.66 -0.591443 1.44678 0
M  V30 35453 H 3365.4 -3.08571 0.997723 0
M  V30 35454 H 3365.18 -2.7965 2.74842 0
M  V30 35455 H 3366.67 -3.58238 2.14605 0
M  V30 35456 N 3367.11 -1.44974 -0.618094 0
M  V30 35457 C 3368.34 -1.52174 -1.40918 0
M  V30 35458 C 3368.76 -0.151788 -1.87487 0
M  V30 35459 O 3368.12 0.861578 -1.5952 0
M  V30 35460 C 3368.17 -2.50192 -2.59685 0
M  V30 35461 O 3367.27 -2.01246 -3.59963 0
M  V30 35462 H 3366.61 -0.513367 -0.421129 0
M  V30 35463 H 3369.14 -1.90231 -0.753225 0
M  V30 35464 H 3369.15 -2.68655 -3.07064 0
M  V30 35465 H 3367.83 -3.49694 -2.25137 0
M  V30 35466 H 3366.4 -1.92611 -3.19305 0
M  V30 35467 N 3368.59 0.85967 -1.32089 0
M  V30 35468 C 3369.84 1.61588 -1.22544 0
M  V30 35469 C 3370.17 1.93023 0.213499 0
M  V30 35470 O 3369.44 1.56913 1.14928 0
M  V30 35471 C 3369.73 2.93946 -2.0801 0
M  V30 35472 C 3369.58 2.69324 -3.60256 0
M  V30 35473 C 3370.9 3.95162 -1.93739 0
M  V30 35474 H 3368.02 0.586339 -0.446515 0
M  V30 35475 H 3370.66 0.993036 -1.61984 0
M  V30 35476 H 3368.81 3.47103 -1.74504 0
M  V30 35477 H 3370.48 2.22759 -4.03951 0
M  V30 35478 H 3368.72 2.03375 -3.83172 0
M  V30 35479 H 3369.4 3.63547 -4.15376 0
M  V30 35480 H 3371.87 3.51246 -2.23081 0
M  V30 35481 H 3370.75 4.85639 -2.55824 0
M  V30 35482 H 3371.01 4.32767 -0.903604 0
M  V30 35483 N 3370.07 1.15217 1.0753 0
M  V30 35484 C 3371.32 0.92047 1.79472 0
M  V30 35485 C 3371.63 -0.553893 1.87594 0
M  V30 35486 O 3372.84 -0.903124 2.56039 0
M  V30 35487 C 3371.29 1.59743 3.22506 0
M  V30 35488 C 3370.9 3.10869 3.22591 0
M  V30 35489 C 3372.64 1.44721 3.99069 0
M  V30 35490 C 3370.55 3.7136 4.60267 0
M  V30 35491 H 3369.48 0.340734 0.672619 0
M  V30 35492 H 3372.13 1.3821 1.20707 0
M  V30 35493 H 3370.51 1.06349 3.81452 0
M  V30 35494 H 3371.69 3.71004 2.73299 0
M  V30 35495 H 3370 3.25632 2.59524 0
M  V30 35496 H 3372.6 1.87308 5.00819 0
M  V30 35497 H 3372.94 0.394458 4.14427 0
M  V30 35498 H 3373.48 1.95201 3.46614 0
M  V30 35499 H 3370.21 4.76527 4.50113 0
M  V30 35500 H 3369.73 3.16007 5.09803 0
M  V30 35501 H 3371.41 3.72179 5.29237 0
M  V30 35502 N 3371.55 -1.25848 0.948687 0
M  V30 35503 C 3372.82 -1.8862 0.517865 0
M  V30 35504 C 3373.2 -1.85656 -1.00474 0
M  V30 35505 O 3372.55 -1.31601 -1.86798 0
M  V30 35506 C 3372.76 -3.31616 1.08774 0
M  V30 35507 C 3374.11 -4.0842 1.16096 0
M  V30 35508 O 3375.13 -3.40714 1.03886 0
M  V30 35509 O 3373.99 -5.29517 1.35181 0
M  V30 35510 H 3371.09 -0.809353 0.16993 0
M  V30 35511 H 3373.63 -1.33963 1.04174 0
M  V30 35512 H 3372.4 -3.28173 2.13115 0
M  V30 35513 H 3372.03 -3.93823 0.546759 0
M  V30 35514 N 3373.02 -0.716569 -1.40368 0
M  V30 35515 C 3373.97 -0.0535129 -2.32538 0
M  V30 35516 C 3374.97 0.745958 -1.52092 0
M  V30 35517 O 3376.17 0.649215 -1.67884 0
M  V30 35518 H 3372.55 0.00149766 -0.751999 0
M  V30 35519 H 3374.52 -0.847585 -2.86109 0
M  V30 35520 C 3373.27 0.853456 -3.37063 0
M  V30 35521 H 3372.59 0.247684 -3.99032 0
M  V30 35522 H 3374.03 1.28534 -4.04048 0
M  V30 35523 C 3372.49 1.97936 -2.72623 0
M  V30 35524 O 3373.02 3.07029 -2.59029 0
M  V30 35525 N 3371.23 1.76328 -2.30991 0
M  V30 35526 H 3370.77 0.876021 -2.42247 0
M  V30 35527 H 3370.73 2.5184 -1.88213 0
M  V30 35528 N 3374.5 1.50651 -0.462825 0
M  V30 35529 C 3375.45 2.29956 0.349744 0
M  V30 35530 C 3376.44 1.36886 0.997923 0
M  V30 35531 O 3377.65 1.54115 0.929972 0
M  V30 35532 H 3374.03 0.740392 0.131622 0
M  V30 35533 H 3376 2.96461 -0.339632 0
M  V30 35534 C 3374.75 3.17206 1.42392 0
M  V30 35535 H 3374.07 3.88724 0.934542 0
M  V30 35536 H 3375.51 3.75706 1.96522 0
M  V30 35537 C 3373.97 2.34252 2.42131 0
M  V30 35538 O 3374.5 2.01984 3.47225 0
M  V30 35539 N 3372.7 1.96989 2.13644 0
M  V30 35540 H 3372.25 2.2343 1.28205 0
M  V30 35541 H 3372.21 1.41788 2.80613 0
M  V30 35542 N 3375.98 0.195113 1.56388 0
M  V30 35543 C 3376.89 -0.737704 2.227 0
M  V30 35544 C 3377.91 -1.23464 1.22608 0
M  V30 35545 O 3379.08 -1.2818 1.55344 0
M  V30 35546 C 3376.15 -1.94006 2.87337 0
M  V30 35547 C 3375.21 -1.48769 4.02699 0
M  V30 35548 C 3374.44 -2.63274 4.64244 0
M  V30 35549 O 3374.66 -3.80756 4.24713 0
M  V30 35550 O 3373.6 -2.35986 5.5371 0
M  V30 35551 H 3377.42 -0.20296 3.03021 0
M  V30 35552 H 3375.01 -0.0341781 1.49361 0
M  V30 35553 H 3376.89 -2.64278 3.2823 0
M  V30 35554 H 3375.57 -2.46341 2.09995 0
M  V30 35555 H 3374.47 -0.753774 3.66427 0
M  V30 35556 H 3375.81 -1.01101 4.81705 0
M  V30 35557 N 3377.46 -1.57404 -0.0784879 0
M  V30 35558 C 3378.39 -2.06264 -1.09442 0
M  V30 35559 C 3379.37 -0.954797 -1.40775 0
M  V30 35560 O 3380.55 -1.22711 -1.50518 0
M  V30 35561 C 3377.68 -2.50097 -2.40974 0
M  V30 35562 C 3376.64 -3.64696 -2.2401 0
M  V30 35563 C 3375.96 -3.94562 -3.60866 0
M  V30 35564 C 3377.26 -4.94988 -1.66687 0
M  V30 35565 H 3378.96 -2.91391 -0.687877 0
M  V30 35566 H 3376.5 -1.40181 -0.329441 0
M  V30 35567 H 3378.46 -2.8289 -3.12332 0
M  V30 35568 H 3377.18 -1.6199 -2.83596 0
M  V30 35569 H 3375.84 -3.32176 -1.55095 0
M  V30 35570 H 3375.49 -3.03597 -4.01046 0
M  V30 35571 H 3375.19 -4.71724 -3.50357 0
M  V30 35572 H 3376.71 -4.29845 -4.33665 0
M  V30 35573 H 3378.13 -5.26054 -2.27904 0
M  V30 35574 H 3376.52 -5.76426 -1.66892 0
M  V30 35575 H 3377.59 -4.8082 -0.627743 0
M  V30 35576 N 3378.94 0.34972 -1.53671 0
M  V30 35577 C 3379.9 1.41207 -1.80536 0
M  V30 35578 C 3380.9 1.4589 -0.676213 0
M  V30 35579 O 3382.09 1.46374 -0.944479 0
M  V30 35580 C 3379.22 2.80191 -1.9418 0
M  V30 35581 H 3380.41 1.18653 -2.7543 0
M  V30 35582 H 3377.97 0.583762 -1.44989 0
M  V30 35583 H 3378.7 3.08037 -1.01407 0
M  V30 35584 H 3378.49 2.78189 -2.76321 0
M  V30 35585 H 3379.98 3.57095 -2.16502 0
M  V30 35586 N 3380.41 1.45299 0.610397 0
M  V30 35587 C 3381.34 1.56597 1.73204 0
M  V30 35588 C 3382.33 0.41768 1.64892 0
M  V30 35589 O 3383.51 0.640462 1.83335 0
M  V30 35590 C 3380.64 1.52964 3.118 0
M  V30 35591 C 3379.59 2.66481 3.3492 0
M  V30 35592 C 3378.92 2.47902 4.7376 0
M  V30 35593 C 3380.22 4.0851 3.25449 0
M  V30 35594 H 3381.91 2.50484 1.64006 0
M  V30 35595 H 3379.46 1.20552 0.7876 0
M  V30 35596 H 3381.41 1.59465 3.90063 0
M  V30 35597 H 3380.14 0.556046 3.21832 0
M  V30 35598 H 3378.8 2.59404 2.59047 0
M  V30 35599 H 3378.44 1.48688 4.80521 0
M  V30 35600 H 3378.14 3.24025 4.90185 0
M  V30 35601 H 3379.67 2.56253 5.54226 0
M  V30 35602 H 3381.08 4.16846 3.93589 0
M  V30 35603 H 3379.48 4.85 3.53405 0
M  V30 35604 H 3380.55 4.30615 2.22931 0
M  V30 35605 N 3381.89 -0.852653 1.32543 0
M  V30 35606 C 3382.86 -1.94295 1.21581 0
M  V30 35607 C 3383.86 -1.60204 0.138346 0
M  V30 35608 O 3385.05 -1.69804 0.388894 0
M  V30 35609 C 3382.18 -3.29605 0.870267 0
M  V30 35610 H 3383.37 -2.05442 2.1848 0
M  V30 35611 H 3380.92 -1.04308 1.16403 0
M  V30 35612 H 3381.66 -3.24155 -0.0968128 0
M  V30 35613 H 3381.44 -3.55725 1.6493 0
M  V30 35614 H 3382.93 -4.09511 0.817946 0
M  V30 35615 N 3383.37 -1.15786 -1.06918 0
M  V30 35616 C 3384.3 -0.881687 -2.16214 0
M  V30 35617 C 3385.28 0.16948 -1.69254 0
M  V30 35618 O 3386.47 0.0229169 -1.94186 0
M  V30 35619 C 3383.6 -0.375042 -3.45269 0
M  V30 35620 C 3382.55 -1.36339 -4.05704 0
M  V30 35621 C 3381.88 -0.71541 -5.29892 0
M  V30 35622 C 3383.18 -2.73088 -4.45219 0
M  V30 35623 H 3384.87 -1.79568 -2.39574 0
M  V30 35624 H 3382.42 -0.864804 -1.1514 0
M  V30 35625 H 3384.37 -0.169353 -4.2106 0
M  V30 35626 H 3383.09 0.574428 -3.21509 0
M  V30 35627 H 3381.75 -1.55552 -3.31963 0
M  V30 35628 H 3381.4 0.240347 -5.02425 0
M  V30 35629 H 3381.1 -1.37504 -5.71285 0
M  V30 35630 H 3382.62 -0.519596 -6.08385 0
M  V30 35631 H 3384.04 -2.57695 -5.12119 0
M  V30 35632 H 3382.44 -3.35466 -4.97577 0
M  V30 35633 H 3383.51 -3.28819 -3.56379 0
M  V30 35634 N 3384.85 1.25343 -0.955348 0
M  V30 35635 C 3385.78 2.25064 -0.433439 0
M  V30 35636 C 3386.79 1.56426 0.451072 0
M  V30 35637 O 3387.98 1.76608 0.259234 0
M  V30 35638 C 3385.08 3.36593 0.394749 0
M  V30 35639 C 3384.26 4.34792 -0.476933 0
M  V30 35640 C 3383.31 5.25383 0.293176 0
M  V30 35641 O 3382.34 5.68362 -0.30867 0
M  V30 35642 N 3383.54 5.58412 1.58607 0
M  V30 35643 H 3386.31 2.70479 -1.29077 0
M  V30 35644 H 3383.87 1.39256 -0.825788 0
M  V30 35645 H 3385.86 3.94158 0.917678 0
M  V30 35646 H 3384.43 2.90561 1.15295 0
M  V30 35647 H 3383.65 3.76095 -1.18096 0
M  V30 35648 H 3384.94 4.97382 -1.07186 0
M  V30 35649 H 3384.34 5.25399 2.09696 0
M  V30 35650 H 3382.89 6.18559 2.05495 0
M  V30 35651 N 3386.33 0.724003 1.39986 0
M  V30 35652 C 3387.24 0.0781348 2.3447 0
M  V30 35653 C 3388.25 -0.73434 1.57745 0
M  V30 35654 O 3389.43 -0.665351 1.90092 0
M  V30 35655 C 3386.49 -0.826433 3.36706 0
M  V30 35656 C 3385.56 -0.0029549 4.293 0
M  V30 35657 C 3384.79 -0.864442 5.26653 0
M  V30 35658 O 3385.01 -2.10348 5.30198 0
M  V30 35659 O 3383.95 -0.298951 6.01157 0
M  V30 35660 H 3387.77 0.857697 2.91337 0
M  V30 35661 H 3385.36 0.484561 1.41324 0
M  V30 35662 H 3387.24 -1.34432 3.99382 0
M  V30 35663 H 3385.91 -1.585 2.8224 0
M  V30 35664 H 3384.82 0.560201 3.69882 0
M  V30 35665 H 3386.15 0.71758 4.86941 0
M  V30 35666 N 3387.81 -1.50403 0.470808 0
M  V30 35667 C 3388.74 -2.26358 -0.359798 0
M  V30 35668 C 3389.75 -1.31678 -0.957327 0
M  V30 35669 O 3390.94 -1.5719 -0.845782 0
M  V30 35670 C 3388.04 -3.02972 -1.51859 0
M  V30 35671 C 3387.21 -4.25005 -1.0339 0
M  V30 35672 C 3386.27 -4.83915 -2.06671 0
M  V30 35673 O 3385.3 -5.44838 -1.64744 0
M  V30 35674 N 3386.5 -4.70889 -3.39476 0
M  V30 35675 H 3389.26 -2.9828 0.291351 0
M  V30 35676 H 3386.83 -1.59066 0.301577 0
M  V30 35677 H 3388.82 -3.39261 -2.20644 0
M  V30 35678 H 3387.39 -2.3385 -2.07444 0
M  V30 35679 H 3386.61 -3.93825 -0.171943 0
M  V30 35680 H 3387.9 -5.04127 -0.687982 0
M  V30 35681 H 3387.29 -4.22437 -3.76249 0
M  V30 35682 H 3385.85 -5.11448 -4.04059 0
M  V30 35683 N 3389.28 -0.203404 -1.56282 0
M  V30 35684 C 3390.56 0.481222 -1.89588 0
M  V30 35685 C 3390.94 1.79055 -1.11815 0
M  V30 35686 O 3390.29 2.27421 -0.221799 0
M  V30 35687 C 3390.5 0.691904 -3.42073 0
M  V30 35688 C 3391.85 1.00754 -4.12473 0
M  V30 35689 O 3392.87 0.779335 -3.4757 0
M  V30 35690 O 3391.73 1.43964 -5.27197 0
M  V30 35691 H 3388.82 0.251949 -0.787687 0
M  V30 35692 H 3391.37 -0.244237 -1.67933 0
M  V30 35693 H 3390.14 -0.232391 -3.90609 0
M  V30 35694 H 3389.76 1.46952 -3.69447 0
M  V30 35695 N 3390.76 1.57444 0.0701393 0
M  V30 35696 C 3391.69 2.06841 1.08347 0
M  V30 35697 C 3392.67 0.962249 1.40267 0
M  V30 35698 O 3393.86 1.23507 1.49865 0
M  V30 35699 C 3390.99 2.51372 2.39645 0
M  V30 35700 C 3389.94 3.65879 2.22073 0
M  V30 35701 C 3389.27 3.96471 3.58769 0
M  V30 35702 C 3390.57 4.95865 1.6406 0
M  V30 35703 H 3392.26 2.91752 0.672414 0
M  V30 35704 H 3389.81 1.40354 0.322002 0
M  V30 35705 H 3391.76 2.84542 3.10828 0
M  V30 35706 H 3390.48 1.63492 2.82733 0
M  V30 35707 H 3389.14 3.32994 1.53331 0
M  V30 35708 H 3388.79 3.05719 3.9943 0
M  V30 35709 H 3388.49 4.73576 3.4785 0
M  V30 35710 H 3390.02 4.32139 4.3138 0
M  V30 35711 H 3391.43 5.27255 2.25111 0
M  V30 35712 H 3389.83 5.77303 1.63833 0
M  V30 35713 H 3390.9 4.81146 0.602235 0
M  V30 35714 N 3392.24 -0.341566 1.53854 0
M  V30 35715 C 3393.15 -1.44293 1.84977 0
M  V30 35716 C 3394.17 -1.57476 0.740085 0
M  V30 35717 O 3395.34 -1.72915 1.03259 0
M  V30 35718 C 3392.41 -2.79255 2.05469 0
M  V30 35719 C 3391.47 -2.754 3.29323 0
M  V30 35720 C 3390.7 -4.03925 3.48827 0
M  V30 35721 O 3390.92 -5.01301 2.72128 0
M  V30 35722 O 3389.86 -4.08276 4.4226 0
M  V30 35723 H 3393.68 -1.20908 2.78595 0
M  V30 35724 H 3391.27 -0.533928 1.39533 0
M  V30 35725 H 3393.15 -3.5918 2.2038 0
M  V30 35726 H 3391.83 -3.02568 1.1504 0
M  V30 35727 H 3390.73 -1.94088 3.19813 0
M  V30 35728 H 3392.07 -2.57041 4.19751 0
M  V30 35729 N 3393.72 -1.45621 -0.602683 0
M  V30 35730 C 3394.66 -1.54667 -1.71309 0
M  V30 35731 C 3395.63 -0.392225 -1.61403 0
M  V30 35732 O 3396.82 -0.606329 -1.8091 0
M  V30 35733 C 3393.96 -1.52399 -3.09627 0
M  V30 35734 C 3393.07 -2.78431 -3.30303 0
M  V30 35735 C 3392.21 -2.67801 -4.58755 0
M  V30 35736 C 3391.25 -3.88864 -4.72707 0
M  V30 35737 N 3390.38 -3.76739 -5.92463 0
M  V30 35738 H 3395.22 -2.49526 -1.62914 0
M  V30 35739 H 3392.76 -1.23811 -0.794302 0
M  V30 35740 H 3394.72 -1.49071 -3.89658 0
M  V30 35741 H 3393.35 -0.610872 -3.16967 0
M  V30 35742 H 3392.4 -2.91825 -2.44013 0
M  V30 35743 H 3393.71 -3.68211 -3.36485 0
M  V30 35744 H 3392.87 -2.62467 -5.46988 0
M  V30 35745 H 3391.61 -1.75627 -4.54979 0
M  V30 35746 H 3390.61 -3.94552 -3.82896 0
M  V30 35747 H 3391.84 -4.82109 -4.78276 0
M  V30 35748 H 3389.78 -2.87338 -5.89723 0
M  V30 35749 H 3389.7 -4.60158 -5.99825 0
M  V30 35750 H 3390.97 -3.75346 -6.83181 0
M  V30 35751 N 3395.2 0.845612 -1.32993 0
M  V30 35752 C 3396.44 1.60279 -1.24251 0
M  V30 35753 C 3396.77 1.93238 0.193015 0
M  V30 35754 O 3396.05 1.58124 1.13257 0
M  V30 35755 C 3396.33 2.91723 -2.11116 0
M  V30 35756 C 3396.19 2.65488 -3.63093 0
M  V30 35757 C 3397.5 3.93085 -1.97919 0
M  V30 35758 H 3394.62 0.58157 -0.452709 0
M  V30 35759 H 3397.27 0.975799 -1.63028 0
M  V30 35760 H 3395.42 3.45233 -1.78175 0
M  V30 35761 H 3397.09 2.18462 -4.06291 0
M  V30 35762 H 3395.33 1.993 -3.85308 0
M  V30 35763 H 3396 3.59121 -4.19209 0
M  V30 35764 H 3398.48 3.4886 -2.26794 0
M  V30 35765 H 3397.35 4.82898 -2.6096 0
M  V30 35766 H 3397.61 4.31784 -0.949453 0
M  V30 35767 N 3396.67 1.16351 1.06302 0
M  V30 35768 C 3397.92 0.946372 1.79365 0
M  V30 35769 C 3398.25 -0.524536 1.86982 0
M  V30 35770 O 3397.53 -1.38914 1.36136 0
M  V30 35771 C 3397.81 1.57442 3.23858 0
M  V30 35772 C 3397.66 3.11666 3.24321 0
M  V30 35773 C 3398.98 1.26902 4.21407 0
M  V30 35774 H 3396.1 0.345226 0.651144 0
M  V30 35775 H 3398.74 1.4368 1.24322 0
M  V30 35776 H 3396.89 1.15738 3.7086 0
M  V30 35777 H 3398.57 3.62351 2.85481 0
M  V30 35778 H 3396.81 3.45001 2.62977 0
M  V30 35779 H 3397.48 3.50731 4.26254 0
M  V30 35780 H 3399.96 1.62995 3.82847 0
M  V30 35781 H 3398.83 1.73448 5.20775 0
M  V30 35782 H 3399.09 0.187846 4.41701 0
M  V30 35783 N 3398.15 -1.24835 0.961982 0
M  V30 35784 C 3399.38 -1.97351 0.637743 0
M  V30 35785 C 3399.8 -1.70942 -0.784889 0
M  V30 35786 O 3399.16 -0.969721 -1.53186 0
M  V30 35787 C 3399.21 -3.48889 0.911546 0
M  V30 35788 O 3398.31 -4.124 -0.00594419 0
M  V30 35789 H 3397.65 -0.618449 0.241696 0
M  V30 35790 H 3400.18 -1.58762 1.29058 0
M  V30 35791 H 3400.19 -3.99243 0.840772 0
M  V30 35792 H 3398.87 -3.67439 1.94837 0
M  V30 35793 H 3397.44 -3.72714 0.117663 0
M  V30 35794 N 3399.63 -0.731417 -1.396 0
M  V30 35795 C 3400.86 -0.287508 -2.0459 0
M  V30 35796 C 3401.27 1.08136 -1.55252 0
M  V30 35797 O 3400.61 1.69384 -0.710979 0
M  V30 35798 C 3400.67 -0.207011 -3.58903 0
M  V30 35799 C 3400.34 -1.51376 -4.31201 0
M  V30 35800 C 3401.33 -2.45877 -4.58083 0
M  V30 35801 C 3399.02 -1.77706 -4.69815 0
M  V30 35802 C 3401.01 -3.64945 -5.22584 0
M  V30 35803 C 3398.7 -2.97052 -5.34044 0
M  V30 35804 C 3399.7 -3.90493 -5.60361 0
M  V30 35805 O 3399.39 -5.07743 -6.23259 0
M  V30 35806 H 3399.12 -0.124092 -0.664513 0
M  V30 35807 H 3401.67 -0.994846 -1.797 0
M  V30 35808 H 3399.9 0.556399 -3.82676 0
M  V30 35809 H 3401.59 0.204426 -4.05385 0
M  V30 35810 H 3402.36 -2.26804 -4.28702 0
M  V30 35811 H 3398.24 -1.05822 -4.4869 0
M  V30 35812 H 3401.78 -4.37894 -5.43042 0
M  V30 35813 H 3397.68 -3.16028 -5.62847 0
M  V30 35814 H 3398.44 -5.0803 -6.41754 0
M  V30 35815 N 3401.11 1.50152 -0.478778 0
M  V30 35816 C 3402.04 2.3155 0.301141 0
M  V30 35817 C 3403.02 1.38803 0.983252 0
M  V30 35818 O 3404.2 1.67721 0.978944 0
M  V30 35819 C 3401.33 3.18747 1.37904 0
M  V30 35820 C 3400.29 4.20108 0.818101 0
M  V30 35821 C 3399.61 4.96094 1.99487 0
M  V30 35822 C 3400.91 5.22004 -0.175832 0
M  V30 35823 H 3402.61 2.97001 -0.37824 0
M  V30 35824 H 3400.15 1.42828 -0.183348 0
M  V30 35825 H 3402.11 3.74492 1.9322 0
M  V30 35826 H 3400.83 2.51196 2.0873 0
M  V30 35827 H 3399.49 3.65476 0.28686 0
M  V30 35828 H 3399.14 4.25009 2.69029 0
M  V30 35829 H 3398.84 5.64663 1.62572 0
M  V30 35830 H 3400.36 5.54676 2.55279 0
M  V30 35831 H 3401.78 5.72574 0.288413 0
M  V30 35832 H 3400.17 5.98337 -0.459654 0
M  V30 35833 H 3401.24 4.72277 -1.09919 0
M  V30 35834 N 3402.59 0.211689 1.56172 0
M  V30 35835 C 3403.55 -0.688867 2.18603 0
M  V30 35836 C 3404.55 -1.1289 1.1451 0
M  V30 35837 O 3405.74 -1.0393 1.39801 0
M  V30 35838 C 3402.87 -1.94248 2.80144 0
M  V30 35839 H 3404.06 -0.144713 2.99551 0
M  V30 35840 H 3401.62 -0.037934 1.56254 0
M  V30 35841 H 3402.35 -2.52874 2.0304 0
M  V30 35842 H 3402.14 -1.63552 3.56361 0
M  V30 35843 H 3403.63 -2.5843 3.2803 0
M  V30 35844 N 3404.06 -1.57479 -0.0617887 0
M  V30 35845 C 3405.31 -1.87365 -0.757536 0
M  V30 35846 C 3405.63 -0.805056 -1.77606 0
M  V30 35847 O 3404.9 0.165182 -1.95202 0
M  V30 35848 H 3403.48 -0.691413 -0.282768 0
M  V30 35849 H 3406.15 -1.94868 -0.0355011 0
M  V30 35850 H 3405.24 -2.85202 -1.26753 0
M  V30 35851 N 3405.54 0.333401 -1.54033 0
M  V30 35852 C 3406.78 1.08082 -1.73487 0
M  V30 35853 C 3407.15 1.85565 -0.49292 0
M  V30 35854 O 3408.35 2.62803 -0.564642 0
M  V30 35855 C 3406.62 1.98891 -2.96946 0
M  V30 35856 S 3408.18 2.80718 -3.37258 0
M  V30 35857 H 3405 0.365038 -0.610138 0
M  V30 35858 H 3407.6 0.358001 -1.92194 0
M  V30 35859 H 3406.3 1.40787 -3.85496 0
M  V30 35860 H 3405.83 2.75594 -2.80734 0
M  V30 35861 H 3407.85 4.01341 -2.91787 0
M  V30 35862 N 3407.02 1.45939 0.594952 0
M  V30 35863 C 3408.27 1.50316 1.35091 0
M  V30 35864 C 3408.59 0.151349 1.94412 0
M  V30 35865 O 3407.86 -0.820756 1.77878 0
M  V30 35866 H 3406.44 0.553595 0.50154 0
M  V30 35867 H 3409.1 1.81984 0.697703 0
M  V30 35868 H 3408.2 2.24905 2.16389 0
M  V30 35869 N 3408.5 -0.838547 1.3344 0
M  V30 35870 C 3409.43 -1.96363 1.26348 0
M  V30 35871 C 3410.41 -1.69489 0.143986 0
M  V30 35872 O 3411.59 -1.9131 0.333813 0
M  V30 35873 C 3408.72 -3.32524 1.00226 0
M  V30 35874 C 3407.68 -3.73796 2.08472 0
M  V30 35875 C 3407 -5.07766 1.67564 0
M  V30 35876 C 3408.3 -3.87546 3.50151 0
M  V30 35877 H 3410 -2.02555 2.20481 0
M  V30 35878 H 3407.54 -0.973149 1.0614 0
M  V30 35879 H 3409.5 -4.10802 0.93914 0
M  V30 35880 H 3408.22 -3.2659 0.0253088 0
M  V30 35881 H 3406.88 -2.97781 2.13827 0
M  V30 35882 H 3406.53 -4.98304 0.685707 0
M  V30 35883 H 3406.23 -5.36351 2.40002 0
M  V30 35884 H 3407.75 -5.88519 1.62719 0
M  V30 35885 H 3409.17 -4.56135 3.47295 0
M  V30 35886 H 3407.56 -4.27568 4.21077 0
M  V30 35887 H 3408.63 -2.89987 3.88633 0
M  V30 35888 N 3409.98 -1.16914 -1.05683 0
M  V30 35889 C 3410.91 -0.839082 -2.13289 0
M  V30 35890 C 3411.92 0.156363 -1.62047 0
M  V30 35891 O 3413.11 -0.0692506 -1.78366 0
M  V30 35892 C 3410.21 -0.229617 -3.38121 0
M  V30 35893 C 3409.38 -1.2667 -4.18657 0
M  V30 35894 C 3408.44 -0.675902 -5.21841 0
M  V30 35895 O 3407.47 -1.3464 -5.53047 0
M  V30 35896 N 3408.67 0.534431 -5.78035 0
M  V30 35897 H 3411.44 -1.7652 -2.422 0
M  V30 35898 H 3409 -1.06731 -1.21738 0
M  V30 35899 H 3410.99 0.178797 -4.04305 0
M  V30 35900 H 3409.56 0.600176 -3.06784 0
M  V30 35901 H 3408.78 -1.85105 -3.48037 0
M  V30 35902 H 3410.07 -1.96638 -4.69266 0
M  V30 35903 H 3409.46 1.09722 -5.54957 0
M  V30 35904 H 3408.02 0.884973 -6.45764 0
M  V30 35905 N 3411.45 1.24323 -0.968589 0
M  V30 35906 C 3412.68 1.9701 -0.6482 0
M  V30 35907 C 3413.1 1.71356 0.775812 0
M  V30 35908 O 3412.46 0.977831 1.5267 0
M  V30 35909 C 3412.51 3.484 -0.930036 0
M  V30 35910 O 3411.61 4.12397 -0.0159264 0
M  V30 35911 H 3410.96 0.617159 -0.244972 0
M  V30 35912 H 3413.49 1.58075 -1.29898 0
M  V30 35913 H 3413.5 3.98792 -0.861933 0
M  V30 35914 H 3412.17 3.66401 -1.96783 0
M  V30 35915 H 3410.75 3.72647 -0.137427 0
M  V30 35916 N 3412.93 0.73881 1.3921 0
M  V30 35917 C 3414.17 0.293154 2.02287 0
M  V30 35918 C 3414.54 -1.10003 1.57363 0
M  V30 35919 O 3415.74 -1.64398 2.12666 0
M  V30 35920 C 3414.01 0.395609 3.55204 0
M  V30 35921 S 3415.57 0.0303569 4.38789 0
M  V30 35922 H 3412.39 0.114621 0.7017 0
M  V30 35923 H 3414.99 0.966168 1.69957 0
M  V30 35924 H 3413.69 1.41079 3.85389 0
M  V30 35925 H 3413.22 -0.295094 3.92292 0
M  V30 35926 H 3415.24 -1.18469 4.8185 0
M  V30 35927 N 3414.41 -1.49895 0.486734 0
M  V30 35928 C 3415.82 -1.86666 0.0354234 0
M  V30 35929 C 3416.17 -1.40029 -1.37428 0
M  V30 35930 O 3415.3 -0.771975 -2.02162 0
M  V30 35931 C 3415.89 -3.38751 0.057507 0
M  V30 35932 C 3414.45 -3.74876 -0.338398 0
M  V30 35933 C 3413.6 -2.73847 0.436244 0
M  V30 35934 H 3416.55 -1.42416 0.70024 0
M  V30 35935 H 3416.57 -3.73213 -0.741109 0
M  V30 35936 H 3416.08 -3.72665 1.08363 0
M  V30 35937 H 3414.18 -3.46567 -1.36829 0
M  V30 35938 H 3414.3 -4.79091 -0.0288677 0
M  V30 35939 H 3412.66 -2.54453 -0.112097 0
M  V30 35940 H 3413.44 -3.10605 1.46217 0
M  V30 35941 N 3415.89 -0.219968 -1.56057 0
M  V30 35942 C 3416.82 0.730758 -2.16183 0
M  V30 35943 C 3417.8 1.19213 -1.10576 0
M  V30 35944 O 3418.98 1.27516 -1.38823 0
M  V30 35945 C 3416.11 1.98987 -2.74084 0
M  V30 35946 C 3415.16 1.6686 -3.92505 0
M  V30 35947 S 3415.99 0.794782 -5.29569 0
M  V30 35948 C 3417.15 2.06349 -5.90907 0
M  V30 35949 H 3417.38 0.21971 -2.96487 0
M  V30 35950 H 3414.91 -0.00467968 -1.54399 0
M  V30 35951 H 3416.87 2.71285 -3.08083 0
M  V30 35952 H 3415.53 2.47204 -1.93776 0
M  V30 35953 H 3414.72 2.60407 -4.31514 0
M  V30 35954 H 3414.33 1.02627 -3.59644 0
M  V30 35955 H 3416.62 3.01363 -6.06784 0
M  V30 35956 H 3417.56 1.71733 -6.8696 0
M  V30 35957 H 3417.97 2.2033 -5.19726 0
M  V30 35958 N 3417.37 1.57509 0.0534363 0
M  V30 35959 C 3418.3 2.07979 1.06147 0
M  V30 35960 C 3419.28 0.977072 1.39238 0
M  V30 35961 O 3420.46 1.2509 1.48547 0
M  V30 35962 C 3417.59 2.53899 2.36965 0
M  V30 35963 C 3416.55 3.68214 2.1818 0
M  V30 35964 C 3415.87 4.00254 3.54544 0
M  V30 35965 C 3417.17 4.97577 1.58791 0
M  V30 35966 H 3418.87 2.92448 0.641432 0
M  V30 35967 H 3416.41 1.40687 0.307098 0
M  V30 35968 H 3418.37 2.87823 3.07792 0
M  V30 35969 H 3417.09 1.66481 2.80983 0
M  V30 35970 H 3415.75 3.34602 1.4979 0
M  V30 35971 H 3415.4 3.09939 3.96165 0
M  V30 35972 H 3415.1 4.77238 3.42808 0
M  V30 35973 H 3416.62 4.3669 4.26772 0
M  V30 35974 H 3418.04 5.29613 2.19506 0
M  V30 35975 H 3416.43 5.79008 1.577 0
M  V30 35976 H 3417.5 4.81757 0.551169 0
M  V30 35977 N 3418.85 -0.325228 1.54208 0
M  V30 35978 C 3420.09 -1.06494 1.72588 0
M  V30 35979 C 3420.42 -1.87726 0.497261 0
M  V30 35980 O 3419.7 -1.87809 -0.505771 0
M  V30 35981 C 3419.98 -1.99104 3.00049 0
M  V30 35982 C 3419.84 -1.21214 4.3316 0
M  V30 35983 C 3421.15 -2.98652 3.23257 0
M  V30 35984 H 3418.27 -0.385758 0.62798 0
M  V30 35985 H 3420.92 -0.341757 1.86901 0
M  V30 35986 H 3419.07 -2.6077 2.87978 0
M  V30 35987 H 3420.74 -0.620209 4.57112 0
M  V30 35988 H 3418.98 -0.514386 4.30739 0
M  V30 35989 H 3419.65 -1.89205 5.18561 0
M  V30 35990 H 3422.13 -2.47108 3.34779 0
M  V30 35991 H 3421 -3.60637 4.13802 0
M  V30 35992 H 3421.26 -3.71021 2.40407 0
M  V30 35993 N 3420.32 -1.46252 -0.587204 0
M  V30 35994 C 3421.29 -1.56063 -1.6786 0
M  V30 35995 C 3422.29 -0.438189 -1.54714 0
M  V30 35996 O 3423.48 -0.702351 -1.59414 0
M  V30 35997 C 3420.61 -1.47664 -3.07259 0
M  V30 35998 H 3421.8 -2.53324 -1.60521 0
M  V30 35999 H 3419.35 -1.33996 -0.804667 0
M  V30 36000 H 3420.09 -0.516657 -3.20158 0
M  V30 36001 H 3419.87 -2.29097 -3.18209 0
M  V30 36002 H 3421.36 -1.57606 -3.86717 0
M  V30 36003 N 3421.8 0.831459 -1.33883 0
M  V30 36004 C 3422.75 1.9418 -1.24752 0
M  V30 36005 C 3423.72 1.65632 -0.124545 0
M  V30 36006 O 3424.9 1.88361 -0.304078 0
M  V30 36007 C 3422.04 3.30287 -1.00021 0
M  V30 36008 C 3421.16 3.71183 -2.21014 0
M  V30 36009 C 3420.29 4.96197 -1.89638 0
M  V30 36010 C 3419.33 5.29649 -3.0682 0
M  V30 36011 N 3418.47 6.45839 -2.75383 0
M  V30 36012 H 3423.31 2.01321 -2.19713 0
M  V30 36013 H 3420.84 0.985062 -1.09247 0
M  V30 36014 H 3422.8 4.08713 -0.837239 0
M  V30 36015 H 3421.43 3.22682 -0.0873149 0
M  V30 36016 H 3420.48 2.8822 -2.48261 0
M  V30 36017 H 3421.8 3.91882 -3.08594 0
M  V30 36018 H 3420.95 5.82388 -1.70026 0
M  V30 36019 H 3419.69 4.77483 -0.993048 0
M  V30 36020 H 3418.69 4.41958 -3.27037 0
M  V30 36021 H 3419.92 5.50307 -3.97919 0
M  V30 36022 H 3417.87 6.28598 -1.87618 0
M  V30 36023 H 3417.78 6.66669 -3.56495 0
M  V30 36024 H 3419.05 7.35123 -2.59257 0
M  V30 36025 N 3423.28 1.17472 1.05062 0
M  V30 36026 C 3424.53 0.96201 1.77735 0
M  V30 36027 C 3424.85 -0.510518 1.88199 0
M  V30 36028 O 3424.12 -1.37059 1.3997 0
M  V30 36029 H 3422.7 0.352947 0.65836 0
M  V30 36030 H 3425.36 1.47971 1.26848 0
M  V30 36031 H 3424.46 1.39146 2.79365 0
M  V30 36032 N 3424.76 -1.23807 0.975168 0
M  V30 36033 C 3425.99 -1.9584 0.658057 0
M  V30 36034 C 3426.4 -1.72459 -0.778102 0
M  V30 36035 O 3425.74 -1.00973 -1.5346 0
M  V30 36036 C 3425.8 -3.4901 0.8621 0
M  V30 36037 C 3425.46 -3.96101 2.27932 0
M  V30 36038 C 3426.46 -4.05185 3.25762 0
M  V30 36039 C 3424.15 -4.29227 2.60902 0
M  V30 36040 C 3426.14 -4.46741 4.54644 0
M  V30 36041 C 3423.83 -4.70465 3.90007 0
M  V30 36042 C 3424.83 -4.79188 4.8669 0
M  V30 36043 O 3424.51 -5.19503 6.13492 0
M  V30 36044 H 3424.25 -0.630457 0.243926 0
M  V30 36045 H 3426.8 -1.58392 1.30771 0
M  V30 36046 H 3425.03 -3.86388 0.155277 0
M  V30 36047 H 3426.72 -4.02252 0.542944 0
M  V30 36048 H 3427.48 -3.79802 3.01621 0
M  V30 36049 H 3423.36 -4.21652 1.86362 0
M  V30 36050 H 3426.91 -4.53465 5.30109 0
M  V30 36051 H 3422.8 -4.95297 4.13946 0
M  V30 36052 H 3423.57 -5.3763 6.17168 0
M  V30 36053 N 3426.24 -0.746182 -1.38816 0
M  V30 36054 C 3427.65 -0.367661 -1.83044 0
M  V30 36055 C 3428 1.10261 -1.62287 0
M  V30 36056 O 3427.12 1.8516 -1.12004 0
M  V30 36057 C 3427.72 -0.660541 -3.32299 0
M  V30 36058 C 3426.28 -0.335384 -3.74903 0
M  V30 36059 C 3425.42 -0.917492 -2.61682 0
M  V30 36060 H 3428.37 -0.942933 -1.2765 0
M  V30 36061 H 3428.4 0.0638392 -3.80446 0
M  V30 36062 H 3427.91 -1.73068 -3.47374 0
M  V30 36063 H 3426.01 0.728474 -3.65409 0
M  V30 36064 H 3426.12 -0.82576 -4.7193 0
M  V30 36065 H 3424.49 -0.343361 -2.52375 0
M  V30 36066 H 3425.27 -1.99252 -2.7956 0
M  V30 36067 N 3427.71 1.49635 -0.494676 0
M  V30 36068 C 3428.99 1.95263 0.114795 0
M  V30 36069 C 3429.37 1.43596 1.54736 0
M  V30 36070 O 3428.72 0.646992 2.19149 0
M  V30 36071 C 3428.93 3.48984 0.0339299 0
M  V30 36072 C 3430.28 4.24075 0.211033 0
M  V30 36073 O 3431.3 3.56032 0.109415 0
M  V30 36074 O 3430.16 5.44892 0.418875 0
M  V30 36075 H 3427.25 0.82108 0.0987739 0
M  V30 36076 H 3429.8 1.60307 -0.556764 0
M  V30 36077 H 3428.57 3.79205 -0.965353 0
M  V30 36078 H 3428.19 3.90541 0.745913 0
M  V30 36079 N 3429.19 0.228241 1.55939 0
M  V30 36080 C 3430.44 -0.402032 1.97653 0
M  V30 36081 C 3430.75 -1.60421 1.11913 0
M  V30 36082 O 3431.96 -2.30443 1.43556 0
M  V30 36083 C 3430.42 -0.766662 3.51639 0
M  V30 36084 C 3430.02 0.413069 4.46092 0
M  V30 36085 C 3431.77 -1.36217 4.02051 0
M  V30 36086 C 3429.67 0.0256321 5.91394 0
M  V30 36087 H 3428.6 -0.153981 0.73811 0
M  V30 36088 H 3431.26 0.325511 1.8059 0
M  V30 36089 H 3429.64 -1.55181 3.64328 0
M  V30 36090 H 3430.81 1.19057 4.45154 0
M  V30 36091 H 3429.13 0.922252 4.06058 0
M  V30 36092 H 3431.72 -1.66506 5.08114 0
M  V30 36093 H 3432.07 -2.28026 3.48296 0
M  V30 36094 H 3432.6 -0.640309 3.92613 0
M  V30 36095 H 3429.34 0.910383 6.49147 0
M  V30 36096 H 3428.86 -0.716044 5.95511 0
M  V30 36097 H 3430.54 -0.398725 6.4577 0
M  V30 36098 N 3430.67 -1.57536 -0.0450825 0
M  V30 36099 C 3431.92 -1.88158 -0.737621 0
M  V30 36100 C 3432.24 -0.823848 -1.76742 0
M  V30 36101 O 3431.51 0.144469 -1.95367 0
M  V30 36102 H 3430.09 -0.694373 -0.275418 0
M  V30 36103 H 3432.75 -1.94894 -0.0148308 0
M  V30 36104 H 3431.85 -2.8653 -1.23721 0
M  V30 36105 N 3432.15 0.317045 -1.54378 0
M  V30 36106 C 3433.39 1.05194 -1.74085 0
M  V30 36107 C 3433.75 1.85468 -0.511788 0
M  V30 36108 O 3433.04 1.85073 0.495819 0
M  V30 36109 C 3433.24 2.00194 -2.9607 0
M  V30 36110 C 3433.07 1.29262 -4.30722 0
M  V30 36111 C 3431.84 1.02641 -4.94765 0
M  V30 36112 C 3434.03 0.705207 -5.09442 0
M  V30 36113 N 3432.02 0.285687 -6.13235 0
M  V30 36114 C 3433.39 0.0964259 -6.19925 0
M  V30 36115 C 3435.44 0.608666 -4.94166 0
M  V30 36116 C 3434.14 -0.599536 -7.16797 0
M  V30 36117 C 3436.17 -0.0736085 -5.91354 0
M  V30 36118 C 3435.53 -0.671307 -7.01194 0
M  V30 36119 H 3431.63 0.368411 -0.689781 0
M  V30 36120 H 3434.22 0.332378 -1.91842 0
M  V30 36121 H 3432.39 2.69416 -2.79767 0
M  V30 36122 H 3434.12 2.66717 -3.04375 0
M  V30 36123 H 3430.87 1.32044 -4.5482 0
M  V30 36124 H 3431.3 -0.0707236 -6.76963 0
M  V30 36125 H 3435.94 1.05648 -4.09388 0
M  V30 36126 H 3433.66 -1.05917 -8.01129 0
M  V30 36127 H 3437.24 -0.148034 -5.81612 0
M  V30 36128 H 3436.12 -1.19086 -7.75105 0
M  V30 36129 N 3433.63 1.46561 0.57944 0
M  V30 36130 C 3434.57 1.57747 1.70934 0
M  V30 36131 C 3435.57 0.445798 1.63429 0
M  V30 36132 O 3436.77 0.622792 1.68883 0
M  V30 36133 H 3433.15 0.496027 0.565209 0
M  V30 36134 H 3435.12 2.52742 1.58632 0
M  V30 36135 C 3433.87 1.588 3.09318 0
M  V30 36136 H 3433.19 2.45219 3.15765 0
M  V30 36137 H 3434.63 1.70681 3.88129 0
M  V30 36138 C 3433.09 0.317224 3.35403 0
M  V30 36139 O 3433.62 -0.591158 3.97326 0
M  V30 36140 N 3431.83 0.204122 2.89882 0
M  V30 36141 H 3431.37 0.944236 2.3967 0
M  V30 36142 H 3431.33 -0.645249 3.07707 0
M  V30 36143 N 3435.1 -0.824347 1.34322 0
M  V30 36144 C 3436.52 -1.39701 1.23857 0
M  V30 36145 C 3436.87 -1.95724 -0.136532 0
M  V30 36146 O 3435.99 -1.89946 -1.0368 0
M  V30 36147 C 3436.59 -2.53961 2.24253 0
M  V30 36148 C 3435.15 -3.07139 2.17584 0
M  V30 36149 C 3434.29 -1.80004 2.10936 0
M  V30 36150 H 3437.24 -0.628866 1.45709 0
M  V30 36151 H 3437.26 -3.32013 1.8587 0
M  V30 36152 H 3436.78 -2.13156 3.24324 0
M  V30 36153 H 3434.88 -3.52452 1.20864 0
M  V30 36154 H 3434.99 -3.66326 3.08775 0
M  V30 36155 H 3433.35 -2.00843 1.56634 0
M  V30 36156 H 3434.14 -1.41375 3.12839 0
M  V30 36157 N 3436.58 -1.18028 -1.04437 0
M  V30 36158 C 3437.82 -0.98427 -1.79141 0
M  V30 36159 C 3438.19 0.477969 -1.85956 0
M  V30 36160 O 3439.39 0.7933 -2.56827 0
M  V30 36161 C 3437.66 -1.61674 -3.18742 0
M  V30 36162 S 3439.22 -1.56798 -4.09829 0
M  V30 36163 H 3436.04 -0.353536 -0.616874 0
M  V30 36164 H 3438.64 -1.50106 -1.25253 0
M  V30 36165 H 3437.34 -2.6733 -3.11389 0
M  V30 36166 H 3436.87 -1.10008 -3.77706 0
M  V30 36167 H 3438.89 -0.581261 -4.92784 0
M  V30 36168 N 3438.06 1.23288 -0.98172 0
M  V30 36169 C 3439.31 1.9136 -0.650049 0
M  V30 36170 C 3439.63 1.7696 0.819153 0
M  V30 36171 O 3438.9 1.1498 1.58608 0
M  V30 36172 H 3437.48 0.70826 -0.237439 0
M  V30 36173 H 3440.14 1.49885 -1.24582 0
M  V30 36174 H 3439.24 2.98757 -0.902824 0
M  V30 36175 N 3439.54 0.753533 1.38418 0
M  V30 36176 C 3440.79 0.309056 1.99723 0
M  V30 36177 C 3441.11 -1.11305 1.60113 0
M  V30 36178 O 3440.38 -1.76114 0.857951 0
M  V30 36179 H 3438.96 0.111279 0.738665 0
M  V30 36180 H 3441.62 0.967615 1.69184 0
M  V30 36181 H 3440.72 0.372149 3.09873 0
M  V30 36182 N 3441.02 -1.49371 0.502605 0
M  V30 36183 C 3441.93 -2.32929 -0.279491 0
M  V30 36184 C 3442.94 -1.44737 -0.965781 0
M  V30 36185 O 3444.12 -1.77757 -0.946808 0
M  V30 36186 C 3441.18 -3.20213 -1.32907 0
M  V30 36187 C 3440.24 -4.24258 -0.656047 0
M  V30 36188 C 3439.48 -5.07371 -1.65562 0
M  V30 36189 O 3439.7 -4.92024 -2.88562 0
M  V30 36190 O 3438.63 -5.89611 -1.21006 0
M  V30 36191 H 3442.46 -3.00994 0.40448 0
M  V30 36192 H 3440.05 -1.47051 0.263914 0
M  V30 36193 H 3441.93 -3.74281 -1.93628 0
M  V30 36194 H 3440.6 -2.54841 -1.99594 0
M  V30 36195 H 3439.51 -3.74099 -0.00904913 0
M  V30 36196 H 3440.84 -4.9219 -0.0315937 0
M  V30 36197 N 3442.49 -0.236508 -1.55815 0
M  V30 36198 C 3443.91 0.118573 -1.59159 0
M  V30 36199 C 3444.11 1.57761 -1.25355 0
M  V30 36200 O 3443.17 2.3203 -0.995904 0
M  V30 36201 C 3444.48 -0.221228 -2.99885 0
M  V30 36202 C 3446.03 -0.164679 -3.12566 0
M  V30 36203 C 3446.5 -0.478365 -4.55495 0
M  V30 36204 N 3447.99 -0.428483 -4.61214 0
M  V30 36205 C 3448.73 -0.644498 -5.69766 0
M  V30 36206 N 3448.22 -0.923087 -6.86623 0
M  V30 36207 N 3450.02 -0.575913 -5.59142 0
M  V30 36208 H 3442.17 -1.18812 -1.76061 0
M  V30 36209 H 3444.43 -0.477312 -0.819071 0
M  V30 36210 H 3444.14 -1.23446 -3.29323 0
M  V30 36211 H 3444.01 0.456657 -3.74426 0
M  V30 36212 H 3446.4 0.839214 -2.82916 0
M  V30 36213 H 3446.48 -0.876261 -2.40323 0
M  V30 36214 H 3446.12 -1.47976 -4.85866 0
M  V30 36215 H 3446.05 0.254578 -5.25984 0
M  V30 36216 H 3448.54 -0.221464 -3.77251 0
M  V30 36217 H 3448.86 -1.07561 -7.65278 0
M  V30 36218 H 3447.2 -0.960446 -6.88332 0
M  V30 36219 H 3450.39 -0.358389 -4.66726 0
M  V30 36220 H 3450.57 -0.747662 -6.43672 0
M  V30 36221 N 3443.97 1.57557 0.0367273 0
M  V30 36222 C 3445.2 1.92893 0.739978 0
M  V30 36223 C 3445.61 0.833994 1.69827 0
M  V30 36224 O 3444.95 -0.198942 1.8262 0
M  V30 36225 C 3445.02 3.23975 1.55822 0
M  V30 36226 C 3444.68 4.50543 0.765533 0
M  V30 36227 C 3445.68 5.19854 0.0691772 0
M  V30 36228 C 3443.36 4.97079 0.722337 0
M  V30 36229 C 3445.36 6.33976 -0.65976 0
M  V30 36230 C 3443.04 6.11099 -0.0103505 0
M  V30 36231 C 3444.04 6.79402 -0.700166 0
M  V30 36232 O 3443.73 7.91242 -1.42097 0
M  V30 36233 H 3443.46 0.641405 0.213485 0
M  V30 36234 H 3446.01 2.054 0.000629048 0
M  V30 36235 H 3444.24 3.07774 2.3412 0
M  V30 36236 H 3445.93 3.44695 2.14337 0
M  V30 36237 H 3446.7 4.8491 0.0936295 0
M  V30 36238 H 3442.58 4.43765 1.24875 0
M  V30 36239 H 3446.12 6.87224 -1.19873 0
M  V30 36240 H 3442.02 6.4549 -0.0367529 0
M  V30 36241 H 3442.79 8.07558 -1.33386 0
M  V30 36242 N 3445.45 -0.308854 1.54544 0
M  V30 36243 C 3446.38 -1.38554 1.8795 0
M  V30 36244 C 3447.36 -1.53273 0.737649 0
M  V30 36245 O 3448.55 -1.66911 0.992694 0
M  V30 36246 C 3445.68 -2.75098 2.11987 0
M  V30 36247 C 3444.63 -2.75152 3.27834 0
M  V30 36248 C 3443.96 -4.14911 3.37273 0
M  V30 36249 C 3445.26 -2.3759 4.65133 0
M  V30 36250 H 3446.95 -1.10845 2.78125 0
M  V30 36251 H 3444.5 -0.531784 1.33821 0
M  V30 36252 H 3446.45 -3.50499 2.33941 0
M  V30 36253 H 3445.17 -3.04315 1.18574 0
M  V30 36254 H 3443.83 -2.02207 3.05791 0
M  V30 36255 H 3443.48 -4.41292 2.41392 0
M  V30 36256 H 3443.18 -4.1585 4.15142 0
M  V30 36257 H 3444.71 -4.92103 3.61479 0
M  V30 36258 H 3446.12 -3.02705 4.8687 0
M  V30 36259 H 3444.52 -2.49755 5.45658 0
M  V30 36260 H 3445.59 -1.32723 4.66383 0
M  V30 36261 N 3446.93 -1.46867 -0.571659 0
M  V30 36262 C 3448.21 -1.43226 -1.33213 0
M  V30 36263 C 3448.59 -0.121532 -2.1075 0
M  V30 36264 O 3447.93 0.896966 -2.10159 0
M  V30 36265 C 3448.14 -2.66886 -2.24884 0
M  V30 36266 C 3449.49 -3.13498 -2.86363 0
M  V30 36267 O 3450.52 -2.67513 -2.35192 0
M  V30 36268 O 3449.38 -3.93404 -3.79335 0
M  V30 36269 H 3446.47 -0.570099 -0.599096 0
M  V30 36270 H 3449.02 -1.59048 -0.59176 0
M  V30 36271 H 3447.79 -3.5383 -1.67093 0
M  V30 36272 H 3447.41 -2.53578 -3.06241 0
M  V30 36273 N 3448.41 0.817212 -1.34757 0
M  V30 36274 C 3449.65 1.57375 -1.27434 0
M  V30 36275 C 3449.98 1.93888 0.154156 0
M  V30 36276 O 3449.24 1.60703 1.11683 0
M  V30 36277 C 3449.54 2.88017 -2.11616 0
M  V30 36278 C 3449.2 2.70769 -3.60548 0
M  V30 36279 C 3447.86 2.65773 -4.01146 0
M  V30 36280 C 3450.22 2.54045 -4.55094 0
M  V30 36281 C 3447.54 2.41982 -5.34473 0
M  V30 36282 C 3449.9 2.31785 -5.88607 0
M  V30 36283 C 3448.56 2.25204 -6.28362 0
M  V30 36284 H 3447.83 0.575874 -0.466315 0
M  V30 36285 H 3450.48 0.945099 -1.66554 0
M  V30 36286 H 3448.78 3.55203 -1.65343 0
M  V30 36287 H 3450.48 3.45649 -2.03293 0
M  V30 36288 H 3447.07 2.75501 -3.28325 0
M  V30 36289 H 3451.25 2.56925 -4.24621 0
M  V30 36290 H 3446.51 2.35349 -5.64288 0
M  V30 36291 H 3450.68 2.17832 -6.61454 0
M  V30 36292 H 3448.31 2.0653 -7.31607 0
M  V30 36293 N 3449.89 1.1858 1.0381 0
M  V30 36294 C 3450.82 0.938703 2.138 0
M  V30 36295 C 3451.8 -0.124546 1.69643 0
M  V30 36296 O 3452.98 0.0285762 1.94179 0
M  V30 36297 C 3450.11 0.466453 3.44153 0
M  V30 36298 C 3449.07 1.47048 4.01946 0
M  V30 36299 C 3448.39 0.855651 5.27809 0
M  V30 36300 C 3449.69 2.84796 4.37822 0
M  V30 36301 H 3451.39 1.85856 2.34729 0
M  V30 36302 H 3448.93 0.895027 1.12806 0
M  V30 36303 H 3450.88 0.28093 4.20463 0
M  V30 36304 H 3449.61 -0.488984 3.22919 0
M  V30 36305 H 3448.27 1.64299 3.27722 0
M  V30 36306 H 3447.92 -0.107054 5.02886 0
M  V30 36307 H 3447.62 1.52602 5.67438 0
M  V30 36308 H 3449.14 0.680716 6.06794 0
M  V30 36309 H 3450.55 2.71182 5.05107 0
M  V30 36310 H 3448.95 3.4854 4.88508 0
M  V30 36311 H 3450.02 3.38153 3.47535 0
M  V30 36312 N 3451.36 -1.22766 0.988245 0
M  V30 36313 C 3452.78 -1.43518 0.698186 0
M  V30 36314 C 3452.98 -1.87701 -0.732839 0
M  V30 36315 O 3452.04 -2.02796 -1.50433 0
M  V30 36316 C 3453.35 -2.48047 1.69979 0
M  V30 36317 C 3454.9 -2.61852 1.71472 0
M  V30 36318 C 3455.37 -3.69598 2.70484 0
M  V30 36319 N 3456.86 -3.7705 2.69049 0
M  V30 36320 C 3457.6 -4.6 3.42327 0
M  V30 36321 N 3457.09 -5.46979 4.2519 0
M  V30 36322 N 3458.89 -4.54268 3.31055 0
M  V30 36323 H 3451.04 -0.923914 1.91253 0
M  V30 36324 H 3453.3 -0.467768 0.824559 0
M  V30 36325 H 3453.01 -2.22518 2.72358 0
M  V30 36326 H 3452.88 -3.46571 1.48891 0
M  V30 36327 H 3455.27 -2.86728 0.697939 0
M  V30 36328 H 3455.35 -1.63619 1.96628 0
M  V30 36329 H 3454.99 -3.4547 3.72308 0
M  V30 36330 H 3454.92 -4.6739 2.42599 0
M  V30 36331 H 3457.41 -3.14899 2.08919 0
M  V30 36332 H 3457.73 -6.07283 4.7794 0
M  V30 36333 H 3456.07 -5.46576 4.29278 0
M  V30 36334 H 3459.26 -3.8534 2.65764 0
M  V30 36335 H 3459.44 -5.18683 3.88422 0
M  V30 36336 N 3452.84 -0.760864 -1.38017 0
M  V30 36337 C 3454.09 -0.320276 -1.99951 0
M  V30 36338 C 3454.42 1.10011 -1.60399 0
M  V30 36339 O 3453.67 1.76924 -0.836439 0
M  V30 36340 C 3453.97 -0.398841 -3.55168 0
M  V30 36341 C 3453.64 -1.77592 -4.14454 0
M  V30 36342 C 3452.3 -2.15277 -4.3036 0
M  V30 36343 C 3454.65 -2.67891 -4.47084 0
M  V30 36344 C 3451.98 -3.42719 -4.76194 0
M  V30 36345 C 3454.33 -3.94731 -4.94338 0
M  V30 36346 C 3452.99 -4.32475 -5.0845 0
M  V30 36347 H 3452.26 -0.117197 -0.731673 0
M  V30 36348 H 3454.91 -0.972765 -1.64953 0
M  V30 36349 H 3453.22 0.337204 -3.90346 0
M  V30 36350 H 3454.91 -0.0394098 -4.00981 0
M  V30 36351 H 3451.5 -1.47299 -4.02493 0
M  V30 36352 H 3455.69 -2.40039 -4.3439 0
M  V30 36353 H 3450.94 -3.71871 -4.85306 0
M  V30 36354 H 3455.12 -4.64838 -5.18555 0
M  V30 36355 H 3452.74 -5.31287 -5.43726 0
M  V30 36356 N 3454.32 1.49102 -0.510519 0
M  V30 36357 C 3455.28 2.27812 0.251875 0
M  V30 36358 C 3456.28 1.34228 0.885409 0
M  V30 36359 O 3457.47 1.57301 0.748467 0
M  V30 36360 C 3454.6 3.12495 1.36235 0
M  V30 36361 H 3455.8 2.96671 -0.438924 0
M  V30 36362 H 3453.35 1.54023 -0.265794 0
M  V30 36363 H 3454.09 2.48223 2.087 0
M  V30 36364 H 3453.87 3.81312 0.913418 0
M  V30 36365 H 3455.36 3.71918 1.89913 0
M  V30 36366 N 3455.8 0.244768 1.55688 0
M  V30 36367 C 3457.04 -0.381132 1.99186 0
M  V30 36368 C 3457.38 -1.57746 1.13269 0
M  V30 36369 O 3456.65 -1.93514 0.195602 0
M  V30 36370 C 3456.93 -0.79308 3.51258 0
M  V30 36371 C 3456.79 0.408488 4.47941 0
M  V30 36372 C 3458.11 -1.64083 4.08368 0
M  V30 36373 H 3455.23 -0.13706 0.724143 0
M  V30 36374 H 3457.87 0.345652 1.86829 0
M  V30 36375 H 3456.02 -1.41233 3.61919 0
M  V30 36376 H 3457.69 1.0469 4.49263 0
M  V30 36377 H 3455.93 1.05196 4.20852 0
M  V30 36378 H 3456.6 0.0769501 5.51946 0
M  V30 36379 H 3459.08 -1.11813 4.00796 0
M  V30 36380 H 3457.96 -1.89793 5.15043 0
M  V30 36381 H 3458.22 -2.61196 3.56692 0
M  V30 36382 N 3457.28 -1.57574 -0.0283712 0
M  V30 36383 C 3458.52 -1.89304 -0.719043 0
M  V30 36384 C 3458.85 -0.842141 -1.75323 0
M  V30 36385 O 3458.11 0.156796 -1.95071 0
M  V30 36386 C 3458.4 -3.27779 -1.42464 0
M  V30 36387 C 3458.07 -4.47817 -0.526364 0
M  V30 36388 C 3456.73 -4.80391 -0.278954 0
M  V30 36389 C 3459.08 -5.21116 0.0937954 0
M  V30 36390 C 3456.41 -5.83651 0.597379 0
M  V30 36391 C 3458.76 -6.25307 0.957835 0
M  V30 36392 C 3457.43 -6.56355 1.2147 0
M  V30 36393 H 3456.7 -0.692713 -0.263117 0
M  V30 36394 H 3459.35 -1.91488 0.0210589 0
M  V30 36395 H 3457.65 -3.21586 -2.23808 0
M  V30 36396 H 3459.35 -3.49578 -1.9646 0
M  V30 36397 H 3455.94 -4.22349 -0.729352 0
M  V30 36398 H 3460.12 -4.96228 -0.0843818 0
M  V30 36399 H 3455.38 -6.06081 0.804688 0
M  V30 36400 H 3459.55 -6.81246 1.44488 0
M  V30 36401 H 3457.18 -7.3619 1.89547 0
M  V30 36402 N 3458.75 0.300654 -1.54706 0
M  V30 36403 C 3460 1.03735 -1.74261 0
M  V30 36404 C 3460.33 1.86911 -0.527063 0
M  V30 36405 O 3459.61 1.8859 0.475828 0
M  V30 36406 C 3459.89 1.94305 -3.03179 0
M  V30 36407 C 3459.74 1.14307 -4.35033 0
M  V30 36408 C 3461.06 2.93472 -3.27967 0
M  V30 36409 H 3458.18 0.375719 -0.634038 0
M  V30 36410 H 3460.82 0.311979 -1.87421 0
M  V30 36411 H 3458.97 2.56155 -2.9209 0
M  V30 36412 H 3460.65 0.547408 -4.58041 0
M  V30 36413 H 3458.89 0.445794 -4.31503 0
M  V30 36414 H 3459.56 1.80931 -5.21505 0
M  V30 36415 H 3462.04 2.41751 -3.38668 0
M  V30 36416 H 3460.91 3.54008 -4.19487 0
M  V30 36417 H 3461.17 3.6715 -2.46279 0
M  V30 36418 N 3460.23 1.47168 0.563863 0
M  V30 36419 C 3461.18 1.59552 1.69251 0
M  V30 36420 C 3462.17 0.463107 1.62947 0
M  V30 36421 O 3463.38 0.640669 1.68212 0
M  V30 36422 H 3459.76 0.501993 0.559917 0
M  V30 36423 H 3461.73 2.5441 1.55942 0
M  V30 36424 C 3460.48 1.62072 3.07617 0
M  V30 36425 H 3459.8 2.48554 3.13147 0
M  V30 36426 H 3461.24 1.74788 3.86297 0
M  V30 36427 C 3459.7 0.35278 3.35048 0
M  V30 36428 O 3460.23 -0.548983 3.97931 0
M  V30 36429 N 3458.43 0.234856 2.89649 0
M  V30 36430 H 3457.98 0.969603 2.38656 0
M  V30 36431 H 3457.94 -0.612576 3.08375 0
M  V30 36432 N 3461.71 -0.810054 1.35188 0
M  V30 36433 C 3462.96 -1.56387 1.28014 0
M  V30 36434 C 3463.28 -1.94451 -0.146186 0
M  V30 36435 O 3462.55 -1.6332 -1.08182 0
M  V30 36436 H 3461.13 -0.579924 0.470847 0
M  V30 36437 H 3463.79 -0.966447 1.69251 0
M  V30 36438 H 3462.89 -2.48087 1.89366 0
M  V30 36439 N 3463.19 -1.19129 -1.0318 0
M  V30 36440 C 3464.1 -0.941628 -2.14873 0
M  V30 36441 C 3465.11 0.0973567 -1.73727 0
M  V30 36442 O 3466.29 -0.0866128 -2.01214 0
M  V30 36443 C 3463.36 -0.480427 -3.43355 0
M  V30 36444 C 3462.42 -1.58845 -3.98832 0
M  V30 36445 C 3461.65 -1.14916 -5.21181 0
M  V30 36446 O 3461.87 -0.0115144 -5.70399 0
M  V30 36447 O 3460.81 -1.95052 -5.69419 0
M  V30 36448 H 3464.63 -1.87644 -2.38796 0
M  V30 36449 H 3462.22 -0.973861 -1.13297 0
M  V30 36450 H 3464.1 -0.231732 -4.20762 0
M  V30 36451 H 3462.77 0.425984 -3.20885 0
M  V30 36452 H 3461.68 -1.89126 -3.22773 0
M  V30 36453 H 3463.01 -2.47131 -4.25661 0
M  V30 36454 N 3464.67 1.2224 -0.994741 0
M  V30 36455 C 3465.89 1.95591 -0.689843 0
M  V30 36456 C 3466.32 1.72963 0.73929 0
M  V30 36457 O 3465.67 1.00999 1.50562 0
M  V30 36458 C 3465.72 3.46349 -1.00373 0
M  V30 36459 O 3464.83 4.1227 -0.103398 0
M  V30 36460 H 3464.17 0.611823 -0.258008 0
M  V30 36461 H 3466.7 1.55284 -1.33222 0
M  V30 36462 H 3466.71 3.96874 -0.946329 0
M  V30 36463 H 3465.38 3.62144 -2.0451 0
M  V30 36464 H 3463.96 3.72271 -0.21644 0
M  V30 36465 N 3466.14 0.768172 1.37611 0
M  V30 36466 C 3467.39 0.331366 2.00075 0
M  V30 36467 C 3467.72 -1.0883 1.60841 0
M  V30 36468 O 3467 -1.74803 0.85288 0
M  V30 36469 C 3467.28 0.470852 3.57008 0
M  V30 36470 C 3467.13 1.93267 4.06162 0
M  V30 36471 C 3468.45 -0.127033 4.39917 0
M  V30 36472 H 3465.57 0.121876 0.726853 0
M  V30 36473 H 3468.21 0.970546 1.63341 0
M  V30 36474 H 3466.36 -0.0733005 3.88431 0
M  V30 36475 H 3468.04 2.53625 3.85321 0
M  V30 36476 H 3466.28 2.44272 3.58488 0
M  V30 36477 H 3466.95 1.98135 5.15215 0
M  V30 36478 H 3469.43 0.337217 4.14731 0
M  V30 36479 H 3468.3 0.000720709 5.489 0
M  V30 36480 H 3468.56 -1.21696 4.25021 0
M  V30 36481 N 3467.62 -1.48829 0.518419 0
M  V30 36482 C 3468.53 -2.33213 -0.25477 0
M  V30 36483 C 3469.55 -1.45753 -0.950375 0
M  V30 36484 O 3470.72 -1.78751 -0.927901 0
M  V30 36485 C 3467.79 -3.21605 -1.29503 0
M  V30 36486 C 3466.85 -4.2493 -0.611012 0
M  V30 36487 C 3466.08 -5.09098 -1.60171 0
M  V30 36488 O 3466.31 -4.95057 -2.83328 0
M  V30 36489 O 3465.24 -5.90861 -1.14745 0
M  V30 36490 H 3469.07 -3.00548 0.436382 0
M  V30 36491 H 3466.65 -1.46762 0.279496 0
M  V30 36492 H 3468.53 -3.76313 -1.89648 0
M  V30 36493 H 3467.21 -2.56944 -1.9688 0
M  V30 36494 H 3466.12 -3.74087 0.0306296 0
M  V30 36495 H 3467.45 -4.92196 0.0206114 0
M  V30 36496 N 3469.1 -0.253021 -1.55556 0
M  V30 36497 C 3470.01 0.654542 -2.25284 0
M  V30 36498 C 3471.03 1.18829 -1.27105 0
M  V30 36499 O 3472.2 1.22326 -1.59995 0
M  V30 36500 C 3469.27 1.83208 -2.94339 0
M  V30 36501 C 3468.33 1.33721 -4.07943 0
M  V30 36502 C 3467.56 2.45862 -4.73695 0
M  V30 36503 O 3467.78 3.64731 -4.38552 0
M  V30 36504 O 3466.72 2.15273 -5.62086 0
M  V30 36505 H 3470.54 0.0903558 -3.03566 0
M  V30 36506 H 3468.13 -0.0212797 -1.49385 0
M  V30 36507 H 3470.01 2.51914 -3.37813 0
M  V30 36508 H 3468.69 2.38378 -2.18993 0
M  V30 36509 H 3467.59 0.617258 -3.68973 0
M  V30 36510 H 3468.93 0.831532 -4.85125 0
M  V30 36511 N 3470.58 1.57587 0.0200142 0
M  V30 36512 C 3471.53 2.08246 1.03616 0
M  V30 36513 C 3472.52 0.998143 1.3687 0
M  V30 36514 O 3473.73 1.18296 1.35669 0
M  V30 36515 H 3470.1 0.664679 0.351719 0
M  V30 36516 H 3472.07 2.92646 0.583174 0
M  V30 36517 C 3470.82 2.5847 2.32569 0
M  V30 36518 H 3470.14 3.41527 2.07844 0
M  V30 36519 H 3471.58 2.97616 3.01994 0
M  V30 36520 C 3470.04 1.48991 3.02164 0
M  V30 36521 O 3470.57 0.86132 3.92357 0
M  V30 36522 N 3468.78 1.22224 2.63647 0
M  V30 36523 H 3468.33 1.73525 1.90386 0
M  V30 36524 H 3468.28 0.491883 3.10528 0
M  V30 36525 N 3472.06 -0.292445 1.54863 0
M  V30 36526 C 3473.02 -1.3441 1.85652 0
M  V30 36527 C 3474.02 -1.4328 0.729894 0
M  V30 36528 O 3475.21 -1.42767 0.998153 0
M  V30 36529 C 3472.34 -2.72791 2.04445 0
M  V30 36530 H 3473.53 -1.08349 2.79644 0
M  V30 36531 H 3471.09 -0.529548 1.47056 0
M  V30 36532 H 3471.82 -3.04062 1.1277 0
M  V30 36533 H 3471.61 -2.67742 2.86456 0
M  V30 36534 H 3473.1 -3.48813 2.29606 0
M  V30 36535 N 3473.53 -1.47465 -0.55605 0
M  V30 36536 C 3474.48 -1.60447 -1.68403 0
M  V30 36537 C 3475.48 -0.471742 -1.62699 0
M  V30 36538 O 3476.68 -0.649581 -1.6787 0
M  V30 36539 H 3473.06 -0.504956 -0.557247 0
M  V30 36540 H 3475.03 -2.55234 -1.54591 0
M  V30 36541 C 3473.78 -1.63701 -3.06753 0
M  V30 36542 H 3473.1 -2.50211 -3.11824 0
M  V30 36543 H 3474.54 -1.76834 -3.85364 0
M  V30 36544 C 3473 -0.370544 -3.34856 0
M  V30 36545 O 3473.53 0.527872 -3.98217 0
M  V30 36546 N 3471.74 -0.250214 -2.89521 0
M  V30 36547 H 3471.28 -0.982246 -2.38138 0
M  V30 36548 H 3471.24 0.596214 -3.08695 0
M  V30 36549 N 3475.01 0.802873 -1.35616 0
M  V30 36550 C 3476.26 1.56245 -1.29288 0
M  V30 36551 C 3476.59 1.93755 0.13144 0
M  V30 36552 O 3475.87 1.61647 1.08169 0
M  V30 36553 C 3476.15 2.84859 -2.2029 0
M  V30 36554 C 3476 2.53802 -3.71355 0
M  V30 36555 C 3477.32 3.86589 -2.10325 0
M  V30 36556 H 3474.44 0.566873 -0.470982 0
M  V30 36557 H 3477.08 0.923439 -1.6605 0
M  V30 36558 H 3475.23 3.3939 -1.89069 0
M  V30 36559 H 3476.91 2.05426 -4.13035 0
M  V30 36560 H 3475.15 1.8694 -3.91453 0
M  V30 36561 H 3475.82 3.45603 -4.30422 0
M  V30 36562 H 3478.3 3.41468 -2.37778 0
M  V30 36563 H 3477.17 4.74352 -2.76191 0
M  V30 36564 H 3477.43 4.28545 -1.08634 0
M  V30 36565 N 3476.49 1.19674 1.02547 0
M  V30 36566 C 3477.74 1.00296 1.76263 0
M  V30 36567 C 3478.07 -0.464783 1.88556 0
M  V30 36568 O 3477.35 -1.34513 1.40487 0
M  V30 36569 C 3477.63 1.67666 3.18685 0
M  V30 36570 C 3477.48 3.21826 3.14242 0
M  V30 36571 C 3478.8 1.40245 4.17156 0
M  V30 36572 H 3475.92 0.365767 0.639831 0
M  V30 36573 H 3478.56 1.47563 1.19688 0
M  V30 36574 H 3476.71 1.27478 3.6699 0
M  V30 36575 H 3478.38 3.7125 2.73809 0
M  V30 36576 H 3476.63 3.53193 2.51867 0
M  V30 36577 H 3477.3 3.64114 4.1488 0
M  V30 36578 H 3479.77 1.75093 3.77467 0
M  V30 36579 H 3478.65 1.89928 5.14994 0
M  V30 36580 H 3478.91 0.328275 4.4088 0
M  V30 36581 N 3477.97 -1.21711 1.00121 0
M  V30 36582 C 3479.22 -1.90961 0.682767 0
M  V30 36583 C 3479.55 -1.77667 -0.7841 0
M  V30 36584 O 3478.82 -1.15087 -1.56797 0
M  V30 36585 C 3479.11 -3.42894 1.09981 0
M  V30 36586 C 3478.96 -3.65198 2.62585 0
M  V30 36587 C 3480.28 -4.35133 0.659323 0
M  V30 36588 H 3477.4 -0.693478 0.249513 0
M  V30 36589 H 3480.04 -1.43421 1.24622 0
M  V30 36590 H 3478.19 -3.83514 0.620402 0
M  V30 36591 H 3479.86 -3.33929 3.1826 0
M  V30 36592 H 3478.1 -3.09193 3.04273 0
M  V30 36593 H 3478.78 -4.71635 2.86817 0
M  V30 36594 H 3481.25 -4.02074 1.07123 0
M  V30 36595 H 3480.13 -5.40093 0.979335 0
M  V30 36596 H 3480.39 -4.39908 -0.4397 0
M  V30 36597 N 3479.45 -0.775459 -1.37202 0
M  V30 36598 C 3480.86 -0.455515 -1.52962 0
M  V30 36599 C 3481.06 1.02831 -1.73286 0
M  V30 36600 O 3480.12 1.81408 -1.75635 0
M  V30 36601 C 3481.43 -1.27382 -2.72387 0
M  V30 36602 C 3482.98 -1.26609 -2.8625 0
M  V30 36603 C 3483.46 -2.06782 -4.08662 0
M  V30 36604 N 3484.95 -2.04156 -4.15782 0
M  V30 36605 C 3485.68 -2.62969 -5.09544 0
M  V30 36606 N 3485.18 -3.30585 -6.08839 0
M  V30 36607 N 3486.97 -2.52779 -5.02055 0
M  V30 36608 H 3479.12 -1.73683 -1.22262 0
M  V30 36609 H 3481.38 -0.737519 -0.595625 0
M  V30 36610 H 3481.09 -2.32549 -2.63845 0
M  V30 36611 H 3480.96 -0.905532 -3.66169 0
M  V30 36612 H 3483.35 -0.222396 -2.94261 0
M  V30 36613 H 3483.43 -1.67404 -1.93415 0
M  V30 36614 H 3483.08 -3.11175 -4.01413 0
M  V30 36615 H 3483.01 -1.63367 -5.00618 0
M  V30 36616 H 3485.5 -1.54932 -3.4468 0
M  V30 36617 H 3485.81 -3.72827 -6.76919 0
M  V30 36618 H 3484.16 -3.34685 -6.09107 0
M  V30 36619 H 3487.35 -1.99566 -4.23428 0
M  V30 36620 H 3487.52 -2.98908 -5.74942 0
M  V30 36621 N 3480.93 1.48552 -0.526305 0
M  V30 36622 C 3481.86 2.32391 0.227323 0
M  V30 36623 C 3482.84 1.41861 0.938595 0
M  V30 36624 O 3484.02 1.70751 0.925089 0
M  V30 36625 C 3481.15 3.22973 1.27694 0
M  V30 36626 C 3480.11 4.22499 0.684033 0
M  V30 36627 C 3479.43 5.02189 1.83603 0
M  V30 36628 C 3480.73 5.2118 -0.341814 0
M  V30 36629 H 3482.43 2.95647 -0.472538 0
M  V30 36630 H 3479.97 1.42172 -0.228694 0
M  V30 36631 H 3481.92 3.80449 1.81208 0
M  V30 36632 H 3480.65 2.57709 2.00633 0
M  V30 36633 H 3479.31 3.66204 0.170441 0
M  V30 36634 H 3478.96 4.33353 2.55371 0
M  V30 36635 H 3478.66 5.69549 1.44526 0
M  V30 36636 H 3480.18 5.62516 2.37503 0
M  V30 36637 H 3481.59 5.73202 0.106107 0
M  V30 36638 H 3479.99 5.96572 -0.649777 0
M  V30 36639 H 3481.06 4.68541 -1.24888 0
M  V30 36640 N 3482.4 0.261267 1.55419 0
M  V30 36641 C 3483.33 -0.626087 2.2495 0
M  V30 36642 C 3484.31 -1.16995 1.23476 0
M  V30 36643 O 3485.5 -1.20664 1.52164 0
M  V30 36644 C 3482.63 -1.81663 2.96 0
M  V30 36645 C 3481.58 -1.40492 4.04285 0
M  V30 36646 C 3480.91 -2.67745 4.62835 0
M  V30 36647 C 3482.21 -0.565339 5.19231 0
M  V30 36648 H 3483.9 -0.0462638 2.99364 0
M  V30 36649 H 3481.45 -0.0208113 1.43985 0
M  V30 36650 H 3483.4 -2.44317 3.43347 0
M  V30 36651 H 3482.13 -2.42207 2.19097 0
M  V30 36652 H 3480.79 -0.80165 3.57728 0
M  V30 36653 H 3480.43 -3.26517 3.82617 0
M  V30 36654 H 3480.13 -2.40915 5.35942 0
M  V30 36655 H 3481.66 -3.31272 5.12924 0
M  V30 36656 H 3483.07 -1.09653 5.62716 0
M  V30 36657 H 3481.47 -0.392502 5.98815 0
M  V30 36658 H 3482.54 0.419144 4.83085 0
M  V30 36659 N 3483.88 -1.57596 -0.0116567 0
M  V30 36660 C 3485.13 -1.89235 -0.698056 0
M  V30 36661 C 3485.44 -0.862047 -1.75579 0
M  V30 36662 O 3486.65 -1.06826 -2.496 0
M  V30 36663 C 3485.11 -3.35882 -1.29271 0
M  V30 36664 C 3484.71 -4.47183 -0.270412 0
M  V30 36665 C 3486.46 -3.76648 -1.95798 0
M  V30 36666 C 3484.36 -5.849 -0.874399 0
M  V30 36667 H 3483.29 -0.706091 -0.264483 0
M  V30 36668 H 3485.95 -1.8344 0.0469774 0
M  V30 36669 H 3484.33 -3.36478 -2.08803 0
M  V30 36670 H 3485.5 -4.58085 0.499462 0
M  V30 36671 H 3483.82 -4.15363 0.293749 0
M  V30 36672 H 3486.41 -4.76868 -2.41871 0
M  V30 36673 H 3486.76 -3.0955 -2.7836 0
M  V30 36674 H 3487.29 -3.78301 -1.23017 0
M  V30 36675 H 3484.03 -6.55441 -0.0878111 0
M  V30 36676 H 3483.55 -5.77685 -1.6137 0
M  V30 36677 H 3485.23 -6.32187 -1.37654 0
M  V30 36678 N 3485.36 0.284228 -1.55016 0
M  V30 36679 C 3486.78 0.630819 -1.46604 0
M  V30 36680 C 3486.98 1.90002 -0.670943 0
M  V30 36681 O 3486.03 2.51819 -0.18531 0
M  V30 36682 C 3487.34 0.768217 -2.90721 0
M  V30 36683 C 3488.89 0.863008 -3.00867 0
M  V30 36684 C 3489.37 1.03227 -4.46215 0
M  V30 36685 N 3490.86 1.09807 -4.49996 0
M  V30 36686 C 3491.59 1.24764 -5.59662 0
M  V30 36687 N 3491.09 1.36511 -6.79218 0
M  V30 36688 N 3492.88 1.27785 -5.47382 0
M  V30 36689 H 3485.03 -0.549445 -2.0517 0
M  V30 36690 H 3487.3 -0.184304 -0.929912 0
M  V30 36691 H 3487 -0.0937517 -3.51575 0
M  V30 36692 H 3486.88 1.65203 -3.39099 0
M  V30 36693 H 3489.26 1.71545 -2.40117 0
M  V30 36694 H 3489.34 -0.0451716 -2.5576 0
M  V30 36695 H 3488.99 0.184531 -5.07565 0
M  V30 36696 H 3488.92 1.95493 -4.88968 0
M  V30 36697 H 3491.41 1.02014 -3.6387 0
M  V30 36698 H 3491.72 1.47726 -7.58549 0
M  V30 36699 H 3490.07 1.33536 -6.82051 0
M  V30 36700 H 3493.26 1.1823 -4.52923 0
M  V30 36701 H 3493.43 1.39097 -6.32895 0
M  V30 36702 N 3486.84 1.47758 0.548222 0
M  V30 36703 C 3487.78 1.60918 1.65451 0
M  V30 36704 C 3488.75 0.451859 1.59836 0
M  V30 36705 O 3489.94 0.673054 1.78535 0
M  V30 36706 C 3487.08 1.63785 3.03757 0
M  V30 36707 C 3486.19 2.90498 3.19742 0
M  V30 36708 C 3485.33 2.84643 4.485 0
M  V30 36709 C 3484.37 4.0614 4.57948 0
M  V30 36710 N 3483.5 3.98468 5.78072 0
M  V30 36711 H 3488.34 2.554 1.53541 0
M  V30 36712 H 3485.88 1.26674 0.747803 0
M  V30 36713 H 3487.84 1.6343 3.83857 0
M  V30 36714 H 3486.47 0.728091 3.14482 0
M  V30 36715 H 3485.52 3.0068 2.33014 0
M  V30 36716 H 3486.83 3.80446 3.22587 0
M  V30 36717 H 3485.99 2.82587 5.3687 0
M  V30 36718 H 3484.73 1.92393 4.48148 0
M  V30 36719 H 3483.73 4.08491 3.67988 0
M  V30 36720 H 3484.96 4.99528 4.60053 0
M  V30 36721 H 3482.9 3.09027 5.78652 0
M  V30 36722 H 3482.82 4.82103 5.82333 0
M  V30 36723 H 3484.09 4.00443 6.68779 0
M  V30 36724 N 3488.32 -0.79567 1.3604 0
M  V30 36725 C 3489.73 -1.37042 1.26792 0
M  V30 36726 C 3490.08 -1.9597 -0.0949848 0
M  V30 36727 O 3489.2 -1.92102 -0.996278 0
M  V30 36728 C 3489.8 -2.49147 2.29589 0
M  V30 36729 C 3488.36 -3.02454 2.2405 0
M  V30 36730 C 3487.5 -1.75489 2.14706 0
M  V30 36731 H 3490.45 -0.597817 1.4701 0
M  V30 36732 H 3490.48 -3.27996 1.9287 0
M  V30 36733 H 3489.99 -2.06228 3.28773 0
M  V30 36734 H 3488.09 -3.49809 1.28313 0
M  V30 36735 H 3488.2 -3.59694 3.16476 0
M  V30 36736 H 3486.57 -1.97475 1.60859 0
M  V30 36737 H 3487.35 -1.34707 3.15767 0
M  V30 36738 N 3489.79 -1.20217 -1.0191 0
M  V30 36739 C 3490.7 -0.964365 -2.13862 0
M  V30 36740 C 3491.72 0.0789251 -1.73821 0
M  V30 36741 O 3492.9 -0.107949 -2.0111 0
M  V30 36742 C 3489.96 -0.516817 -3.42826 0
M  V30 36743 C 3489.02 -1.63066 -3.97125 0
M  V30 36744 C 3488.26 -1.20437 -5.19933 0
M  V30 36745 O 3488.48 -0.0720121 -5.70355 0
M  V30 36746 O 3487.41 -2.01081 -5.67318 0
M  V30 36747 H 3491.24 -1.90166 -2.36792 0
M  V30 36748 H 3488.82 -0.985823 -1.12258 0
M  V30 36749 H 3490.71 -0.276346 -4.20493 0
M  V30 36750 H 3489.38 0.391926 -3.21319 0
M  V30 36751 H 3488.29 -1.92539 -3.20749 0
M  V30 36752 H 3489.62 -2.51632 -4.23016 0
M  V30 36753 N 3491.27 1.21178 -1.00765 0
M  V30 36754 C 3492.51 1.9203 -0.700272 0
M  V30 36755 C 3492.88 1.76519 0.755313 0
M  V30 36756 O 3494.08 2.41768 1.1748 0
M  V30 36757 C 3492.35 3.39628 -1.113 0
M  V30 36758 S 3493.91 4.28913 -0.926227 0
M  V30 36759 H 3490.73 0.663479 -0.255571 0
M  V30 36760 H 3493.33 1.46632 -1.29303 0
M  V30 36761 H 3492.03 3.48435 -2.16844 0
M  V30 36762 H 3491.56 3.90046 -0.512639 0
M  V30 36763 H 3493.58 4.95891 0.175214 0
M  V30 36764 N 3492.75 0.782725 1.36789 0
M  V30 36765 C 3494 0.352046 1.99416 0
M  V30 36766 C 3494.33 -1.07445 1.62129 0
M  V30 36767 O 3493.58 -1.75571 0.86448 0
M  V30 36768 C 3493.88 0.455294 3.54488 0
M  V30 36769 C 3493.55 1.84163 4.11576 0
M  V30 36770 C 3492.21 2.22096 4.2688 0
M  V30 36771 C 3494.56 2.7497 4.42765 0
M  V30 36772 C 3491.89 3.50251 4.70681 0
M  V30 36773 C 3494.24 4.02546 4.87996 0
M  V30 36774 C 3492.9 4.40509 5.01505 0
M  V30 36775 H 3492.17 0.128823 0.729716 0
M  V30 36776 H 3494.82 0.998885 1.63385 0
M  V30 36777 H 3493.13 -0.275061 3.90833 0
M  V30 36778 H 3494.82 0.103197 4.00867 0
M  V30 36779 H 3491.41 1.53684 4.00099 0
M  V30 36780 H 3495.6 2.46919 4.30517 0
M  V30 36781 H 3490.85 3.79545 4.79328 0
M  V30 36782 H 3495.03 4.73028 5.11094 0
M  V30 36783 H 3492.65 5.3987 5.35205 0
M  V30 36784 N 3494.23 -1.48271 0.534176 0
M  V30 36785 C 3495.48 -2.021 0.001605 0
M  V30 36786 C 3495.8 -1.41315 -1.34369 0
M  V30 36787 O 3495.07 -0.580029 -1.87116 0
M  V30 36788 H 3493.65 -0.746996 -0.00239476 0
M  V30 36789 H 3496.31 -1.81936 0.69896 0
M  V30 36790 H 3495.41 -3.11928 -0.103616 0
M  V30 36791 N 3495.71 -0.269505 -1.55279 0
M  V30 36792 C 3497.12 0.229339 -1.85286 0
M  V30 36793 C 3497.47 1.55877 -1.19151 0
M  V30 36794 O 3496.59 2.11058 -0.477837 0
M  V30 36795 C 3497.19 0.422901 -3.3615 0
M  V30 36796 C 3495.75 0.865983 -3.66303 0
M  V30 36797 C 3494.89 -0.0439516 -2.77265 0
M  V30 36798 H 3497.85 -0.491453 -1.50899 0
M  V30 36799 H 3497.87 1.26228 -3.58952 0
M  V30 36800 H 3497.38 -0.544835 -3.84257 0
M  V30 36801 H 3495.48 1.84539 -3.23691 0
M  V30 36802 H 3495.59 0.707191 -4.73852 0
M  V30 36803 H 3493.96 0.471389 -2.503 0
M  V30 36804 H 3494.74 -1.00747 -3.28184 0
M  V30 36805 N 3497.18 1.576 0.00329885 0
M  V30 36806 C 3498.15 2.07164 0.980592 0
M  V30 36807 C 3499.15 0.980424 1.27453 0
M  V30 36808 O 3500.34 1.24319 1.22027 0
M  V30 36809 C 3497.47 2.51032 2.30642 0
M  V30 36810 H 3498.66 2.94777 0.55193 0
M  V30 36811 H 3496.22 1.54276 0.250701 0
M  V30 36812 H 3496.95 1.66652 2.78204 0
M  V30 36813 H 3496.74 3.30723 2.10629 0
M  V30 36814 H 3498.23 2.89716 3.00756 0
M  V30 36815 N 3498.66 -0.276003 1.55164 0
M  V30 36816 C 3499.59 -1.34536 1.90846 0
M  V30 36817 C 3500.57 -1.51674 0.769995 0
M  V30 36818 O 3501.76 -1.64768 1.02787 0
M  V30 36819 C 3498.89 -2.7054 2.17774 0
M  V30 36820 C 3497.84 -2.68136 3.33597 0
M  V30 36821 C 3497.17 -4.07663 3.45998 0
M  V30 36822 C 3498.47 -2.2767 4.70068 0
M  V30 36823 H 3500.16 -1.04921 2.80414 0
M  V30 36824 H 3497.71 -0.503279 1.34919 0
M  V30 36825 H 3499.66 -3.45458 2.41323 0
M  V30 36826 H 3498.39 -3.01732 1.25003 0
M  V30 36827 H 3497.04 -1.95675 3.10011 0
M  V30 36828 H 3496.69 -4.36073 2.50698 0
M  V30 36829 H 3496.39 -4.0695 4.23869 0
M  V30 36830 H 3497.92 -4.84325 3.71836 0
M  V30 36831 H 3499.33 -2.9231 4.93181 0
M  V30 36832 H 3497.73 -2.38125 5.50833 0
M  V30 36833 H 3498.8 -1.228 4.69093 0
M  V30 36834 N 3500.14 -1.48046 -0.540378 0
M  V30 36835 C 3501.56 -1.33937 -0.867934 0
M  V30 36836 C 3501.76 -0.342522 -1.98567 0
M  V30 36837 O 3500.81 0.239977 -2.51357 0
M  V30 36838 C 3502.13 -2.73703 -1.24527 0
M  V30 36839 C 3503.67 -2.82114 -1.35575 0
M  V30 36840 C 3504.15 -4.22559 -1.76657 0
M  V30 36841 N 3505.64 -4.25182 -1.83778 0
M  V30 36842 C 3506.37 -5.30782 -2.16929 0
M  V30 36843 N 3505.87 -6.4667 -2.48576 0
M  V30 36844 N 3507.66 -5.18169 -2.17846 0
M  V30 36845 H 3499.81 -2.11482 0.197289 0
M  V30 36846 H 3502.08 -0.947654 0.0256113 0
M  V30 36847 H 3501.78 -3.48161 -0.49767 0
M  V30 36848 H 3501.66 -3.0656 -2.19774 0
M  V30 36849 H 3504.04 -2.07918 -2.09413 0
M  V30 36850 H 3504.13 -2.5289 -0.384743 0
M  V30 36851 H 3503.77 -4.97267 -1.03382 0
M  V30 36852 H 3503.7 -4.4922 -2.74789 0
M  V30 36853 H 3506.19 -3.41586 -1.61639 0
M  V30 36854 H 3506.5 -7.22994 -2.72947 0
M  V30 36855 H 3504.85 -6.49962 -2.46118 0
M  V30 36856 H 3508.04 -4.26654 -1.92572 0
M  V30 36857 H 3508.21 -6.0057 -2.43351 0
M  V30 36858 N 3501.62 0.788444 -1.3646 0
M  V30 36859 C 3502.87 1.54331 -1.30486 0
M  V30 36860 C 3503.19 1.94659 0.115232 0
M  V30 36861 O 3502.46 1.65021 1.0557 0
M  V30 36862 H 3501.04 0.57236 -0.480014 0
M  V30 36863 H 3503.7 0.939398 -1.70767 0
M  V30 36864 H 3502.8 2.45043 -1.93289 0
M  V30 36865 N 3503.1 1.20755 1.01271 0
M  V30 36866 C 3504.01 0.975693 2.13348 0
M  V30 36867 C 3505.02 -0.0697058 1.7386 0
M  V30 36868 O 3506.2 0.118613 2.0105 0
M  V30 36869 C 3503.26 0.534991 3.42547 0
M  V30 36870 C 3502.32 1.6517 3.96254 0
M  V30 36871 C 3501.56 1.23193 5.19287 0
M  V30 36872 O 3501.78 0.102258 5.70308 0
M  V30 36873 O 3500.71 2.04086 5.66244 0
M  V30 36874 H 3504.54 1.91419 2.3578 0
M  V30 36875 H 3502.13 0.991762 1.11734 0
M  V30 36876 H 3504.01 0.298642 4.2034 0
M  V30 36877 H 3502.68 -0.374881 3.21522 0
M  V30 36878 H 3501.59 1.94237 3.19723 0
M  V30 36879 H 3502.92 2.53871 4.21675 0
M  V30 36880 N 3504.58 -1.20642 1.01406 0
M  V30 36881 C 3505.82 -1.8957 0.700556 0
M  V30 36882 C 3506.14 -1.7907 -0.771947 0
M  V30 36883 O 3505.41 -1.19145 -1.55503 0
M  V30 36884 H 3503.99 -0.701715 0.256134 0
M  V30 36885 H 3506.66 -1.46529 1.28512 0
M  V30 36886 H 3505.75 -2.96258 0.981717 0
M  V30 36887 N 3506.05 -0.789968 -1.36372 0
M  V30 36888 C 3507.3 -0.3619 -1.98833 0
M  V30 36889 C 3507.62 1.07021 -1.63008 0
M  V30 36890 O 3506.89 1.73777 -0.904343 0
M  V30 36891 H 3505.47 -0.130825 -0.735455 0
M  V30 36892 H 3508.13 -1.01213 -1.66559 0
M  V30 36893 H 3507.23 -0.454176 -3.08778 0
M  V30 36894 N 3507.53 1.47986 -0.542031 0
M  V30 36895 C 3508.76 2.07395 -0.0147199 0
M  V30 36896 C 3509.18 1.39424 1.26263 0
M  V30 36897 O 3508.54 0.464149 1.75258 0
M  V30 36898 C 3508.59 3.60151 0.179874 0
M  V30 36899 O 3507.69 3.9313 1.24589 0
M  V30 36900 H 3507.03 0.662506 -0.0445193 0
M  V30 36901 H 3509.56 1.90224 -0.753385 0
M  V30 36902 H 3509.57 4.06046 0.398805 0
M  V30 36903 H 3508.25 4.09024 -0.753165 0
M  V30 36904 H 3506.82 3.58999 1.00866 0
M  V30 36905 N 3509.01 0.277736 1.55133 0
M  V30 36906 C 3510.26 -0.337627 1.9926 0
M  V30 36907 C 3510.58 -1.56181 1.16758 0
M  V30 36908 O 3509.85 -1.94197 0.257741 0
M  V30 36909 H 3508.43 -0.127738 0.735997 0
M  V30 36910 H 3511.09 0.383679 1.91086 0
M  V30 36911 H 3510.19 -0.625693 3.05764 0
M  V30 36912 N 3510.49 -1.57599 0.00505908 0
M  V30 36913 C 3511.42 -2.11775 -0.983548 0
M  V30 36914 C 3512.4 -1.02808 -1.35516 0
M  V30 36915 O 3513.58 -1.30517 -1.43802 0
M  V30 36916 C 3510.71 -2.62519 -2.27378 0
M  V30 36917 C 3509.67 -3.76058 -2.04364 0
M  V30 36918 C 3508.99 -4.13136 -3.39444 0
M  V30 36919 C 3510.29 -5.03127 -1.40215 0
M  V30 36920 H 3511.99 -2.94627 -0.53245 0
M  V30 36921 H 3509.53 -1.4173 -0.254671 0
M  V30 36922 H 3511.49 -2.99048 -2.96898 0
M  V30 36923 H 3510.21 -1.76795 -2.74611 0
M  V30 36924 H 3508.87 -3.39931 -1.37269 0
M  V30 36925 H 3508.52 -3.24429 -3.84389 0
M  V30 36926 H 3508.22 -4.89633 -3.24859 0
M  V30 36927 H 3509.74 -4.52228 -4.10271 0
M  V30 36928 H 3511.16 -5.37395 -1.99698 0
M  V30 36929 H 3509.55 -5.84462 -1.36102 0
M  V30 36930 H 3510.62 -4.83471 -0.371988 0
M  V30 36931 N 3511.97 0.267771 -1.55309 0
M  V30 36932 C 3512.9 1.33522 -1.91557 0
M  V30 36933 C 3513.88 1.51264 -0.778028 0
M  V30 36934 O 3515.06 1.6422 -1.0366 0
M  V30 36935 C 3512.19 2.69381 -2.19206 0
M  V30 36936 C 3511.15 2.66363 -3.35014 0
M  V30 36937 C 3510.47 4.05823 -3.48155 0
M  V30 36938 C 3511.77 2.25174 -4.71268 0
M  V30 36939 H 3513.47 1.03432 -2.80966 0
M  V30 36940 H 3511.01 0.496117 -1.35184 0
M  V30 36941 H 3512.96 3.44173 -2.43152 0
M  V30 36942 H 3511.69 3.01064 -1.26601 0
M  V30 36943 H 3510.35 1.94028 -3.11044 0
M  V30 36944 H 3510 4.34737 -2.53007 0
M  V30 36945 H 3509.7 4.04697 -4.26021 0
M  V30 36946 H 3511.22 4.82346 -3.74399 0
M  V30 36947 H 3512.63 2.8969 -4.94724 0
M  V30 36948 H 3511.03 2.352 -5.52088 0
M  V30 36949 H 3512.1 1.20311 -4.69738 0
M  V30 36950 N 3513.44 1.48331 0.532519 0
M  V30 36951 C 3514.41 1.62186 1.61952 0
M  V30 36952 C 3515.41 0.495308 1.52981 0
M  V30 36953 O 3516.6 0.761032 1.56697 0
M  V30 36954 C 3513.73 1.58966 3.01567 0
M  V30 36955 H 3514.92 2.59107 1.51008 0
M  V30 36956 H 3512.47 1.3689 0.754381 0
M  V30 36957 H 3513.21 0.635125 3.1802 0
M  V30 36958 H 3512.99 2.4075 3.09487 0
M  V30 36959 H 3514.48 1.7185 3.80601 0
M  V30 36960 N 3514.92 -0.781196 1.36876 0
M  V30 36961 C 3515.88 -1.87577 1.3171 0
M  V30 36962 C 3516.88 -1.59245 0.223072 0
M  V30 36963 O 3518.07 -1.67503 0.478356 0
M  V30 36964 C 3515.21 -3.24528 1.04376 0
M  V30 36965 H 3516.4 -1.93572 2.29063 0
M  V30 36966 H 3513.95 -0.979909 1.21768 0
M  V30 36967 H 3514.69 -3.24213 0.0751511 0
M  V30 36968 H 3514.47 -3.46483 1.83554 0
M  V30 36969 H 3515.96 -4.046 1.03387 0
M  V30 36970 N 3516.4 -1.21291 -1.0063 0
M  V30 36971 C 3517.65 -1.02354 -1.738 0
M  V30 36972 C 3517.96 0.443578 -1.90504 0
M  V30 36973 O 3519.17 0.75231 -2.60869 0
M  V30 36974 C 3517.62 -1.78275 -3.12644 0
M  V30 36975 C 3517.23 -3.29148 -3.03917 0
M  V30 36976 C 3518.98 -1.67741 -3.89953 0
M  V30 36977 C 3516.88 -3.97563 -4.37833 0
M  V30 36978 H 3515.81 -0.37937 -0.651609 0
M  V30 36979 H 3518.46 -1.45013 -1.12444 0
M  V30 36980 H 3516.85 -1.28408 -3.74603 0
M  V30 36981 H 3518.02 -3.86307 -2.51204 0
M  V30 36982 H 3516.33 -3.40209 -2.40097 0
M  V30 36983 H 3518.93 -2.16188 -4.89047 0
M  V30 36984 H 3519.27 -0.63541 -4.11422 0
M  V30 36985 H 3519.81 -2.15078 -3.34644 0
M  V30 36986 H 3516.55 -5.0196 -4.21565 0
M  V30 36987 H 3516.07 -3.45193 -4.90512 0
M  V30 36988 H 3517.75 -4.02402 -5.06637 0
M  V30 36989 N 3517.88 1.20103 -1.02045 0
M  V30 36990 C 3518.79 2.26698 -0.603764 0
M  V30 36991 C 3519.8 1.70224 0.360528 0
M  V30 36992 O 3520.98 2.00189 0.220517 0
M  V30 36993 C 3518.04 3.46667 0.0475379 0
M  V30 36994 C 3517.11 4.18355 -0.963185 0
M  V30 36995 C 3516.34 5.32598 -0.342869 0
M  V30 36996 O 3516.56 5.63934 0.85641 0
M  V30 36997 O 3515.5 5.92466 -1.06152 0
M  V30 36998 H 3519.32 2.64564 -1.4913 0
M  V30 36999 H 3516.91 1.26795 -0.790156 0
M  V30 37000 H 3518.79 4.1939 0.411103 0
M  V30 37001 H 3517.46 3.10669 0.909212 0
M  V30 37002 H 3516.37 3.47788 -1.37819 0
M  V30 37003 H 3517.7 4.58304 -1.79495 0
M  V30 37004 N 3519.36 0.797189 1.35951 0
M  V30 37005 C 3520.27 0.202312 2.33726 0
M  V30 37006 C 3521.28 -0.649691 1.61416 0
M  V30 37007 O 3522.46 -0.563652 1.93352 0
M  V30 37008 C 3519.52 -0.64679 3.40613 0
M  V30 37009 C 3518.58 0.224612 4.28712 0
M  V30 37010 C 3517.82 -0.58406 5.30495 0
M  V30 37011 O 3518.04 -1.81948 5.40603 0
M  V30 37012 O 3516.97 0.0201297 6.01897 0
M  V30 37013 H 3520.8 1.01092 2.86381 0
M  V30 37014 H 3518.39 0.558792 1.38556 0
M  V30 37015 H 3520.27 -1.13073 4.05946 0
M  V30 37016 H 3518.94 -1.43316 2.90245 0
M  V30 37017 H 3517.85 0.75548 3.66392 0
M  V30 37018 H 3519.18 0.974688 4.82453 0
M  V30 37019 N 3520.83 -1.47696 0.549872 0
M  V30 37020 C 3521.8 -2.284 -0.191386 0
M  V30 37021 C 3522.8 -1.36528 -0.849509 0
M  V30 37022 O 3523.99 -1.5923 -0.706498 0
M  V30 37023 C 3521.12 -3.15997 -1.27902 0
M  V30 37024 H 3522.31 -2.95403 0.517427 0
M  V30 37025 H 3519.87 -1.53265 0.306537 0
M  V30 37026 H 3520.6 -2.53669 -2.02046 0
M  V30 37027 H 3520.39 -3.836 -0.811999 0
M  V30 37028 H 3521.88 -3.76822 -1.79985 0
M  V30 37029 N 3522.31 -0.285959 -1.54984 0
M  V30 37030 C 3523.56 0.328398 -1.99009 0
M  V30 37031 C 3523.87 1.56156 -1.1779 0
M  V30 37032 O 3525.08 2.24956 -1.5201 0
M  V30 37033 C 3523.54 0.635626 -3.54243 0
M  V30 37034 C 3523.14 -0.578349 -4.44251 0
M  V30 37035 C 3524.89 1.21201 -4.0683 0
M  V30 37036 C 3522.8 -0.245107 -5.90892 0
M  V30 37037 H 3521.73 0.126481 -0.743316 0
M  V30 37038 H 3524.38 -0.392312 -1.79257 0
M  V30 37039 H 3522.76 1.41553 -3.69836 0
M  V30 37040 H 3523.93 -1.35496 -4.40429 0
M  V30 37041 H 3522.25 -1.07232 -4.02356 0
M  V30 37042 H 3524.84 1.47532 -5.13944 0
M  V30 37043 H 3525.19 2.14942 -3.56519 0
M  V30 37044 H 3525.72 0.494152 -3.94719 0
M  V30 37045 H 3522.46 -1.15068 -6.45321 0
M  V30 37046 H 3521.98 0.494531 -5.97758 0
M  V30 37047 H 3523.66 0.158777 -6.46805 0
M  V30 37048 N 3523.79 1.57594 -0.0134169 0
M  V30 37049 C 3525.21 1.55875 0.34282 0
M  V30 37050 C 3525.41 1.01745 1.73926 0
M  V30 37051 O 3524.46 0.657201 2.43797 0
M  V30 37052 C 3525.78 2.99995 0.205778 0
M  V30 37053 C 3527.32 3.11748 0.27972 0
M  V30 37054 C 3527.8 4.57678 0.171649 0
M  V30 37055 N 3529.29 4.62633 0.229129 0
M  V30 37056 C 3530.02 5.73151 0.169052 0
M  V30 37057 N 3529.52 6.92775 0.0587948 0
M  V30 37058 N 3531.31 5.61662 0.221897 0
M  V30 37059 H 3523.46 1.91115 -0.92676 0
M  V30 37060 H 3525.73 0.878422 -0.356481 0
M  V30 37061 H 3525.43 3.43489 -0.755542 0
M  V30 37062 H 3525.31 3.64182 0.982412 0
M  V30 37063 H 3527.69 2.68176 1.23149 0
M  V30 37064 H 3527.78 2.50312 -0.527018 0
M  V30 37065 H 3527.42 5.01927 -0.776636 0
M  V30 37066 H 3527.35 5.17075 0.997047 0
M  V30 37067 H 3529.84 3.76584 0.31513 0
M  V30 37068 H 3530.15 7.72798 0.0192168 0
M  V30 37069 H 3528.5 6.94996 0.0242321 0
M  V30 37070 H 3531.69 4.67097 0.306324 0
M  V30 37071 H 3531.86 6.47773 0.171613 0
M  V30 37072 N 3525.27 -0.259531 1.55448 0
M  V30 37073 C 3526.52 -0.98717 1.75892 0
M  V30 37074 C 3526.83 -1.86958 0.574983 0
M  V30 37075 O 3528.04 -2.63302 0.662138 0
M  V30 37076 C 3526.49 -1.80521 3.11352 0
M  V30 37077 C 3526.1 -0.970805 4.37355 0
M  V30 37078 C 3527.84 -2.52634 3.4114 0
M  V30 37079 C 3525.75 -1.784 5.6385 0
M  V30 37080 H 3524.68 -0.372309 0.655669 0
M  V30 37081 H 3527.33 -0.2423 1.81893 0
M  V30 37082 H 3525.71 -2.59155 2.99424 0
M  V30 37083 H 3526.89 -0.227682 4.60237 0
M  V30 37084 H 3525.2 -0.363596 4.1481 0
M  V30 37085 H 3527.8 -3.13904 4.3286 0
M  V30 37086 H 3528.14 -3.23608 2.61885 0
M  V30 37087 H 3528.68 -1.8102 3.54227 0
M  V30 37088 H 3525.42 -1.11823 6.45892 0
M  V30 37089 H 3524.94 -2.50274 5.4509 0
M  V30 37090 H 3526.61 -2.3543 6.02645 0
M  V30 37091 N 3526.75 -1.48611 -0.524645 0
M  V30 37092 C 3527.97 -1.60828 -1.30955 0
M  V30 37093 C 3528.4 -0.270715 -1.86142 0
M  V30 37094 O 3527.75 0.758386 -1.64676 0
M  V30 37095 C 3527.8 -2.66201 -2.43248 0
M  V30 37096 O 3526.91 -2.23731 -3.46436 0
M  V30 37097 H 3526.25 -0.539111 -0.387629 0
M  V30 37098 H 3528.78 -1.94636 -0.630721 0
M  V30 37099 H 3528.79 -2.8764 -2.89357 0
M  V30 37100 H 3527.46 -3.63304 -2.02442 0
M  V30 37101 H 3526.04 -2.12527 -3.06409 0
M  V30 37102 N 3528.22 0.773926 -1.37289 0
M  V30 37103 C 3529.13 1.91821 -1.35063 0
M  V30 37104 C 3530.15 1.72187 -0.250519 0
M  V30 37105 O 3531.33 1.9546 -0.485535 0
M  V30 37106 C 3528.39 3.26913 -1.1545 0
M  V30 37107 C 3527.45 3.59216 -2.35079 0
M  V30 37108 C 3526.69 4.87863 -2.16392 0
M  V30 37109 O 3526.91 5.58747 -1.14706 0
M  V30 37110 O 3525.84 5.19178 -3.04529 0
M  V30 37111 H 3529.67 1.9665 -2.31436 0
M  V30 37112 H 3527.25 0.916371 -1.17996 0
M  V30 37113 H 3529.14 4.07722 -1.06491 0
M  V30 37114 H 3527.81 3.22941 -0.221492 0
M  V30 37115 H 3526.72 2.7865 -2.49609 0
M  V30 37116 H 3528.05 3.67928 -3.2694 0
M  V30 37117 N 3529.7 1.21823 0.99985 0
M  V30 37118 C 3530.98 0.947243 1.71133 0
M  V30 37119 C 3531.36 -0.539565 2.04088 0
M  V30 37120 O 3530.71 -1.50577 1.71868 0
M  V30 37121 C 3530.92 1.83765 2.96701 0
M  V30 37122 C 3532.27 2.08958 3.69623 0
M  V30 37123 O 3533.29 1.81156 3.06693 0
M  V30 37124 O 3532.15 2.56008 4.82827 0
M  V30 37125 H 3529.24 0.355642 0.746624 0
M  V30 37126 H 3531.79 1.32776 1.05682 0
M  V30 37127 H 3530.56 2.84366 2.68797 0
M  V30 37128 H 3530.18 1.45828 3.69892 0
M  V30 37129 N 3531.18 -1.1956 1.0268 0
M  V30 37130 C 3532.59 -1.70883 0.752057 0
M  V30 37131 C 3532.94 -1.82174 -0.728491 0
M  V30 37132 O 3532.07 -1.49143 -1.56797 0
M  V30 37133 C 3532.66 -3.1037 1.35854 0
M  V30 37134 C 3531.22 -3.58961 1.13243 0
M  V30 37135 C 3530.37 -2.35883 1.45789 0
M  V30 37136 H 3533.32 -1.0443 1.19499 0
M  V30 37137 H 3533.34 -3.72946 0.754413 0
M  V30 37138 H 3532.85 -3.02119 2.43609 0
M  V30 37139 H 3530.95 -3.72528 0.0729926 0
M  V30 37140 H 3531.07 -4.43198 1.81967 0
M  V30 37141 H 3529.43 -2.39119 0.877167 0
M  V30 37142 H 3530.21 -2.30265 2.54623 0
M  V30 37143 N 3532.66 -0.804387 -1.35526 0
M  V30 37144 C 3533.62 -0.21889 -2.28152 0
M  V30 37145 C 3534.62 0.592484 -1.49487 0
M  V30 37146 O 3535.81 0.411289 -1.69275 0
M  V30 37147 C 3532.94 0.695136 -3.33737 0
M  V30 37148 H 3534.14 -1.03581 -2.81445 0
M  V30 37149 H 3531.69 -0.574879 -1.45344 0
M  V30 37150 H 3532.42 1.53582 -2.85627 0
M  V30 37151 H 3532.21 0.115074 -3.91931 0
M  V30 37152 H 3533.7 1.09918 -4.02874 0
M  V30 37153 N 3534.14 1.47403 -0.557697 0
M  V30 37154 C 3535.55 1.58111 -0.217501 0
M  V30 37155 C 3535.75 1.55624 1.27997 0
M  V30 37156 O 3534.81 1.45991 2.06016 0
M  V30 37157 C 3536.12 2.88595 -0.844586 0
M  V30 37158 C 3537.67 3.0218 -0.81586 0
M  V30 37159 C 3538.15 4.35365 -1.42202 0
M  V30 37160 N 3539.64 4.42002 -1.38523 0
M  V30 37161 C 3540.37 5.4362 -1.82387 0
M  V30 37162 N 3539.87 6.52046 -2.3411 0
M  V30 37163 N 3541.66 5.34668 -1.73455 0
M  V30 37164 H 3533.81 1.47262 -1.53061 0
M  V30 37165 H 3536.07 0.700896 -0.638317 0
M  V30 37166 H 3535.78 2.96153 -1.89701 0
M  V30 37167 H 3535.65 3.75683 -0.33791 0
M  V30 37168 H 3538.04 2.94219 0.227874 0
M  V30 37169 H 3538.12 2.16632 -1.3603 0
M  V30 37170 H 3537.77 4.44082 -2.46483 0
M  V30 37171 H 3537.7 5.19645 -0.853024 0
M  V30 37172 H 3540.19 3.64239 -1.0069 0
M  V30 37173 H 3540.5 7.25761 -2.65502 0
M  V30 37174 H 3538.85 6.52935 -2.38121 0
M  V30 37175 H 3542.04 4.4886 -1.32824 0
M  V30 37176 H 3542.21 6.13724 -2.07958 0
M  V30 37177 N 3535.62 0.294175 1.5483 0
M  V30 37178 C 3536.89 -0.369868 1.92071 0
M  V30 37179 C 3537.27 -1.72231 1.22064 0
M  V30 37180 O 3536.62 -2.25741 0.354015 0
M  V30 37181 C 3536.83 -0.491289 3.45525 0
M  V30 37182 C 3538.18 -0.765338 4.17645 0
M  V30 37183 O 3539.2 -0.575366 3.51522 0
M  V30 37184 O 3538.06 -1.12982 5.34694 0
M  V30 37185 H 3535.16 -0.205596 0.801036 0
M  V30 37186 H 3537.7 0.341731 1.66224 0
M  V30 37187 H 3536.47 0.459732 3.8859 0
M  V30 37188 H 3536.1 -1.25162 3.77386 0
M  V30 37189 N 3537.09 -1.57585 0.0217743 0
M  V30 37190 C 3538.34 -1.91118 -0.657153 0
M  V30 37191 C 3538.66 -0.898069 -1.73089 0
M  V30 37192 O 3537.93 0.0614771 -1.95804 0
M  V30 37193 H 3536.51 -0.705429 -0.24572 0
M  V30 37194 H 3539.17 -1.94782 0.0678439 0
M  V30 37195 H 3538.27 -2.9152 -1.11457 0
M  V30 37196 N 3538.57 0.251283 -1.55584 0
M  V30 37197 C 3539.98 0.820689 -1.67695 0
M  V30 37198 C 3540.33 1.86199 -0.618426 0
M  V30 37199 O 3539.46 2.15108 0.236121 0
M  V30 37200 C 3540.05 1.49537 -3.04013 0
M  V30 37201 C 3538.61 2.01253 -3.18079 0
M  V30 37202 C 3537.76 0.862092 -2.63559 0
M  V30 37203 H 3540.71 0.0271793 -1.58677 0
M  V30 37204 H 3540.73 2.36323 -2.98214 0
M  V30 37205 H 3540.24 0.737256 -3.81033 0
M  V30 37206 H 3538.34 2.79958 -2.45874 0
M  V30 37207 H 3538.46 2.21292 -4.24931 0
M  V30 37208 H 3536.82 1.26141 -2.2127 0
M  V30 37209 H 3537.6 0.117135 -3.431 0
M  V30 37210 N 3540.05 1.48887 0.516757 0
M  V30 37211 C 3541.3 1.57265 1.26933 0
M  V30 37212 C 3541.62 0.254189 1.93336 0
M  V30 37213 O 3540.89 -0.725313 1.81978 0
M  V30 37214 H 3539.47 0.579402 0.47149 0
M  V30 37215 H 3542.13 1.85426 0.600256 0
M  V30 37216 H 3541.23 2.36059 2.04163 0
M  V30 37217 N 3541.53 -0.766635 1.37697 0
M  V30 37218 C 3542.78 -1.52066 1.32509 0
M  V30 37219 C 3543.09 -1.95409 -0.0864624 0
M  V30 37220 O 3544.3 -2.70244 -0.260829 0
M  V30 37221 C 3542.75 -2.74621 2.32619 0
M  V30 37222 C 3542.36 -2.38356 3.79329 0
M  V30 37223 C 3544.1 -3.5255 2.36451 0
M  V30 37224 C 3542.01 -3.57443 4.71156 0
M  V30 37225 H 3540.94 -0.570928 0.492501 0
M  V30 37226 H 3543.59 -0.83924 1.63184 0
M  V30 37227 H 3541.97 -3.44678 1.94969 0
M  V30 37228 H 3543.15 -1.76049 4.25844 0
M  V30 37229 H 3541.46 -1.7359 3.78491 0
M  V30 37230 H 3544.06 -4.41071 3.02259 0
M  V30 37231 H 3544.4 -3.92776 1.3796 0
M  V30 37232 H 3544.94 -2.89493 2.72834 0
M  V30 37233 H 3541.67 -3.22294 5.70795 0
M  V30 37234 H 3541.19 -4.18838 4.29342 0
M  V30 37235 H 3542.87 -4.24192 4.88539 0
M  V30 37236 N 3543.01 -1.22351 -0.993375 0
M  V30 37237 C 3544.42 -0.983367 -1.25706 0
M  V30 37238 C 3544.62 0.323337 -1.98889 0
M  V30 37239 O 3543.68 1.04608 -2.29812 0
M  V30 37240 C 3544.99 -2.18174 -2.06931 0
M  V30 37241 C 3546.54 -2.22525 -2.20117 0
M  V30 37242 C 3547.01 -3.41913 -3.04729 0
M  V30 37243 N 3548.5 -3.42072 -3.12316 0
M  V30 37244 C 3549.24 -4.31101 -3.78073 0
M  V30 37245 N 3548.74 -5.30347 -4.45762 0
M  V30 37246 N 3550.53 -4.18878 -3.7483 0
M  V30 37247 H 3542.68 -2.06365 -0.50273 0
M  V30 37248 H 3544.94 -0.904259 -0.28464 0
M  V30 37249 H 3544.65 -3.12932 -1.6052 0
M  V30 37250 H 3544.52 -2.18195 -3.07686 0
M  V30 37251 H 3546.91 -1.28315 -2.65743 0
M  V30 37252 H 3546.99 -2.26543 -1.18794 0
M  V30 37253 H 3546.63 -4.36423 -2.59803 0
M  V30 37254 H 3546.56 -3.35135 -4.06192 0
M  V30 37255 H 3549.06 -2.70255 -2.64141 0
M  V30 37256 H 3549.37 -5.94561 -4.93677 0
M  V30 37257 H 3547.71 -5.34261 -4.44511 0
M  V30 37258 H 3550.9 -3.40596 -3.2111 0
M  V30 37259 H 3551.08 -4.88468 -4.25797 0
M  V30 37260 N 3544.48 1.19014 -1.03313 0
M  V30 37261 C 3545.9 1.40828 -0.75097 0
M  V30 37262 C 3546.1 1.90292 0.66267 0
M  V30 37263 O 3545.16 2.0824 1.42803 0
M  V30 37264 C 3546.47 2.41568 -1.79068 0
M  V30 37265 C 3548.02 2.55307 -1.81072 0
M  V30 37266 C 3548.49 3.59304 -2.84015 0
M  V30 37267 N 3549.98 3.66805 -2.82858 0
M  V30 37268 C 3550.72 4.46978 -3.59164 0
M  V30 37269 N 3550.21 5.30821 -4.45197 0
M  V30 37270 N 3552.01 4.41668 -3.47686 0
M  V30 37271 H 3544.16 0.852295 -1.9455 0
M  V30 37272 H 3546.42 0.436843 -0.841351 0
M  V30 37273 H 3546.13 2.12256 -2.80429 0
M  V30 37274 H 3546 3.40806 -1.61652 0
M  V30 37275 H 3548.39 2.8394 -0.803875 0
M  V30 37276 H 3548.47 1.56208 -2.02565 0
M  V30 37277 H 3548.11 3.31414 -3.84873 0
M  V30 37278 H 3548.04 4.58064 -2.59779 0
M  V30 37279 H 3550.53 3.06928 -2.20463 0
M  V30 37280 H 3550.85 5.89127 -5.0015 0
M  V30 37281 H 3549.19 5.30267 -4.49268 0
M  V30 37282 H 3552.38 3.75211 -2.79883 0
M  V30 37283 H 3552.56 5.0391 -4.07405 0
M  V30 37284 N 3545.96 0.811563 1.35098 0
M  V30 37285 C 3547.24 0.317323 1.93009 0
M  V30 37286 C 3547.62 -1.19379 1.74103 0
M  V30 37287 O 3546.97 -1.99562 1.11299 0
M  V30 37288 C 3547.18 0.734183 3.4119 0
M  V30 37289 C 3548.52 0.726511 4.18338 0
M  V30 37290 O 3549.55 0.676041 3.49726 0
M  V30 37291 O 3548.41 0.789386 5.40769 0
M  V30 37292 H 3545.5 0.0841674 0.822706 0
M  V30 37293 H 3548.05 0.895594 1.44143 0
M  V30 37294 H 3546.82 1.77546 3.48702 0
M  V30 37295 H 3546.44 0.130989 3.97384 0
M  V30 37296 N 3547.44 -1.47105 0.565506 0
M  V30 37297 C 3548.86 -1.57993 0.225883 0
M  V30 37298 C 3549.06 -1.56301 -1.2717 0
M  V30 37299 O 3548.11 -1.47082 -2.05239 0
M  V30 37300 C 3549.42 -2.88143 0.859879 0
M  V30 37301 C 3550.97 -3.01743 0.831874 0
M  V30 37302 C 3551.45 -4.34604 1.44509 0
M  V30 37303 N 3552.94 -4.41261 1.40865 0
M  V30 37304 C 3553.67 -5.42645 1.85268 0
M  V30 37305 N 3553.17 -6.50796 2.37564 0
M  V30 37306 N 3554.96 -5.33741 1.76288 0
M  V30 37307 H 3547.11 -1.46448 1.5384 0
M  V30 37308 H 3549.38 -0.697501 0.642025 0
M  V30 37309 H 3549.08 -2.95143 1.91269 0
M  V30 37310 H 3548.96 -3.75499 0.357828 0
M  V30 37311 H 3551.34 -2.94336 -0.212267 0
M  V30 37312 H 3551.42 -2.15908 1.37177 0
M  V30 37313 H 3551.07 -4.42768 2.48834 0
M  V30 37314 H 3551 -5.19185 0.88057 0
M  V30 37315 H 3553.49 -3.637 1.0262 0
M  V30 37316 H 3553.8 -7.24342 2.69348 0
M  V30 37317 H 3552.15 -6.51663 2.4158 0
M  V30 37318 H 3555.34 -4.48149 1.35203 0
M  V30 37319 H 3555.51 -6.12613 2.1121 0
M  V30 37320 N 3548.92 -0.302382 -1.54672 0
M  V30 37321 C 3550.33 0.0509619 -1.59519 0
M  V30 37322 C 3550.53 1.52302 -1.31933 0
M  V30 37323 O 3549.59 2.27597 -1.09342 0
M  V30 37324 C 3550.9 -0.34822 -2.98677 0
M  V30 37325 C 3552.45 -0.297101 -3.11587 0
M  V30 37326 C 3552.93 -0.671126 -4.53056 0
M  V30 37327 N 3554.42 -0.623714 -4.58982 0
M  V30 37328 C 3555.15 -0.885576 -5.6652 0
M  V30 37329 N 3554.65 -1.21348 -6.8209 0
M  V30 37330 N 3556.44 -0.812545 -5.56196 0
M  V30 37331 H 3548.59 -1.26173 -1.70863 0
M  V30 37332 H 3550.86 -0.511622 -0.79809 0
M  V30 37333 H 3550.56 -1.37303 -3.23791 0
M  V30 37334 H 3550.44 0.297439 -3.76025 0
M  V30 37335 H 3552.82 0.718464 -2.8622 0
M  V30 37336 H 3552.9 -0.977402 -2.36391 0
M  V30 37337 H 3552.55 -1.68451 -4.79152 0
M  V30 37338 H 3552.48 0.0312611 -5.26591 0
M  V30 37339 H 3554.97 -0.381269 -3.75972 0
M  V30 37340 H 3555.28 -1.39923 -7.60027 0
M  V30 37341 H 3553.63 -1.25153 -6.83639 0
M  V30 37342 H 3556.82 -0.556021 -4.64786 0
M  V30 37343 H 3556.99 -1.01999 -6.39922 0
M  V30 37344 N 3550.4 1.57571 -0.0301311 0
M  V30 37345 C 3551.81 1.56229 0.326268 0
M  V30 37346 C 3552.01 1.03584 1.72837 0
M  V30 37347 O 3551.07 0.683022 2.43087 0
M  V30 37348 C 3552.38 3.00196 0.173948 0
M  V30 37349 C 3553.93 3.12027 0.246639 0
M  V30 37350 C 3554.4 4.57835 0.123096 0
M  V30 37351 N 3555.9 4.6285 0.180047 0
M  V30 37352 C 3556.63 5.73298 0.108252 0
M  V30 37353 N 3556.13 6.92798 -0.0146866 0
M  V30 37354 N 3557.92 5.61866 0.162313 0
M  V30 37355 H 3550.07 1.90121 -0.946978 0
M  V30 37356 H 3552.33 0.874592 -0.365778 0
M  V30 37357 H 3552.04 3.42668 -0.791931 0
M  V30 37358 H 3551.91 3.65203 0.94373 0
M  V30 37359 H 3554.3 2.69467 1.20298 0
M  V30 37360 H 3554.38 2.49739 -0.553537 0
M  V30 37361 H 3554.03 5.01075 -0.829828 0
M  V30 37362 H 3553.96 5.18103 0.942149 0
M  V30 37363 H 3556.45 3.76897 0.27517 0
M  V30 37364 H 3556.76 7.72775 -0.0627498 0
M  V30 37365 H 3555.1 6.94982 -0.0494828 0
M  V30 37366 H 3558.3 4.67395 0.256765 0
M  V30 37367 H 3558.47 6.47918 0.102899 0
M  V30 37368 N 3551.87 -0.243029 1.55715 0
M  V30 37369 C 3552.78 -1.32237 1.93779 0
M  V30 37370 C 3553.8 -1.52451 0.838736 0
M  V30 37371 O 3554.98 -1.65998 1.14047 0
M  V30 37372 C 3552.04 -2.65623 2.22812 0
M  V30 37373 C 3551.1 -2.53898 3.46171 0
M  V30 37374 C 3550.34 -3.80923 3.73809 0
M  V30 37375 O 3550.56 -4.82979 3.03458 0
M  V30 37376 O 3549.49 -3.79323 4.6733 0
M  V30 37377 H 3553.32 -1.02946 2.8572 0
M  V30 37378 H 3550.9 -0.444109 1.42647 0
M  V30 37379 H 3552.79 -3.44438 2.42777 0
M  V30 37380 H 3551.46 -2.94639 1.3405 0
M  V30 37381 H 3550.37 -1.73356 3.31509 0
M  V30 37382 H 3551.7 -2.29826 4.35248 0
M  V30 37383 N 3553.35 -1.49159 -0.508854 0
M  V30 37384 C 3554.3 -1.61644 -1.60796 0
M  V30 37385 C 3555.29 -0.472461 -1.53807 0
M  V30 37386 O 3556.48 -0.725014 -1.6147 0
M  V30 37387 C 3553.61 -1.67899 -2.99441 0
M  V30 37388 C 3552.69 -2.87848 -3.11455 0
M  V30 37389 N 3553.08 -4.12022 -2.9338 0
M  V30 37390 C 3551.38 -2.85622 -3.42544 0
M  V30 37391 C 3552.08 -4.92611 -3.09369 0
M  V30 37392 N 3551.06 -4.25826 -3.37895 0
M  V30 37393 H 3554.86 -2.55377 -1.45463 0
M  V30 37394 H 3552.38 -1.45823 -0.714806 0
M  V30 37395 H 3554.37 -1.7494 -3.7842 0
M  V30 37396 H 3553.03 -0.752974 -3.15849 0
M  V30 37397 H 3554.04 -4.42126 -2.69713 0
M  V30 37398 H 3550.72 -2.02365 -3.65177 0
M  V30 37399 H 3552.11 -6.0123 -2.99954 0
M  V30 37400 N 3554.83 0.759322 -1.38102 0
M  V30 37401 C 3556.08 1.51828 -1.33994 0
M  V30 37402 C 3556.41 1.94367 0.071783 0
M  V30 37403 O 3555.66 1.65295 1.04767 0
M  V30 37404 C 3555.96 2.78782 -2.23641 0
M  V30 37405 C 3555.63 2.55234 -3.71708 0
M  V30 37406 C 3554.29 2.4852 -4.12057 0
M  V30 37407 C 3556.64 2.34515 -4.65459 0
M  V30 37408 C 3553.97 2.19095 -5.44256 0
M  V30 37409 C 3556.32 2.06611 -5.97908 0
M  V30 37410 C 3554.98 1.98351 -6.37349 0
M  V30 37411 H 3554.25 0.555578 -0.49032 0
M  V30 37412 H 3556.9 0.873607 -1.70412 0
M  V30 37413 H 3555.21 3.4787 -1.80259 0
M  V30 37414 H 3556.9 3.36715 -2.1777 0
M  V30 37415 H 3553.49 2.61327 -3.39715 0
M  V30 37416 H 3557.68 2.38684 -4.35136 0
M  V30 37417 H 3552.93 2.11204 -5.73762 0
M  V30 37418 H 3557.11 1.89582 -6.70098 0
M  V30 37419 H 3554.73 1.75315 -7.39709 0
M  V30 37420 N 3556.31 1.22876 0.986873 0
M  V30 37421 C 3557.56 1.05487 1.72386 0
M  V30 37422 C 3557.88 -0.410041 1.9064 0
M  V30 37423 O 3557.15 -1.29447 1.47038 0
M  V30 37424 H 3555.73 0.387349 0.638725 0
M  V30 37425 H 3558.39 1.54487 1.18826 0
M  V30 37426 H 3557.49 1.53759 2.71597 0
M  V30 37427 N 3557.79 -1.18464 1.03942 0
M  V30 37428 C 3558.7 -2.25708 0.639753 0
M  V30 37429 C 3559.71 -1.70776 -0.333401 0
M  V30 37430 O 3560.89 -2.00515 -0.188641 0
M  V30 37431 C 3557.95 -3.46699 0.00761994 0
M  V30 37432 C 3557.01 -4.1677 1.02962 0
M  V30 37433 C 3556.25 -5.31985 0.427557 0
M  V30 37434 O 3556.47 -5.65225 -0.766585 0
M  V30 37435 O 3555.4 -5.90702 1.15564 0
M  V30 37436 H 3559.23 -2.62158 1.5332 0
M  V30 37437 H 3556.82 -1.25522 0.810228 0
M  V30 37438 H 3558.7 -4.19991 -0.34433 0
M  V30 37439 H 3557.37 -3.12076 -0.859672 0
M  V30 37440 H 3556.28 -3.45552 1.43334 0
M  V30 37441 H 3557.61 -4.5539 1.86764 0
M  V30 37442 N 3559.26 -0.818716 -1.34665 0
M  V30 37443 C 3560.17 -0.23947 -2.33375 0
M  V30 37444 C 3561.19 0.623928 -1.62429 0
M  V30 37445 O 3562.37 0.53282 -1.94224 0
M  V30 37446 C 3559.43 0.59252 -3.41599 0
M  V30 37447 C 3558.49 -0.292788 -4.283 0
M  V30 37448 C 3557.73 0.499589 -5.31357 0
M  V30 37449 O 3557.95 1.73324 -5.43429 0
M  V30 37450 O 3556.88 -0.115884 -6.01788 0
M  V30 37451 H 3560.71 -1.05636 -2.84736 0
M  V30 37452 H 3558.29 -0.580765 -1.3765 0
M  V30 37453 H 3560.18 1.066 -4.07694 0
M  V30 37454 H 3558.85 1.3868 -2.92488 0
M  V30 37455 H 3557.76 -0.813674 -3.65144 0
M  V30 37456 H 3559.09 -1.05132 -4.80841 0
M  V30 37457 N 3560.74 1.46803 -0.573299 0
M  V30 37458 C 3562.15 1.86142 -0.144195 0
M  V30 37459 C 3562.5 1.47803 1.2903 0
M  V30 37460 O 3561.63 0.888528 1.97317 0
M  V30 37461 C 3562.22 3.3784 -0.254911 0
M  V30 37462 C 3560.78 3.76211 0.119259 0
M  V30 37463 C 3559.93 2.70838 -0.595162 0
M  V30 37464 H 3562.88 1.38091 -0.782082 0
M  V30 37465 H 3562.9 3.76899 0.522255 0
M  V30 37466 H 3562.41 3.65713 -1.29906 0
M  V30 37467 H 3560.52 3.53955 1.1639 0
M  V30 37468 H 3560.63 4.78445 -0.250505 0
M  V30 37469 H 3558.99 2.54674 -0.0364476 0
M  V30 37470 H 3559.78 3.01552 -1.64078 0
M  V30 37471 N 3562.22 0.31058 1.54509 0
M  V30 37472 C 3563.63 -0.180133 1.85829 0
M  V30 37473 C 3563.98 -1.52663 1.23241 0
M  V30 37474 O 3563.11 -2.09717 0.533627 0
M  V30 37475 C 3563.7 -0.333628 3.37153 0
M  V30 37476 C 3562.26 -0.76856 3.6847 0
M  V30 37477 C 3561.41 0.117448 2.77051 0
M  V30 37478 H 3564.36 0.531289 1.49543 0
M  V30 37479 H 3564.38 -1.16666 3.62173 0
M  V30 37480 H 3563.89 0.646522 3.82677 0
M  V30 37481 H 3561.99 -1.75892 3.2847 0
M  V30 37482 H 3562.11 -0.581309 4.7556 0
M  V30 37483 H 3560.47 -0.404861 2.51462 0
M  V30 37484 H 3561.25 1.09413 3.25398 0
M  V30 37485 N 3563.7 -1.57553 0.0384871 0
M  V30 37486 C 3564.61 -2.14251 -0.955699 0
M  V30 37487 C 3565.63 -1.0971 -1.35054 0
M  V30 37488 O 3566.8 -1.41815 -1.43005 0
M  V30 37489 C 3563.87 -2.666 -2.21642 0
M  V30 37490 C 3562.93 -3.85892 -1.88112 0
M  V30 37491 C 3562.16 -4.35734 -3.08174 0
M  V30 37492 O 3562.38 -3.84706 -4.21138 0
M  V30 37493 O 3561.32 -5.27472 -2.89926 0
M  V30 37494 H 3565.14 -2.99496 -0.503558 0
M  V30 37495 H 3562.73 -1.48279 -0.182672 0
M  V30 37496 H 3564.61 -3.00296 -2.95635 0
M  V30 37497 H 3563.29 -1.84433 -2.66019 0
M  V30 37498 H 3562.19 -3.57105 -1.11475 0
M  V30 37499 H 3563.53 -4.6925 -1.48544 0
M  V30 37500 N 3565.18 0.234767 -1.55842 0
M  V30 37501 C 3566.09 1.31208 -1.94478 0
M  V30 37502 C 3567.1 1.52004 -0.846809 0
M  V30 37503 O 3568.28 1.65391 -1.14925 0
M  V30 37504 C 3565.34 2.64438 -2.24218 0
M  V30 37505 C 3564.41 2.52059 -3.47512 0
M  V30 37506 C 3563.64 3.78935 -3.75824 0
M  V30 37507 O 3563.86 4.81363 -3.06016 0
M  V30 37508 O 3562.8 3.7684 -4.69335 0
M  V30 37509 H 3566.62 1.01429 -2.86262 0
M  V30 37510 H 3564.21 0.436538 -1.4288 0
M  V30 37511 H 3566.09 3.43146 -2.446 0
M  V30 37512 H 3564.76 2.93924 -1.3561 0
M  V30 37513 H 3563.67 1.71596 -3.32424 0
M  V30 37514 H 3565 2.27515 -4.36461 0
M  V30 37515 N 3566.66 1.49427 0.500936 0
M  V30 37516 C 3567.6 1.66587 1.62332 0
M  V30 37517 C 3568.6 0.531802 1.60836 0
M  V30 37518 O 3569.8 0.711437 1.65344 0
M  V30 37519 H 3566.18 0.52529 0.538121 0
M  V30 37520 H 3568.15 2.60796 1.45011 0
M  V30 37521 C 3566.9 1.74973 3.00466 0
M  V30 37522 H 3566.22 2.61612 3.02323 0
M  V30 37523 H 3567.66 1.91015 3.78536 0
M  V30 37524 C 3566.12 0.494568 3.3325 0
M  V30 37525 O 3566.65 -0.379713 3.99901 0
M  V30 37526 N 3564.86 0.357495 2.88393 0
M  V30 37527 H 3564.4 1.06995 2.34328 0
M  V30 37528 H 3564.36 -0.481233 3.10695 0
M  V30 37529 N 3568.13 -0.751987 1.38502 0
M  V30 37530 C 3569.55 -1.05526 1.19734 0
M  V30 37531 C 3569.75 -2.01445 0.0471235 0
M  V30 37532 O 3568.81 -2.45105 -0.606602 0
M  V30 37533 C 3570.12 -1.63382 2.52442 0
M  V30 37534 C 3571.67 -1.75545 2.59139 0
M  V30 37535 C 3572.14 -2.36812 3.92026 0
M  V30 37536 N 3573.63 -2.44241 3.93574 0
M  V30 37537 C 3574.37 -2.92544 4.93159 0
M  V30 37538 N 3573.86 -3.40871 6.03141 0
M  V30 37539 N 3575.66 -2.91599 4.80548 0
M  V30 37540 H 3567.81 -0.115505 2.12086 0
M  V30 37541 H 3570.07 -0.113871 0.941136 0
M  V30 37542 H 3569.78 -1.0037 3.37074 0
M  V30 37543 H 3569.65 -2.62422 2.70951 0
M  V30 37544 H 3572.04 -2.37684 1.74901 0
M  V30 37545 H 3572.12 -0.752049 2.44495 0
M  V30 37546 H 3571.76 -1.75306 4.76687 0
M  V30 37547 H 3571.69 -3.37796 4.03982 0
M  V30 37548 H 3574.18 -2.10063 3.14137 0
M  V30 37549 H 3574.5 -3.76189 6.75057 0
M  V30 37550 H 3572.84 -3.38924 6.06758 0
M  V30 37551 H 3576.03 -2.53156 3.93738 0
M  V30 37552 H 3576.21 -3.28931 5.58309 0
M  V30 37553 N 3569.61 -1.23398 -0.980343 0
M  V30 37554 C 3570.86 -1.06768 -1.72419 0
M  V30 37555 C 3571.19 0.394482 -1.90151 0
M  V30 37556 O 3570.47 1.29206 -1.45382 0
M  V30 37557 C 3570.75 -1.79378 -3.12243 0
M  V30 37558 C 3570.6 -3.33268 -3.02081 0
M  V30 37559 C 3571.92 -1.55631 -4.11664 0
M  V30 37560 H 3569.04 -0.389262 -0.625815 0
M  V30 37561 H 3571.68 -1.51903 -1.14129 0
M  V30 37562 H 3569.83 -1.41011 -3.62006 0
M  V30 37563 H 3571.5 -3.81156 -2.59842 0
M  V30 37564 H 3569.75 -3.62297 -2.38585 0
M  V30 37565 H 3570.42 -3.79261 -4.0108 0
M  V30 37566 H 3572.89 -1.88982 -3.70709 0
M  V30 37567 H 3571.77 -2.08911 -5.0759 0
M  V30 37568 H 3572.03 -0.491678 -4.39357 0
M  V30 37569 N 3571.09 1.17911 -1.04569 0
M  V30 37570 C 3572.04 2.19648 -0.611446 0
M  V30 37571 C 3573.02 1.57074 0.348774 0
M  V30 37572 O 3574.22 1.7621 0.167014 0
M  V30 37573 C 3571.34 3.43295 0.0188776 0
M  V30 37574 C 3570.43 4.1298 -0.964793 0
M  V30 37575 N 3570.82 4.58588 -2.13379 0
M  V30 37576 C 3569.12 4.38913 -0.791894 0
M  V30 37577 C 3569.82 5.12291 -2.75558 0
M  V30 37578 N 3568.8 5.04113 -2.03399 0
M  V30 37579 H 3572.6 2.52608 -1.50222 0
M  V30 37580 H 3570.11 1.34172 -0.914969 0
M  V30 37581 H 3572.11 4.15448 0.347702 0
M  V30 37582 H 3570.77 3.11829 0.905122 0
M  V30 37583 H 3571.78 4.52876 -2.51244 0
M  V30 37584 H 3568.46 4.17477 0.043832 0
M  V30 37585 H 3569.85 5.57747 -3.74657 0
M  V30 37586 N 3572.57 0.825847 1.34229 0
M  V30 37587 C 3573.5 0.264587 2.31996 0
M  V30 37588 C 3574.48 -0.620564 1.58376 0
M  V30 37589 O 3575.66 -0.546832 1.86342 0
M  V30 37590 C 3572.79 -0.571964 3.42558 0
M  V30 37591 C 3571.75 0.216294 4.27453 0
M  V30 37592 C 3571.07 -0.743185 5.2951 0
M  V30 37593 C 3572.37 1.42612 5.02453 0
M  V30 37594 H 3574.07 1.08144 2.79187 0
M  V30 37595 H 3571.61 0.521475 1.34226 0
M  V30 37596 H 3573.57 -0.974816 4.0997 0
M  V30 37597 H 3572.29 -1.4219 2.94023 0
M  V30 37598 H 3570.95 0.600549 3.61648 0
M  V30 37599 H 3570.6 -1.58916 4.77237 0
M  V30 37600 H 3570.3 -0.219961 5.87188 0
M  V30 37601 H 3571.82 -1.14383 5.99791 0
M  V30 37602 H 3573.24 1.09712 5.62704 0
M  V30 37603 H 3571.63 1.88519 5.6972 0
M  V30 37604 H 3572.7 2.20278 4.31979 0
M  V30 37605 N 3574.05 -1.46497 0.581077 0
M  V30 37606 C 3575.29 -2.01993 0.0659007 0
M  V30 37607 C 3575.61 -1.45519 -1.29805 0
M  V30 37608 O 3574.88 -0.639265 -1.85176 0
M  V30 37609 H 3573.46 -0.746694 0.0213716 0
M  V30 37610 H 3576.13 -1.7962 0.756487 0
M  V30 37611 H 3575.22 -3.121 -0.00432642 0
M  V30 37612 N 3575.52 -0.31877 -1.54343 0
M  V30 37613 C 3576.47 0.56481 -2.20893 0
M  V30 37614 C 3577.46 1.08532 -1.18784 0
M  V30 37615 O 3578.65 1.02314 -1.44433 0
M  V30 37616 C 3575.78 1.72758 -2.96664 0
M  V30 37617 C 3574.86 1.22219 -4.06108 0
M  V30 37618 N 3575.26 0.436114 -5.03916 0
M  V30 37619 C 3573.55 1.50135 -4.19971 0
M  V30 37620 C 3574.25 0.164773 -5.81467 0
M  V30 37621 N 3573.23 0.749565 -5.38407 0
M  V30 37622 H 3577.03 -0.0431139 -2.93868 0
M  V30 37623 H 3574.55 -0.12439 -1.61923 0
M  V30 37624 H 3576.54 2.3723 -3.42823 0
M  V30 37625 H 3575.2 2.33903 -2.2521 0
M  V30 37626 H 3576.21 0.0793905 -5.17839 0
M  V30 37627 H 3572.89 2.11899 -3.59729 0
M  V30 37628 H 3574.28 -0.467735 -6.7027 0
M  V30 37629 N 3577 1.5753 -0.0468419 0
M  V30 37630 C 3577.96 2.10179 0.914188 0
M  V30 37631 C 3578.96 1.02048 1.2427 0
M  V30 37632 O 3580.15 1.28138 1.1801 0
M  V30 37633 C 3577.29 2.58242 2.22539 0
M  V30 37634 H 3578.48 2.96384 0.45787 0
M  V30 37635 H 3576.03 1.54996 0.201492 0
M  V30 37636 H 3576.77 1.75418 2.72762 0
M  V30 37637 H 3576.55 3.37257 2.00001 0
M  V30 37638 H 3578.04 2.99138 2.91387 0
M  V30 37639 N 3578.48 -0.226499 1.55964 0
M  V30 37640 C 3579.73 -0.949639 1.77946 0
M  V30 37641 C 3580.04 -1.85696 0.614511 0
M  V30 37642 O 3581.25 -2.61838 0.717839 0
M  V30 37643 C 3579.7 -1.73876 3.15111 0
M  V30 37644 C 3579.31 -0.877817 4.39316 0
M  V30 37645 C 3581.06 -2.45341 3.46422 0
M  V30 37646 C 3578.96 -1.664 5.67508 0
M  V30 37647 H 3577.89 -0.358318 0.663419 0
M  V30 37648 H 3580.54 -0.203663 1.82366 0
M  V30 37649 H 3578.93 -2.52745 3.04854 0
M  V30 37650 H 3580.1 -0.130008 4.60617 0
M  V30 37651 H 3578.42 -0.275527 4.15487 0
M  V30 37652 H 3581.01 -3.04652 4.39421 0
M  V30 37653 H 3581.36 -3.1798 2.6869 0
M  V30 37654 H 3581.89 -1.73465 3.57987 0
M  V30 37655 H 3578.63 -0.980975 6.48118 0
M  V30 37656 H 3578.15 -2.38655 5.50276 0
M  V30 37657 H 3579.83 -2.22595 6.07504 0
M  V30 37658 N 3579.96 -1.4969 -0.493005 0
M  V30 37659 C 3580.89 -1.61561 -1.61162 0
M  V30 37660 C 3581.87 -0.46439 -1.55827 0
M  V30 37661 O 3583.05 -0.681004 -1.75769 0
M  V30 37662 C 3580.18 -1.57796 -2.99697 0
M  V30 37663 C 3579.23 -2.78213 -3.23265 0
M  V30 37664 S 3580.06 -4.39791 -3.05523 0
M  V30 37665 C 3581.22 -4.38683 -4.46439 0
M  V30 37666 H 3581.45 -2.56187 -1.50849 0
M  V30 37667 H 3578.98 -1.38681 -0.678753 0
M  V30 37668 H 3580.94 -1.56309 -3.79576 0
M  V30 37669 H 3579.6 -0.644433 -3.07418 0
M  V30 37670 H 3578.79 -2.7182 -4.24417 0
M  V30 37671 H 3578.4 -2.77153 -2.51122 0
M  V30 37672 H 3580.69 -4.10895 -5.38676 0
M  V30 37673 H 3581.63 -5.4014 -4.5788 0
M  V30 37674 H 3582.04 -3.6866 -4.27493 0
M  V30 37675 N 3581.44 0.744631 -1.38899 0
M  V30 37676 C 3582.66 1.53899 -1.39032 0
M  V30 37677 C 3583.09 1.88094 0.0156277 0
M  V30 37678 O 3582.44 1.51221 1.00009 0
M  V30 37679 C 3582.49 2.80915 -2.26095 0
M  V30 37680 O 3581.6 3.76441 -1.68421 0
M  V30 37681 H 3580.94 0.465135 -0.473862 0
M  V30 37682 H 3583.47 0.919493 -1.82774 0
M  V30 37683 H 3583.48 3.29749 -2.40269 0
M  V30 37684 H 3582.15 2.55358 -3.28276 0
M  V30 37685 H 3580.73 3.35176 -1.63437 0
M  V30 37686 N 3582.91 1.23916 0.973785 0
M  V30 37687 C 3584.16 1.07522 1.71596 0
M  V30 37688 C 3584.49 -0.386892 1.90613 0
M  V30 37689 O 3583.74 -1.30251 1.46059 0
M  V30 37690 C 3584.04 1.75331 3.11438 0
M  V30 37691 C 3583.71 3.25256 3.12281 0
M  V30 37692 C 3582.37 3.6616 3.12218 0
M  V30 37693 C 3584.72 4.21129 3.07083 0
M  V30 37694 C 3582.05 5.01384 3.04682 0
M  V30 37695 C 3584.4 5.56353 3.01088 0
M  V30 37696 C 3583.07 5.96611 2.99351 0
M  V30 37697 H 3582.34 0.393451 0.627915 0
M  V30 37698 H 3584.98 1.53938 1.13909 0
M  V30 37699 H 3583.29 1.21292 3.72553 0
M  V30 37700 H 3584.99 1.60117 3.67646 0
M  V30 37701 H 3581.58 2.92698 3.13091 0
M  V30 37702 H 3585.76 3.90532 3.06265 0
M  V30 37703 H 3581.02 5.31781 3.01693 0
M  V30 37704 H 3585.19 6.30351 2.96024 0
M  V30 37705 H 3582.82 7.01355 2.93267 0
M  V30 37706 N 3584.39 -1.17355 1.05193 0
M  V30 37707 C 3585.62 -1.91258 0.781272 0
M  V30 37708 C 3586.03 -1.77059 -0.666849 0
M  V30 37709 O 3585.37 -1.10528 -1.46728 0
M  V30 37710 C 3585.44 -3.42821 1.08231 0
M  V30 37711 C 3585.1 -3.80803 2.52662 0
M  V30 37712 C 3586.1 -3.83648 3.50871 0
M  V30 37713 C 3583.78 -4.11765 2.87671 0
M  V30 37714 C 3585.78 -4.16923 4.82135 0
M  V30 37715 C 3583.46 -4.4471 4.19138 0
M  V30 37716 C 3584.46 -4.47267 5.1618 0
M  V30 37717 O 3584.15 -4.79435 6.45288 0
M  V30 37718 H 3583.88 -0.613668 0.283527 0
M  V30 37719 H 3586.43 -1.49755 1.40579 0
M  V30 37720 H 3584.66 -3.84618 0.400691 0
M  V30 37721 H 3586.35 -3.97985 0.797663 0
M  V30 37722 H 3587.12 -3.59852 3.25164 0
M  V30 37723 H 3583 -4.08946 2.128 0
M  V30 37724 H 3586.54 -4.18834 5.57874 0
M  V30 37725 H 3582.44 -4.67969 4.44607 0
M  V30 37726 H 3583.21 -4.97292 6.5011 0
M  V30 37727 N 3585.87 -0.832954 -1.3379 0
M  V30 37728 C 3586.83 -0.267236 -2.27637 0
M  V30 37729 C 3587.83 0.560643 -1.5071 0
M  V30 37730 O 3589.02 0.375291 -1.70109 0
M  V30 37731 C 3586.16 0.624189 -3.35137 0
M  V30 37732 H 3587.35 -1.09527 -2.79184 0
M  V30 37733 H 3584.9 -0.60558 -1.44092 0
M  V30 37734 H 3585.64 1.47489 -2.88821 0
M  V30 37735 H 3585.42 0.0319138 -3.92087 0
M  V30 37736 H 3586.91 1.01348 -4.05115 0
M  V30 37737 N 3587.35 1.46186 -0.588837 0
M  V30 37738 C 3588.31 2.28827 0.130763 0
M  V30 37739 C 3589.31 1.38733 0.813013 0
M  V30 37740 O 3590.5 1.61047 0.664033 0
M  V30 37741 C 3587.63 3.19277 1.19478 0
M  V30 37742 H 3588.83 2.93927 -0.595565 0
M  V30 37743 H 3586.38 1.52398 -0.347065 0
M  V30 37744 H 3587.11 2.58937 1.95249 0
M  V30 37745 H 3586.9 3.85618 0.710009 0
M  V30 37746 H 3588.39 3.81462 1.69931 0
M  V30 37747 N 3588.83 0.32695 1.54171 0
M  V30 37748 C 3589.76 -0.530114 2.27403 0
M  V30 37749 C 3590.74 -1.11652 1.28327 0
M  V30 37750 O 3591.92 -1.14102 1.57144 0
M  V30 37751 C 3589.05 -1.68945 3.03438 0
M  V30 37752 C 3588.01 -1.23218 4.0988 0
M  V30 37753 C 3587.33 -2.47874 4.73775 0
M  V30 37754 C 3588.63 -0.344607 5.21162 0
M  V30 37755 H 3590.33 0.0807485 2.99291 0
M  V30 37756 H 3587.87 0.0402764 1.43944 0
M  V30 37757 H 3589.83 -2.29535 3.534 0
M  V30 37758 H 3588.55 -2.32696 2.29173 0
M  V30 37759 H 3587.21 -0.649204 3.60806 0
M  V30 37760 H 3586.86 -3.09995 3.96121 0
M  V30 37761 H 3586.56 -2.17967 5.45678 0
M  V30 37762 H 3588.08 -3.09219 5.26513 0
M  V30 37763 H 3589.49 -0.85688 5.6686 0
M  V30 37764 H 3587.89 -0.138171 5.99941 0
M  V30 37765 H 3588.96 0.623659 4.80873 0
M  V30 37766 N 3590.3 -1.57503 0.0551955 0
M  V30 37767 C 3591.55 -1.92026 -0.617167 0
M  V30 37768 C 3591.87 -0.935741 -1.71765 0
M  V30 37769 O 3593.07 -1.17317 -2.44845 0
M  V30 37770 C 3591.53 -3.41063 -1.14909 0
M  V30 37771 C 3591.14 -4.47928 -0.0805026 0
M  V30 37772 C 3592.88 -3.84613 -1.79647 0
M  V30 37773 C 3590.79 -5.88082 -0.625536 0
M  V30 37774 H 3589.72 -0.716673 -0.234297 0
M  V30 37775 H 3592.37 -1.83076 0.124738 0
M  V30 37776 H 3590.75 -3.45031 -1.94344 0
M  V30 37777 H 3591.92 -4.55555 0.693302 0
M  V30 37778 H 3590.24 -4.13743 0.469654 0
M  V30 37779 H 3592.84 -4.86697 -2.21427 0
M  V30 37780 H 3593.18 -3.21078 -2.64981 0
M  V30 37781 H 3593.71 -3.83178 -1.06861 0
M  V30 37782 H 3590.45 -6.55224 0.190263 0
M  V30 37783 H 3589.97 -5.84009 -1.36724 0
M  V30 37784 H 3591.65 -6.37456 -1.10717 0
M  V30 37785 N 3591.78 0.218225 -1.56082 0
M  V30 37786 C 3593.06 0.966655 -1.70045 0
M  V30 37787 C 3593.44 2.02292 -0.603407 0
M  V30 37788 O 3592.79 2.25163 0.389098 0
M  V30 37789 C 3593 1.57408 -3.11486 0
M  V30 37790 C 3594.35 2.06507 -3.70999 0
M  V30 37791 O 3595.37 1.67296 -3.14469 0
M  V30 37792 O 3594.23 2.78588 -4.70161 0
M  V30 37793 H 3591.32 0.451772 -0.692699 0
M  V30 37794 H 3593.87 0.209744 -1.68399 0
M  V30 37795 H 3592.64 0.811547 -3.82792 0
M  V30 37796 H 3592.26 2.39644 -3.17264 0
M  V30 37797 N 3593.26 1.4995 0.485059 0
M  V30 37798 C 3594.19 1.70713 1.59309 0
M  V30 37799 C 3595.17 0.555924 1.60759 0
M  V30 37800 O 3596.36 0.793535 1.77247 0
M  V30 37801 C 3593.49 1.78839 2.97714 0
M  V30 37802 C 3592.44 2.93907 3.11131 0
M  V30 37803 C 3591.77 2.87162 4.51046 0
M  V30 37804 C 3593.07 4.34622 2.89657 0
M  V30 37805 H 3594.76 2.63483 1.42187 0
M  V30 37806 H 3592.31 1.26794 0.682598 0
M  V30 37807 H 3594.26 1.9195 3.75144 0
M  V30 37808 H 3592.98 0.8268 3.15961 0
M  V30 37809 H 3591.64 2.80425 2.3613 0
M  V30 37810 H 3591.29 1.88878 4.66191 0
M  V30 37811 H 3590.99 3.64402 4.60961 0
M  V30 37812 H 3592.52 3.02302 5.30515 0
M  V30 37813 H 3593.93 4.48703 3.56845 0
M  V30 37814 H 3592.33 5.13206 3.1103 0
M  V30 37815 H 3593.4 4.4796 1.85634 0
M  V30 37816 N 3594.74 -0.737255 1.39292 0
M  V30 37817 C 3595.67 -1.8645 1.40565 0
M  V30 37818 C 3596.65 -1.67955 0.269312 0
M  V30 37819 O 3597.84 -1.88306 0.474802 0
M  V30 37820 C 3594.97 -3.24173 1.24615 0
M  V30 37821 C 3593.92 -3.57302 2.35625 0
M  V30 37822 C 3593.25 -4.93938 2.04767 0
M  V30 37823 C 3594.55 -3.60505 3.77933 0
M  V30 37824 H 3596.24 -1.85642 2.34899 0
M  V30 37825 H 3593.79 -0.891736 1.13067 0
M  V30 37826 H 3595.74 -4.02704 1.24128 0
M  V30 37827 H 3594.46 -3.25503 0.267496 0
M  V30 37828 H 3593.12 -2.811 2.35327 0
M  V30 37829 H 3592.77 -4.91845 1.05345 0
M  V30 37830 H 3592.47 -5.17071 2.79126 0
M  V30 37831 H 3593.99 -5.74828 2.05925 0
M  V30 37832 H 3595.41 -4.29117 3.80173 0
M  V30 37833 H 3593.8 -3.95156 4.51633 0
M  V30 37834 H 3594.87 -2.6036 4.09073 0
M  V30 37835 N 3596.22 -1.24431 -0.967199 0
M  V30 37836 C 3597.47 -1.08216 -1.70686 0
M  V30 37837 C 3597.79 0.379659 -1.91268 0
M  V30 37838 O 3597.06 1.27091 -1.49079 0
M  V30 37839 H 3595.64 -0.397461 -0.632482 0
M  V30 37840 H 3598.3 -1.56358 -1.16354 0
M  V30 37841 H 3597.39 -1.5806 -2.69116 0
M  V30 37842 N 3597.7 1.16795 -1.05814 0
M  V30 37843 C 3599.11 1.39204 -0.780673 0
M  V30 37844 C 3599.31 1.91655 0.622158 0
M  V30 37845 O 3598.37 2.11222 1.38353 0
M  V30 37846 C 3599.68 2.37715 -1.84152 0
M  V30 37847 C 3601.23 2.51409 -1.86447 0
M  V30 37848 C 3601.7 3.53199 -2.91572 0
M  V30 37849 N 3603.19 3.60722 -2.90575 0
M  V30 37850 C 3603.93 4.39259 -3.68564 0
M  V30 37851 N 3603.43 5.21258 -4.56357 0
M  V30 37852 N 3605.22 4.34194 -3.56977 0
M  V30 37853 H 3597.37 0.810836 -1.96314 0
M  V30 37854 H 3599.63 0.418898 -0.850428 0
M  V30 37855 H 3599.34 2.0626 -2.84868 0
M  V30 37856 H 3599.21 3.373 -1.68844 0
M  V30 37857 H 3601.6 2.82171 -0.863922 0
M  V30 37858 H 3601.68 1.51877 -2.05833 0
M  V30 37859 H 3601.32 3.23175 -3.91816 0
M  V30 37860 H 3601.25 4.52451 -2.69436 0
M  V30 37861 H 3603.75 3.02182 -2.26923 0
M  V30 37862 H 3604.06 5.78385 -5.12533 0
M  V30 37863 H 3602.4 5.20618 -4.60415 0
M  V30 37864 H 3605.59 3.6919 -2.87779 0
M  V30 37865 H 3605.77 4.95155 -4.18002 0
M  V30 37866 N 3599.17 0.840037 1.33346 0
M  V30 37867 C 3600.41 0.442398 1.99555 0
M  V30 37868 C 3600.78 -0.980275 1.6509 0
M  V30 37869 O 3601.98 -1.4817 2.24274 0
M  V30 37870 C 3600.25 0.658001 3.51291 0
M  V30 37871 S 3601.81 0.355757 4.37355 0
M  V30 37872 H 3598.63 0.166356 0.691265 0
M  V30 37873 H 3601.23 1.08958 1.62322 0
M  V30 37874 H 3599.93 1.69278 3.73863 0
M  V30 37875 H 3599.46 -0.0032889 3.934 0
M  V30 37876 H 3601.48 -0.824005 4.8931 0
M  V30 37877 N 3600.65 -1.45872 0.596582 0
M  V30 37878 C 3601.61 -2.28893 -0.118626 0
M  V30 37879 C 3602.61 -1.39162 -0.805644 0
M  V30 37880 O 3603.8 -1.61397 -0.655483 0
M  V30 37881 C 3600.94 -3.19906 -1.17784 0
M  V30 37882 H 3602.13 -2.93607 0.611145 0
M  V30 37883 H 3599.68 -1.52212 0.355142 0
M  V30 37884 H 3600.42 -2.59969 -1.93873 0
M  V30 37885 H 3600.2 -3.85989 -0.689549 0
M  V30 37886 H 3601.69 -3.82358 -1.67906 0
M  V30 37887 N 3602.13 -0.335122 -1.53996 0
M  V30 37888 C 3603.54 0.150547 -1.86092 0
M  V30 37889 C 3603.89 1.50683 -1.25655 0
M  V30 37890 O 3603.02 2.08842 -0.566924 0
M  V30 37891 C 3603.61 0.279947 -3.37641 0
M  V30 37892 C 3602.17 0.709842 -3.69646 0
M  V30 37893 C 3601.32 -0.16151 -2.76829 0
M  V30 37894 H 3604.27 -0.555012 -1.48679 0
M  V30 37895 H 3604.29 1.1089 -3.63983 0
M  V30 37896 H 3603.8 -0.707321 -3.816 0
M  V30 37897 H 3601.9 1.70644 -3.31227 0
M  V30 37898 H 3602.02 0.505578 -4.76425 0
M  V30 37899 H 3600.38 0.364804 -2.52074 0
M  V30 37900 H 3601.16 -1.14576 -3.23616 0
M  V30 37901 N 3603.61 1.57472 -0.0635475 0
M  V30 37902 C 3604.52 2.15744 0.921493 0
M  V30 37903 C 3605.53 1.11845 1.33292 0
M  V30 37904 O 3606.71 1.44072 1.40731 0
M  V30 37905 C 3603.77 2.70092 2.17373 0
M  V30 37906 C 3602.84 3.88835 1.81949 0
M  V30 37907 C 3602.07 4.40582 3.01203 0
M  V30 37908 O 3602.29 3.91358 4.14964 0
M  V30 37909 O 3601.23 5.32017 2.81498 0
M  V30 37910 H 3605.05 3.00259 0.455847 0
M  V30 37911 H 3602.64 1.48551 0.159059 0
M  V30 37912 H 3604.52 3.04962 2.9082 0
M  V30 37913 H 3603.19 1.88642 2.63051 0
M  V30 37914 H 3602.1 3.58834 1.05779 0
M  V30 37915 H 3603.43 4.71554 1.4106 0
M  V30 37916 N 3605.09 -0.209945 1.56195 0
M  V30 37917 C 3606.02 -1.28778 1.88392 0
M  V30 37918 C 3607 -1.4466 0.742454 0
M  V30 37919 O 3608.18 -1.60287 0.991983 0
M  V30 37920 C 3605.31 -2.65652 2.10112 0
M  V30 37921 C 3604.35 -2.66722 3.32809 0
M  V30 37922 S 3605.19 -2.19632 4.88387 0
M  V30 37923 C 3606.34 -3.58358 5.13157 0
M  V30 37924 H 3606.58 -1.01276 2.79518 0
M  V30 37925 H 3604.11 -0.412742 1.48781 0
M  V30 37926 H 3606.07 -3.44447 2.23308 0
M  V30 37927 H 3604.73 -2.90372 1.19762 0
M  V30 37928 H 3603.92 -3.6733 3.45086 0
M  V30 37929 H 3603.52 -1.95998 3.18529 0
M  V30 37930 H 3605.81 -4.54127 5.02767 0
M  V30 37931 H 3606.76 -3.50987 6.14991 0
M  V30 37932 H 3607.17 -3.52583 4.40846 0
M  V30 37933 N 3606.56 -1.50205 -0.4771 0
M  V30 37934 C 3607.51 -1.65018 -1.57331 0
M  V30 37935 C 3608.5 -0.50498 -1.5277 0
M  V30 37936 O 3609.69 -0.759101 -1.59896 0
M  V30 37937 C 3606.82 -1.74213 -2.95812 0
M  V30 37938 C 3605.9 -2.9439 -3.05279 0
M  V30 37939 N 3606.3 -4.18152 -2.84574 0
M  V30 37940 C 3604.59 -2.92823 -3.36408 0
M  V30 37941 C 3605.29 -4.99062 -2.98851 0
M  V30 37942 N 3604.27 -4.32898 -3.28786 0
M  V30 37943 H 3608.07 -2.58405 -1.40014 0
M  V30 37944 H 3605.59 -1.47306 -0.683714 0
M  V30 37945 H 3607.58 -1.82928 -3.74624 0
M  V30 37946 H 3606.24 -0.819801 -3.1418 0
M  V30 37947 H 3607.25 -4.47747 -2.60275 0
M  V30 37948 H 3603.93 -2.10066 -3.60803 0
M  V30 37949 H 3605.32 -6.07457 -2.87133 0
M  V30 37950 N 3608.04 0.729857 -1.39681 0
M  V30 37951 C 3608.97 1.85702 -1.41552 0
M  V30 37952 C 3609.95 1.67809 -0.278216 0
M  V30 37953 O 3611.14 1.88052 -0.484782 0
M  V30 37954 C 3608.27 3.23508 -1.26333 0
M  V30 37955 C 3607.22 3.56047 -2.37517 0
M  V30 37956 C 3606.55 4.92845 -2.07384 0
M  V30 37957 C 3607.85 3.58496 -3.7984 0
M  V30 37958 H 3609.54 1.84393 -2.3588 0
M  V30 37959 H 3607.09 0.885727 -1.13538 0
M  V30 37960 H 3609.04 4.0204 -1.26261 0
M  V30 37961 H 3607.77 3.25356 -0.284754 0
M  V30 37962 H 3606.42 2.79848 -2.36814 0
M  V30 37963 H 3606.07 4.91279 -1.07952 0
M  V30 37964 H 3605.77 5.15583 -2.81864 0
M  V30 37965 H 3607.3 5.73728 -2.08971 0
M  V30 37966 H 3608.71 4.27094 -3.82444 0
M  V30 37967 H 3607.11 3.92755 -4.53722 0
M  V30 37968 H 3608.18 2.58187 -4.10448 0
M  V30 37969 N 3609.52 1.24942 0.960587 0
M  V30 37970 C 3610.77 1.08734 1.69882 0
M  V30 37971 C 3611.08 -0.372568 1.92019 0
M  V30 37972 O 3612.29 -0.654972 2.63481 0
M  V30 37973 C 3610.74 1.89755 3.05812 0
M  V30 37974 C 3610.35 3.40201 2.91492 0
M  V30 37975 C 3612.1 1.82099 3.83458 0
M  V30 37976 C 3610 4.13539 4.22776 0
M  V30 37977 H 3608.93 0.403292 0.63708 0
M  V30 37978 H 3611.58 1.49086 1.06984 0
M  V30 37979 H 3609.97 1.42223 3.69579 0
M  V30 37980 H 3611.14 3.95364 2.36693 0
M  V30 37981 H 3609.46 3.48886 2.27305 0
M  V30 37982 H 3612.05 2.3419 4.80686 0
M  V30 37983 H 3612.4 0.787669 4.0878 0
M  V30 37984 H 3612.93 2.2735 3.26431 0
M  V30 37985 H 3609.67 5.1726 4.02644 0
M  V30 37986 H 3609.19 3.6316 4.77362 0
M  V30 37987 H 3610.87 4.20929 4.91353 0
M  V30 37988 N 3611 -1.16233 1.06432 0
M  V30 37989 C 3611.93 -2.20248 0.634312 0
M  V30 37990 C 3612.94 -1.59852 -0.308404 0
M  V30 37991 O 3614.13 -1.78224 -0.0991754 0
M  V30 37992 C 3611.23 -3.3878 -0.0900998 0
M  V30 37993 C 3610.41 -4.28732 0.866454 0
M  V30 37994 C 3609.46 -5.25888 0.181035 0
M  V30 37995 O 3608.49 -5.63275 0.819133 0
M  V30 37996 N 3609.69 -5.70424 -1.07688 0
M  V30 37997 H 3612.46 -2.5776 1.52905 0
M  V30 37998 H 3610.02 -1.31256 0.947812 0
M  V30 37999 H 3612.01 -4.0082 -0.559076 0
M  V30 38000 H 3610.58 -2.99762 -0.886662 0
M  V30 38001 H 3609.8 -3.63935 1.51477 0
M  V30 38002 H 3611.09 -4.85711 1.51532 0
M  V30 38003 H 3610.49 -5.42145 -1.6154 0
M  V30 38004 H 3609.04 -6.34548 -1.4897 0
M  V30 38005 N 3612.48 -0.847097 -1.32899 0
M  V30 38006 C 3613.44 -0.291364 -2.27341 0
M  V30 38007 C 3614.44 0.544626 -1.51296 0
M  V30 38008 O 3615.63 0.357228 -1.70498 0
M  V30 38009 C 3612.76 0.588609 -3.3578 0
M  V30 38010 H 3613.95 -1.12482 -2.78007 0
M  V30 38011 H 3611.51 -0.620829 -1.43441 0
M  V30 38012 H 3612.24 1.44418 -2.90369 0
M  V30 38013 H 3612.03 -0.00967407 -3.92099 0
M  V30 38014 H 3613.52 0.970455 -4.06167 0
M  V30 38015 N 3613.95 1.45554 -0.604309 0
M  V30 38016 C 3615.2 2.01862 -0.0980277 0
M  V30 38017 C 3615.52 1.47565 1.27473 0
M  V30 38018 O 3614.79 0.668644 1.84136 0
M  V30 38019 H 3613.37 0.74626 -0.0332481 0
M  V30 38020 H 3616.04 1.78394 -0.784967 0
M  V30 38021 H 3615.13 3.12067 -0.0453265 0
M  V30 38022 N 3615.43 0.343284 1.53816 0
M  V30 38023 C 3616.38 -0.513625 2.25012 0
M  V30 38024 C 3617.35 -1.09576 1.24829 0
M  V30 38025 O 3618.53 -1.13243 1.5356 0
M  V30 38026 C 3615.67 -1.6588 3.02618 0
M  V30 38027 C 3614.79 -1.10399 4.17655 0
M  V30 38028 C 3613.92 -2.21645 4.8275 0
M  V30 38029 C 3612.96 -1.63514 5.89856 0
M  V30 38030 N 3612.1 -2.68501 6.48731 0
M  V30 38031 H 3616.94 0.100049 2.97832 0
M  V30 38032 H 3614.48 0.0611464 1.46973 0
M  V30 38033 H 3616.43 -2.33298 3.45873 0
M  V30 38034 H 3615.06 -2.24346 2.32096 0
M  V30 38035 H 3614.12 -0.320753 3.79045 0
M  V30 38036 H 3615.43 -0.6388 4.94693 0
M  V30 38037 H 3614.58 -2.96929 5.29073 0
M  V30 38038 H 3613.32 -2.71507 4.05136 0
M  V30 38039 H 3612.33 -0.867355 5.42915 0
M  V30 38040 H 3613.55 -1.14504 6.69377 0
M  V30 38041 H 3611.5 -3.17619 5.73981 0
M  V30 38042 H 3611.41 -2.26603 7.2124 0
M  V30 38043 H 3612.68 -3.43555 6.99707 0
M  V30 38044 N 3616.91 -1.57436 0.0718977 0
M  V30 38045 C 3618.16 -1.93111 -0.596018 0
M  V30 38046 C 3618.48 -0.952682 -1.70144 0
M  V30 38047 O 3617.75 -0.000847376 -1.959 0
M  V30 38048 H 3616.33 -0.71289 -0.223153 0
M  V30 38049 H 3618.99 -1.94467 0.129778 0
M  V30 38050 H 3618.09 -2.94918 -1.02126 0
M  V30 38051 N 3618.39 0.201658 -1.56305 0
M  V30 38052 C 3619.3 1.27053 -1.97217 0
M  V30 38053 C 3620.31 1.50173 -0.878861 0
M  V30 38054 O 3621.49 1.62916 -1.18408 0
M  V30 38055 C 3618.56 2.59622 -2.29776 0
M  V30 38056 C 3617.62 2.44631 -3.52781 0
M  V30 38057 C 3616.85 3.70878 -3.83777 0
M  V30 38058 O 3617.07 4.74764 -3.16157 0
M  V30 38059 O 3616.01 3.668 -4.77223 0
M  V30 38060 H 3619.83 0.953342 -2.88349 0
M  V30 38061 H 3617.42 0.406133 -1.43774 0
M  V30 38062 H 3619.3 3.3788 -2.51823 0
M  V30 38063 H 3617.97 2.90982 -1.41814 0
M  V30 38064 H 3616.88 1.64506 -3.35989 0
M  V30 38065 H 3618.21 2.18206 -4.41188 0
M  V30 38066 N 3619.87 1.50456 0.469128 0
M  V30 38067 C 3620.83 1.68909 1.54927 0
M  V30 38068 C 3621.83 0.559747 1.50743 0
M  V30 38069 O 3623.02 0.826808 1.53328 0
M  V30 38070 C 3620.15 1.71614 2.94553 0
M  V30 38071 H 3621.34 2.65279 1.39883 0
M  V30 38072 H 3618.9 1.39966 0.695643 0
M  V30 38073 H 3619.63 0.769437 3.1504 0
M  V30 38074 H 3619.42 2.53659 2.98997 0
M  V30 38075 H 3620.91 1.87838 3.7297 0
M  V30 38076 N 3621.34 -0.722439 1.40066 0
M  V30 38077 C 3622.27 -1.84949 1.42535 0
M  V30 38078 C 3623.26 -1.67659 0.287111 0
M  V30 38079 O 3624.44 -1.87792 0.494748 0
M  V30 38080 C 3621.57 -3.22833 1.28047 0
M  V30 38081 C 3620.52 -3.54783 2.39402 0
M  V30 38082 C 3619.85 -4.91738 2.09994 0
M  V30 38083 C 3621.15 -3.56476 3.81735 0
M  V30 38084 H 3622.84 -1.8314 2.36855 0
M  V30 38085 H 3620.39 -0.879694 1.14006 0
M  V30 38086 H 3622.34 -4.01365 1.28392 0
M  V30 38087 H 3621.07 -3.25201 0.302005 0
M  V30 38088 H 3619.73 -2.78588 2.38295 0
M  V30 38089 H 3619.37 -4.907 1.10556 0
M  V30 38090 H 3619.07 -5.14081 2.84595 0
M  V30 38091 H 3620.6 -5.72611 2.12011 0
M  V30 38092 H 3622.01 -4.2506 3.84703 0
M  V30 38093 H 3620.41 -3.90343 4.55798 0
M  V30 38094 H 3621.48 -2.56007 4.11811 0
M  V30 38095 N 3622.82 -1.2545 -0.953947 0
M  V30 38096 C 3624.24 -1.02286 -1.22514 0
M  V30 38097 C 3624.44 0.259898 -1.99817 0
M  V30 38098 O 3623.5 0.972438 -2.33023 0
M  V30 38099 C 3624.81 -2.24647 -1.99886 0
M  V30 38100 C 3626.36 -2.29415 -2.12926 0
M  V30 38101 C 3626.83 -3.51434 -2.93697 0
M  V30 38102 N 3628.32 -3.51835 -3.01275 0
M  V30 38103 C 3629.06 -4.42911 -3.64167 0
M  V30 38104 N 3628.55 -5.44261 -4.28663 0
M  V30 38105 N 3630.35 -4.30591 -3.61314 0
M  V30 38106 H 3622.5 -2.0786 -0.436823 0
M  V30 38107 H 3624.76 -0.912857 -0.255728 0
M  V30 38108 H 3624.47 -3.1788 -1.50483 0
M  V30 38109 H 3624.34 -2.27873 -3.00589 0
M  V30 38110 H 3626.73 -1.36705 -2.61526 0
M  V30 38111 H 3626.81 -2.30208 -1.11526 0
M  V30 38112 H 3626.45 -4.44467 -2.45787 0
M  V30 38113 H 3626.38 -3.47888 -3.95325 0
M  V30 38114 H 3628.87 -2.78522 -2.5541 0
M  V30 38115 H 3629.19 -6.09966 -4.74511 0
M  V30 38116 H 3627.53 -5.48132 -4.27289 0
M  V30 38117 H 3630.72 -3.5064 -3.10112 0
M  V30 38118 H 3630.9 -5.01767 -4.10042 0
M  V30 38119 N 3624.3 1.15667 -1.07047 0
M  V30 38120 C 3625.55 1.85722 -0.786783 0
M  V30 38121 C 3625.86 1.83042 0.689572 0
M  V30 38122 O 3627.07 2.4875 1.08791 0
M  V30 38123 C 3625.53 3.33323 -1.35735 0
M  V30 38124 C 3625.13 3.44457 -2.8645 0
M  V30 38125 C 3626.88 4.08582 -1.15155 0
M  V30 38126 C 3624.78 4.86187 -3.36713 0
M  V30 38127 H 3623.71 0.695732 -0.290642 0
M  V30 38128 H 3626.37 1.3049 -1.29014 0
M  V30 38129 H 3624.75 3.88207 -0.78174 0
M  V30 38130 H 3625.92 2.99694 -3.50029 0
M  V30 38131 H 3624.24 2.82639 -3.05785 0
M  V30 38132 H 3626.83 5.13174 -1.50188 0
M  V30 38133 H 3627.18 4.16202 -0.0903891 0
M  V30 38134 H 3627.71 3.59959 -1.69336 0
M  V30 38135 H 3624.45 4.8375 -4.42341 0
M  V30 38136 H 3623.97 5.31544 -2.77887 0
M  V30 38137 H 3625.65 5.55033 -3.32487 0
M  V30 38138 N 3625.78 0.854133 1.32447 0
M  V30 38139 C 3627.2 0.543921 1.50046 0
M  V30 38140 C 3627.4 -0.92553 1.78987 0
M  V30 38141 O 3626.45 -1.70859 1.85912 0
M  V30 38142 C 3627.76 1.43046 2.64496 0
M  V30 38143 C 3629.31 1.43083 2.78381 0
M  V30 38144 C 3629.79 2.30257 3.95911 0
M  V30 38145 N 3631.28 2.2805 4.03172 0
M  V30 38146 C 3632.01 2.9223 4.93345 0
M  V30 38147 N 3631.51 3.6552 5.8853 0
M  V30 38148 N 3633.3 2.8162 4.86463 0
M  V30 38149 H 3625.45 1.80516 1.11927 0
M  V30 38150 H 3627.72 0.770991 0.551613 0
M  V30 38151 H 3627.42 2.47536 2.49838 0
M  V30 38152 H 3627.3 1.11748 3.60267 0
M  V30 38153 H 3629.68 0.393581 2.92464 0
M  V30 38154 H 3629.76 1.78396 1.83326 0
M  V30 38155 H 3629.41 3.34049 3.82588 0
M  V30 38156 H 3629.34 1.92277 4.90242 0
M  V30 38157 H 3631.83 1.74765 3.35061 0
M  V30 38158 H 3632.14 4.11659 6.54031 0
M  V30 38159 H 3630.49 3.69628 5.88558 0
M  V30 38160 H 3633.68 2.23914 4.11072 0
M  V30 38161 H 3633.85 3.3192 5.56537 0
M  V30 38162 N 3627.26 -1.45231 0.61202 0
M  V30 38163 C 3628.22 -2.29006 -0.0943422 0
M  V30 38164 C 3629.22 -1.40009 -0.790839 0
M  V30 38165 O 3630.41 -1.62083 -0.638327 0
M  V30 38166 C 3627.54 -3.21137 -1.14384 0
M  V30 38167 H 3628.74 -2.92942 0.642251 0
M  V30 38168 H 3626.29 -1.51827 0.371266 0
M  V30 38169 H 3627.02 -2.6201 -1.91105 0
M  V30 38170 H 3626.81 -3.86699 -0.64857 0
M  V30 38171 H 3628.3 -3.84117 -1.63841 0
M  V30 38172 N 3628.74 -0.351436 -1.53632 0
M  V30 38173 C 3629.98 0.243696 -2.00222 0
M  V30 38174 C 3630.3 1.5102 -1.24307 0
M  V30 38175 O 3631.5 2.18306 -1.61415 0
M  V30 38176 C 3629.96 0.484807 -3.5662 0
M  V30 38177 C 3629.57 -0.766251 -4.41398 0
M  V30 38178 C 3631.31 1.03837 -4.11604 0
M  V30 38179 C 3629.22 -0.495503 -5.89321 0
M  V30 38180 H 3628.15 0.0948402 -0.748012 0
M  V30 38181 H 3630.8 -0.467988 -1.77432 0
M  V30 38182 H 3629.18 1.25739 -3.75507 0
M  V30 38183 H 3630.36 -1.54054 -4.34285 0
M  V30 38184 H 3628.67 -1.24201 -3.97446 0
M  V30 38185 H 3631.27 1.25602 -5.19739 0
M  V30 38186 H 3631.61 1.99628 -3.65314 0
M  V30 38187 H 3632.14 0.326294 -3.9646 0
M  V30 38188 H 3628.88 -1.42335 -6.3986 0
M  V30 38189 H 3628.4 0.240556 -5.99317 0
M  V30 38190 H 3630.08 -0.115698 -6.46897 0
M  V30 38191 N 3630.21 1.57396 -0.0802459 0
M  V30 38192 C 3631.14 2.16226 0.881388 0
M  V30 38193 C 3632.12 1.09156 1.30457 0
M  V30 38194 O 3633.31 1.37229 1.37411 0
M  V30 38195 C 3630.44 2.73069 2.14594 0
M  V30 38196 C 3629.39 3.8538 1.86189 0
M  V30 38197 C 3628.72 4.28861 3.19346 0
M  V30 38198 C 3630.02 5.09244 1.1605 0
M  V30 38199 H 3631.71 2.96832 0.391273 0
M  V30 38200 H 3629.26 1.42784 0.18676 0
M  V30 38201 H 3631.21 3.12873 2.82292 0
M  V30 38202 H 3629.94 1.89696 2.65863 0
M  V30 38203 H 3628.6 3.46093 1.20894 0
M  V30 38204 H 3628.24 3.42399 3.68473 0
M  V30 38205 H 3627.94 5.04575 3.01128 0
M  V30 38206 H 3629.47 4.71288 3.88227 0
M  V30 38207 H 3630.88 5.46311 1.73831 0
M  V30 38208 H 3629.28 5.9029 1.08062 0
M  V30 38209 H 3630.35 4.84695 0.140895 0
M  V30 38210 N 3631.69 -0.193366 1.56409 0
M  V30 38211 C 3633.11 -0.544272 1.50033 0
M  V30 38212 C 3633.31 -1.85767 0.780578 0
M  V30 38213 O 3632.36 -2.5031 0.331813 0
M  V30 38214 C 3633.68 -0.597411 2.94706 0
M  V30 38215 C 3635.22 -0.686126 3.05387 0
M  V30 38216 C 3635.7 -0.77036 4.51475 0
M  V30 38217 N 3637.19 -0.833841 4.55633 0
M  V30 38218 C 3637.93 -0.919215 5.65984 0
M  V30 38219 N 3637.42 -0.966783 6.86021 0
M  V30 38220 N 3639.21 -0.956537 5.53901 0
M  V30 38221 H 3631.37 0.668131 2.01618 0
M  V30 38222 H 3633.63 0.238207 0.917584 0
M  V30 38223 H 3633.33 0.298571 3.5043 0
M  V30 38224 H 3633.21 -1.45151 3.48154 0
M  V30 38225 H 3635.6 -1.57254 2.4971 0
M  V30 38226 H 3635.68 0.19421 2.55062 0
M  V30 38227 H 3635.32 0.111708 5.07777 0
M  V30 38228 H 3635.25 -1.66652 4.99534 0
M  V30 38229 H 3637.74 -0.806255 3.69199 0
M  V30 38230 H 3638.05 -1.03249 7.65872 0
M  V30 38231 H 3636.4 -0.935431 6.88676 0
M  V30 38232 H 3639.59 -0.916223 4.59046 0
M  V30 38233 H 3639.76 -1.01961 6.39928 0
M  V30 38234 N 3633.17 -1.50702 -0.461142 0
M  V30 38235 C 3634.39 -1.66237 -1.24016 0
M  V30 38236 C 3634.82 -0.34942 -1.84826 0
M  V30 38237 O 3634.18 0.687859 -1.67744 0
M  V30 38238 C 3634.23 -2.76278 -2.31738 0
M  V30 38239 O 3633.33 -2.38223 -3.36635 0
M  V30 38240 H 3632.67 -0.555066 -0.364414 0
M  V30 38241 H 3635.2 -1.97136 -0.547601 0
M  V30 38242 H 3635.21 -2.99654 -2.76897 0
M  V30 38243 H 3633.89 -3.71563 -1.86851 0
M  V30 38244 H 3632.46 -2.25332 -2.97119 0
M  V30 38245 N 3634.65 0.715001 -1.40447 0
M  V30 38246 C 3635.58 1.8419 -1.43514 0
M  V30 38247 C 3636.56 1.67505 -0.295998 0
M  V30 38248 O 3637.74 1.87527 -0.5047 0
M  V30 38249 C 3634.87 3.2215 -1.29757 0
M  V30 38250 C 3633.83 3.53508 -2.4128 0
M  V30 38251 C 3633.15 4.90618 -2.12599 0
M  V30 38252 C 3634.45 3.54447 -3.83621 0
M  V30 38253 H 3636.15 1.81881 -2.37823 0
M  V30 38254 H 3633.69 0.873635 -1.14471 0
M  V30 38255 H 3635.65 4.00678 -1.30519 0
M  V30 38256 H 3634.37 3.25036 -0.319247 0
M  V30 38257 H 3633.03 2.7732 -2.39769 0
M  V30 38258 H 3632.68 4.90107 -1.13156 0
M  V30 38259 H 3632.38 5.12565 -2.87317 0
M  V30 38260 H 3633.9 5.71479 -2.15044 0
M  V30 38261 H 3635.32 4.23014 -3.86952 0
M  V30 38262 H 3633.71 3.87921 -4.57862 0
M  V30 38263 H 3634.78 2.53819 -4.13163 0
M  V30 38264 N 3636.13 1.25954 0.947281 0
M  V30 38265 C 3637.37 1.11302 1.69528 0
M  V30 38266 C 3637.7 -0.343928 1.9113 0
M  V30 38267 O 3636.98 -1.25306 1.48757 0
M  V30 38268 C 3637.26 1.87593 3.07377 0
M  V30 38269 C 3637.12 3.41159 2.93139 0
M  V30 38270 C 3638.43 1.66491 4.07393 0
M  V30 38271 H 3635.55 0.405717 0.615274 0
M  V30 38272 H 3638.2 1.54876 1.10062 0
M  V30 38273 H 3636.35 1.50559 3.5814 0
M  V30 38274 H 3638.02 3.87911 2.49645 0
M  V30 38275 H 3636.26 3.68496 2.28896 0
M  V30 38276 H 3636.93 3.89762 3.90883 0
M  V30 38277 H 3639.41 1.98744 3.65568 0
M  V30 38278 H 3638.28 2.22296 5.01872 0
M  V30 38279 H 3638.54 0.607993 4.37899 0
M  V30 38280 N 3637.6 -1.15097 1.07659 0
M  V30 38281 C 3639.02 -1.67539 0.823858 0
M  V30 38282 C 3639.37 -1.851 -0.650569 0
M  V30 38283 O 3638.49 -1.55659 -1.5033 0
M  V30 38284 C 3639.09 -3.04328 1.48895 0
M  V30 38285 C 3637.65 -3.53835 1.28365 0
M  V30 38286 C 3636.79 -2.29487 1.55663 0
M  V30 38287 H 3639.74 -0.992677 1.23821 0
M  V30 38288 H 3639.76 -3.69411 0.911913 0
M  V30 38289 H 3639.28 -2.91515 2.56204 0
M  V30 38290 H 3637.38 -3.71884 0.230929 0
M  V30 38291 H 3637.49 -4.35082 2.00601 0
M  V30 38292 H 3635.85 -2.35183 0.977796 0
M  V30 38293 H 3636.64 -2.19258 2.6416 0
M  V30 38294 N 3639.08 -0.861145 -1.31993 0
M  V30 38295 C 3640.01 -0.326004 -2.31213 0
M  V30 38296 C 3640.99 0.578355 -1.59966 0
M  V30 38297 O 3642.18 0.497235 -1.87726 0
M  V30 38298 C 3639.31 0.48094 -3.43954 0
M  V30 38299 C 3638.26 -0.329549 -4.26729 0
M  V30 38300 C 3637.59 0.602534 -5.31294 0
M  V30 38301 C 3638.89 -1.55883 -4.98495 0
M  V30 38302 H 3640.58 -1.15508 -2.76221 0
M  V30 38303 H 3638.13 -0.556879 -1.32796 0
M  V30 38304 H 3640.08 0.865778 -4.1241 0
M  V30 38305 H 3638.81 1.34344 -2.9769 0
M  V30 38306 H 3637.46 -0.696222 -3.59928 0
M  V30 38307 H 3637.11 1.46207 -4.81282 0
M  V30 38308 H 3636.81 0.0642012 -5.87565 0
M  V30 38309 H 3638.34 0.984406 -6.02612 0
M  V30 38310 H 3639.75 -1.24593 -5.59598 0
M  V30 38311 H 3638.15 -2.03558 -5.64521 0
M  V30 38312 H 3639.22 -2.31653 -4.25987 0
M  V30 38313 N 3640.56 1.44905 -0.619713 0
M  V30 38314 C 3641.47 2.34414 0.09351 0
M  V30 38315 C 3642.49 1.51953 0.847712 0
M  V30 38316 O 3643.66 1.84719 0.802559 0
M  V30 38317 C 3640.73 3.29762 1.07041 0
M  V30 38318 C 3639.79 4.28129 0.316835 0
M  V30 38319 C 3639.02 5.18923 1.2472 0
M  V30 38320 O 3639.24 5.13399 2.48551 0
M  V30 38321 O 3638.18 5.97362 0.737694 0
M  V30 38322 H 3642 2.96828 -0.642387 0
M  V30 38323 H 3639.59 1.44488 -0.379933 0
M  V30 38324 H 3641.47 3.88484 1.63274 0
M  V30 38325 H 3640.15 2.69896 1.78712 0
M  V30 38326 H 3639.05 3.72988 -0.288258 0
M  V30 38327 H 3640.39 4.90884 -0.359626 0
M  V30 38328 N 3642.04 0.359579 1.53443 0
M  V30 38329 C 3643.32 -0.288072 1.93467 0
M  V30 38330 C 3643.7 -1.66899 1.29259 0
M  V30 38331 O 3643.04 -2.24036 0.449441 0
M  V30 38332 C 3643.25 -0.344298 3.47298 0
M  V30 38333 C 3644.6 -0.587511 4.20516 0
M  V30 38334 O 3645.63 -0.425756 3.53646 0
M  V30 38335 O 3644.48 -0.902024 5.39004 0
M  V30 38336 H 3641.58 -0.171437 0.809036 0
M  V30 38337 H 3644.12 0.411925 1.64625 0
M  V30 38338 H 3642.9 0.624132 3.8629 0
M  V30 38339 H 3642.52 -1.09043 3.82355 0
M  V30 38340 N 3643.52 -1.57351 0.0885919 0
M  V30 38341 C 3644.45 -2.16691 -0.869908 0
M  V30 38342 C 3645.43 -1.09846 -1.29876 0
M  V30 38343 O 3646.61 -1.37956 -1.36681 0
M  V30 38344 C 3643.74 -2.74203 -2.13143 0
M  V30 38345 C 3642.7 -3.86362 -1.84142 0
M  V30 38346 C 3642.02 -4.30549 -3.17068 0
M  V30 38347 C 3643.32 -5.09852 -1.13348 0
M  V30 38348 H 3645.02 -2.97036 -0.375526 0
M  V30 38349 H 3642.56 -1.42881 -0.179185 0
M  V30 38350 H 3644.52 -3.14365 -2.80628 0
M  V30 38351 H 3643.24 -1.91103 -2.64853 0
M  V30 38352 H 3641.9 -3.46729 -1.19057 0
M  V30 38353 H 3641.55 -3.44348 -3.66652 0
M  V30 38354 H 3641.25 -5.06164 -2.98448 0
M  V30 38355 H 3642.77 -4.7334 -3.85722 0
M  V30 38356 H 3644.18 -5.47225 -1.70931 0
M  V30 38357 H 3642.58 -5.90855 -1.0493 0
M  V30 38358 H 3643.65 -4.84763 -0.115188 0
M  V30 38359 N 3644.99 0.185069 -1.5651 0
M  V30 38360 C 3646.24 0.905232 -1.81476 0
M  V30 38361 C 3646.57 1.82486 -0.664257 0
M  V30 38362 O 3645.85 1.916 0.334626 0
M  V30 38363 C 3646.13 1.71281 -3.16757 0
M  V30 38364 C 3645.98 0.817224 -4.42314 0
M  V30 38365 C 3647.3 2.68336 -3.48832 0
M  V30 38366 H 3644.42 0.327653 -0.660161 0
M  V30 38367 H 3647.06 0.172096 -1.89219 0
M  V30 38368 H 3645.21 2.33783 -3.10286 0
M  V30 38369 H 3646.89 0.206137 -4.60839 0
M  V30 38370 H 3645.13 0.124487 -4.33621 0
M  V30 38371 H 3645.8 1.41749 -5.3349 0
M  V30 38372 H 3648.28 2.15963 -3.55667 0
M  V30 38373 H 3647.15 3.21917 -4.44591 0
M  V30 38374 H 3647.41 3.4787 -2.72835 0
M  V30 38375 N 3646.47 1.50945 0.453144 0
M  V30 38376 C 3647.72 1.62508 1.20149 0
M  V30 38377 C 3648.04 0.335961 1.92084 0
M  V30 38378 O 3647.31 -0.647477 1.84891 0
M  V30 38379 H 3645.89 0.598878 0.446491 0
M  V30 38380 H 3648.55 1.87805 0.52107 0
M  V30 38381 H 3647.65 2.44506 1.93967 0
M  V30 38382 N 3647.95 -0.707543 1.40825 0
M  V30 38383 C 3649.2 -1.46309 1.3884 0
M  V30 38384 C 3649.51 -1.956 -0.00350501 0
M  V30 38385 O 3650.72 -2.71107 -0.145975 0
M  V30 38386 C 3649.17 -2.64507 2.44057 0
M  V30 38387 C 3648.78 -2.22053 3.89097 0
M  V30 38388 C 3650.53 -3.42204 2.51191 0
M  V30 38389 C 3648.43 -3.37138 4.85893 0
M  V30 38390 H 3647.36 -0.549526 0.516273 0
M  V30 38391 H 3650.01 -0.769272 1.66597 0
M  V30 38392 H 3648.4 -3.36099 2.09412 0
M  V30 38393 H 3649.57 -1.57829 4.32928 0
M  V30 38394 H 3647.89 -1.57381 3.85513 0
M  V30 38395 H 3650.48 -4.27854 3.20695 0
M  V30 38396 H 3650.83 -3.86571 1.54495 0
M  V30 38397 H 3651.36 -2.77661 2.84867 0
M  V30 38398 H 3648.1 -2.97795 5.83951 0
M  V30 38399 H 3647.62 -4.00251 4.4672 0
M  V30 38400 H 3649.3 -4.03089 5.06091 0
M  V30 38401 N 3649.43 -1.26454 -0.940588 0
M  V30 38402 C 3650.68 -1.11423 -1.6813 0
M  V30 38403 C 3650.99 0.341972 -1.92587 0
M  V30 38404 O 3652.2 0.612971 -2.6449 0
M  V30 38405 C 3650.65 -1.94597 -3.02754 0
M  V30 38406 C 3650.26 -3.44795 -2.86043 0
M  V30 38407 C 3652 -1.88176 -3.80513 0
M  V30 38408 C 3649.91 -4.20213 -4.16143 0
M  V30 38409 H 3648.84 -0.413377 -0.630584 0
M  V30 38410 H 3651.49 -1.50769 -1.04599 0
M  V30 38411 H 3649.87 -1.48084 -3.6727 0
M  V30 38412 H 3651.05 -3.9908 -2.30373 0
M  V30 38413 H 3649.36 -3.52458 -2.21726 0
M  V30 38414 H 3651.96 -2.41808 -4.769 0
M  V30 38415 H 3652.3 -0.852603 -4.07476 0
M  V30 38416 H 3652.84 -2.32514 -3.22772 0
M  V30 38417 H 3649.58 -5.236 -3.94364 0
M  V30 38418 H 3649.1 -3.70709 -4.71524 0
M  V30 38419 H 3650.77 -4.28692 -4.84595 0
M  V30 38420 N 3650.91 1.14525 -1.08268 0
M  V30 38421 C 3652.13 1.89935 -0.833028 0
M  V30 38422 C 3652.56 1.7797 0.608954 0
M  V30 38423 O 3651.91 1.1189 1.42655 0
M  V30 38424 C 3651.96 3.37949 -1.25788 0
M  V30 38425 O 3651.07 4.10368 -0.408926 0
M  V30 38426 H 3650.41 0.590999 -0.302681 0
M  V30 38427 H 3652.94 1.44974 -1.44373 0
M  V30 38428 H 3652.95 3.88761 -1.23811 0
M  V30 38429 H 3651.62 3.45976 -2.3081 0
M  V30 38430 H 3650.2 3.6964 -0.491985 0
M  V30 38431 N 3652.39 0.868133 1.31534 0
M  V30 38432 C 3653.32 0.338261 2.31037 0
M  V30 38433 C 3654.3 -0.569863 1.6027 0
M  V30 38434 O 3655.48 -0.487272 1.87987 0
M  V30 38435 C 3652.61 -0.462693 3.44204 0
M  V30 38436 C 3651.57 0.352175 4.26549 0
M  V30 38437 C 3650.89 -0.57435 5.31606 0
M  V30 38438 C 3652.19 1.58525 4.97662 0
M  V30 38439 H 3653.89 1.16971 2.75605 0
M  V30 38440 H 3651.43 0.563914 1.32499 0
M  V30 38441 H 3653.38 -0.843894 4.12864 0
M  V30 38442 H 3652.11 -1.32764 2.98398 0
M  V30 38443 H 3650.77 0.7153 3.59554 0
M  V30 38444 H 3650.42 -1.43652 4.82051 0
M  V30 38445 H 3650.12 -0.0330403 5.87591 0
M  V30 38446 H 3651.64 -0.952435 6.03126 0
M  V30 38447 H 3653.05 1.27559 5.58929 0
M  V30 38448 H 3651.45 2.06549 5.63434 0
M  V30 38449 H 3652.52 2.33909 4.24752 0
M  V30 38450 N 3653.86 -1.44574 0.627389 0
M  V30 38451 C 3655.27 -1.85479 0.213181 0
M  V30 38452 C 3655.63 -1.5249 -1.23456 0
M  V30 38453 O 3654.75 -0.961149 -1.93884 0
M  V30 38454 C 3655.35 -3.36661 0.380122 0
M  V30 38455 C 3653.9 -3.76394 0.0204511 0
M  V30 38456 C 3653.05 -2.68442 0.695272 0
M  V30 38457 H 3656 -1.35093 0.832794 0
M  V30 38458 H 3656.02 -3.78578 -0.382011 0
M  V30 38459 H 3655.54 -3.6064 1.43389 0
M  V30 38460 H 3653.64 -3.58031 -1.03173 0
M  V30 38461 H 3653.75 -4.77185 0.427904 0
M  V30 38462 H 3652.11 -2.54363 0.130943 0
M  V30 38463 H 3652.9 -2.95254 1.75156 0
M  V30 38464 N 3655.34 -0.367711 -1.5325 0
M  V30 38465 C 3656.27 0.469636 -2.28728 0
M  V30 38466 C 3657.25 1.08211 -1.31242 0
M  V30 38467 O 3658.44 1.09896 -1.60114 0
M  V30 38468 C 3655.57 1.60841 -3.07811 0
M  V30 38469 C 3654.52 1.12308 -4.13002 0
M  V30 38470 C 3653.85 2.35226 -4.8018 0
M  V30 38471 C 3655.15 0.206309 -5.21892 0
M  V30 38472 H 3656.84 -0.160072 -2.98972 0
M  V30 38473 H 3654.39 -0.0784264 -1.43786 0
M  V30 38474 H 3656.34 2.20084 -3.59362 0
M  V30 38475 H 3655.06 2.26538 -2.35262 0
M  V30 38476 H 3653.72 0.553314 -3.624 0
M  V30 38477 H 3653.37 2.99384 -4.04201 0
M  V30 38478 H 3653.07 2.03423 -5.51265 0
M  V30 38479 H 3654.6 2.95151 -5.34526 0
M  V30 38480 H 3656.01 0.706286 -5.68933 0
M  V30 38481 H 3654.41 -0.0209417 -6.00096 0
M  V30 38482 H 3655.48 -0.750935 -4.7905 0
M  V30 38483 N 3656.82 1.57302 -0.0969353 0
M  V30 38484 C 3657.75 2.11156 0.891394 0
M  V30 38485 C 3658.76 1.04921 1.2448 0
M  V30 38486 O 3659.95 1.32362 1.1976 0
M  V30 38487 C 3657.05 2.57791 2.19994 0
M  V30 38488 C 3656.23 3.8788 2.02158 0
M  V30 38489 C 3655.29 4.20343 3.16541 0
M  V30 38490 O 3654.31 4.89533 2.90424 0
M  V30 38491 N 3655.51 3.75893 4.42363 0
M  V30 38492 H 3658.28 2.96579 0.431424 0
M  V30 38493 H 3655.84 1.6166 0.0881174 0
M  V30 38494 H 3657.83 2.76552 2.95468 0
M  V30 38495 H 3656.4 1.77369 2.57409 0
M  V30 38496 H 3655.62 3.78248 1.11004 0
M  V30 38497 H 3656.91 4.72984 1.87521 0
M  V30 38498 H 3656.31 3.20045 4.66463 0
M  V30 38499 H 3654.86 3.99806 5.1478 0
M  V30 38500 N 3658.3 -0.176766 1.56606 0
M  V30 38501 C 3659.55 -0.892546 1.80877 0
M  V30 38502 C 3659.86 -1.83647 0.673277 0
M  V30 38503 O 3661.07 -2.59422 0.800778 0
M  V30 38504 C 3659.52 -1.63763 3.20484 0
M  V30 38505 C 3659.13 -0.737608 4.41886 0
M  V30 38506 C 3660.87 -2.34195 3.54052 0
M  V30 38507 C 3658.78 -1.48261 5.72514 0
M  V30 38508 H 3657.71 -0.33703 0.674482 0
M  V30 38509 H 3660.36 -0.145542 1.82922 0
M  V30 38510 H 3658.74 -2.42919 3.1274 0
M  V30 38511 H 3659.92 0.0165996 4.60797 0
M  V30 38512 H 3658.23 -0.143204 4.16154 0
M  V30 38513 H 3660.83 -2.90518 4.48891 0
M  V30 38514 H 3661.17 -3.09271 2.78671 0
M  V30 38515 H 3661.71 -1.61988 3.63324 0
M  V30 38516 H 3658.44 -0.774285 6.50911 0
M  V30 38517 H 3657.96 -2.21028 5.5759 0
M  V30 38518 H 3659.64 -2.03155 6.14278 0
M  V30 38519 N 3659.78 -1.51183 -0.445132 0
M  V30 38520 C 3661.19 -1.5603 -1.02525 0
M  V30 38521 C 3661.54 -0.379121 -1.92502 0
M  V30 38522 O 3660.66 0.505019 -2.10425 0
M  V30 38523 C 3661.26 -2.82772 -1.86616 0
M  V30 38524 C 3659.82 -2.90215 -2.39692 0
M  V30 38525 C 3658.96 -2.5061 -1.187 0
M  V30 38526 H 3661.91 -1.57072 -0.226704 0
M  V30 38527 H 3661.94 -2.66094 -2.71982 0
M  V30 38528 H 3661.45 -3.68722 -1.21103 0
M  V30 38529 H 3659.55 -2.08677 -3.08682 0
M  V30 38530 H 3659.66 -3.93695 -2.73022 0
M  V30 38531 H 3658.03 -2.03632 -1.52991 0
M  V30 38532 H 3658.81 -3.38896 -0.548096 0
M  V30 38533 N 3661.25 0.700065 -1.41198 0
M  V30 38534 C 3662.48 1.48894 -1.4366 0
M  V30 38535 C 3662.9 1.88756 -0.0406103 0
M  V30 38536 O 3662.25 1.56486 0.939063 0
M  V30 38537 C 3662.3 2.75437 -2.3413 0
M  V30 38538 O 3662.03 2.37255 -3.68296 0
M  V30 38539 C 3663.53 3.69214 -2.45348 0
M  V30 38540 H 3660.75 0.45899 -0.489458 0
M  V30 38541 H 3663.29 0.862313 -1.8543 0
M  V30 38542 H 3661.45 3.34347 -1.9568 0
M  V30 38543 H 3661.86 3.1879 -4.16501 0
M  V30 38544 H 3663.33 4.54801 -3.12826 0
M  V30 38545 H 3663.81 4.13393 -1.48334 0
M  V30 38546 H 3664.42 3.16209 -2.84415 0
M  V30 38547 N 3662.73 1.26951 0.933869 0
M  V30 38548 C 3663.66 1.11652 2.05076 0
M  V30 38549 C 3664.64 0.0196762 1.70089 0
M  V30 38550 O 3665.83 0.193041 1.93238 0
M  V30 38551 C 3662.96 0.756446 3.38962 0
M  V30 38552 C 3661.91 1.80584 3.88038 0
M  V30 38553 C 3661.24 1.29989 5.18659 0
M  V30 38554 C 3662.54 3.20877 4.1211 0
M  V30 38555 H 3664.23 2.05081 2.18133 0
M  V30 38556 H 3661.78 0.987411 1.04815 0
M  V30 38557 H 3663.73 0.636263 4.16569 0
M  V30 38558 H 3662.45 -0.21355 3.25901 0
M  V30 38559 H 3661.11 1.91482 3.12618 0
M  V30 38560 H 3660.76 0.31953 5.01984 0
M  V30 38561 H 3660.46 2.00144 5.52464 0
M  V30 38562 H 3661.99 1.19253 5.98841 0
M  V30 38563 H 3663.4 3.13015 4.80307 0
M  V30 38564 H 3661.8 3.88687 4.57211 0
M  V30 38565 H 3662.87 3.6639 3.17626 0
M  V30 38566 N 3664.21 -1.13949 1.08873 0
M  V30 38567 C 3665.46 -1.84731 0.819697 0
M  V30 38568 C 3665.78 -1.83617 -0.656502 0
M  V30 38569 O 3665.05 -1.28793 -1.47611 0
M  V30 38570 H 3663.63 -0.684006 0.300242 0
M  V30 38571 H 3666.29 -1.38059 1.3757 0
M  V30 38572 H 3665.39 -2.89415 1.16814 0
M  V30 38573 N 3665.69 -0.875096 -1.31072 0
M  V30 38574 C 3666.63 -0.332758 -2.28389 0
M  V30 38575 C 3667.6 0.571612 -1.55955 0
M  V30 38576 O 3668.79 0.502153 -1.84074 0
M  V30 38577 C 3665.93 0.455304 -3.42083 0
M  V30 38578 C 3665.04 -0.477163 -4.29357 0
M  V30 38579 C 3664.18 0.325526 -5.30202 0
M  V30 38580 C 3663.22 -0.603042 -6.09122 0
M  V30 38581 N 3662.35 0.163713 -7.01909 0
M  V30 38582 H 3667.19 -1.16782 -2.74164 0
M  V30 38583 H 3664.73 -0.587272 -1.34869 0
M  V30 38584 H 3666.69 0.928033 -4.06747 0
M  V30 38585 H 3665.32 1.25502 -2.97404 0
M  V30 38586 H 3664.37 -1.06836 -3.65089 0
M  V30 38587 H 3665.68 -1.18896 -4.84423 0
M  V30 38588 H 3664.84 0.860542 -6.00566 0
M  V30 38589 H 3663.58 1.07059 -4.75804 0
M  V30 38590 H 3662.58 -1.14977 -5.37643 0
M  V30 38591 H 3663.81 -1.34704 -6.65606 0
M  V30 38592 H 3661.75 0.89149 -6.49914 0
M  V30 38593 H 3661.67 -0.488642 -7.54419 0
M  V30 38594 H 3662.94 0.679792 -7.7653 0
M  V30 38595 N 3667.17 1.44239 -0.635047 0
M  V30 38596 C 3668.44 1.95468 -0.0718407 0
M  V30 38597 C 3668.82 1.57691 1.40345 0
M  V30 38598 O 3668.17 0.852926 2.11985 0
M  V30 38599 C 3668.38 3.47718 -0.298854 0
M  V30 38600 C 3669.73 4.24156 -0.19413 0
M  V30 38601 O 3670.75 3.55454 -0.230431 0
M  V30 38602 O 3669.61 5.46404 -0.10239 0
M  V30 38603 H 3666.71 0.826757 0.0200638 0
M  V30 38604 H 3669.25 1.5427 -0.707024 0
M  V30 38605 H 3668.02 3.68278 -1.32239 0
M  V30 38606 H 3667.65 3.95872 0.370278 0
M  V30 38607 N 3668.64 0.375833 1.53053 0
M  V30 38608 C 3669.89 -0.210221 2.01004 0
M  V30 38609 C 3670.21 -1.4844 1.26454 0
M  V30 38610 O 3669.48 -1.92165 0.380721 0
M  V30 38611 H 3668.06 -0.080673 0.742631 0
M  V30 38612 H 3670.73 0.504426 1.88259 0
M  V30 38613 H 3669.82 -0.429972 3.09124 0
M  V30 38614 N 3670.12 -1.57248 0.105276 0
M  V30 38615 C 3671.09 -2.13427 -0.835551 0
M  V30 38616 C 3672.09 -1.0659 -1.20396 0
M  V30 38617 O 3673.28 -1.3243 -1.13173 0
M  V30 38618 C 3670.41 -2.66324 -2.12801 0
M  V30 38619 H 3671.6 -2.97879 -0.347553 0
M  V30 38620 H 3669.15 -1.55637 -0.143828 0
M  V30 38621 H 3669.89 -1.85421 -2.66063 0
M  V30 38622 H 3669.67 -3.44447 -1.87346 0
M  V30 38623 H 3671.16 -3.09746 -2.80084 0
M  V30 38624 N 3671.6 0.168458 -1.56697 0
M  V30 38625 C 3672.53 1.21069 -1.99661 0
M  V30 38626 C 3673.51 1.4601 -0.872651 0
M  V30 38627 O 3674.7 1.57295 -1.13894 0
M  V30 38628 C 3671.83 2.54895 -2.35894 0
M  V30 38629 C 3670.78 2.44518 -3.51276 0
M  V30 38630 C 3670.11 3.8286 -3.73259 0
M  V30 38631 C 3671.41 1.94747 -4.84635 0
M  V30 38632 H 3673.1 0.853542 -2.86976 0
M  V30 38633 H 3670.65 0.409141 -1.38065 0
M  V30 38634 H 3672.6 3.28013 -2.64548 0
M  V30 38635 H 3671.32 2.92404 -1.45491 0
M  V30 38636 H 3669.98 1.73854 -3.22754 0
M  V30 38637 H 3669.63 4.17767 -2.80143 0
M  V30 38638 H 3669.33 3.76784 -4.50896 0
M  V30 38639 H 3670.85 4.57559 -4.04317 0
M  V30 38640 H 3672.27 2.57641 -5.12146 0
M  V30 38641 H 3670.67 1.99613 -5.65928 0
M  V30 38642 H 3671.74 0.901937 -4.76438 0
M  V30 38643 N 3673.08 1.51417 0.437109 0
M  V30 38644 C 3674.32 1.6434 1.18828 0
M  V30 38645 C 3674.66 0.358672 1.90859 0
M  V30 38646 O 3673.93 -0.641736 1.83608 0
M  V30 38647 C 3674.22 2.84688 2.2051 0
M  V30 38648 C 3674.07 4.23138 1.5256 0
M  V30 38649 C 3675.39 3.00555 3.21488 0
M  V30 38650 H 3672.51 0.598094 0.430642 0
M  V30 38651 H 3675.15 1.83902 0.477497 0
M  V30 38652 H 3673.3 2.68141 2.81128 0
M  V30 38653 H 3674.97 4.51353 0.952772 0
M  V30 38654 H 3673.21 4.25826 0.82795 0
M  V30 38655 H 3673.88 5.03339 2.26614 0
M  V30 38656 H 3676.36 3.15815 2.70924 0
M  V30 38657 H 3675.24 3.86326 3.89928 0
M  V30 38658 H 3675.5 2.12636 3.87606 0
M  V30 38659 N 3674.56 -0.692567 1.41567 0
M  V30 38660 C 3675.49 -1.81792 1.39586 0
M  V30 38661 C 3676.5 -1.60057 0.297568 0
M  V30 38662 O 3677.69 -1.69505 0.559492 0
M  V30 38663 C 3674.79 -3.18607 1.15512 0
M  V30 38664 C 3673.96 -3.67344 2.37438 0
M  V30 38665 C 3673.02 -4.82837 2.09176 0
M  V30 38666 O 3672.05 -4.94298 2.82238 0
M  V30 38667 N 3673.25 -5.70292 1.08387 0
M  V30 38668 H 3676.02 -1.83983 2.3658 0
M  V30 38669 H 3673.58 -0.875002 1.36218 0
M  V30 38670 H 3675.57 -3.935 0.945521 0
M  V30 38671 H 3674.14 -3.11423 0.271042 0
M  V30 38672 H 3673.36 -2.83325 2.74081 0
M  V30 38673 H 3674.65 -3.96646 3.18668 0
M  V30 38674 H 3674.04 -5.63667 0.479221 0
M  V30 38675 H 3672.6 -6.45071 0.934156 0
M  V30 38676 N 3676.03 -1.27445 -0.927123 0
M  V30 38677 C 3677.45 -1.12523 -1.48982 0
M  V30 38678 C 3677.8 0.289568 -1.94051 0
M  V30 38679 O 3676.92 1.18254 -1.81232 0
M  V30 38680 C 3677.52 -2.03651 -2.70761 0
M  V30 38681 C 3676.08 -1.92833 -3.23253 0
M  V30 38682 C 3675.22 -1.96173 -1.95988 0
M  V30 38683 H 3678.17 -1.40329 -0.741172 0
M  V30 38684 H 3678.19 -1.59266 -3.45564 0
M  V30 38685 H 3677.71 -3.06614 -2.37928 0
M  V30 38686 H 3675.81 -0.92858 -3.60844 0
M  V30 38687 H 3675.92 -2.79103 -3.89408 0
M  V30 38688 H 3674.28 -1.40405 -2.12505 0
M  V30 38689 H 3675.07 -3.00791 -1.65467 0
M  V30 38690 N 3677.51 1.1337 -1.09476 0
M  V30 38691 C 3678.46 2.18797 -0.734618 0
M  V30 38692 C 3679.43 1.63647 0.284404 0
M  V30 38693 O 3680.61 1.90077 0.165925 0
M  V30 38694 C 3677.75 3.4472 -0.161887 0
M  V30 38695 C 3676.87 4.1397 -1.23501 0
M  V30 38696 C 3676 5.27511 -0.624979 0
M  V30 38697 C 3675.04 5.88611 -1.67938 0
M  V30 38698 N 3674.18 6.93582 -1.09033 0
M  V30 38699 H 3679.02 2.48951 -1.63791 0
M  V30 38700 H 3676.56 1.22237 -0.818318 0
M  V30 38701 H 3678.51 4.16776 0.18798 0
M  V30 38702 H 3677.14 3.15015 0.704674 0
M  V30 38703 H 3676.2 3.40193 -1.70215 0
M  V30 38704 H 3677.51 4.55464 -2.03358 0
M  V30 38705 H 3676.66 6.06286 -0.223987 0
M  V30 38706 H 3675.4 4.87268 0.205128 0
M  V30 38707 H 3674.41 5.0853 -2.08991 0
M  V30 38708 H 3675.63 6.30926 -2.51215 0
M  V30 38709 H 3673.58 6.55396 -0.281516 0
M  V30 38710 H 3673.49 7.3362 -1.82586 0
M  V30 38711 H 3674.76 7.76209 -0.715564 0
M  V30 38712 N 3678.99 0.882035 1.30606 0
M  V30 38713 C 3679.92 0.291262 2.26334 0
M  V30 38714 C 3680.9 -0.586495 1.51654 0
M  V30 38715 O 3682.09 -0.537243 1.80682 0
M  V30 38716 C 3679.21 -0.586423 3.33585 0
M  V30 38717 C 3678.26 0.22161 4.25924 0
M  V30 38718 S 3679.09 1.60799 5.10788 0
M  V30 38719 C 3680.25 0.736747 6.21549 0
M  V30 38720 H 3680.48 1.1027 2.76094 0
M  V30 38721 H 3678.01 0.68128 1.38557 0
M  V30 38722 H 3679.97 -1.08708 3.95844 0
M  V30 38723 H 3678.63 -1.37193 2.82554 0
M  V30 38724 H 3677.83 -0.44805 5.02004 0
M  V30 38725 H 3677.43 0.654787 3.68223 0
M  V30 38726 H 3679.72 -0.0475358 6.77483 0
M  V30 38727 H 3680.66 1.46906 6.92693 0
M  V30 38728 H 3681.07 0.298952 5.63708 0
M  V30 38729 N 3680.47 -1.439 0.642688 0
M  V30 38730 C 3681.69 -2.06801 0.157555 0
M  V30 38731 C 3682.12 -1.47791 -1.16359 0
M  V30 38732 O 3681.48 -0.583777 -1.71644 0
M  V30 38733 C 3681.52 -3.60535 0.0686538 0
M  V30 38734 O 3680.63 -4.00779 -0.972112 0
M  V30 38735 H 3679.97 -0.657865 0.0900521 0
M  V30 38736 H 3682.5 -1.84582 0.882637 0
M  V30 38737 H 3682.51 -4.07829 -0.118141 0
M  V30 38738 H 3681.18 -4.02863 1.03314 0
M  V30 38739 H 3679.76 -3.65095 -0.758956 0
M  V30 38740 N 3681.95 -0.383945 -1.52852 0
M  V30 38741 C 3682.91 0.441648 -2.24905 0
M  V30 38742 C 3683.91 0.994638 -1.26347 0
M  V30 38743 O 3685.1 0.877486 -1.50485 0
M  V30 38744 C 3682.23 1.61909 -2.99997 0
M  V30 38745 H 3683.43 -0.1891 -2.99303 0
M  V30 38746 H 3680.98 -0.135959 -1.55708 0
M  V30 38747 H 3681.71 2.28742 -2.29886 0
M  V30 38748 H 3681.5 1.22933 -3.7233 0
M  V30 38749 H 3682.99 2.20372 -3.54719 0
M  V30 38750 N 3683.43 1.5719 -0.113614 0
M  V30 38751 C 3684.65 1.99784 0.556893 0
M  V30 38752 C 3685.08 0.992697 1.59772 0
M  V30 38753 O 3684.43 -0.0363502 1.81264 0
M  V30 38754 C 3684.48 3.41277 1.16457 0
M  V30 38755 O 3683.59 3.4363 2.28018 0
M  V30 38756 H 3682.93 0.649156 0.139617 0
M  V30 38757 H 3685.46 2.03615 -0.200498 0
M  V30 38758 H 3685.47 3.7937 1.5014 0
M  V30 38759 H 3684.14 4.13951 0.402159 0
M  V30 38760 H 3682.72 3.1735 1.95814 0
M  V30 38761 N 3684.9 -0.160146 1.56784 0
M  V30 38762 C 3686.15 -0.87495 1.82622 0
M  V30 38763 C 3686.48 -1.81756 0.692459 0
M  V30 38764 O 3685.73 -1.93074 -0.319501 0
M  V30 38765 C 3686.03 -1.69396 3.14706 0
M  V30 38766 C 3685.7 -0.899296 4.41841 0
M  V30 38767 C 3684.36 -0.680015 4.76371 0
M  V30 38768 C 3686.71 -0.342656 5.20072 0
M  V30 38769 C 3684.04 0.106826 5.86603 0
M  V30 38770 C 3686.39 0.431155 6.31129 0
M  V30 38771 C 3685.06 0.661134 6.64218 0
M  V30 38772 H 3684.33 -0.320167 0.668262 0
M  V30 38773 H 3686.97 -0.139272 1.90993 0
M  V30 38774 H 3685.28 -2.49936 3.01727 0
M  V30 38775 H 3686.98 -2.25027 3.3191 0
M  V30 38776 H 3683.57 -1.08026 4.14763 0
M  V30 38777 H 3687.75 -0.49938 4.93781 0
M  V30 38778 H 3683.01 0.294635 6.1069 0
M  V30 38779 H 3687.18 0.869678 6.90948 0
M  V30 38780 H 3684.81 1.2727 7.49471 0
M  V30 38781 N 3686.38 -1.51647 -0.429072 0
M  V30 38782 C 3687.63 -1.64968 -1.17955 0
M  V30 38783 C 3687.96 -0.368788 -1.90666 0
M  V30 38784 O 3687.24 0.63199 -1.83946 0
M  V30 38785 C 3687.52 -2.85854 -2.18997 0
M  V30 38786 C 3687.37 -4.23941 -1.50314 0
M  V30 38787 C 3688.69 -3.02256 -3.1989 0
M  V30 38788 H 3685.81 -0.60037 -0.427464 0
M  V30 38789 H 3688.45 -1.84153 -0.467738 0
M  V30 38790 H 3686.6 -2.69628 -2.79702 0
M  V30 38791 H 3688.27 -4.51852 -0.928822 0
M  V30 38792 H 3686.52 -4.26259 -0.805356 0
M  V30 38793 H 3687.19 -5.04534 -2.23941 0
M  V30 38794 H 3689.66 -3.17247 -2.69246 0
M  V30 38795 H 3688.54 -3.88388 -3.87873 0
M  V30 38796 H 3688.8 -2.14688 -3.86473 0
M  V30 38797 N 3687.86 0.685049 -1.41932 0
M  V30 38798 C 3689.27 1.26533 -1.37282 0
M  V30 38799 C 3689.62 1.96105 -0.0610434 0
M  V30 38800 O 3688.75 1.99412 0.840473 0
M  V30 38801 C 3689.34 2.30115 -2.48662 0
M  V30 38802 C 3687.9 2.83694 -2.47376 0
M  V30 38803 C 3687.05 1.57872 -2.27973 0
M  V30 38804 H 3690 0.479105 -1.51295 0
M  V30 38805 H 3690.02 3.11632 -2.18325 0
M  V30 38806 H 3689.53 1.7945 -3.44121 0
M  V30 38807 H 3687.63 3.38507 -1.55705 0
M  V30 38808 H 3687.75 3.33408 -3.44058 0
M  V30 38809 H 3686.11 1.84068 -1.76043 0
M  V30 38810 H 3686.89 1.09189 -3.25473 0
M  V30 38811 N 3689.34 1.27935 0.920351 0
M  V30 38812 C 3690.61 1.05416 1.64763 0
M  V30 38813 C 3690.99 -0.40868 2.07106 0
M  V30 38814 O 3690.34 -1.39342 1.81096 0
M  V30 38815 C 3690.55 2.02262 2.84413 0
M  V30 38816 C 3691.9 2.32042 3.55586 0
M  V30 38817 O 3692.92 2.00294 2.94552 0
M  V30 38818 O 3691.78 2.86195 4.65569 0
M  V30 38819 H 3688.88 0.402404 0.722496 0
M  V30 38820 H 3691.42 1.39228 0.970239 0
M  V30 38821 H 3690.2 3.00884 2.50168 0
M  V30 38822 H 3689.82 1.69056 3.59869 0
M  V30 38823 N 3690.82 -1.12788 1.10076 0
M  V30 38824 C 3691.77 -2.16481 0.715546 0
M  V30 38825 C 3692.75 -1.5856 -0.273435 0
M  V30 38826 O 3693.94 -1.76806 -0.0827518 0
M  V30 38827 C 3691.07 -3.42994 0.144934 0
M  V30 38828 C 3690.16 -4.07907 1.16073 0
M  V30 38829 N 3690.55 -4.47885 2.35016 0
M  V30 38830 C 3688.85 -4.34635 1.0004 0
M  V30 38831 C 3689.55 -4.98561 2.99687 0
M  V30 38832 N 3688.52 -4.93835 2.27219 0
M  V30 38833 H 3692.32 -2.45153 1.62103 0
M  V30 38834 H 3689.84 -1.29654 0.977942 0
M  V30 38835 H 3691.84 -4.16633 -0.149091 0
M  V30 38836 H 3690.5 -3.15793 -0.755313 0
M  V30 38837 H 3691.51 -4.40373 2.72565 0
M  V30 38838 H 3688.18 -4.17211 0.155402 0
M  V30 38839 H 3689.57 -5.39237 4.00841 0
M  V30 38840 N 3692.29 -0.888949 -1.30136 0
M  V30 38841 C 3693.24 -0.356963 -2.28023 0
M  V30 38842 C 3694.21 0.555039 -1.56552 0
M  V30 38843 O 3695.4 0.482601 -1.84596 0
M  V30 38844 C 3692.54 0.418996 -3.42547 0
M  V30 38845 C 3691.65 -0.522676 -4.28826 0
M  V30 38846 C 3690.78 0.269273 -5.30517 0
M  V30 38847 C 3689.82 -0.667614 -6.08448 0
M  V30 38848 N 3688.96 0.0892566 -7.02043 0
M  V30 38849 H 3693.8 -1.19683 -2.7291 0
M  V30 38850 H 3691.34 -0.601544 -1.34238 0
M  V30 38851 H 3693.29 0.88484 -4.07709 0
M  V30 38852 H 3691.92 1.22341 -2.98718 0
M  V30 38853 H 3690.98 -1.10702 -3.63936 0
M  V30 38854 H 3692.29 -1.24027 -4.83134 0
M  V30 38855 H 3691.44 0.796795 -6.01445 0
M  V30 38856 H 3690.18 1.02006 -4.76913 0
M  V30 38857 H 3689.19 -1.20673 -5.36394 0
M  V30 38858 H 3690.41 -1.41756 -6.6414 0
M  V30 38859 H 3688.36 0.822508 -6.50823 0
M  V30 38860 H 3688.27 -0.568631 -7.53858 0
M  V30 38861 H 3689.54 0.597393 -7.77207 0
M  V30 38862 N 3693.77 1.43557 -0.65031 0
M  V30 38863 C 3694.73 2.29175 0.0335922 0
M  V30 38864 C 3695.73 1.42056 0.75344 0
M  V30 38865 O 3696.92 1.63719 0.595129 0
M  V30 38866 C 3694.06 3.24057 1.05829 0
M  V30 38867 H 3695.25 2.91136 -0.719694 0
M  V30 38868 H 3692.8 1.50789 -0.41139 0
M  V30 38869 H 3693.54 2.66985 1.84091 0
M  V30 38870 H 3693.32 3.88282 0.545816 0
M  V30 38871 H 3694.81 3.88326 1.53599 0
M  V30 38872 N 3695.25 0.392045 1.52646 0
M  V30 38873 C 3696.47 -0.191779 2.06511 0
M  V30 38874 C 3696.9 -1.39514 1.26165 0
M  V30 38875 O 3696.26 -1.79007 0.287404 0
M  V30 38876 C 3696.31 -0.537449 3.56572 0
M  V30 38877 O 3695.41 -1.631 3.78777 0
M  V30 38878 H 3694.75 -0.0216429 0.663647 0
M  V30 38879 H 3697.28 0.560308 1.96778 0
M  V30 38880 H 3697.29 -0.800974 4.00061 0
M  V30 38881 H 3695.97 0.342312 4.14489 0
M  V30 38882 H 3694.54 -1.36097 3.47177 0
M  V30 38883 N 3696.73 -1.57127 0.121948 0
M  V30 38884 C 3697.66 -2.1119 -0.864516 0
M  V30 38885 C 3698.64 -1.02904 -1.25895 0
M  V30 38886 O 3699.82 -1.30578 -1.35948 0
M  V30 38887 C 3696.95 -2.61104 -2.15737 0
M  V30 38888 C 3696 -3.81302 -1.91079 0
M  V30 38889 S 3696.83 -5.23563 -1.12439 0
M  V30 38890 C 3697.99 -5.76846 -2.42897 0
M  V30 38891 H 3698.22 -2.94533 -0.404686 0
M  V30 38892 H 3695.75 -1.54126 -0.0918819 0
M  V30 38893 H 3697.71 -2.90515 -2.90019 0
M  V30 38894 H 3696.37 -1.77938 -2.58838 0
M  V30 38895 H 3695.56 -4.14385 -2.86882 0
M  V30 38896 H 3695.17 -3.52522 -1.24916 0
M  V30 38897 H 3697.46 -5.86751 -3.38718 0
M  V30 38898 H 3698.4 -6.74876 -2.14355 0
M  V30 38899 H 3698.81 -5.0493 -2.524 0
M  V30 38900 N 3698.21 0.151829 -1.56867 0
M  V30 38901 C 3699.45 0.866534 -1.83355 0
M  V30 38902 C 3699.79 1.81036 -0.702816 0
M  V30 38903 O 3699.06 1.92267 0.29391 0
M  V30 38904 C 3699.34 1.64524 -3.20319 0
M  V30 38905 C 3699.2 0.723219 -4.43948 0
M  V30 38906 C 3700.52 2.60876 -3.54446 0
M  V30 38907 H 3697.63 0.313576 -0.666963 0
M  V30 38908 H 3700.28 0.131921 -1.89541 0
M  V30 38909 H 3698.43 2.27149 -3.15176 0
M  V30 38910 H 3700.1 0.108339 -4.61173 0
M  V30 38911 H 3698.34 0.0324819 -4.33788 0
M  V30 38912 H 3699.01 1.30401 -5.36376 0
M  V30 38913 H 3701.49 2.0837 -3.60168 0
M  V30 38914 H 3700.36 3.12414 -4.51319 0
M  V30 38915 H 3700.63 3.42004 -2.80152 0
M  V30 38916 N 3699.68 1.51872 0.421024 0
M  V30 38917 C 3700.61 1.77316 1.51925 0
M  V30 38918 C 3701.6 0.623607 1.58257 0
M  V30 38919 O 3702.78 0.867998 1.73722 0
M  V30 38920 C 3699.91 1.91305 2.89861 0
M  V30 38921 C 3698.86 3.06839 2.98385 0
M  V30 38922 C 3698.19 3.06034 4.3846 0
M  V30 38923 C 3699.49 4.46516 2.70962 0
M  V30 38924 H 3701.18 2.69276 1.30884 0
M  V30 38925 H 3698.73 1.29575 0.628206 0
M  V30 38926 H 3700.68 2.07688 3.66666 0
M  V30 38927 H 3699.41 0.960066 3.1217 0
M  V30 38928 H 3698.07 2.90188 2.24024 0
M  V30 38929 H 3697.71 2.0848 4.57761 0
M  V30 38930 H 3697.41 3.83625 4.4509 0
M  V30 38931 H 3698.94 3.24531 5.17216 0
M  V30 38932 H 3700.35 4.63434 3.37493 0
M  V30 38933 H 3698.75 5.25936 2.88983 0
M  V30 38934 H 3699.82 4.5543 1.66468 0
M  V30 38935 N 3701.16 -0.677513 1.42294 0
M  V30 38936 C 3702.41 -1.43757 1.42619 0
M  V30 38937 C 3702.74 -1.94455 0.0416609 0
M  V30 38938 O 3701.99 -1.71122 -0.949514 0
M  V30 38939 C 3702.29 -2.65269 2.39514 0
M  V30 38940 C 3701.96 -2.33128 3.85956 0
M  V30 38941 C 3700.62 -2.24073 4.25846 0
M  V30 38942 C 3702.97 -2.06978 4.7834 0
M  V30 38943 C 3700.3 -1.86991 5.56104 0
M  V30 38944 C 3702.65 -1.714 6.08937 0
M  V30 38945 C 3701.32 -1.60854 6.47829 0
M  V30 38946 H 3700.59 -0.526046 0.521878 0
M  V30 38947 H 3703.23 -0.772766 1.75216 0
M  V30 38948 H 3701.54 -3.36769 2.00235 0
M  V30 38949 H 3703.23 -3.23446 2.37031 0
M  V30 38950 H 3699.82 -2.41076 3.54373 0
M  V30 38951 H 3704.01 -2.12908 4.48312 0
M  V30 38952 H 3699.26 -1.77393 5.851 0
M  V30 38953 H 3703.44 -1.50191 6.80012 0
M  V30 38954 H 3701.07 -1.31889 7.48672 0
M  V30 38955 N 3702.64 -1.28421 -0.913554 0
M  V30 38956 C 3703.57 -1.14901 -2.03273 0
M  V30 38957 C 3704.55 -0.0467333 -1.70036 0
M  V30 38958 O 3705.74 -0.223759 -1.92907 0
M  V30 38959 C 3702.87 -0.810276 -3.37716 0
M  V30 38960 C 3701.82 -1.86734 -3.85116 0
M  V30 38961 C 3701.15 -1.38224 -5.16525 0
M  V30 38962 C 3702.45 -3.27393 -4.06953 0
M  V30 38963 H 3704.14 -2.08525 -2.14843 0
M  V30 38964 H 3701.69 -1.00396 -1.03231 0
M  V30 38965 H 3703.64 -0.702455 -4.15504 0
M  V30 38966 H 3702.36 0.161674 -3.262 0
M  V30 38967 H 3701.02 -1.96431 -3.09532 0
M  V30 38968 H 3700.67 -0.399351 -5.01412 0
M  V30 38969 H 3700.37 -2.08907 -5.4921 0
M  V30 38970 H 3701.89 -1.28765 -5.96868 0
M  V30 38971 H 3703.31 -3.20616 -4.75266 0
M  V30 38972 H 3701.71 -3.95912 -4.5097 0
M  V30 38973 H 3702.78 -3.71397 -3.11757 0
M  V30 38974 N 3704.12 1.12202 -1.10672 0
M  V30 38975 C 3705.4 1.80119 -0.762664 0
M  V30 38976 C 3705.78 1.97309 0.750495 0
M  V30 38977 O 3705.12 1.5514 1.67761 0
M  V30 38978 C 3705.33 3.14327 -1.51656 0
M  V30 38979 C 3706.68 3.89488 -1.69068 0
M  V30 38980 O 3707.71 3.23991 -1.48015 0
M  V30 38981 O 3706.56 5.07 -2.03993 0
M  V30 38982 H 3703.66 0.779787 -0.27543 0
M  V30 38983 H 3706.2 1.19016 -1.20968 0
M  V30 38984 H 3704.98 2.97121 -2.54627 0
M  V30 38985 H 3704.6 3.83139 -1.06257 0
M  V30 38986 N 3705.6 0.895838 1.29663 0
M  V30 38987 C 3707.01 0.591382 1.48239 0
M  V30 38988 C 3707.21 -0.868118 1.8184 0
M  V30 38989 O 3706.27 -1.64858 1.91254 0
M  V30 38990 C 3707.58 1.51388 2.59812 0
M  V30 38991 C 3709.13 1.51867 2.73688 0
M  V30 38992 C 3709.6 2.42736 3.88385 0
M  V30 38993 N 3711.1 2.40761 3.95713 0
M  V30 38994 C 3711.83 3.07777 4.83798 0
M  V30 38995 N 3711.33 3.84058 5.76603 0
M  V30 38996 N 3713.12 2.96954 4.77257 0
M  V30 38997 H 3705.27 1.83985 1.06128 0
M  V30 38998 H 3707.53 0.78815 0.526805 0
M  V30 38999 H 3707.24 2.55359 2.41836 0
M  V30 39000 H 3707.11 1.23153 3.56529 0
M  V30 39001 H 3709.5 0.486426 2.91063 0
M  V30 39002 H 3709.58 1.84138 1.77558 0
M  V30 39003 H 3709.23 3.46052 3.71767 0
M  V30 39004 H 3709.16 2.07776 4.83877 0
M  V30 39005 H 3711.65 1.85336 3.29331 0
M  V30 39006 H 3711.96 4.32258 6.40603 0
M  V30 39007 H 3710.3 3.88165 5.765 0
M  V30 39008 H 3713.5 2.36878 4.0374 0
M  V30 39009 H 3713.67 3.49458 5.45695 0
M  V30 39010 N 3707.07 -1.43211 0.657914 0
M  V30 39011 C 3708.32 -2.02057 0.173479 0
M  V30 39012 C 3708.65 -1.51813 -1.21105 0
M  V30 39013 O 3707.93 -0.713201 -1.80952 0
M  V30 39014 C 3708.21 -3.59601 0.189492 0
M  V30 39015 C 3708.06 -4.20065 1.60827 0
M  V30 39016 C 3709.38 -4.37566 -0.471556 0
M  V30 39017 H 3706.5 -0.734171 0.0645128 0
M  V30 39018 H 3709.14 -1.70448 0.839492 0
M  V30 39019 H 3707.29 -3.8666 -0.377621 0
M  V30 39020 H 3708.97 -4.0402 2.22634 0
M  V30 39021 H 3707.21 -3.76536 2.15413 0
M  V30 39022 H 3707.88 -5.29164 1.5713 0
M  V30 39023 H 3710.36 -4.16099 0.0110119 0
M  V30 39024 H 3709.23 -5.47216 -0.429643 0
M  V30 39025 H 3709.49 -4.14171 -1.54645 0
M  V30 39026 N 3708.55 -0.400135 -1.52436 0
M  V30 39027 C 3709.78 0.178069 -2.05831 0
M  V30 39028 C 3710.19 1.40164 -1.27085 0
M  V30 39029 O 3709.53 1.81005 -0.313502 0
M  V30 39030 C 3709.6 0.602176 -3.54421 0
M  V30 39031 C 3709.26 -0.509421 -4.54152 0
M  V30 39032 C 3710.26 -1.37021 -5.01519 0
M  V30 39033 C 3707.94 -0.679545 -4.97682 0
M  V30 39034 C 3709.94 -2.38615 -5.91051 0
M  V30 39035 C 3707.62 -1.69881 -5.87013 0
M  V30 39036 C 3708.62 -2.55052 -6.33591 0
M  V30 39037 O 3708.31 -3.55234 -7.21155 0
M  V30 39038 H 3708.04 0.027909 -0.675424 0
M  V30 39039 H 3710.59 -0.567048 -1.97418 0
M  V30 39040 H 3708.82 1.39944 -3.60489 0
M  V30 39041 H 3710.51 1.10728 -3.90505 0
M  V30 39042 H 3711.28 -1.25013 -4.68611 0
M  V30 39043 H 3707.16 -0.0262897 -4.60993 0
M  V30 39044 H 3710.7 -3.05129 -6.27329 0
M  V30 39045 H 3706.6 -1.81922 -6.19334 0
M  V30 39046 H 3707.37 -3.51371 -7.39243 0
M  V30 39047 N 3710.03 1.57061 -0.13028 0
M  V30 39048 C 3711.28 1.9519 0.523935 0
M  V30 39049 C 3711.6 1.01517 1.66491 0
M  V30 39050 O 3710.87 0.0735538 1.95762 0
M  V30 39051 H 3709.45 0.720681 0.196541 0
M  V30 39052 H 3712.11 1.93852 -0.201864 0
M  V30 39053 H 3711.21 2.98505 0.911104 0
M  V30 39054 N 3711.51 -0.143508 1.56945 0
M  V30 39055 C 3712.76 -0.853979 1.8273 0
M  V30 39056 C 3713.07 -1.82178 0.71208 0
M  V30 39057 O 3714.28 -2.57665 0.855625 0
M  V30 39058 C 3712.73 -1.56928 3.23885 0
M  V30 39059 C 3712.34 -0.643711 4.43351 0
M  V30 39060 C 3714.09 -2.26633 3.5894 0
M  V30 39061 C 3711.99 -1.36084 5.7553 0
M  V30 39062 H 3710.92 -0.322648 0.68148 0
M  V30 39063 H 3713.57 -0.106708 1.83189 0
M  V30 39064 H 3711.96 -2.3623 3.17823 0
M  V30 39065 H 3713.13 0.114338 4.60658 0
M  V30 39066 H 3711.44 -0.054899 4.16364 0
M  V30 39067 H 3714.04 -2.80931 4.54953 0
M  V30 39068 H 3714.38 -3.0329 2.85168 0
M  V30 39069 H 3714.92 -1.54245 3.66679 0
M  V30 39070 H 3711.66 -0.636043 6.52407 0
M  V30 39071 H 3711.18 -2.09151 5.62153 0
M  V30 39072 H 3712.86 -1.90079 6.18449 0
M  V30 39073 N 3712.99 -1.52093 -0.412964 0
M  V30 39074 C 3713.9 -1.78045 -1.52765 0
M  V30 39075 C 3714.91 -0.665819 -1.60757 0
M  V30 39076 O 3716.09 -0.950803 -1.77543 0
M  V30 39077 C 3713.15 -1.92218 -2.88536 0
M  V30 39078 C 3712.22 -3.16117 -2.90462 0
M  V30 39079 C 3711.45 -3.29605 -4.19757 0
M  V30 39080 O 3711.67 -2.48447 -5.13449 0
M  V30 39081 O 3710.61 -4.22734 -4.28462 0
M  V30 39082 H 3714.43 -2.72651 -1.33772 0
M  V30 39083 H 3712.02 -1.36891 -0.598437 0
M  V30 39084 H 3713.9 -2.03385 -3.6907 0
M  V30 39085 H 3712.57 -1.00801 -3.07605 0
M  V30 39086 H 3711.48 -3.10411 -2.08796 0
M  V30 39087 H 3712.81 -4.07303 -2.76342 0
M  V30 39088 N 3714.47 0.669957 -1.42651 0
M  V30 39089 C 3715.41 1.80464 -1.46749 0
M  V30 39090 C 3716.41 1.65897 -0.342727 0
M  V30 39091 O 3717.61 1.72447 -0.515963 0
M  V30 39092 H 3713.99 0.595122 -0.459711 0
M  V30 39093 H 3715.96 1.74126 -2.42328 0
M  V30 39094 C 3714.71 3.18643 -1.39146 0
M  V30 39095 H 3714.03 3.30482 -2.24993 0
M  V30 39096 H 3715.47 3.98043 -1.46075 0
M  V30 39097 C 3713.93 3.3673 -0.106862 0
M  V30 39098 O 3714.46 3.92852 0.838466 0
M  V30 39099 N 3712.67 2.90591 -0.0224469 0
M  V30 39100 H 3712.21 2.45106 -0.792512 0
M  V30 39101 H 3712.17 3.0307 0.836408 0
M  V30 39102 N 3715.94 1.28904 0.90673 0
M  V30 39103 C 3716.88 1.09236 2.01495 0
M  V30 39104 C 3717.89 0.0419664 1.62746 0
M  V30 39105 O 3719.08 0.285759 1.76198 0
M  V30 39106 C 3716.18 0.639313 3.32815 0
M  V30 39107 C 3715.35 1.76668 4.00134 0
M  V30 39108 C 3714.41 1.30582 5.0974 0
M  V30 39109 O 3713.44 2.0093 5.32556 0
M  V30 39110 N 3714.64 0.172852 5.80243 0
M  V30 39111 H 3717.4 2.04677 2.18923 0
M  V30 39112 H 3714.96 1.2075 1.07847 0
M  V30 39113 H 3716.96 0.314461 4.03476 0
M  V30 39114 H 3715.53 -0.222443 3.11808 0
M  V30 39115 H 3714.75 2.26077 3.22929 0
M  V30 39116 H 3716.03 2.52274 4.41854 0
M  V30 39117 H 3715.43 -0.413831 5.64184 0
M  V30 39118 H 3713.99 -0.092678 6.51734 0
M  V30 39119 N 3717.42 -1.11614 1.11266 0
M  V30 39120 C 3718.7 -1.79712 0.772205 0
M  V30 39121 C 3719.08 -1.97704 -0.74002 0
M  V30 39122 O 3718.43 -1.56027 -1.66936 0
M  V30 39123 C 3718.64 -3.13518 1.53321 0
M  V30 39124 C 3719.98 -3.88586 1.71131 0
M  V30 39125 O 3721.01 -3.23201 1.49731 0
M  V30 39126 O 3719.87 -5.05911 2.06679 0
M  V30 39127 H 3716.96 -0.778315 0.279562 0
M  V30 39128 H 3719.51 -1.18373 1.21598 0
M  V30 39129 H 3718.28 -2.95766 2.56199 0
M  V30 39130 H 3717.9 -3.8257 1.08287 0
M  V30 39131 N 3718.9 -0.902701 -1.29186 0
M  V30 39132 C 3720.15 -0.530158 -1.95437 0
M  V30 39133 C 3720.47 0.924119 -1.71144 0
M  V30 39134 O 3719.73 1.67075 -1.01904 0
M  V30 39135 C 3720.03 -0.772603 -3.48949 0
M  V30 39136 C 3719.69 -2.20471 -3.93324 0
M  V30 39137 C 3718.36 -2.59628 -4.0515 0
M  V30 39138 C 3720.71 -3.13717 -4.16211 0
M  V30 39139 C 3718.04 -3.91206 -4.37236 0
M  V30 39140 C 3720.39 -4.44847 -4.49771 0
M  V30 39141 C 3719.05 -4.83873 -4.59808 0
M  V30 39142 H 3718.32 -0.193999 -0.715154 0
M  V30 39143 H 3720.97 -1.14193 -1.53728 0
M  V30 39144 H 3719.27 -0.0779372 -3.91722 0
M  V30 39145 H 3720.97 -0.463693 -3.9831 0
M  V30 39146 H 3717.56 -1.89082 -3.84637 0
M  V30 39147 H 3721.75 -2.84677 -4.06537 0
M  V30 39148 H 3717 -4.21159 -4.4321 0
M  V30 39149 H 3721.18 -5.17123 -4.6643 0
M  V30 39150 H 3718.8 -5.85864 -4.84425 0
M  V30 39151 N 3720.38 1.4286 -0.6655 0
M  V30 39152 C 3721.31 2.335 0.0047874 0
M  V30 39153 C 3722.29 1.50161 0.799109 0
M  V30 39154 O 3723.47 1.78791 0.758129 0
M  V30 39155 C 3720.6 3.33674 0.963288 0
M  V30 39156 C 3719.56 4.27095 0.278219 0
M  V30 39157 C 3718.88 5.17403 1.34902 0
M  V30 39158 C 3720.18 5.1555 -0.837016 0
M  V30 39159 H 3721.88 2.89798 -0.752179 0
M  V30 39160 H 3719.42 1.39345 -0.363163 0
M  V30 39161 H 3721.38 3.95989 1.44121 0
M  V30 39162 H 3720.1 2.75659 1.75156 0
M  V30 39163 H 3718.76 3.66161 -0.179378 0
M  V30 39164 H 3718.41 4.5572 2.12904 0
M  V30 39165 H 3718.11 5.80731 0.895817 0
M  V30 39166 H 3719.63 5.82593 1.82806 0
M  V30 39167 H 3721.05 5.71604 -0.440718 0
M  V30 39168 H 3719.44 5.87662 -1.21544 0
M  V30 39169 H 3720.51 4.54505 -1.68978 0
M  V30 39170 N 3721.86 0.408213 1.52221 0
M  V30 39171 C 3722.79 -0.408828 2.29893 0
M  V30 39172 C 3723.77 -1.04693 1.34065 0
M  V30 39173 O 3724.95 -1.05612 1.62972 0
M  V30 39174 C 3722.08 -1.52623 3.11967 0
M  V30 39175 C 3721.04 -1.01318 4.15835 0
M  V30 39176 C 3720.36 -2.22412 4.86248 0
M  V30 39177 C 3721.66 -0.0678655 5.22256 0
M  V30 39178 H 3723.36 0.239283 2.98442 0
M  V30 39179 H 3720.9 0.116521 1.43528 0
M  V30 39180 H 3722.85 -2.10479 3.6507 0
M  V30 39181 H 3721.58 -2.20221 2.41185 0
M  V30 39182 H 3720.24 -0.457036 3.6374 0
M  V30 39183 H 3719.89 -2.88562 4.11996 0
M  V30 39184 H 3719.59 -1.88736 5.56464 0
M  V30 39185 H 3721.11 -2.80875 5.42164 0
M  V30 39186 H 3722.52 -0.555195 5.70605 0
M  V30 39187 H 3720.92 0.180039 5.9983 0
M  V30 39188 H 3721.99 0.877683 4.76891 0
M  V30 39189 N 3723.33 -1.56989 0.138607 0
M  V30 39190 C 3724.28 -2.12904 -0.815841 0
M  V30 39191 C 3725.27 -1.05472 -1.21509 0
M  V30 39192 O 3726.46 -1.31667 -1.18291 0
M  V30 39193 C 3723.59 -2.74756 -2.05825 0
M  V30 39194 C 3722.67 -3.89299 -1.68248 0
M  V30 39195 N 3723.07 -4.95522 -1.01447 0
M  V30 39196 C 3721.36 -3.9985 -1.97576 0
M  V30 39197 C 3722.06 -5.75685 -0.834397 0
M  V30 39198 N 3721.04 -5.26167 -1.36562 0
M  V30 39199 H 3724.84 -2.92404 -0.296152 0
M  V30 39200 H 3722.36 -1.62277 -0.0632187 0
M  V30 39201 H 3724.35 -3.1317 -2.75191 0
M  V30 39202 H 3723.01 -1.96726 -2.5832 0
M  V30 39203 H 3724.02 -5.13467 -0.67619 0
M  V30 39204 H 3720.7 -3.32885 -2.51979 0
M  V30 39205 H 3722.09 -6.71191 -0.308546 0
M  V30 39206 N 3724.81 0.135183 -1.57019 0
M  V30 39207 C 3726.06 0.847038 -1.84264 0
M  V30 39208 C 3726.39 1.80281 -0.721977 0
M  V30 39209 O 3725.67 1.92567 0.273501 0
M  V30 39210 C 3725.95 1.61117 -3.22046 0
M  V30 39211 C 3725.8 0.676092 -4.4469 0
M  V30 39212 C 3727.12 2.57102 -3.57193 0
M  V30 39213 H 3724.24 0.306484 -0.670251 0
M  V30 39214 H 3726.88 0.11181 -1.89671 0
M  V30 39215 H 3725.03 2.23793 -3.17567 0
M  V30 39216 H 3726.7 0.0594198 -4.61262 0
M  V30 39217 H 3724.95 -0.0135289 -4.33798 0
M  V30 39218 H 3725.62 1.24705 -5.37729 0
M  V30 39219 H 3728.09 2.04539 -3.62358 0
M  V30 39220 H 3726.97 3.07609 -4.54607 0
M  V30 39221 H 3727.23 3.39014 -2.83764 0
M  V30 39222 N 3726.29 1.5231 0.404892 0
M  V30 39223 C 3727.22 1.78917 1.50036 0
M  V30 39224 C 3728.2 0.640357 1.57586 0
M  V30 39225 O 3729.39 0.886374 1.72792 0
M  V30 39226 C 3726.52 1.94369 2.87816 0
M  V30 39227 C 3725.47 3.09986 2.95114 0
M  V30 39228 C 3724.8 3.10667 4.3519 0
M  V30 39229 C 3726.1 4.49365 2.66211 0
M  V30 39230 H 3727.79 2.70649 1.2802 0
M  V30 39231 H 3725.34 1.30234 0.614427 0
M  V30 39232 H 3727.29 2.11565 3.64442 0
M  V30 39233 H 3726.01 0.993122 3.11134 0
M  V30 39234 H 3724.67 2.92547 2.20934 0
M  V30 39235 H 3724.32 2.13324 4.55524 0
M  V30 39236 H 3724.02 3.88325 4.40996 0
M  V30 39237 H 3725.54 3.29999 5.13744 0
M  V30 39238 H 3726.96 4.66988 3.32559 0
M  V30 39239 H 3725.36 5.28972 2.83388 0
M  V30 39240 H 3726.43 4.5717 1.61628 0
M  V30 39241 N 3727.77 -0.662382 1.43004 0
M  V30 39242 C 3729.05 -1.41909 1.34615 0
M  V30 39243 C 3729.43 -2.11097 -0.0104965 0
M  V30 39244 O 3728.77 -2.04139 -1.02663 0
M  V30 39245 C 3728.98 -2.41133 2.52301 0
M  V30 39246 C 3730.33 -3.05407 2.94977 0
M  V30 39247 O 3731.36 -2.51461 2.52282 0
M  V30 39248 O 3730.21 -4.03194 3.68913 0
M  V30 39249 H 3727.31 -0.633574 0.531519 0
M  V30 39250 H 3729.85 -0.690061 1.55036 0
M  V30 39251 H 3728.63 -1.88892 3.42689 0
M  V30 39252 H 3728.25 -3.21499 2.33931 0
M  V30 39253 N 3729.25 -1.29383 -0.899882 0
M  V30 39254 C 3730.49 -1.17517 -1.6528 0
M  V30 39255 C 3730.83 0.272754 -1.92275 0
M  V30 39256 O 3730.1 1.19699 -1.53305 0
M  V30 39257 C 3730.38 -1.98872 -3.00203 0
M  V30 39258 C 3730.24 -3.51804 -2.80275 0
M  V30 39259 C 3731.56 -1.81496 -4.00933 0
M  V30 39260 H 3728.67 -0.428273 -0.599792 0
M  V30 39261 H 3731.32 -1.58854 -1.04238 0
M  V30 39262 H 3729.47 -1.63748 -3.52305 0
M  V30 39263 H 3731.14 -3.9691 -2.35075 0
M  V30 39264 H 3729.38 -3.76737 -2.15062 0
M  V30 39265 H 3730.05 -4.04 -3.76148 0
M  V30 39266 H 3732.53 -2.12175 -3.5794 0
M  V30 39267 H 3731.4 -2.40769 -4.93276 0
M  V30 39268 H 3731.67 -0.770098 -4.35341 0
M  V30 39269 N 3730.72 1.11022 -1.11856 0
M  V30 39270 C 3731.97 1.82492 -0.868387 0
M  V30 39271 C 3732.29 1.85293 0.607589 0
M  V30 39272 O 3731.56 1.32661 1.44145 0
M  V30 39273 H 3730.14 0.675805 -0.318272 0
M  V30 39274 H 3732.81 1.34363 -1.41182 0
M  V30 39275 H 3731.9 2.86216 -1.24446 0
M  V30 39276 N 3732.2 0.90954 1.28706 0
M  V30 39277 C 3733.45 0.540515 1.95153 0
M  V30 39278 C 3733.78 -0.91503 1.71632 0
M  V30 39279 O 3733.03 -1.66532 1.02789 0
M  V30 39280 C 3733.33 0.791098 3.48535 0
M  V30 39281 C 3733 2.22553 3.92149 0
M  V30 39282 C 3731.66 2.61773 4.03768 0
M  V30 39283 C 3734.01 3.15919 4.14541 0
M  V30 39284 C 3731.34 3.93519 4.35155 0
M  V30 39285 C 3733.69 4.47226 4.47406 0
M  V30 39286 C 3732.36 4.86304 4.57236 0
M  V30 39287 H 3731.63 0.197788 0.714115 0
M  V30 39288 H 3734.27 1.15007 1.5312 0
M  V30 39289 H 3732.58 0.0987101 3.91676 0
M  V30 39290 H 3734.27 0.48481 3.98059 0
M  V30 39291 H 3730.86 1.91119 3.83629 0
M  V30 39292 H 3735.05 2.86829 4.05022 0
M  V30 39293 H 3730.3 4.23504 4.4097 0
M  V30 39294 H 3734.48 5.19589 4.63681 0
M  V30 39295 H 3732.11 5.88425 4.81311 0
M  V30 39296 N 3733.68 -1.42505 0.673067 0
M  V30 39297 C 3734.61 -2.33499 0.00759571 0
M  V30 39298 C 3735.59 -1.50582 -0.791134 0
M  V30 39299 O 3736.78 -1.7919 -0.748636 0
M  V30 39300 C 3733.91 -3.3418 -0.945579 0
M  V30 39301 C 3732.86 -4.27236 -0.255565 0
M  V30 39302 C 3732.19 -5.18111 -1.32156 0
M  V30 39303 C 3733.49 -5.15098 0.864345 0
M  V30 39304 H 3735.18 -2.89395 0.767538 0
M  V30 39305 H 3732.73 -1.39151 0.370548 0
M  V30 39306 H 3734.68 -3.96747 -1.42019 0
M  V30 39307 H 3733.4 -2.76584 -1.73692 0
M  V30 39308 H 3732.06 -3.66061 0.198794 0
M  V30 39309 H 3731.71 -4.56843 -2.10484 0
M  V30 39310 H 3731.41 -5.81198 -0.865006 0
M  V30 39311 H 3732.93 -5.83554 -1.79714 0
M  V30 39312 H 3734.35 -5.71362 0.471025 0
M  V30 39313 H 3732.75 -5.8701 1.24658 0
M  V30 39314 H 3733.82 -4.53602 1.71386 0
M  V30 39315 N 3735.16 -0.41628 -1.52003 0
M  V30 39316 C 3736.57 0.0516919 -1.86628 0
M  V30 39317 C 3736.92 1.4381 -1.33465 0
M  V30 39318 O 3736.05 2.05543 -0.67683 0
M  V30 39319 C 3736.64 0.100577 -3.38651 0
M  V30 39320 C 3735.2 0.512903 -3.72889 0
M  V30 39321 C 3734.35 -0.308024 -2.75584 0
M  V30 39322 H 3737.3 -0.633043 -1.45528 0
M  V30 39323 H 3737.32 0.9144 -3.69349 0
M  V30 39324 H 3736.83 -0.908605 -3.77314 0
M  V30 39325 H 3734.93 1.52846 -3.39807 0
M  V30 39326 H 3735.04 0.252324 -4.78435 0
M  V30 39327 H 3733.41 0.230673 -2.53653 0
M  V30 39328 H 3734.19 -1.31569 -3.17088 0
M  V30 39329 N 3736.64 1.56914 -0.146931 0
M  V30 39330 C 3737.91 1.8773 0.549258 0
M  V30 39331 C 3738.29 1.05287 1.82969 0
M  V30 39332 O 3737.64 0.139668 2.28073 0
M  V30 39333 C 3737.85 3.39356 0.814775 0
M  V30 39334 C 3739.2 4.08573 1.15558 0
M  V30 39335 O 3740.22 3.44534 0.90413 0
M  V30 39336 O 3739.08 5.21664 1.62877 0
M  V30 39337 H 3736.18 0.778092 0.280182 0
M  V30 39338 H 3738.72 1.68705 -0.183537 0
M  V30 39339 H 3737.49 3.91193 -0.0914214 0
M  V30 39340 H 3737.12 3.63909 1.60175 0
M  V30 39341 N 3738.11 -0.126854 1.57089 0
M  V30 39342 C 3739.05 -1.18611 1.94953 0
M  V30 39343 C 3740.03 -1.40521 0.818092 0
M  V30 39344 O 3741.21 -1.54803 1.07555 0
M  V30 39345 C 3738.34 -2.54141 2.23898 0
M  V30 39346 C 3737.38 -2.48706 3.46479 0
M  V30 39347 S 3738.22 -1.93434 4.99343 0
M  V30 39348 C 3739.37 -3.30653 5.31432 0
M  V30 39349 H 3739.6 -0.863169 2.84494 0
M  V30 39350 H 3737.14 -0.333296 1.5076 0
M  V30 39351 H 3739.1 -3.32126 2.41253 0
M  V30 39352 H 3737.76 -2.83616 1.34985 0
M  V30 39353 H 3736.95 -3.48521 3.64073 0
M  V30 39354 H 3736.55 -1.78838 3.28471 0
M  V30 39355 H 3738.84 -4.26838 5.26133 0
M  V30 39356 H 3739.79 -3.17894 6.32731 0
M  V30 39357 H 3740.19 -3.28719 4.58916 0
M  V30 39358 N 3739.59 -1.52523 -0.396809 0
M  V30 39359 C 3741.01 -1.416 -0.736322 0
M  V30 39360 C 3741.21 -0.530225 -1.94399 0
M  V30 39361 O 3740.26 -0.000693416 -2.525 0
M  V30 39362 C 3741.58 -2.84326 -0.978725 0
M  V30 39363 C 3743.13 -2.93752 -1.08068 0
M  V30 39364 C 3743.6 -4.37473 -1.35577 0
M  V30 39365 N 3745.09 -4.40763 -1.42415 0
M  V30 39366 C 3745.83 -5.49042 -1.6535 0
M  V30 39367 N 3745.32 -6.67419 -1.85807 0
M  V30 39368 N 3747.12 -5.36574 -1.67466 0
M  V30 39369 H 3739.27 -2.08638 0.397962 0
M  V30 39370 H 3741.53 -0.940898 0.115819 0
M  V30 39371 H 3741.24 -3.51319 -0.163558 0
M  V30 39372 H 3741.11 -3.26112 -1.89554 0
M  V30 39373 H 3743.5 -2.26932 -1.88642 0
M  V30 39374 H 3743.58 -2.55406 -0.141952 0
M  V30 39375 H 3743.22 -5.04857 -0.555149 0
M  V30 39376 H 3743.15 -4.73366 -2.30721 0
M  V30 39377 H 3745.64 -3.55438 -1.28346 0
M  V30 39378 H 3745.96 -7.45718 -2.02793 0
M  V30 39379 H 3744.3 -6.70462 -1.83047 0
M  V30 39380 H 3747.49 -4.43066 -1.5103 0
M  V30 39381 H 3747.66 -6.21031 -1.85 0
M  V30 39382 N 3741.07 0.654789 -1.43354 0
M  V30 39383 C 3742.03 1.74957 -1.48063 0
M  V30 39384 C 3743.03 1.5659 -0.36554 0
M  V30 39385 O 3744.22 1.62516 -0.627222 0
M  V30 39386 C 3741.36 3.13813 -1.3317 0
M  V30 39387 H 3742.55 1.72163 -2.4556 0
M  V30 39388 H 3740.1 0.866298 -1.30096 0
M  V30 39389 H 3740.84 3.2222 -0.366746 0
M  V30 39390 H 3740.62 3.28549 -2.14004 0
M  V30 39391 H 3742.11 3.93648 -1.39394 0
M  V30 39392 N 3742.55 1.29858 0.893007 0
M  V30 39393 C 3743.51 1.15549 1.97942 0
M  V30 39394 C 3744.51 0.0890172 1.60553 0
M  V30 39395 O 3745.7 0.336494 1.70919 0
M  V30 39396 C 3742.83 0.7685 3.32125 0
M  V30 39397 H 3744.03 2.12059 2.12064 0
M  V30 39398 H 3741.58 1.1314 1.07838 0
M  V30 39399 H 3742.32 -0.196447 3.23704 0
M  V30 39400 H 3742.1 1.53913 3.60629 0
M  V30 39401 H 3743.59 0.691632 4.11833 0
M  V30 39402 N 3744.03 -1.10427 1.12443 0
M  V30 39403 C 3744.99 -2.14953 0.795481 0
M  V30 39404 C 3745.99 -1.59671 -0.190192 0
M  V30 39405 O 3747.18 -1.74164 0.0356103 0
M  V30 39406 C 3744.31 -3.40413 0.182103 0
M  V30 39407 H 3745.51 -2.45564 1.72158 0
M  V30 39408 H 3743.06 -1.25792 0.927695 0
M  V30 39409 H 3743.79 -3.1542 -0.753711 0
M  V30 39410 H 3743.58 -3.81824 0.891776 0
M  V30 39411 H 3745.07 -4.17588 -0.0315552 0
M  V30 39412 N 3745.51 -0.916353 -1.28221 0
M  V30 39413 C 3746.73 -0.566182 -1.99522 0
M  V30 39414 C 3747.16 0.846004 -1.68001 0
M  V30 39415 O 3746.51 1.56583 -0.913866 0
M  V30 39416 C 3746.56 -0.785176 -3.51948 0
M  V30 39417 O 3745.67 0.154614 -4.1211 0
M  V30 39418 H 3745.01 -0.219243 -0.62676 0
M  V30 39419 H 3747.54 -1.2325 -1.63311 0
M  V30 39420 H 3747.55 -0.696295 -4.02015 0
M  V30 39421 H 3746.22 -1.81464 -3.74224 0
M  V30 39422 H 3744.8 0.0167807 -3.72896 0
M  V30 39423 N 3746.98 1.42146 -0.680615 0
M  V30 39424 C 3747.91 2.33491 -0.0199786 0
M  V30 39425 C 3748.89 1.51 0.783137 0
M  V30 39426 O 3750.08 1.79585 0.739123 0
M  V30 39427 C 3747.21 3.34676 0.927843 0
M  V30 39428 C 3746.16 4.27366 0.232904 0
M  V30 39429 C 3745.49 5.18804 1.29406 0
M  V30 39430 C 3746.79 5.14633 -0.891649 0
M  V30 39431 H 3748.48 2.88983 -0.782874 0
M  V30 39432 H 3746.03 1.38952 -0.377922 0
M  V30 39433 H 3747.98 3.97495 1.39913 0
M  V30 39434 H 3746.71 2.77501 1.72223 0
M  V30 39435 H 3745.37 3.6595 -0.218204 0
M  V30 39436 H 3745.01 4.57953 2.08059 0
M  V30 39437 H 3744.71 5.81649 0.834172 0
M  V30 39438 H 3746.24 5.84499 1.76616 0
M  V30 39439 H 3747.65 5.71104 -0.501319 0
M  V30 39440 H 3746.05 5.8634 -1.2777 0
M  V30 39441 H 3747.12 4.52687 -1.73789 0
M  V30 39442 N 3748.46 0.424336 1.5178 0
M  V30 39443 C 3749.74 -0.205756 1.94515 0
M  V30 39444 C 3750.12 -1.61266 1.36222 0
M  V30 39445 O 3749.47 -2.21928 0.544058 0
M  V30 39446 C 3749.68 -0.196688 3.48445 0
M  V30 39447 C 3751.02 -0.408628 4.22629 0
M  V30 39448 O 3752.05 -0.275379 3.55134 0
M  V30 39449 O 3750.91 -0.672603 5.42345 0
M  V30 39450 H 3748 -0.136968 0.815579 0
M  V30 39451 H 3750.55 0.481377 1.62729 0
M  V30 39452 H 3749.32 0.78741 3.83296 0
M  V30 39453 H 3748.94 -0.927282 3.86636 0
M  V30 39454 N 3749.94 -1.56833 0.15525 0
M  V30 39455 C 3751.17 -2.00755 -0.500506 0
M  V30 39456 C 3751.58 -1.0354 -1.57876 0
M  V30 39457 O 3750.94 -0.0336971 -1.82469 0
M  V30 39458 C 3750.99 -3.44562 -1.09359 0
M  V30 39459 O 3750.71 -4.38061 -0.0584018 0
M  V30 39460 C 3752.21 -4.03803 -1.82916 0
M  V30 39461 H 3749.43 -0.65837 -0.129577 0
M  V30 39462 H 3751.98 -2.02938 0.252259 0
M  V30 39463 H 3750.13 -3.43204 -1.79694 0
M  V30 39464 H 3750.55 -5.22168 -0.494033 0
M  V30 39465 H 3752.02 -5.06398 -2.19694 0
M  V30 39466 H 3752.5 -3.44981 -2.71817 0
M  V30 39467 H 3753.1 -4.08815 -1.17261 0
M  V30 39468 N 3751.42 0.118521 -1.57154 0
M  V30 39469 C 3752.38 1.12944 -1.9944 0
M  V30 39470 C 3753.38 1.34281 -0.884611 0
M  V30 39471 O 3754.57 1.3079 -1.15064 0
M  V30 39472 C 3751.7 2.4838 -2.33496 0
M  V30 39473 H 3752.9 0.765983 -2.89953 0
M  V30 39474 H 3750.45 0.362831 -1.5203 0
M  V30 39475 H 3751.18 2.89645 -1.45864 0
M  V30 39476 H 3750.97 2.34247 -3.14437 0
M  V30 39477 H 3752.46 3.21134 -2.6695 0
M  V30 39478 N 3752.9 1.52731 0.388715 0
M  V30 39479 C 3754.12 1.71666 1.15492 0
M  V30 39480 C 3754.54 0.435159 1.83717 0
M  V30 39481 O 3753.9 -0.590381 1.72687 0
M  V30 39482 C 3753.95 2.86639 2.20274 0
M  V30 39483 O 3753.67 4.09828 1.54831 0
M  V30 39484 C 3755.17 3.17255 3.09619 0
M  V30 39485 H 3752.39 0.574756 0.346261 0
M  V30 39486 H 3754.93 1.99381 0.454694 0
M  V30 39487 H 3753.09 2.61384 2.85932 0
M  V30 39488 H 3753.5 4.74045 2.24457 0
M  V30 39489 H 3754.98 4.01166 3.7917 0
M  V30 39490 H 3755.45 2.31649 3.73142 0
M  V30 39491 H 3756.06 3.4435 2.49606 0
M  V30 39492 N 3754.37 -0.647178 1.43699 0
M  V30 39493 C 3755.62 -1.407 1.45636 0
M  V30 39494 C 3755.95 -1.94323 0.0828984 0
M  V30 39495 O 3755.2 -1.73098 -0.913003 0
M  V30 39496 C 3755.5 -2.60129 2.45087 0
M  V30 39497 C 3755.17 -2.24889 3.90814 0
M  V30 39498 C 3753.83 -2.1499 4.30503 0
M  V30 39499 C 3756.18 -1.96785 4.82623 0
M  V30 39500 C 3753.51 -1.75153 5.59945 0
M  V30 39501 C 3755.86 -1.58445 6.12436 0
M  V30 39502 C 3754.53 -1.47076 6.51095 0
M  V30 39503 H 3753.8 -0.514858 0.532919 0
M  V30 39504 H 3756.44 -0.735426 1.76816 0
M  V30 39505 H 3754.75 -3.32446 2.07333 0
M  V30 39506 H 3756.45 -3.18346 2.43838 0
M  V30 39507 H 3753.04 -2.33505 3.59407 0
M  V30 39508 H 3757.22 -2.03351 4.52727 0
M  V30 39509 H 3752.48 -1.64942 5.88731 0
M  V30 39510 H 3756.65 -1.35733 6.83044 0
M  V30 39511 H 3754.28 -1.15979 7.51301 0
M  V30 39512 N 3755.85 -1.3033 -0.886108 0
M  V30 39513 C 3757.08 -1.22137 -1.67623 0
M  V30 39514 C 3757.5 0.212679 -1.86894 0
M  V30 39515 O 3756.86 1.15308 -1.39907 0
M  V30 39516 C 3756.91 -1.95407 -3.03065 0
M  V30 39517 O 3756.01 -1.28039 -3.9202 0
M  V30 39518 H 3755.35 -0.422502 -0.512238 0
M  V30 39519 H 3757.88 -1.72131 -1.10599 0
M  V30 39520 H 3757.89 -2.04386 -3.53115 0
M  V30 39521 H 3756.57 -2.99704 -2.88358 0
M  V30 39522 H 3755.15 -1.27408 -3.50459 0
M  V30 39523 N 3757.33 1.0983 -1.13028 0
M  V30 39524 C 3758.56 1.85691 -0.912493 0
M  V30 39525 C 3758.97 1.80957 0.538526 0
M  V30 39526 O 3758.33 1.20275 1.3726 0
M  V30 39527 C 3758.38 3.33837 -1.3869 0
M  V30 39528 O 3758.1 3.3851 -2.78105 0
M  V30 39529 C 3759.6 4.26553 -1.20695 0
M  V30 39530 H 3756.82 0.586674 -0.32566 0
M  V30 39531 H 3759.37 1.38803 -1.5018 0
M  V30 39532 H 3757.52 3.78168 -0.840683 0
M  V30 39533 H 3757.94 4.30881 -2.99069 0
M  V30 39534 H 3759.41 5.28674 -1.58769 0
M  V30 39535 H 3759.89 4.3895 -0.148188 0
M  V30 39536 H 3760.49 3.88033 -1.74099 0
M  V30 39537 N 3758.81 0.92314 1.27734 0
M  V30 39538 C 3760.04 0.577352 1.98681 0
M  V30 39539 C 3760.45 -0.843578 1.68906 0
M  V30 39540 O 3759.81 -1.56004 0.947048 0
M  V30 39541 C 3759.86 0.788206 3.52802 0
M  V30 39542 O 3759.58 2.15323 3.81533 0
M  V30 39543 C 3761.08 0.450514 4.41005 0
M  V30 39544 H 3758.3 0.219211 0.634182 0
M  V30 39545 H 3760.85 1.23891 1.627 0
M  V30 39546 H 3759 0.17351 3.87011 0
M  V30 39547 H 3759.41 2.19984 4.76138 0
M  V30 39548 H 3760.89 0.648771 5.48174 0
M  V30 39549 H 3761.37 -0.613729 4.34891 0
M  V30 39550 H 3761.97 1.04315 4.12309 0
M  V30 39551 N 3760.29 -1.41783 0.688143 0
M  V30 39552 C 3761.2 -2.34593 0.0184382 0
M  V30 39553 C 3762.21 -1.55825 -0.774247 0
M  V30 39554 O 3763.39 -1.88337 -0.713513 0
M  V30 39555 C 3760.45 -3.34494 -0.911855 0
M  V30 39556 C 3759.51 -4.29153 -0.112208 0
M  V30 39557 C 3758.75 -5.24282 -0.998193 0
M  V30 39558 O 3758.97 -5.24673 -2.23773 0
M  V30 39559 O 3757.9 -6.00202 -0.451845 0
M  V30 39560 H 3761.73 -2.93425 0.783276 0
M  V30 39561 H 3759.32 -1.42511 0.448438 0
M  V30 39562 H 3761.2 -3.95831 -1.44553 0
M  V30 39563 H 3759.87 -2.78115 -1.65631 0
M  V30 39564 H 3758.78 -3.71188 0.465887 0
M  V30 39565 H 3760.11 -4.8861 0.593423 0
M  V30 39566 N 3761.76 -0.432379 -1.51553 0
M  V30 39567 C 3762.7 0.426682 -2.24176 0
M  V30 39568 C 3763.68 1.02883 -1.25912 0
M  V30 39569 O 3764.86 1.07225 -1.55033 0
M  V30 39570 C 3761.99 1.59426 -2.98833 0
M  V30 39571 C 3761.03 1.11327 -4.11714 0
M  V30 39572 S 3761.87 0.0593544 -5.35467 0
M  V30 39573 C 3763.02 1.23172 -6.13661 0
M  V30 39574 H 3763.25 -0.189892 -2.96693 0
M  V30 39575 H 3760.79 -0.216855 -1.5287 0
M  V30 39576 H 3762.75 2.26364 -3.42446 0
M  V30 39577 H 3761.41 2.18224 -2.25914 0
M  V30 39578 H 3760.6 1.98624 -4.63211 0
M  V30 39579 H 3760.2 0.522203 -3.70336 0
M  V30 39580 H 3762.49 2.15101 -6.42447 0
M  V30 39581 H 3763.44 0.756815 -7.04044 0
M  V30 39582 H 3763.84 1.46804 -5.45077 0
M  V30 39583 N 3763.24 1.56749 -0.163565 0
M  V30 39584 C 3764.21 2.16381 0.755763 0
M  V30 39585 C 3765.21 1.10985 1.16358 0
M  V30 39586 O 3766.4 1.36539 1.0818 0
M  V30 39587 C 3763.53 2.74038 2.0277 0
M  V30 39588 H 3764.72 2.98964 0.236758 0
M  V30 39589 H 3762.27 1.56063 0.0859651 0
M  V30 39590 H 3763.01 1.95168 2.58998 0
M  V30 39591 H 3762.79 3.51163 1.74433 0
M  V30 39592 H 3764.28 3.19928 2.68395 0
M  V30 39593 N 3764.72 -0.110185 1.57214 0
M  V30 39594 C 3765.65 -1.13576 2.04017 0
M  V30 39595 C 3766.63 -1.4267 0.92624 0
M  V30 39596 O 3767.82 -1.5296 1.19653 0
M  V30 39597 C 3764.95 -2.45964 2.45192 0
M  V30 39598 C 3763.9 -2.31312 3.60109 0
M  V30 39599 C 3763.23 -3.68743 3.87212 0
M  V30 39600 C 3764.53 -1.76626 4.91529 0
M  V30 39601 H 3766.22 -0.746445 2.89946 0
M  V30 39602 H 3763.77 -0.357617 1.39489 0
M  V30 39603 H 3765.72 -3.17968 2.7654 0
M  V30 39604 H 3764.44 -2.86802 1.56243 0
M  V30 39605 H 3763.1 -1.61756 3.28984 0
M  V30 39606 H 3762.75 -4.07081 2.95455 0
M  V30 39607 H 3762.45 -3.5979 4.6457 0
M  V30 39608 H 3763.97 -4.42238 4.2102 0
M  V30 39609 H 3765.39 -2.38456 5.21356 0
M  V30 39610 H 3763.79 -1.78472 5.72947 0
M  V30 39611 H 3764.86 -0.724489 4.79457 0
M  V30 39612 N 3766.2 -1.52935 -0.38061 0
M  V30 39613 C 3767.16 -1.77654 -1.44816 0
M  V30 39614 C 3768.16 -0.646683 -1.47223 0
M  V30 39615 O 3769.35 -0.914796 -1.48247 0
M  V30 39616 C 3766.48 -1.88495 -2.84046 0
M  V30 39617 H 3767.68 -2.72983 -1.24178 0
M  V30 39618 H 3765.23 -1.43784 -0.612855 0
M  V30 39619 H 3765.96 -0.951805 -3.10018 0
M  V30 39620 H 3765.75 -2.7066 -2.837 0
M  V30 39621 H 3767.24 -2.09264 -3.61384 0
M  V30 39622 N 3767.68 0.639548 -1.4404 0
M  V30 39623 C 3768.61 1.76324 -1.53076 0
M  V30 39624 C 3769.59 1.657 -0.384373 0
M  V30 39625 O 3770.77 1.84588 -0.603394 0
M  V30 39626 C 3767.9 3.14819 -1.46651 0
M  V30 39627 C 3766.86 3.40221 -2.59679 0
M  V30 39628 C 3766.18 4.78658 -2.38307 0
M  V30 39629 C 3767.48 3.33614 -4.0187 0
M  V30 39630 H 3769.18 1.69019 -2.47129 0
M  V30 39631 H 3766.72 0.811728 -1.18941 0
M  V30 39632 H 3768.68 3.93196 -1.51574 0
M  V30 39633 H 3767.4 3.22887 -0.491092 0
M  V30 39634 H 3766.06 2.64221 -2.54132 0
M  V30 39635 H 3765.71 4.8342 -1.38977 0
M  V30 39636 H 3765.41 4.96614 -3.14083 0
M  V30 39637 H 3766.93 5.59277 -2.45035 0
M  V30 39638 H 3768.34 4.01908 -4.08831 0
M  V30 39639 H 3766.74 3.63105 -4.77781 0
M  V30 39640 H 3767.81 2.31562 -4.26037 0
M  V30 39641 N 3769.15 1.30798 0.879184 0
M  V30 39642 C 3770.1 1.17586 2.0069 0
M  V30 39643 C 3771.1 0.0863461 1.6918 0
M  V30 39644 O 3772.3 0.247601 1.78289 0
M  V30 39645 H 3768.68 0.363819 0.658133 0
M  V30 39646 H 3770.65 2.13016 2.08966 0
M  V30 39647 C 3769.4 0.890488 3.36104 0
M  V30 39648 H 3768.72 1.72095 3.60865 0
M  V30 39649 H 3770.16 0.838176 4.15633 0
M  V30 39650 C 3768.62 -0.406676 3.34436 0
M  V30 39651 O 3769.15 -1.42638 3.75523 0
M  V30 39652 N 3767.36 -0.419913 2.8755 0
M  V30 39653 H 3766.9 0.410388 2.5431 0
M  V30 39654 H 3766.86 -1.28776 2.86817 0
M  V30 39655 N 3770.63 -1.09229 1.13608 0
M  V30 39656 C 3772.05 -1.33495 0.874713 0
M  V30 39657 C 3772.25 -1.95485 -0.488653 0
M  V30 39658 O 3771.31 -2.20251 -1.23474 0
M  V30 39659 C 3772.62 -2.24465 2.0009 0
M  V30 39660 C 3774.17 -2.37968 2.03323 0
M  V30 39661 C 3774.64 -3.32274 3.15211 0
M  V30 39662 N 3776.13 -3.39848 3.14734 0
M  V30 39663 C 3776.87 -4.12826 3.97948 0
M  V30 39664 N 3776.36 -4.88583 4.91181 0
M  V30 39665 N 3778.16 -4.08571 3.86039 0
M  V30 39666 H 3770.31 -0.673674 2.01433 0
M  V30 39667 H 3772.57 -0.359319 0.877265 0
M  V30 39668 H 3772.28 -1.86146 2.984 0
M  V30 39669 H 3772.15 -3.24868 1.91679 0
M  V30 39670 H 3774.54 -2.75549 1.05625 0
M  V30 39671 H 3774.62 -1.37336 2.15806 0
M  V30 39672 H 3774.26 -2.95416 4.13149 0
M  V30 39673 H 3774.19 -4.32815 2.99965 0
M  V30 39674 H 3776.68 -2.85832 2.47201 0
M  V30 39675 H 3777 -5.41704 5.51159 0
M  V30 39676 H 3775.34 -4.87664 4.95185 0
M  V30 39677 H 3778.53 -3.48488 3.12528 0
M  V30 39678 H 3778.71 -4.65183 4.51119 0
M  V30 39679 N 3772.11 -0.929901 -1.27242 0
M  V30 39680 C 3773.34 -0.587028 -1.98085 0
M  V30 39681 C 3773.75 0.839769 -1.69542 0
M  V30 39682 O 3773.09 1.57001 -0.953752 0
M  V30 39683 C 3773.15 -0.735718 -3.51891 0
M  V30 39684 C 3772.82 -2.13504 -4.0406 0
M  V30 39685 C 3773.82 -3.10943 -4.16666 0
M  V30 39686 C 3771.5 -2.45258 -4.38353 0
M  V30 39687 C 3773.49 -4.38243 -4.62841 0
M  V30 39688 C 3771.18 -3.72793 -4.84219 0
M  V30 39689 C 3772.18 -4.69099 -4.96422 0
M  V30 39690 O 3771.87 -5.94365 -5.41282 0
M  V30 39691 H 3771.6 -0.221039 -0.638841 0
M  V30 39692 H 3774.15 -1.24976 -1.63004 0
M  V30 39693 H 3772.38 -0.0158796 -3.86697 0
M  V30 39694 H 3774.07 -0.397576 -4.03948 0
M  V30 39695 H 3774.84 -2.87733 -3.90429 0
M  V30 39696 H 3770.72 -1.7104 -4.28096 0
M  V30 39697 H 3774.26 -5.13417 -4.72281 0
M  V30 39698 H 3770.16 -3.95821 -5.09898 0
M  V30 39699 H 3770.93 -5.97384 -5.5953 0
M  V30 39700 N 3773.59 1.41416 -0.695653 0
M  V30 39701 C 3774.52 2.33457 -0.0447424 0
M  V30 39702 C 3775.5 1.51822 0.767078 0
M  V30 39703 O 3776.69 1.80358 0.720034 0
M  V30 39704 C 3773.82 3.35642 0.892294 0
M  V30 39705 C 3772.77 4.27589 0.187563 0
M  V30 39706 C 3772.1 5.20148 1.23896 0
M  V30 39707 C 3773.4 5.13658 -0.946183 0
M  V30 39708 H 3775.09 2.88137 -0.813481 0
M  V30 39709 H 3772.64 1.38544 -0.392639 0
M  V30 39710 H 3774.59 3.98957 1.35689 0
M  V30 39711 H 3773.31 2.79312 1.6927 0
M  V30 39712 H 3771.97 3.65698 -0.257006 0
M  V30 39713 H 3771.62 4.60134 2.0319 0
M  V30 39714 H 3771.32 5.82501 0.772433 0
M  V30 39715 H 3772.84 5.86339 1.70407 0
M  V30 39716 H 3774.26 5.7054 -0.561864 0
M  V30 39717 H 3772.65 5.84952 -1.33981 0
M  V30 39718 H 3773.72 4.50818 -1.78581 0
M  V30 39719 N 3775.07 0.44041 1.51321 0
M  V30 39720 C 3776.31 -0.12416 2.04023 0
M  V30 39721 C 3776.67 -1.39694 1.31717 0
M  V30 39722 O 3777.87 -2.04195 1.74808 0
M  V30 39723 C 3776.14 -0.334682 3.5583 0
M  V30 39724 S 3777.7 -0.862216 4.30246 0
M  V30 39725 H 3774.52 -0.0304079 0.710349 0
M  V30 39726 H 3777.12 0.60052 1.86048 0
M  V30 39727 H 3775.83 0.597947 4.06021 0
M  V30 39728 H 3775.36 -1.08635 3.78103 0
M  V30 39729 H 3777.37 -2.13943 4.47708 0
M  V30 39730 N 3776.55 -1.5666 0.171876 0
M  V30 39731 C 3777.48 -2.20997 -0.753822 0
M  V30 39732 C 3778.46 -1.16576 -1.23871 0
M  V30 39733 O 3779.64 -1.45007 -1.29176 0
M  V30 39734 C 3776.77 -2.85116 -1.98309 0
M  V30 39735 C 3775.73 -3.9558 -1.63403 0
M  V30 39736 C 3775.05 -4.46751 -2.93799 0
M  V30 39737 C 3776.35 -5.15144 -0.861623 0
M  V30 39738 H 3778.05 -2.98609 -0.217545 0
M  V30 39739 H 3775.59 -1.4363 -0.103195 0
M  V30 39740 H 3777.54 -3.28799 -2.6357 0
M  V30 39741 H 3776.27 -2.04874 -2.54351 0
M  V30 39742 H 3774.93 -3.52553 -1.0051 0
M  V30 39743 H 3774.58 -3.63299 -3.47883 0
M  V30 39744 H 3774.28 -5.21273 -2.71198 0
M  V30 39745 H 3775.8 -4.93121 -3.60089 0
M  V30 39746 H 3777.21 -5.55517 -1.41684 0
M  V30 39747 H 3775.61 -5.95587 -0.734623 0
M  V30 39748 H 3776.68 -4.84692 0.141936 0
M  V30 39749 N 3778.02 0.101846 -1.57271 0
M  V30 39750 C 3778.99 1.10822 -2.00627 0
M  V30 39751 C 3779.99 1.33335 -0.898804 0
M  V30 39752 O 3781.18 1.29562 -1.16445 0
M  V30 39753 C 3778.31 2.45889 -2.36117 0
M  V30 39754 H 3779.5 0.735187 -2.90749 0
M  V30 39755 H 3777.05 0.346686 -1.52407 0
M  V30 39756 H 3777.79 2.88081 -1.48928 0
M  V30 39757 H 3777.57 2.30899 -3.16904 0
M  V30 39758 H 3779.06 3.18285 -2.70342 0
M  V30 39759 N 3779.5 1.53135 0.372494 0
M  V30 39760 C 3780.75 1.69232 1.11751 0
M  V30 39761 C 3781.08 0.439299 1.89166 0
M  V30 39762 O 3780.36 -0.563284 1.86165 0
M  V30 39763 C 3780.64 2.93785 2.08237 0
M  V30 39764 C 3780.49 4.29227 1.34476 0
M  V30 39765 C 3781.81 3.1392 3.08451 0
M  V30 39766 H 3778.93 0.615821 0.404887 0
M  V30 39767 H 3781.57 1.85762 0.399069 0
M  V30 39768 H 3779.72 2.79823 2.69502 0
M  V30 39769 H 3781.39 4.54988 0.76048 0
M  V30 39770 H 3779.64 4.28954 0.646598 0
M  V30 39771 H 3780.31 5.12497 2.05062 0
M  V30 39772 H 3782.78 3.27022 2.57286 0
M  V30 39773 H 3781.66 4.02516 3.73191 0
M  V30 39774 H 3781.92 2.28884 3.78239 0
M  V30 39775 N 3780.98 -0.6319 1.44377 0
M  V30 39776 C 3781.91 -1.7551 1.54009 0
M  V30 39777 C 3782.89 -1.65494 0.393155 0
M  V30 39778 O 3784.08 -1.84266 0.613175 0
M  V30 39779 C 3781.21 -3.14036 1.48319 0
M  V30 39780 C 3780.16 -3.38839 2.6148 0
M  V30 39781 C 3779.49 -4.77388 2.40842 0
M  V30 39782 C 3780.79 -3.31478 4.03633 0
M  V30 39783 H 3782.48 -1.67706 2.48022 0
M  V30 39784 H 3780.03 -0.805409 1.1937 0
M  V30 39785 H 3781.98 -3.92387 1.53657 0
M  V30 39786 H 3780.7 -3.22622 0.508209 0
M  V30 39787 H 3779.36 -2.62869 2.5553 0
M  V30 39788 H 3779.01 -4.82676 1.41538 0
M  V30 39789 H 3778.71 -4.94942 3.16712 0
M  V30 39790 H 3780.23 -5.57969 2.47997 0
M  V30 39791 H 3781.65 -3.99734 4.10957 0
M  V30 39792 H 3780.04 -3.60566 4.797 0
M  V30 39793 H 3781.11 -2.29299 4.27259 0
M  V30 39794 N 3782.46 -1.31262 -0.872235 0
M  V30 39795 C 3783.87 -1.1874 -1.44075 0
M  V30 39796 C 3784.22 0.207003 -1.95105 0
M  V30 39797 O 3783.34 1.1046 -1.86085 0
M  V30 39798 C 3783.94 -2.14952 -2.6188 0
M  V30 39799 C 3782.5 -2.0637 -3.14783 0
M  V30 39800 C 3781.65 -2.04309 -1.87491 0
M  V30 39801 H 3784.6 -1.43347 -0.680986 0
M  V30 39802 H 3784.62 -1.73779 -3.38498 0
M  V30 39803 H 3784.13 -3.16429 -2.24709 0
M  V30 39804 H 3782.23 -1.08079 -3.56581 0
M  V30 39805 H 3782.34 -2.95368 -3.7722 0
M  V30 39806 H 3780.71 -1.49292 -2.06359 0
M  V30 39807 H 3781.49 -3.07539 -1.52561 0
M  V30 39808 N 3783.94 1.08625 -1.14186 0
M  V30 39809 C 3784.87 2.17499 -0.849493 0
M  V30 39810 C 3785.85 1.68983 0.194587 0
M  V30 39811 O 3787.03 1.94131 0.0517416 0
M  V30 39812 C 3784.16 3.45788 -0.323746 0
M  V30 39813 C 3783.12 4.07683 -1.30302 0
M  V30 39814 C 3782.44 5.30896 -0.636669 0
M  V30 39815 C 3783.74 4.49224 -2.66449 0
M  V30 39816 H 3785.44 2.42214 -1.75991 0
M  V30 39817 H 3782.98 1.16411 -0.847616 0
M  V30 39818 H 3784.93 4.21265 -0.106828 0
M  V30 39819 H 3783.66 3.20621 0.622093 0
M  V30 39820 H 3782.32 3.34235 -1.50607 0
M  V30 39821 H 3781.97 5.02013 0.314906 0
M  V30 39822 H 3781.67 5.73263 -1.29008 0
M  V30 39823 H 3783.19 6.0909 -0.429224 0
M  V30 39824 H 3784.6 5.15888 -2.50064 0
M  V30 39825 H 3783 5.02502 -3.28042 0
M  V30 39826 H 3784.07 3.61221 -3.23493 0
M  V30 39827 N 3785.41 0.936635 1.26747 0
M  V30 39828 C 3786.66 0.577558 1.93254 0
M  V30 39829 C 3786.98 -0.886875 1.74338 0
M  V30 39830 O 3788.18 -1.35513 2.35263 0
M  V30 39831 C 3786.64 0.982179 3.46239 0
M  V30 39832 C 3786.25 2.46791 3.73896 0
M  V30 39833 C 3787.99 0.694779 4.18776 0
M  V30 39834 C 3785.9 2.81147 5.20298 0
M  V30 39835 H 3784.83 0.212289 0.723498 0
M  V30 39836 H 3787.48 1.13866 1.43899 0
M  V30 39837 H 3785.86 0.349647 3.94453 0
M  V30 39838 H 3787.03 3.14911 3.36404 0
M  V30 39839 H 3785.35 2.72813 3.14582 0
M  V30 39840 H 3787.95 0.927848 5.26588 0
M  V30 39841 H 3788.29 -0.368319 4.14667 0
M  V30 39842 H 3788.82 1.28682 3.76412 0
M  V30 39843 H 3785.56 3.86401 5.29504 0
M  V30 39844 H 3785.08 2.17685 5.58904 0
M  V30 39845 H 3786.76 2.69368 5.8826 0
M  V30 39846 N 3786.89 -1.41045 0.703143 0
M  V30 39847 C 3788.12 -2.05425 0.246588 0
M  V30 39848 C 3788.54 -1.5294 -1.10701 0
M  V30 39849 O 3787.89 -0.680762 -1.69328 0
M  V30 39850 C 3787.94 -3.60924 0.204016 0
M  V30 39851 O 3787.66 -4.11469 1.50415 0
M  V30 39852 C 3789.17 -4.42461 -0.272608 0
M  V30 39853 H 3786.39 -0.661388 0.113168 0
M  V30 39854 H 3788.93 -1.8068 0.957855 0
M  V30 39855 H 3787.08 -3.84682 -0.458126 0
M  V30 39856 H 3787.5 -5.05572 1.39631 0
M  V30 39857 H 3788.97 -5.51428 -0.251261 0
M  V30 39858 H 3789.45 -4.19122 -1.31274 0
M  V30 39859 H 3790.06 -4.23784 0.358807 0
M  V30 39860 N 3788.37 -0.448429 -1.51086 0
M  V30 39861 C 3789.32 0.357398 -2.28016 0
M  V30 39862 C 3790.29 1.00717 -1.32081 0
M  V30 39863 O 3791.47 1.02395 -1.60996 0
M  V30 39864 C 3788.61 1.44639 -3.13327 0
M  V30 39865 C 3787.73 0.813654 -4.24268 0
M  V30 39866 C 3786.86 1.87862 -4.96871 0
M  V30 39867 C 3785.9 1.22492 -5.99718 0
M  V30 39868 N 3785.04 2.23174 -6.65686 0
M  V30 39869 H 3789.88 -0.304982 -2.96435 0
M  V30 39870 H 3787.41 -0.162248 -1.46202 0
M  V30 39871 H 3789.37 2.08917 -3.61122 0
M  V30 39872 H 3788 2.07824 -2.47 0
M  V30 39873 H 3787.05 0.0588745 -3.80354 0
M  V30 39874 H 3788.37 0.296499 -4.97918 0
M  V30 39875 H 3787.52 2.59777 -5.48271 0
M  V30 39876 H 3786.26 2.42954 -4.22877 0
M  V30 39877 H 3785.26 0.491292 -5.47601 0
M  V30 39878 H 3786.49 0.681196 -6.75675 0
M  V30 39879 H 3784.43 2.77324 -5.94498 0
M  V30 39880 H 3784.35 1.7638 -7.35137 0
M  V30 39881 H 3785.62 2.94537 -7.21712 0
M  V30 39882 N 3789.85 1.56567 -0.180181 0
M  V30 39883 C 3791.09 1.99044 0.464834 0
M  V30 39884 C 3791.45 1.06402 1.5982 0
M  V30 39885 O 3792.65 1.38056 2.30638 0
M  V30 39886 C 3790.92 3.45164 0.927166 0
M  V30 39887 S 3792.48 4.0967 1.57212 0
M  V30 39888 H 3789.3 0.695169 0.149203 0
M  V30 39889 H 3791.9 1.93488 -0.279733 0
M  V30 39890 H 3790.61 4.10297 0.0920093 0
M  V30 39891 H 3790.14 3.54506 1.70556 0
M  V30 39892 H 3792.15 4.05449 2.86052 0
M  V30 39893 N 3791.33 -0.0935042 1.57322 0
M  V30 39894 C 3792.29 -1.09757 2.01212 0
M  V30 39895 C 3793.29 -1.32856 0.905862 0
M  V30 39896 O 3794.48 -1.28943 1.1713 0
M  V30 39897 C 3791.61 -2.44633 2.37418 0
M  V30 39898 H 3792.8 -0.719757 2.91135 0
M  V30 39899 H 3790.36 -0.338598 1.52588 0
M  V30 39900 H 3791.09 -2.87287 1.50454 0
M  V30 39901 H 3790.88 -2.29215 3.18124 0
M  V30 39902 H 3792.37 -3.16847 2.72026 0
M  V30 39903 N 3792.8 -1.5333 -0.364368 0
M  V30 39904 C 3794.22 -1.61245 -0.941105 0
M  V30 39905 C 3794.57 -0.480629 -1.90222 0
M  V30 39906 O 3793.69 0.392768 -2.12806 0
M  V30 39907 C 3794.29 -2.92266 -1.71365 0
M  V30 39908 C 3792.85 -3.02513 -2.23971 0
M  V30 39909 C 3791.99 -2.5655 -1.05249 0
M  V30 39910 H 3794.94 -1.58053 -0.143125 0
M  V30 39911 H 3794.96 -2.80137 -2.57495 0
M  V30 39912 H 3794.48 -3.74623 -1.01388 0
M  V30 39913 H 3792.58 -2.24747 -2.97186 0
M  V30 39914 H 3792.69 -4.07614 -2.51769 0
M  V30 39915 H 3791.05 -2.11455 -1.41982 0
M  V30 39916 H 3791.84 -3.41325 -0.367684 0
M  V30 39917 N 3794.28 0.624234 -1.4471 0
M  V30 39918 C 3795.21 1.7469 -1.54937 0
M  V30 39919 C 3796.19 1.65283 -0.401926 0
M  V30 39920 O 3797.38 1.83938 -0.622938 0
M  V30 39921 C 3794.51 3.13245 -1.49982 0
M  V30 39922 C 3793.46 3.37448 -2.63273 0
M  V30 39923 C 3792.79 4.76104 -2.4337 0
M  V30 39924 C 3794.09 3.29332 -4.05386 0
M  V30 39925 H 3795.78 1.66388 -2.48908 0
M  V30 39926 H 3793.33 0.799067 -1.19795 0
M  V30 39927 H 3795.28 3.91566 -1.55736 0
M  V30 39928 H 3794.01 3.22348 -0.525311 0
M  V30 39929 H 3792.66 2.6151 -2.5692 0
M  V30 39930 H 3792.31 4.81918 -1.44096 0
M  V30 39931 H 3792.01 4.93255 -3.19332 0
M  V30 39932 H 3793.54 5.56646 -2.50953 0
M  V30 39933 H 3794.95 3.97549 -4.13071 0
M  V30 39934 H 3793.35 3.58017 -4.81605 0
M  V30 39935 H 3794.42 2.2703 -4.28469 0
M  V30 39936 N 3795.76 1.31723 0.865262 0
M  V30 39937 C 3797.01 1.21678 1.61866 0
M  V30 39938 C 3797.34 -0.223954 1.93206 0
M  V30 39939 O 3796.59 -1.17404 1.56572 0
M  V30 39940 C 3796.89 2.01095 2.95458 0
M  V30 39941 C 3796.56 3.50552 2.83591 0
M  V30 39942 C 3795.22 3.91304 2.80062 0
M  V30 39943 C 3797.57 4.45639 2.70287 0
M  V30 39944 C 3794.9 5.25402 2.61093 0
M  V30 39945 C 3797.25 5.79869 2.52854 0
M  V30 39946 C 3795.91 6.19835 2.47711 0
M  V30 39947 H 3795.18 0.445251 0.592311 0
M  V30 39948 H 3797.83 1.63038 1.00453 0
M  V30 39949 H 3796.14 1.5243 3.60933 0
M  V30 39950 H 3797.83 1.907 3.52753 0
M  V30 39951 H 3794.42 3.1818 2.87158 0
M  V30 39952 H 3798.61 4.15083 2.72066 0
M  V30 39953 H 3793.86 5.55436 2.55539 0
M  V30 39954 H 3798.04 6.53171 2.41537 0
M  V30 39955 H 3795.66 7.23686 2.32771 0
M  V30 39956 N 3797.24 -1.08018 1.14761 0
M  V30 39957 C 3798.2 -2.13217 0.840897 0
M  V30 39958 C 3799.2 -1.60039 -0.156281 0
M  V30 39959 O 3800.39 -1.74049 0.0725449 0
M  V30 39960 C 3797.52 -3.3995 0.254268 0
M  V30 39961 H 3798.72 -2.41857 1.77328 0
M  V30 39962 H 3796.27 -1.23795 0.954168 0
M  V30 39963 H 3797 -3.16948 -0.686636 0
M  V30 39964 H 3796.79 -3.79847 0.972565 0
M  V30 39965 H 3798.28 -4.17561 0.0570285 0
M  V30 39966 N 3798.72 -0.943344 -1.26249 0
M  V30 39967 C 3799.96 -0.590897 -1.93269 0
M  V30 39968 C 3800.29 0.873182 -1.74358 0
M  V30 39969 O 3799.56 1.62068 -1.10048 0
M  V30 39970 H 3798.14 -0.215548 -0.715226 0
M  V30 39971 H 3800.8 -1.19914 -1.53645 0
M  V30 39972 H 3799.89 -0.810528 -3.01392 0
M  V30 39973 N 3800.2 1.4067 -0.710613 0
M  V30 39974 C 3801.42 2.05292 -0.257478 0
M  V30 39975 C 3801.84 1.53525 1.09888 0
M  V30 39976 O 3801.2 0.689733 1.68964 0
M  V30 39977 C 3801.25 3.60811 -0.223154 0
M  V30 39978 O 3800.97 4.10666 -1.52595 0
M  V30 39979 C 3802.47 4.42599 0.249139 0
M  V30 39980 H 3799.69 0.660778 -0.116674 0
M  V30 39981 H 3802.23 1.8017 -0.967423 0
M  V30 39982 H 3800.39 3.84919 0.437719 0
M  V30 39983 H 3800.8 5.04825 -1.4231 0
M  V30 39984 H 3802.28 5.51553 0.222013 0
M  V30 39985 H 3802.75 4.19813 1.2905 0
M  V30 39986 H 3803.36 4.23588 -0.381276 0
M  V30 39987 N 3801.67 0.456435 1.50846 0
M  V30 39988 C 3802.58 -0.350986 2.3196 0
M  V30 39989 C 3803.6 -1.00983 1.41698 0
M  V30 39990 O 3804.78 -1.00102 1.74761 0
M  V30 39991 C 3801.84 -1.42691 3.15975 0
M  V30 39992 C 3800.9 -0.786198 4.2204 0
M  V30 39993 C 3800.13 -1.81085 5.0204 0
M  V30 39994 O 3800.36 -3.03556 4.82918 0
M  V30 39995 O 3799.29 -1.39079 5.85611 0
M  V30 39996 H 3803.12 0.311732 3.02096 0
M  V30 39997 H 3800.7 0.21857 1.47793 0
M  V30 39998 H 3802.58 -2.05046 3.68149 0
M  V30 39999 H 3801.26 -2.07336 2.48583 0
M  V30 40000 H 3800.17 -0.124082 3.73894 0
M  V30 40001 H 3801.5 -0.18293 4.9186 0
M  V30 40002 N 3803.15 -1.56469 0.188482 0
M  V30 40003 C 3804.1 -2.15392 -0.747694 0
M  V30 40004 C 3805.09 -1.09284 -1.18092 0
M  V30 40005 O 3806.28 -1.35364 -1.14043 0
M  V30 40006 C 3803.41 -2.81165 -1.9698 0
M  V30 40007 C 3802.49 -3.94454 -1.55777 0
M  V30 40008 N 3802.88 -4.98499 -0.856313 0
M  V30 40009 C 3801.18 -4.05933 -1.84755 0
M  V30 40010 C 3801.88 -5.78048 -0.650825 0
M  V30 40011 N 3800.86 -5.30245 -1.19753 0
M  V30 40012 H 3804.66 -2.93198 -0.202976 0
M  V30 40013 H 3802.17 -1.62396 -0.0115596 0
M  V30 40014 H 3804.17 -3.21766 -2.65089 0
M  V30 40015 H 3802.83 -2.04845 -2.5193 0
M  V30 40016 H 3803.84 -5.15358 -0.512492 0
M  V30 40017 H 3800.52 -3.40733 -2.41261 0
M  V30 40018 H 3801.91 -6.71833 -0.0948558 0
M  V30 40019 N 3804.63 0.0851597 -1.5737 0
M  V30 40020 C 3806.05 0.439624 -1.53426 0
M  V30 40021 C 3806.25 1.79948 -0.906695 0
M  V30 40022 O 3805.3 2.4743 -0.503458 0
M  V30 40023 C 3806.61 0.392975 -2.98121 0
M  V30 40024 C 3808.16 0.474121 -3.09388 0
M  V30 40025 C 3808.64 0.457518 -4.55709 0
M  V30 40026 N 3810.13 0.517984 -4.60295 0
M  V30 40027 C 3810.86 0.527136 -5.70972 0
M  V30 40028 N 3810.36 0.491901 -6.91051 0
M  V30 40029 N 3812.15 0.572693 -5.59175 0
M  V30 40030 H 3804.3 -0.805434 -1.96536 0
M  V30 40031 H 3806.57 -0.300852 -0.898995 0
M  V30 40032 H 3806.27 -0.539265 -3.47541 0
M  V30 40033 H 3806.15 1.20823 -3.57326 0
M  V30 40034 H 3808.53 1.39678 -2.5995 0
M  V30 40035 H 3808.61 -0.369455 -2.53118 0
M  V30 40036 H 3808.26 -0.461239 -5.05801 0
M  V30 40037 H 3808.19 1.31844 -5.09828 0
M  V30 40038 H 3810.68 0.550007 -3.73876 0
M  V30 40039 H 3810.99 0.502442 -7.71165 0
M  V30 40040 H 3809.34 0.458795 -6.93484 0
M  V30 40041 H 3812.53 0.59782 -4.64267 0
M  V30 40042 H 3812.7 0.576357 -6.45432 0
M  V30 40043 N 3806.11 1.53521 0.356231 0
M  V30 40044 C 3807.07 1.79935 1.41971 0
M  V30 40045 C 3808.07 0.670023 1.46176 0
M  V30 40046 O 3809.26 0.938265 1.46773 0
M  V30 40047 C 3806.39 1.9299 2.81012 0
M  V30 40048 H 3807.59 2.74924 1.19819 0
M  V30 40049 H 3805.14 1.44741 0.589903 0
M  V30 40050 H 3805.87 1.00101 3.08465 0
M  V30 40051 H 3805.66 2.75139 2.79358 0
M  V30 40052 H 3807.15 2.14986 3.58009 0
M  V30 40053 N 3807.59 -0.616551 1.45039 0
M  V30 40054 C 3808.83 -1.37184 1.47863 0
M  V30 40055 C 3809.15 -1.95226 0.120896 0
M  V30 40056 O 3810.35 -2.71487 0.026735 0
M  V30 40057 C 3808.81 -2.48451 2.60385 0
M  V30 40058 C 3808.42 -1.96859 4.02431 0
M  V30 40059 C 3810.16 -3.25536 2.72445 0
M  V30 40060 C 3808.07 -3.05555 5.0635 0
M  V30 40061 H 3807 -0.51558 0.550175 0
M  V30 40062 H 3809.65 -0.661766 1.71152 0
M  V30 40063 H 3808.03 -3.22101 2.30363 0
M  V30 40064 H 3809.21 -1.29977 4.42089 0
M  V30 40065 H 3807.52 -1.32545 3.94741 0
M  V30 40066 H 3810.12 -4.06593 3.47255 0
M  V30 40067 H 3810.46 -3.75963 1.78766 0
M  V30 40068 H 3810.99 -2.58982 3.01949 0
M  V30 40069 H 3807.73 -2.60055 6.01707 0
M  V30 40070 H 3807.25 -3.71031 4.7127 0
M  V30 40071 H 3808.93 -3.70088 5.30702 0
M  V30 40072 N 3809.06 -1.3218 -0.858264 0
M  V30 40073 C 3810 -1.15147 -1.97019 0
M  V30 40074 C 3810.97 -0.0518665 -1.62517 0
M  V30 40075 O 3812.16 -0.210498 -1.87321 0
M  V30 40076 C 3809.29 -0.761945 -3.30018 0
M  V30 40077 C 3808.33 -1.86627 -3.835 0
M  V30 40078 S 3809.16 -3.47391 -4.07529 0
M  V30 40079 C 3810.32 -3.10402 -5.43509 0
M  V30 40080 H 3810.55 -2.09276 -2.11166 0
M  V30 40081 H 3808.09 -1.16799 -1.00981 0
M  V30 40082 H 3810.04 -0.543965 -4.0688 0
M  V30 40083 H 3808.71 0.160424 -3.1369 0
M  V30 40084 H 3807.9 -1.54663 -4.79683 0
M  V30 40085 H 3807.5 -2.03991 -3.1347 0
M  V30 40086 H 3809.79 -2.60022 -6.25616 0
M  V30 40087 H 3810.74 -4.05592 -5.80432 0
M  V30 40088 H 3811.14 -2.4752 -5.0734 0
M  V30 40089 N 3810.54 1.07407 -1.15332 0
M  V30 40090 C 3811.79 1.80259 -0.929213 0
M  V30 40091 C 3812.12 1.86473 0.542354 0
M  V30 40092 O 3811.4 1.34805 1.40207 0
M  V30 40093 C 3811.68 3.25346 -1.54344 0
M  V30 40094 C 3811.53 3.2728 -3.08557 0
M  V30 40095 C 3812.85 4.22599 -1.22876 0
M  V30 40096 H 3809.97 0.654408 -0.338997 0
M  V30 40097 H 3812.61 1.25688 -1.42487 0
M  V30 40098 H 3810.76 3.71947 -1.12194 0
M  V30 40099 H 3812.43 2.88926 -3.5961 0
M  V30 40100 H 3810.68 2.66257 -3.42476 0
M  V30 40101 H 3811.35 4.29581 -3.46647 0
M  V30 40102 H 3813.82 3.84385 -1.59335 0
M  V30 40103 H 3812.7 5.22407 -1.68471 0
M  V30 40104 H 3812.96 4.4186 -0.14569 0
M  V30 40105 N 3812.02 0.950026 1.25747 0
M  V30 40106 C 3813.3 0.519872 1.88565 0
M  V30 40107 C 3813.68 -1.00276 1.85763 0
M  V30 40108 O 3813.02 -1.86657 1.318 0
M  V30 40109 C 3813.23 1.09126 3.315 0
M  V30 40110 C 3814.58 1.16531 4.08296 0
M  V30 40111 O 3815.61 1.04248 3.40603 0
M  V30 40112 O 3814.47 1.35744 5.29373 0
M  V30 40113 H 3811.56 0.170791 0.809172 0
M  V30 40114 H 3814.11 1.04316 1.33852 0
M  V30 40115 H 3812.88 2.13464 3.27946 0
M  V30 40116 H 3812.5 0.55095 3.93764 0
M  V30 40117 N 3813.5 -1.40291 0.718063 0
M  V30 40118 C 3814.72 -2.05675 0.266954 0
M  V30 40119 C 3815.15 -1.53751 -1.08361 0
M  V30 40120 O 3814.51 -0.673942 -1.68308 0
M  V30 40121 C 3814.55 -3.59664 0.259669 0
M  V30 40122 O 3813.66 -4.05368 -0.758301 0
M  V30 40123 H 3813 -0.652167 0.124798 0
M  V30 40124 H 3815.53 -1.79644 0.979239 0
M  V30 40125 H 3815.54 -4.07882 0.0982067 0
M  V30 40126 H 3814.21 -3.96821 1.24524 0
M  V30 40127 H 3812.79 -3.68605 -0.56436 0
M  V30 40128 N 3814.98 -0.464428 -1.50602 0
M  V30 40129 C 3815.91 0.379035 -2.2503 0
M  V30 40130 C 3816.89 1.00189 -1.28066 0
M  V30 40131 O 3818.07 1.03912 -1.57272 0
M  V30 40132 C 3815.2 1.53052 -3.02147 0
M  V30 40133 C 3814.24 1.02569 -4.13983 0
M  V30 40134 S 3815.08 -0.0542394 -5.35473 0
M  V30 40135 C 3816.23 1.10127 -6.16135 0
M  V30 40136 H 3816.47 -0.252783 -2.96223 0
M  V30 40137 H 3814 -0.249232 -1.52375 0
M  V30 40138 H 3815.96 2.1905 -3.47171 0
M  V30 40139 H 3814.62 2.13383 -2.30492 0
M  V30 40140 H 3813.81 1.88754 -4.6732 0
M  V30 40141 H 3813.41 0.443532 -3.71361 0
M  V30 40142 H 3815.71 2.01426 -6.46865 0
M  V30 40143 H 3816.65 0.607306 -7.05491 0
M  V30 40144 H 3817.06 1.35209 -5.48068 0
M  V30 40145 N 3816.45 1.56367 -0.196777 0
M  V30 40146 C 3817.38 2.22169 0.718568 0
M  V30 40147 C 3818.37 1.18532 1.22 0
M  V30 40148 O 3819.55 1.47044 1.26853 0
M  V30 40149 C 3816.68 2.88235 1.93748 0
M  V30 40150 C 3815.63 3.98129 1.57089 0
M  V30 40151 C 3814.96 4.51368 2.86655 0
M  V30 40152 C 3816.26 5.1645 0.779559 0
M  V30 40153 H 3817.95 2.98917 0.170012 0
M  V30 40154 H 3815.5 1.43776 0.0803315 0
M  V30 40155 H 3817.45 3.32951 2.58306 0
M  V30 40156 H 3816.18 2.08894 2.51059 0
M  V30 40157 H 3814.84 3.54107 0.948885 0
M  V30 40158 H 3814.48 3.68788 3.42059 0
M  V30 40159 H 3814.18 5.25521 2.62871 0
M  V30 40160 H 3815.71 4.98787 3.52198 0
M  V30 40161 H 3817.12 5.577 1.32828 0
M  V30 40162 H 3815.52 5.9668 0.639777 0
M  V30 40163 H 3816.59 4.84405 -0.219029 0
M  V30 40164 N 3817.93 -0.0768128 1.57413 0
M  V30 40165 C 3818.88 -1.09861 1.99787 0
M  V30 40166 C 3819.87 -1.3476 0.879128 0
M  V30 40167 O 3821.06 -1.35144 1.14302 0
M  V30 40168 C 3818.19 -2.41377 2.44115 0
M  V30 40169 C 3817.27 -2.19773 3.62713 0
M  V30 40170 N 3817.66 -1.68086 4.77054 0
M  V30 40171 C 3815.96 -2.50267 3.69165 0
M  V30 40172 C 3816.66 -1.6118 5.58924 0
M  V30 40173 N 3815.64 -2.07052 5.02624 0
M  V30 40174 H 3819.44 -0.692207 2.85632 0
M  V30 40175 H 3816.96 -0.283964 1.59898 0
M  V30 40176 H 3818.95 -3.15334 2.72709 0
M  V30 40177 H 3817.61 -2.82738 1.59654 0
M  V30 40178 H 3818.62 -1.37021 4.99445 0
M  V30 40179 H 3815.3 -2.95028 2.95406 0
M  V30 40180 H 3816.69 -1.22113 6.6071 0
M  V30 40181 N 3819.41 -1.53708 -0.348084 0
M  V30 40182 C 3820.64 -1.74668 -1.109 0
M  V30 40183 C 3821.05 -0.483715 -1.82498 0
M  V30 40184 O 3820.41 0.544388 -1.74191 0
M  V30 40185 C 3820.46 -2.92378 -2.12597 0
M  V30 40186 O 3820.18 -4.13789 -1.43911 0
M  V30 40187 C 3821.68 -3.25352 -3.01099 0
M  V30 40188 H 3818.9 -0.583734 -0.330901 0
M  V30 40189 H 3821.45 -2.00516 -0.401672 0
M  V30 40190 H 3819.6 -2.68874 -2.78901 0
M  V30 40191 H 3820.02 -4.7983 -2.1181 0
M  V30 40192 H 3821.49 -4.11078 -3.68401 0
M  V30 40193 H 3821.97 -2.41461 -3.6687 0
M  V30 40194 H 3822.57 -3.50847 -2.40389 0
M  V30 40195 N 3820.89 0.608851 -1.45364 0
M  V30 40196 C 3822.13 1.36992 -1.49536 0
M  V30 40197 C 3822.47 1.93722 -0.136121 0
M  V30 40198 O 3821.74 1.7498 0.849246 0
M  V30 40199 C 3822.03 2.51877 -2.57352 0
M  V30 40200 C 3821.88 2.00351 -4.02715 0
M  V30 40201 C 3823.2 3.54011 -2.61465 0
M  V30 40202 H 3820.32 0.496757 -0.544427 0
M  V30 40203 H 3822.96 0.686442 -1.77167 0
M  V30 40204 H 3821.11 3.10181 -2.33923 0
M  V30 40205 H 3822.78 1.46705 -4.3735 0
M  V30 40206 H 3821.02 1.31361 -4.13433 0
M  V30 40207 H 3821.69 2.83162 -4.73839 0
M  V30 40208 H 3824.17 3.05545 -2.82456 0
M  V30 40209 H 3823.05 4.31888 -3.38769 0
M  V30 40210 H 3823.31 4.09546 -1.66506 0
M  V30 40211 N 3822.37 1.32633 0.851242 0
M  V30 40212 C 3823.6 1.26214 1.63566 0
M  V30 40213 C 3824 -0.171545 1.88421 0
M  V30 40214 O 3823.35 -1.12018 1.45594 0
M  V30 40215 C 3823.41 1.95571 3.01649 0
M  V30 40216 C 3823.07 3.44901 2.99821 0
M  V30 40217 C 3824.07 4.40325 2.76423 0
M  V30 40218 C 3821.76 3.86888 3.20348 0
M  V30 40219 C 3823.75 5.7571 2.73562 0
M  V30 40220 C 3821.44 5.22381 3.17113 0
M  V30 40221 C 3822.43 6.16604 2.9375 0
M  V30 40222 O 3822.12 7.49617 2.90395 0
M  V30 40223 H 3821.85 0.436631 0.516071 0
M  V30 40224 H 3824.41 1.75367 1.06938 0
M  V30 40225 H 3822.64 1.40992 3.60081 0
M  V30 40226 H 3824.33 1.82815 3.624 0
M  V30 40227 H 3825.09 4.09212 2.60327 0
M  V30 40228 H 3820.97 3.13968 3.37558 0
M  V30 40229 H 3824.52 6.49227 2.55245 0
M  V30 40230 H 3820.41 5.53123 3.32754 0
M  V30 40231 H 3821.18 7.59017 3.06325 0
M  V30 40232 N 3823.84 -1.06794 1.159 0
M  V30 40233 C 3825.26 -1.3161 0.902833 0
M  V30 40234 C 3825.46 -1.96478 -0.447078 0
M  V30 40235 O 3824.52 -2.2282 -1.18774 0
M  V30 40236 C 3825.83 -2.2017 2.04807 0
M  V30 40237 C 3827.38 -2.33602 2.08325 0
M  V30 40238 C 3827.85 -3.25514 3.22188 0
M  V30 40239 N 3829.34 -3.33096 3.21872 0
M  V30 40240 C 3830.08 -4.04292 4.06615 0
M  V30 40241 N 3829.57 -4.78054 5.01434 0
M  V30 40242 N 3831.37 -4.0029 3.94619 0
M  V30 40243 H 3823.52 -0.630795 2.02817 0
M  V30 40244 H 3825.78 -0.34063 0.884689 0
M  V30 40245 H 3825.49 -1.79775 3.02281 0
M  V30 40246 H 3825.36 -3.20729 1.98527 0
M  V30 40247 H 3827.75 -2.73247 1.11446 0
M  V30 40248 H 3827.83 -1.32728 2.18671 0
M  V30 40249 H 3827.47 -2.86586 4.19322 0
M  V30 40250 H 3827.4 -4.26355 3.09078 0
M  V30 40251 H 3829.89 -2.80524 2.53208 0
M  V30 40252 H 3830.21 -5.29891 5.62526 0
M  V30 40253 H 3828.55 -4.77051 5.05418 0
M  V30 40254 H 3831.74 -3.41781 3.19849 0
M  V30 40255 H 3831.92 -4.5551 4.60885 0
M  V30 40256 N 3825.32 -0.956681 -1.25241 0
M  V30 40257 C 3826.25 -0.496614 -2.28158 0
M  V30 40258 C 3827.23 0.458103 -1.63815 0
M  V30 40259 O 3828.42 0.356614 -1.90898 0
M  V30 40260 C 3825.55 0.224479 -3.46574 0
M  V30 40261 C 3824.5 -0.645179 -4.23109 0
M  V30 40262 C 3823.83 0.206773 -5.343 0
M  V30 40263 C 3825.13 -1.92431 -4.85559 0
M  V30 40264 H 3826.82 -1.35679 -2.66892 0
M  V30 40265 H 3824.37 -0.65385 -1.283 0
M  V30 40266 H 3826.32 0.557476 -4.17696 0
M  V30 40267 H 3825.05 1.11892 -3.06835 0
M  V30 40268 H 3823.7 -0.96129 -3.53772 0
M  V30 40269 H 3823.35 1.10103 -4.90802 0
M  V30 40270 H 3823.05 -0.371817 -5.86422 0
M  V30 40271 H 3824.58 0.534691 -6.08254 0
M  V30 40272 H 3825.99 -1.65759 -5.48814 0
M  V30 40273 H 3824.39 -2.44872 -5.47866 0
M  V30 40274 H 3825.46 -2.62614 -4.0763 0
M  V30 40275 N 3826.8 1.39908 -0.725493 0
M  V30 40276 C 3828.03 2.0553 -0.277858 0
M  V30 40277 C 3828.45 1.54324 1.07544 0
M  V30 40278 O 3827.81 0.682858 1.67949 0
M  V30 40279 C 3827.86 3.59521 -0.278739 0
M  V30 40280 O 3826.96 4.05765 0.736793 0
M  V30 40281 H 3826.3 0.651496 -0.128254 0
M  V30 40282 H 3828.83 1.79122 -0.988752 0
M  V30 40283 H 3828.84 4.07824 -0.119836 0
M  V30 40284 H 3827.52 3.96155 -1.26627 0
M  V30 40285 H 3826.09 3.68899 0.544804 0
M  V30 40286 N 3828.28 0.472408 1.50353 0
M  V30 40287 C 3829.69 0.126641 1.59097 0
M  V30 40288 C 3829.89 -1.36695 1.48043 0
M  V30 40289 O 3828.95 -2.14035 1.33959 0
M  V30 40290 C 3830.26 0.678008 2.92957 0
M  V30 40291 C 3831.81 0.641553 3.06355 0
M  V30 40292 C 3832.29 1.17049 4.42791 0
M  V30 40293 N 3833.78 1.12996 4.49206 0
M  V30 40294 C 3834.51 1.50971 5.53168 0
M  V30 40295 N 3834.01 1.96402 6.64378 0
M  V30 40296 N 3835.8 1.42566 5.4372 0
M  V30 40297 H 3827.95 1.44381 1.55782 0
M  V30 40298 H 3830.22 0.597151 0.736284 0
M  V30 40299 H 3829.92 1.72438 3.06526 0
M  V30 40300 H 3829.8 0.122313 3.77002 0
M  V30 40301 H 3832.18 -0.395912 2.92432 0
M  V30 40302 H 3832.26 1.23407 2.24063 0
M  V30 40303 H 3831.91 2.20659 4.57462 0
M  V30 40304 H 3831.84 0.554178 5.23676 0
M  V30 40305 H 3834.33 0.796757 3.69405 0
M  V30 40306 H 3834.64 2.23524 7.39768 0
M  V30 40307 H 3832.99 2.00356 6.65494 0
M  V30 40308 H 3836.18 1.06913 4.55727 0
M  V30 40309 H 3836.35 1.72487 6.24622 0
M  V30 40310 N 3829.76 -1.5626 0.205067 0
M  V30 40311 C 3831.01 -1.97468 -0.430211 0
M  V30 40312 C 3831.33 -1.09345 -1.61458 0
M  V30 40313 O 3830.6 -0.166871 -1.95188 0
M  V30 40314 H 3829.18 -0.729237 -0.161932 0
M  V30 40315 H 3831.84 -1.92668 0.294123 0
M  V30 40316 H 3830.93 -3.02512 -0.767646 0
M  V30 40317 N 3831.24 0.0684638 -1.57451 0
M  V30 40318 C 3832.65 0.423327 -1.53883 0
M  V30 40319 C 3832.85 1.78976 -0.92573 0
M  V30 40320 O 3831.91 2.46882 -0.529673 0
M  V30 40321 C 3833.22 0.361333 -2.98521 0
M  V30 40322 C 3834.77 0.44128 -3.09874 0
M  V30 40323 C 3835.24 0.409158 -4.56169 0
M  V30 40324 N 3836.73 0.469135 -4.60818 0
M  V30 40325 C 3837.47 0.466548 -5.71499 0
M  V30 40326 N 3836.97 0.418578 -6.91534 0
M  V30 40327 N 3838.76 0.513353 -5.59751 0
M  V30 40328 H 3830.91 -0.826234 -1.95671 0
M  V30 40329 H 3833.17 -0.31037 -0.895754 0
M  V30 40330 H 3832.88 -0.576096 -3.4695 0
M  V30 40331 H 3832.75 1.17026 -3.58587 0
M  V30 40332 H 3835.14 1.36913 -2.61417 0
M  V30 40333 H 3835.22 -0.396281 -2.52712 0
M  V30 40334 H 3834.86 -0.51486 -5.05284 0
M  V30 40335 H 3834.79 1.2643 -5.11198 0
M  V30 40336 H 3837.29 0.510321 -3.74438 0
M  V30 40337 H 3837.6 0.420622 -7.71654 0
M  V30 40338 H 3835.94 0.385216 -6.93932 0
M  V30 40339 H 3839.13 0.548544 -4.64875 0
M  V30 40340 H 3839.31 0.507868 -6.46007 0
M  V30 40341 N 3832.71 1.5389 0.339928 0
M  V30 40342 C 3833.94 1.75566 1.10414 0
M  V30 40343 C 3834.36 0.495188 1.81465 0
M  V30 40344 O 3833.72 -0.552385 1.7268 0
M  V30 40345 C 3833.77 2.9382 2.09051 0
M  V30 40346 O 3832.87 2.64221 3.1664 0
M  V30 40347 H 3832.21 0.582269 0.319153 0
M  V30 40348 H 3834.74 2.00864 0.389215 0
M  V30 40349 H 3834.75 3.2071 2.52209 0
M  V30 40350 H 3833.43 3.85237 1.56734 0
M  V30 40351 H 3832.01 2.4823 2.78274 0
M  V30 40352 N 3834.19 -0.601133 1.45685 0
M  V30 40353 C 3835.12 -1.72203 1.57697 0
M  V30 40354 C 3836.1 -1.64623 0.42817 0
M  V30 40355 O 3837.29 -1.82923 0.652123 0
M  V30 40356 C 3834.42 -3.1082 1.54946 0
M  V30 40357 C 3833.37 -3.33217 2.68609 0
M  V30 40358 C 3832.7 -4.72172 2.50914 0
M  V30 40359 C 3834 -3.22841 4.10574 0
M  V30 40360 H 3835.69 -1.62407 2.51524 0
M  V30 40361 H 3833.24 -0.779908 1.21051 0
M  V30 40362 H 3835.19 -3.89039 1.61946 0
M  V30 40363 H 3833.91 -3.21471 0.576527 0
M  V30 40364 H 3832.57 -2.5739 2.61048 0
M  V30 40365 H 3832.22 -4.79565 1.51745 0
M  V30 40366 H 3831.92 -4.88112 3.27139 0
M  V30 40367 H 3833.45 -5.52583 2.59777 0
M  V30 40368 H 3834.86 -3.90927 4.19343 0
M  V30 40369 H 3833.26 -3.5031 4.8724 0
M  V30 40370 H 3834.33 -2.20185 4.32026 0
M  V30 40371 N 3835.67 -1.33083 -0.844196 0
M  V30 40372 C 3836.9 -1.27264 -1.6313 0
M  V30 40373 C 3837.31 0.157446 -1.88142 0
M  V30 40374 O 3836.67 1.0979 -1.45782 0
M  V30 40375 C 3836.72 -2.03972 -2.98459 0
M  V30 40376 O 3836.44 -3.41401 -2.74549 0
M  V30 40377 C 3837.94 -2.053 -3.92895 0
M  V30 40378 H 3835.16 -0.438656 -0.507761 0
M  V30 40379 H 3837.71 -1.75371 -1.05191 0
M  V30 40380 H 3835.86 -1.5956 -3.53015 0
M  V30 40381 H 3836.28 -3.80795 -3.60687 0
M  V30 40382 H 3837.75 -2.63436 -4.85083 0
M  V30 40383 H 3838.23 -1.0419 -4.26663 0
M  V30 40384 H 3838.83 -2.49707 -3.44277 0
M  V30 40385 N 3837.15 1.06178 -1.16464 0
M  V30 40386 C 3838.09 2.13682 -0.872277 0
M  V30 40387 C 3839.06 1.65124 0.179755 0
M  V30 40388 O 3840.25 1.90748 0.0447071 0
M  V30 40389 C 3837.39 3.42993 -0.380788 0
M  V30 40390 C 3836.5 4.05278 -1.49578 0
M  V30 40391 C 3835.64 5.22468 -0.959191 0
M  V30 40392 C 3834.68 5.7674 -2.05031 0
M  V30 40393 N 3833.81 6.85244 -1.52922 0
M  V30 40394 H 3838.65 2.3803 -1.79292 0
M  V30 40395 H 3836.19 1.16786 -0.8944 0
M  V30 40396 H 3838.15 4.17128 -0.0774549 0
M  V30 40397 H 3836.78 3.18858 0.50291 0
M  V30 40398 H 3835.83 3.28679 -1.91506 0
M  V30 40399 H 3837.14 4.41609 -2.31912 0
M  V30 40400 H 3836.3 6.03635 -0.609109 0
M  V30 40401 H 3835.04 4.87587 -0.105172 0
M  V30 40402 H 3834.04 4.9421 -2.40908 0
M  V30 40403 H 3835.27 6.13672 -2.90831 0
M  V30 40404 H 3833.21 6.52279 -0.697754 0
M  V30 40405 H 3833.13 7.20523 -2.28872 0
M  V30 40406 H 3834.4 7.70087 -1.20776 0
M  V30 40407 N 3838.63 0.96331 1.24732 0
M  V30 40408 C 3839.59 0.494864 2.23794 0
M  V30 40409 C 3840.59 -0.406198 1.55585 0
M  V30 40410 O 3841.78 -0.202272 1.73022 0
M  V30 40411 C 3838.91 -0.283904 3.39716 0
M  V30 40412 H 3840.1 1.37055 2.66751 0
M  V30 40413 H 3837.66 0.747452 1.37269 0
M  V30 40414 H 3838.39 -1.17688 3.02192 0
M  V30 40415 H 3838.18 0.362655 3.90419 0
M  V30 40416 H 3839.67 -0.600827 4.13255 0
M  V30 40417 N 3840.1 -1.39522 0.732902 0
M  V30 40418 C 3841.04 -2.29141 0.0519761 0
M  V30 40419 C 3842.05 -1.46711 -0.705661 0
M  V30 40420 O 3843.24 -1.6981 -0.550172 0
M  V30 40421 C 3840.34 -3.25294 -0.950634 0
M  V30 40422 C 3839.51 -4.36656 -0.254951 0
M  V30 40423 C 3838.57 -5.13133 -1.16537 0
M  V30 40424 O 3837.6 -5.65549 -0.643643 0
M  V30 40425 N 3838.8 -5.24135 -2.49525 0
M  V30 40426 H 3841.56 -2.8822 0.821551 0
M  V30 40427 H 3839.12 -1.51079 0.581951 0
M  V30 40428 H 3841.12 -3.73331 -1.56225 0
M  V30 40429 H 3839.69 -2.67261 -1.62143 0
M  V30 40430 H 3838.91 -3.90524 0.537113 0
M  V30 40431 H 3840.19 -5.08292 0.227252 0
M  V30 40432 H 3839.59 -4.83064 -2.94391 0
M  V30 40433 H 3838.15 -5.75619 -3.05788 0
M  V30 40434 N 3841.58 -0.480375 -1.501 0
M  V30 40435 C 3843 -0.135076 -1.59027 0
M  V30 40436 C 3843.2 1.35908 -1.48765 0
M  V30 40437 O 3842.25 2.13322 -1.35093 0
M  V30 40438 C 3843.57 -0.693535 -2.92593 0
M  V30 40439 C 3845.11 -0.657791 -3.0601 0
M  V30 40440 C 3845.59 -1.19395 -4.42164 0
M  V30 40441 N 3847.08 -1.15376 -4.48601 0
M  V30 40442 C 3847.82 -1.53903 -5.5236 0
M  V30 40443 N 3847.31 -1.99923 -6.63327 0
M  V30 40444 N 3849.1 -1.45447 -5.42956 0
M  V30 40445 H 3841.26 -1.45205 -1.55014 0
M  V30 40446 H 3843.52 -0.601047 -0.733107 0
M  V30 40447 H 3843.22 -1.74061 -3.05607 0
M  V30 40448 H 3843.1 -0.142304 -3.76931 0
M  V30 40449 H 3845.49 0.380398 -2.92638 0
M  V30 40450 H 3845.57 -1.24593 -2.23406 0
M  V30 40451 H 3845.21 -2.23082 -4.56286 0
M  V30 40452 H 3845.14 -0.581942 -5.23375 0
M  V30 40453 H 3847.63 -0.816336 -3.68977 0
M  V30 40454 H 3847.94 -2.27444 -7.38572 0
M  V30 40455 H 3846.29 -2.03882 -6.64422 0
M  V30 40456 H 3849.48 -1.09329 -4.55154 0
M  V30 40457 H 3849.65 -1.75797 -6.23698 0
M  V30 40458 N 3843.06 1.56149 -0.213351 0
M  V30 40459 C 3844.34 1.89891 0.469141 0
M  V30 40460 C 3844.72 1.12953 1.78339 0
M  V30 40461 O 3844.06 0.236276 2.27275 0
M  V30 40462 C 3844.27 3.42506 0.670109 0
M  V30 40463 C 3845.62 4.13106 0.981251 0
M  V30 40464 O 3846.65 3.48059 0.757188 0
M  V30 40465 O 3845.51 5.28103 1.40604 0
M  V30 40466 H 3842.6 0.789275 0.246929 0
M  V30 40467 H 3845.15 1.67774 -0.254925 0
M  V30 40468 H 3843.92 3.90453 -0.257258 0
M  V30 40469 H 3843.54 3.70375 1.44597 0
M  V30 40470 N 3844.54 -0.0601128 1.57485 0
M  V30 40471 C 3845.78 -0.758159 1.88095 0
M  V30 40472 C 3846.12 -1.76631 0.807169 0
M  V30 40473 O 3845.39 -1.93653 -0.181313 0
M  V30 40474 C 3845.68 -1.45568 3.29366 0
M  V30 40475 C 3845.53 -0.463155 4.47409 0
M  V30 40476 C 3846.85 -2.39767 3.69053 0
M  V30 40477 H 3843.97 -0.274157 0.68411 0
M  V30 40478 H 3846.61 -0.0211882 1.89988 0
M  V30 40479 H 3844.76 -2.08387 3.27883 0
M  V30 40480 H 3846.43 0.160722 4.6102 0
M  V30 40481 H 3844.67 0.220484 4.33239 0
M  V30 40482 H 3845.34 -0.989068 5.43067 0
M  V30 40483 H 3847.82 -1.87017 3.71704 0
M  V30 40484 H 3846.7 -2.85569 4.68766 0
M  V30 40485 H 3846.96 -3.25089 2.99616 0
M  V30 40486 N 3846.02 -1.54068 -0.331762 0
M  V30 40487 C 3847.27 -1.71095 -1.06815 0
M  V30 40488 C 3847.58 -0.487145 -1.89437 0
M  V30 40489 O 3848.78 -0.538591 -2.66104 0
M  V30 40490 C 3847.24 -3.02593 -1.94848 0
M  V30 40491 C 3846.85 -4.3235 -1.17377 0
M  V30 40492 C 3848.59 -3.28984 -2.68272 0
M  V30 40493 C 3846.5 -5.54915 -2.04509 0
M  V30 40494 H 3845.43 -0.637587 -0.40249 0
M  V30 40495 H 3848.08 -1.80565 -0.326886 0
M  V30 40496 H 3846.46 -2.87009 -2.7284 0
M  V30 40497 H 3847.64 -4.58674 -0.442127 0
M  V30 40498 H 3845.95 -4.12662 -0.556702 0
M  V30 40499 H 3848.55 -4.17746 -3.33755 0
M  V30 40500 H 3848.89 -2.46504 -3.35472 0
M  V30 40501 H 3849.42 -3.45397 -1.97347 0
M  V30 40502 H 3846.16 -6.39972 -1.41831 0
M  V30 40503 H 3845.68 -5.32822 -2.75429 0
M  V30 40504 H 3847.36 -5.91007 -2.63287 0
M  V30 40505 N 3847.49 0.593399 -1.46002 0
M  V30 40506 C 3848.4 1.73125 -1.58319 0
M  V30 40507 C 3849.42 1.67614 -0.467059 0
M  V30 40508 O 3850.6 1.87716 -0.729715 0
M  V30 40509 C 3847.66 3.09614 -1.56012 0
M  V30 40510 C 3846.72 3.26471 -2.78775 0
M  V30 40511 C 3845.96 4.56449 -2.76569 0
M  V30 40512 O 3846.18 5.39667 -1.84703 0
M  V30 40513 O 3845.11 4.76323 -3.67968 0
M  V30 40514 H 3848.94 1.65682 -2.54525 0
M  V30 40515 H 3846.52 0.759181 -1.28673 0
M  V30 40516 H 3848.41 3.90907 -1.57384 0
M  V30 40517 H 3847.08 3.17518 -0.629626 0
M  V30 40518 H 3845.99 2.44712 -2.82961 0
M  V30 40519 H 3847.32 3.23452 -3.70998 0
M  V30 40520 N 3848.97 1.33529 0.837127 0
M  V30 40521 C 3850.25 1.15681 1.57725 0
M  V30 40522 C 3850.63 -0.276141 2.09286 0
M  V30 40523 O 3849.98 -1.27543 1.89592 0
M  V30 40524 C 3850.19 2.19941 2.70974 0
M  V30 40525 C 3851.54 2.54186 3.40109 0
M  V30 40526 O 3852.56 2.18621 2.81217 0
M  V30 40527 O 3851.42 3.15225 4.46426 0
M  V30 40528 H 3848.51 0.447538 0.695442 0
M  V30 40529 H 3851.06 1.45117 0.879731 0
M  V30 40530 H 3849.83 3.16185 2.30527 0
M  V30 40531 H 3849.45 1.91601 3.48389 0
M  V30 40532 N 3850.45 -1.05559 1.17026 0
M  V30 40533 C 3851.69 -1.80072 0.967131 0
M  V30 40534 C 3852.05 -1.85491 -0.495691 0
M  V30 40535 O 3853.26 -2.56058 -0.817771 0
M  V30 40536 C 3851.53 -3.2027 1.58625 0
M  V30 40537 S 3853.09 -4.11306 1.5288 0
M  V30 40538 H 3849.9 -0.620219 0.347634 0
M  V30 40539 H 3852.51 -1.2668 1.48904 0
M  V30 40540 H 3851.21 -3.13926 2.64346 0
M  V30 40541 H 3850.74 -3.78739 1.06399 0
M  V30 40542 H 3852.76 -4.93316 0.534212 0
M  V30 40543 N 3851.93 -0.969911 -1.2422 0
M  V30 40544 C 3852.86 -0.520785 -2.27618 0
M  V30 40545 C 3853.84 0.440702 -1.64292 0
M  V30 40546 O 3855.02 0.336347 -1.91265 0
M  V30 40547 C 3852.15 0.187707 -3.46792 0
M  V30 40548 C 3851.11 -0.690019 -4.22401 0
M  V30 40549 C 3850.43 0.150092 -5.34489 0
M  V30 40550 C 3851.73 -1.9757 -4.83491 0
M  V30 40551 H 3853.43 -1.38503 -2.65438 0
M  V30 40552 H 3850.97 -0.667421 -1.27599 0
M  V30 40553 H 3852.93 0.513143 -4.18264 0
M  V30 40554 H 3851.65 1.08632 -3.08004 0
M  V30 40555 H 3850.31 -0.998758 -3.52733 0
M  V30 40556 H 3849.96 1.04892 -4.91942 0
M  V30 40557 H 3849.66 -0.433994 -5.85995 0
M  V30 40558 H 3851.18 0.470148 -6.08787 0
M  V30 40559 H 3852.6 -1.71571 -5.47025 0
M  V30 40560 H 3850.99 -2.50669 -5.45238 0
M  V30 40561 H 3852.06 -2.66922 -4.04821 0
M  V30 40562 N 3853.41 1.39131 -0.740291 0
M  V30 40563 C 3854.34 2.2814 -0.0524412 0
M  V30 40564 C 3855.32 1.44672 0.742211 0
M  V30 40565 O 3856.5 1.74056 0.723654 0
M  V30 40566 C 3853.63 3.25601 0.932818 0
M  V30 40567 C 3852.67 4.25901 0.226014 0
M  V30 40568 S 3853.51 5.24828 -1.06378 0
M  V30 40569 C 3854.66 6.25847 -0.0812545 0
M  V30 40570 H 3854.9 2.8613 -0.807259 0
M  V30 40571 H 3852.43 1.44934 -0.532308 0
M  V30 40572 H 3854.39 3.82271 1.49597 0
M  V30 40573 H 3853.05 2.66619 1.66051 0
M  V30 40574 H 3852.24 4.94544 0.971725 0
M  V30 40575 H 3851.84 3.73058 -0.265251 0
M  V30 40576 H 3854.14 6.73254 0.757333 0
M  V30 40577 H 3855.08 7.04275 -0.734973 0
M  V30 40578 H 3855.49 5.63736 0.293507 0
M  V30 40579 N 3854.88 0.488329 1.49844 0
M  V30 40580 C 3856.11 -0.0600573 2.07313 0
M  V30 40581 C 3856.53 -1.31208 1.34782 0
M  V30 40582 O 3855.89 -1.76817 0.400665 0
M  V30 40583 C 3855.94 -0.309595 3.59269 0
M  V30 40584 O 3855.04 -1.38681 3.88383 0
M  V30 40585 H 3854.39 0.0206064 0.66368 0
M  V30 40586 H 3856.92 0.684318 1.92817 0
M  V30 40587 H 3856.93 -0.544929 4.04345 0
M  V30 40588 H 3855.6 0.605218 4.11473 0
M  V30 40589 H 3854.18 -1.13743 3.5513 0
M  V30 40590 N 3856.36 -1.56034 0.221629 0
M  V30 40591 C 3857.29 -2.23284 -0.683132 0
M  V30 40592 C 3858.27 -1.20458 -1.20099 0
M  V30 40593 O 3859.46 -1.49043 -1.24498 0
M  V30 40594 C 3856.59 -2.9128 -1.89137 0
M  V30 40595 C 3855.54 -4.00578 -1.50735 0
M  V30 40596 C 3854.87 -4.55871 -2.79438 0
M  V30 40597 C 3856.17 -5.17624 -0.697297 0
M  V30 40598 H 3857.86 -2.9915 -0.122435 0
M  V30 40599 H 3855.41 -1.43885 -0.0574479 0
M  V30 40600 H 3857.36 -3.37018 -2.52976 0
M  V30 40601 H 3856.09 -2.12862 -2.47704 0
M  V30 40602 H 3854.74 -3.55572 -0.89243 0
M  V30 40603 H 3854.39 -3.74183 -3.36149 0
M  V30 40604 H 3854.09 -5.29637 -2.54477 0
M  V30 40605 H 3855.62 -5.04327 -3.44219 0
M  V30 40606 H 3857.03 -5.59743 -1.23939 0
M  V30 40607 H 3855.43 -5.97622 -0.54477 0
M  V30 40608 H 3856.5 -4.83995 0.296066 0
M  V30 40609 N 3857.84 0.0517601 -1.57515 0
M  V30 40610 C 3859.08 0.752176 -1.90057 0
M  V30 40611 C 3859.44 1.73717 -0.817713 0
M  V30 40612 O 3860.65 2.48416 -1.02679 0
M  V30 40613 C 3858.92 1.42413 -3.27801 0
M  V30 40614 S 3860.48 2.15684 -3.82133 0
M  V30 40615 H 3857.29 0.249701 -0.665711 0
M  V30 40616 H 3859.9 0.00752404 -1.95499 0
M  V30 40617 H 3858.6 0.693712 -4.04494 0
M  V30 40618 H 3858.13 2.20781 -3.25606 0
M  V30 40619 H 3860.15 3.42507 -3.59031 0
M  V30 40620 N 3859.32 1.54242 0.323587 0
M  V30 40621 C 3860.74 1.44951 0.667925 0
M  V30 40622 C 3860.94 0.622372 1.91648 0
M  V30 40623 O 3859.99 0.121164 2.52209 0
M  V30 40624 C 3861.3 2.88672 0.841955 0
M  V30 40625 C 3862.85 2.98574 0.939298 0
M  V30 40626 C 3863.33 4.43444 1.1455 0
M  V30 40627 N 3864.82 4.47056 1.21224 0
M  V30 40628 C 3865.55 5.56306 1.38966 0
M  V30 40629 N 3865.05 6.75524 1.53752 0
M  V30 40630 N 3866.84 5.43953 1.41674 0
M  V30 40631 H 3858.99 2.06502 -0.497053 0
M  V30 40632 H 3861.26 0.934301 -0.160579 0
M  V30 40633 H 3860.96 3.517 -0.0042475 0
M  V30 40634 H 3860.84 3.34785 1.73779 0
M  V30 40635 H 3863.22 2.35674 1.776 0
M  V30 40636 H 3863.3 2.55792 0.0199325 0
M  V30 40637 H 3862.95 5.06931 0.313643 0
M  V30 40638 H 3862.88 4.83835 2.07874 0
M  V30 40639 H 3865.37 3.61156 1.11241 0
M  V30 40640 H 3865.68 7.54544 1.66982 0
M  V30 40641 H 3864.03 6.78431 1.5085 0
M  V30 40642 H 3867.22 4.49767 1.29718 0
M  V30 40643 H 3867.39 6.2915 1.55159 0
M  V30 40644 N 3860.8 -0.585648 1.46314 0
M  V30 40645 C 3862.03 -1.36808 1.54813 0
M  V30 40646 C 3862.44 -1.88272 0.187116 0
M  V30 40647 O 3861.78 -1.64118 -0.825295 0
M  V30 40648 C 3861.84 -2.59322 2.48983 0
M  V30 40649 C 3861.5 -2.29345 3.95284 0
M  V30 40650 C 3862.5 -1.88361 4.84578 0
M  V30 40651 C 3860.19 -2.4158 4.40391 0
M  V30 40652 C 3862.18 -1.60001 6.16991 0
M  V30 40653 C 3859.87 -2.12834 5.72839 0
M  V30 40654 C 3860.87 -1.72109 6.60959 0
M  V30 40655 O 3860.55 -1.43713 7.9095 0
M  V30 40656 H 3860.29 -0.424399 0.526176 0
M  V30 40657 H 3862.84 -0.719217 1.92397 0
M  V30 40658 H 3861.07 -3.27003 2.06411 0
M  V30 40659 H 3862.76 -3.21388 2.4792 0
M  V30 40660 H 3863.52 -1.78425 4.50987 0
M  V30 40661 H 3859.4 -2.72242 3.72029 0
M  V30 40662 H 3862.95 -1.2814 6.8573 0
M  V30 40663 H 3858.84 -2.22393 6.0598 0
M  V30 40664 H 3859.61 -1.57583 8.03187 0
M  V30 40665 N 3862.28 -1.33971 -0.830033 0
M  V30 40666 C 3863.52 -1.25271 -1.58082 0
M  V30 40667 C 3863.84 0.177523 -1.94793 0
M  V30 40668 O 3865.04 0.38661 -2.68733 0
M  V30 40669 C 3863.5 -2.19555 -2.85173 0
M  V30 40670 C 3863.11 -3.67797 -2.55792 0
M  V30 40671 C 3864.85 -2.19748 -3.63196 0
M  V30 40672 C 3862.76 -4.53969 -3.79033 0
M  V30 40673 H 3861.69 -0.465332 -0.593281 0
M  V30 40674 H 3864.34 -1.59091 -0.914449 0
M  V30 40675 H 3862.72 -1.78678 -3.53398 0
M  V30 40676 H 3863.9 -4.17168 -1.95722 0
M  V30 40677 H 3862.21 -3.69981 -1.91057 0
M  V30 40678 H 3864.81 -2.81355 -4.5469 0
M  V30 40679 H 3865.15 -1.19487 -3.98784 0
M  V30 40680 H 3865.68 -2.59033 -3.01905 0
M  V30 40681 H 3862.42 -5.55139 -3.4857 0
M  V30 40682 H 3861.94 -4.09337 -4.3841 0
M  V30 40683 H 3863.62 -4.6822 -4.46519 0
M  V30 40684 N 3863.75 1.04937 -1.17584 0
M  V30 40685 C 3865.17 1.30157 -0.923656 0
M  V30 40686 C 3865.37 1.97164 0.415763 0
M  V30 40687 O 3864.43 2.24682 1.15214 0
M  V30 40688 C 3865.74 2.16884 -2.08283 0
M  V30 40689 C 3867.29 2.30258 -2.12015 0
M  V30 40690 C 3867.76 3.20347 -3.27326 0
M  V30 40691 N 3869.25 3.27933 -3.2713 0
M  V30 40692 C 3869.99 3.97772 -4.12995 0
M  V30 40693 N 3869.48 4.70016 -5.08976 0
M  V30 40694 N 3871.28 3.93962 -4.00937 0
M  V30 40695 H 3863.43 0.598449 -2.03795 0
M  V30 40696 H 3865.69 0.326512 -0.889996 0
M  V30 40697 H 3865.4 1.74943 -3.05103 0
M  V30 40698 H 3865.27 3.1753 -2.03604 0
M  V30 40699 H 3867.66 2.71439 -1.15779 0
M  V30 40700 H 3867.74 1.29232 -2.20755 0
M  V30 40701 H 3867.38 2.79879 -4.23828 0
M  V30 40702 H 3867.31 4.21384 -3.15822 0
M  V30 40703 H 3869.8 2.76461 -2.57639 0
M  V30 40704 H 3870.12 5.20875 -5.70885 0
M  V30 40705 H 3868.46 4.6895 -5.12943 0
M  V30 40706 H 3871.65 3.36649 -3.25246 0
M  V30 40707 H 3871.83 4.4812 -4.68073 0
M  V30 40708 N 3865.23 0.976485 1.23703 0
M  V30 40709 C 3866.64 0.680754 1.73847 0
M  V30 40710 C 3866.99 -0.803197 1.79006 0
M  V30 40711 O 3866.12 -1.6283 1.42532 0
M  V30 40712 C 3866.71 1.22904 3.15722 0
M  V30 40713 C 3865.27 0.983027 3.63337 0
M  V30 40714 C 3864.42 1.35911 2.4171 0
M  V30 40715 H 3867.37 1.15079 1.09282 0
M  V30 40716 H 3867.39 0.599554 3.75747 0
M  V30 40717 H 3866.9 2.30908 3.11934 0
M  V30 40718 H 3865 -0.0811111 3.72512 0
M  V30 40719 H 3865.12 1.63485 4.50344 0
M  V30 40720 H 3863.48 0.777541 2.42542 0
M  V30 40721 H 3864.26 2.44884 2.40597 0
M  V30 40722 N 3866.71 -1.38737 0.747659 0
M  V30 40723 C 3867.93 -2.05062 0.31052 0
M  V30 40724 C 3868.36 -1.56015 -1.05075 0
M  V30 40725 O 3867.72 -0.709491 -1.66841 0
M  V30 40726 C 3867.77 -3.59032 0.3359 0
M  V30 40727 O 3866.87 -4.06886 -0.672146 0
M  V30 40728 H 3866.21 -0.649373 0.138603 0
M  V30 40729 H 3868.74 -1.77527 1.01712 0
M  V30 40730 H 3868.75 -4.07582 0.184702 0
M  V30 40731 H 3867.43 -3.9409 1.32913 0
M  V30 40732 H 3866 -3.69719 -0.486047 0
M  V30 40733 N 3868.19 -0.496268 -1.49583 0
M  V30 40734 C 3869.12 0.331217 -2.25784 0
M  V30 40735 C 3870.1 0.974503 -1.30162 0
M  V30 40736 O 3871.28 1.00553 -1.59441 0
M  V30 40737 C 3868.41 1.46608 -3.05326 0
M  V30 40738 C 3867.46 0.937649 -4.16065 0
M  V30 40739 S 3868.29 -0.167809 -5.35237 0
M  V30 40740 C 3869.44 0.970334 -6.18333 0
M  V30 40741 H 3869.68 -0.315559 -2.95621 0
M  V30 40742 H 3867.21 -0.281497 -1.51812 0
M  V30 40743 H 3869.17 2.11636 -3.51739 0
M  V30 40744 H 3867.83 2.08445 -2.34967 0
M  V30 40745 H 3867.02 1.78799 -4.71218 0
M  V30 40746 H 3866.62 0.364661 -3.72218 0
M  V30 40747 H 3868.92 1.87659 -6.50992 0
M  V30 40748 H 3869.86 0.457524 -7.0662 0
M  V30 40749 H 3870.27 1.23553 -5.50813 0
M  V30 40750 N 3869.67 1.55914 -0.2299 0
M  V30 40751 C 3870.6 2.23643 0.671281 0
M  V30 40752 C 3871.58 1.21094 1.19459 0
M  V30 40753 O 3872.76 1.49702 1.23706 0
M  V30 40754 C 3869.89 2.92279 1.8759 0
M  V30 40755 C 3868.85 4.01372 1.48609 0
M  V30 40756 C 3868.17 4.57347 2.77016 0
M  V30 40757 C 3869.47 5.17987 0.669837 0
M  V30 40758 H 3871.17 2.9921 0.106569 0
M  V30 40759 H 3868.71 1.43914 0.0498165 0
M  V30 40760 H 3870.66 3.38355 2.51185 0
M  V30 40761 H 3869.39 2.14173 2.46572 0
M  V30 40762 H 3868.05 3.5604 0.87356 0
M  V30 40763 H 3867.7 3.7596 3.3416 0
M  V30 40764 H 3867.4 5.30979 2.51664 0
M  V30 40765 H 3868.92 5.06146 3.41539 0
M  V30 40766 H 3870.33 5.60392 1.20968 0
M  V30 40767 H 3868.73 5.97903 0.513069 0
M  V30 40768 H 3869.8 4.83831 -0.321729 0
M  V30 40769 N 3871.14 -0.043406 1.5754 0
M  V30 40770 C 3872.08 -1.07573 2.02387 0
M  V30 40771 C 3873.09 -1.33322 0.934297 0
M  V30 40772 O 3874.28 -1.31062 1.21182 0
M  V30 40773 C 3871.38 -2.42058 2.37195 0
M  V30 40774 C 3870.55 -2.35868 3.68355 0
M  V30 40775 C 3869.61 -3.52685 3.90512 0
M  V30 40776 O 3868.64 -3.32827 4.61752 0
M  V30 40777 N 3869.84 -4.74053 3.35043 0
M  V30 40778 H 3872.6 -0.69359 2.91564 0
M  V30 40779 H 3870.16 -0.231603 1.60235 0
M  V30 40780 H 3872.16 -3.18902 2.49166 0
M  V30 40781 H 3870.73 -2.72169 1.53763 0
M  V30 40782 H 3869.95 -1.44218 3.66872 0
M  V30 40783 H 3871.23 -2.2886 4.54423 0
M  V30 40784 H 3870.63 -4.93089 2.77272 0
M  V30 40785 H 3869.19 -5.48311 3.52418 0
M  V30 40786 N 3872.62 -1.54412 -0.315402 0
M  V30 40787 C 3873.57 -1.80747 -1.38977 0
M  V30 40788 C 3874.56 -0.663875 -1.46566 0
M  V30 40789 O 3875.75 -0.924111 -1.50961 0
M  V30 40790 C 3872.88 -2.04551 -2.75706 0
M  V30 40791 C 3871.96 -3.25055 -2.72397 0
M  V30 40792 N 3872.35 -4.45929 -2.38707 0
M  V30 40793 C 3870.65 -3.26792 -3.03517 0
M  V30 40794 C 3871.35 -5.27896 -2.44337 0
M  V30 40795 N 3870.33 -4.65272 -2.81109 0
M  V30 40796 H 3874.13 -2.71776 -1.1187 0
M  V30 40797 H 3871.64 -1.53717 -0.523924 0
M  V30 40798 H 3873.64 -2.2156 -3.53153 0
M  V30 40799 H 3872.3 -1.14781 -3.03736 0
M  V30 40800 H 3873.31 -4.72785 -2.1141 0
M  V30 40801 H 3869.99 -2.47082 -3.36536 0
M  V30 40802 H 3871.38 -6.34441 -2.2121 0
M  V30 40803 N 3874.1 0.57788 -1.46623 0
M  V30 40804 C 3875.03 1.69673 -1.60416 0
M  V30 40805 C 3876.01 1.63921 -0.454306 0
M  V30 40806 O 3877.2 1.81863 -0.681142 0
M  V30 40807 C 3874.33 3.08315 -1.59872 0
M  V30 40808 C 3873.28 3.28901 -2.73876 0
M  V30 40809 C 3872.61 4.6812 -2.58394 0
M  V30 40810 C 3873.91 3.16269 -4.15658 0
M  V30 40811 H 3875.6 1.58385 -2.54076 0
M  V30 40812 H 3873.15 0.760551 -1.22277 0
M  V30 40813 H 3875.1 3.86414 -1.68114 0
M  V30 40814 H 3873.82 3.20513 -0.627598 0
M  V30 40815 H 3872.48 2.53204 -2.6511 0
M  V30 40816 H 3872.13 4.7709 -1.59355 0
M  V30 40817 H 3871.83 4.82846 -3.34863 0
M  V30 40818 H 3873.35 5.48381 -2.68535 0
M  V30 40819 H 3874.77 3.84206 -4.2551 0
M  V30 40820 H 3873.17 3.42514 -4.92752 0
M  V30 40821 H 3874.24 2.13284 -4.35475 0
M  V30 40822 N 3875.58 1.34409 0.822917 0
M  V30 40823 C 3876.51 1.28631 1.94875 0
M  V30 40824 C 3877.49 0.163756 1.6931 0
M  V30 40825 O 3878.67 0.356117 1.90907 0
M  V30 40826 C 3875.8 1.041 3.31331 0
M  V30 40827 C 3874.76 2.12821 3.71337 0
M  V30 40828 C 3874.08 1.73478 5.05776 0
M  V30 40829 C 3875.38 3.54649 3.83433 0
M  V30 40830 H 3877.08 2.2283 1.99968 0
M  V30 40831 H 3874.62 1.07269 0.960696 0
M  V30 40832 H 3876.58 0.987019 4.09678 0
M  V30 40833 H 3875.3 0.0634216 3.26538 0
M  V30 40834 H 3873.96 2.17288 2.95265 0
M  V30 40835 H 3873.61 0.743814 4.9747 0
M  V30 40836 H 3873.31 2.46245 5.33514 0
M  V30 40837 H 3874.83 1.69576 5.8658 0
M  V30 40838 H 3876.25 3.52595 4.52051 0
M  V30 40839 H 3874.64 4.26038 4.22625 0
M  V30 40840 H 3875.71 3.91991 2.85432 0
M  V30 40841 N 3877.06 -1.04312 1.18139 0
M  V30 40842 C 3878.47 -1.29665 0.930546 0
M  V30 40843 C 3878.67 -1.97382 -0.405301 0
M  V30 40844 O 3877.73 -2.2529 -1.14021 0
M  V30 40845 C 3879.04 -2.15776 2.09431 0
M  V30 40846 C 3880.59 -2.2913 2.13233 0
M  V30 40847 C 3881.06 -3.18606 3.2902 0
M  V30 40848 N 3882.56 -3.26193 3.28865 0
M  V30 40849 C 3883.29 -3.95576 4.15099 0
M  V30 40850 N 3882.79 -4.6731 5.11461 0
M  V30 40851 N 3884.58 -3.9183 4.03021 0
M  V30 40852 H 3876.73 -0.587633 2.04109 0
M  V30 40853 H 3878.99 -0.321788 0.891716 0
M  V30 40854 H 3878.7 -1.73322 3.06026 0
M  V30 40855 H 3878.57 -3.16446 2.05285 0
M  V30 40856 H 3880.96 -2.70821 1.17217 0
M  V30 40857 H 3881.04 -1.2806 2.21437 0
M  V30 40858 H 3880.69 -2.77627 4.25306 0
M  V30 40859 H 3880.62 -4.19703 3.18052 0
M  V30 40860 H 3883.11 -2.7509 2.59102 0
M  V30 40861 H 3883.42 -5.1784 5.73639 0
M  V30 40862 H 3881.76 -4.66223 5.15423 0
M  V30 40863 H 3884.96 -3.34919 3.27027 0
M  V30 40864 H 3885.13 -4.45631 4.70443 0
M  V30 40865 N 3878.53 -0.983032 -1.23184 0
M  V30 40866 C 3879.95 -0.692095 -1.43813 0
M  V30 40867 C 3880.15 0.74079 -1.87389 0
M  V30 40868 O 3879.21 1.51291 -2.02156 0
M  V30 40869 C 3880.52 -1.68926 -2.48766 0
M  V30 40870 C 3882.07 -1.7036 -2.62576 0
M  V30 40871 C 3882.54 -2.68914 -3.70741 0
M  V30 40872 N 3884.03 -2.67449 -3.78187 0
M  V30 40873 C 3884.77 -3.40374 -4.61447 0
M  V30 40874 N 3884.26 -4.22867 -5.48776 0
M  V30 40875 N 3886.06 -3.29126 -4.55667 0
M  V30 40876 H 3878.21 -1.90859 -0.932013 0
M  V30 40877 H 3880.47 -0.822568 -0.471259 0
M  V30 40878 H 3880.18 -2.71412 -2.2367 0
M  V30 40879 H 3880.05 -1.47421 -3.47199 0
M  V30 40880 H 3882.44 -0.685778 -2.87021 0
M  V30 40881 H 3882.52 -1.95932 -1.64451 0
M  V30 40882 H 3882.16 -3.7084 -3.47045 0
M  V30 40883 H 3882.09 -2.40616 -4.68414 0
M  V30 40884 H 3884.58 -2.07582 -3.15781 0
M  V30 40885 H 3884.9 -4.75361 -6.09304 0
M  V30 40886 H 3883.24 -4.26957 -5.48391 0
M  V30 40887 H 3886.43 -2.64129 -3.86463 0
M  V30 40888 H 3886.61 -3.8622 -5.20325 0
M  V30 40889 N 3880.01 1.38338 -0.755006 0
M  V30 40890 C 3880.94 2.33057 -0.143719 0
M  V30 40891 C 3881.92 1.54939 0.701995 0
M  V30 40892 O 3883.11 1.8325 0.64289 0
M  V30 40893 C 3880.24 3.39124 0.749134 0
M  V30 40894 C 3879.19 4.28 0.00603936 0
M  V30 40895 C 3878.52 5.24935 1.01724 0
M  V30 40896 C 3879.82 5.09183 -1.16319 0
M  V30 40897 H 3881.51 2.84427 -0.934957 0
M  V30 40898 H 3879.06 1.36754 -0.451047 0
M  V30 40899 H 3881.01 4.04353 1.18646 0
M  V30 40900 H 3879.74 2.8624 1.57271 0
M  V30 40901 H 3878.39 3.64279 -0.41188 0
M  V30 40902 H 3878.04 4.68337 1.83491 0
M  V30 40903 H 3877.74 5.85253 0.52468 0
M  V30 40904 H 3879.27 5.93039 1.45385 0
M  V30 40905 H 3880.68 5.67644 -0.803344 0
M  V30 40906 H 3879.08 5.78743 -1.58671 0
M  V30 40907 H 3880.15 4.42838 -1.97541 0
M  V30 40908 N 3881.49 0.504194 1.49317 0
M  V30 40909 C 3882.74 -0.039249 2.02762 0
M  V30 40910 C 3883.07 -1.3635 1.38284 0
M  V30 40911 O 3882.34 -1.87431 0.51962 0
M  V30 40912 C 3882.63 -0.188443 3.59607 0
M  V30 40913 C 3882.48 1.15915 4.34608 0
M  V30 40914 C 3883.8 -0.927565 4.30214 0
M  V30 40915 H 3880.92 -0.0127898 0.736889 0
M  V30 40916 H 3883.56 0.656225 1.78308 0
M  V30 40917 H 3881.71 -0.780794 3.80573 0
M  V30 40918 H 3883.38 1.79063 4.25128 0
M  V30 40919 H 3881.63 1.74763 3.97039 0
M  V30 40920 H 3882.3 1.00803 5.42718 0
M  V30 40921 H 3884.77 -0.425155 4.13922 0
M  V30 40922 H 3883.65 -1.0008 5.39699 0
M  V30 40923 H 3883.91 -1.97202 3.95682 0
M  V30 40924 N 3882.97 -1.5579 0.238166 0
M  V30 40925 C 3884.22 -1.98729 -0.388996 0
M  V30 40926 C 3884.54 -1.12615 -1.58582 0
M  V30 40927 O 3883.8 -0.174914 -1.94917 0
M  V30 40928 C 3884.1 -3.47131 -0.850585 0
M  V30 40929 C 3883.76 -4.50274 0.237521 0
M  V30 40930 C 3882.43 -4.78201 0.536391 0
M  V30 40931 C 3884.78 -5.12045 0.972566 0
M  V30 40932 C 3882.11 -5.65177 1.57453 0
M  V30 40933 C 3884.46 -6.00147 2.00016 0
M  V30 40934 C 3883.12 -6.26411 2.30577 0
M  V30 40935 H 3882.39 -0.7272 -0.142344 0
M  V30 40936 H 3885.04 -1.88382 0.344163 0
M  V30 40937 H 3883.34 -3.54765 -1.6628 0
M  V30 40938 H 3885.04 -3.77736 -1.34597 0
M  V30 40939 H 3881.63 -4.286 -0.005565 0
M  V30 40940 H 3885.81 -4.90525 0.754916 0
M  V30 40941 H 3881.07 -5.83784 1.81675 0
M  V30 40942 H 3885.24 -6.47057 2.57469 0
M  V30 40943 H 3882.87 -6.93602 3.1116 0
M  V30 40944 N 3884.45 0.0350506 -1.57561 0
M  V30 40945 C 3885.72 0.762138 -1.80141 0
M  V30 40946 C 3886.1 1.93893 -0.834788 0
M  V30 40947 O 3885.45 2.28161 0.124347 0
M  V30 40948 C 3885.66 1.20078 -3.27692 0
M  V30 40949 C 3887.01 1.61916 -3.92516 0
M  V30 40950 O 3888.03 1.29552 -3.31805 0
M  V30 40951 O 3886.89 2.21964 -4.99394 0
M  V30 40952 H 3883.99 0.368065 -0.740579 0
M  V30 40953 H 3886.53 0.0122897 -1.69696 0
M  V30 40954 H 3885.3 0.360432 -3.89636 0
M  V30 40955 H 3884.93 2.01083 -3.43003 0
M  V30 40956 N 3885.92 1.54577 0.307209 0
M  V30 40957 C 3887.17 1.7382 1.04473 0
M  V30 40958 C 3887.5 0.519135 1.87133 0
M  V30 40959 O 3886.78 -0.483819 1.88386 0
M  V30 40960 C 3887.06 3.02353 1.95589 0
M  V30 40961 C 3886.91 4.34545 1.1615 0
M  V30 40962 C 3888.23 3.2672 2.94859 0
M  V30 40963 H 3885.35 0.63244 0.378403 0
M  V30 40964 H 3887.99 1.87287 0.319922 0
M  V30 40965 H 3886.14 2.91002 2.57391 0
M  V30 40966 H 3887.82 4.57804 0.56682 0
M  V30 40967 H 3886.06 4.3131 0.464082 0
M  V30 40968 H 3886.73 5.20734 1.8314 0
M  V30 40969 H 3889.21 3.3764 2.43184 0
M  V30 40970 H 3888.08 4.17982 3.55783 0
M  V30 40971 H 3888.34 2.44721 3.6819 0
M  V30 40972 N 3887.4 -0.570096 1.46927 0
M  V30 40973 C 3888.81 -1.15224 1.46902 0
M  V30 40974 C 3889.16 -1.95 0.216686 0
M  V30 40975 O 3888.29 -2.0546 -0.679352 0
M  V30 40976 C 3888.88 -2.09627 2.66162 0
M  V30 40977 C 3887.44 -2.63139 2.69137 0
M  V30 40978 C 3886.59 -1.39257 2.39797 0
M  V30 40979 H 3889.54 -0.357363 1.54624 0
M  V30 40980 H 3889.56 -2.93298 2.42398 0
M  V30 40981 H 3889.07 -1.51537 3.57293 0
M  V30 40982 H 3887.18 -3.25063 1.82112 0
M  V30 40983 H 3887.29 -3.05013 3.69464 0
M  V30 40984 H 3885.65 -1.69496 1.90113 0
M  V30 40985 H 3886.44 -0.829796 3.33121 0
M  V30 40986 N 3888.88 -1.34844 -0.815777 0
M  V30 40987 C 3890.13 -1.26941 -1.56745 0
M  V30 40988 C 3890.44 0.156853 -1.9497 0
M  V30 40989 O 3891.65 0.358085 -2.69128 0
M  V30 40990 C 3890.11 -2.22567 -2.82828 0
M  V30 40991 C 3889.71 -3.70489 -2.51877 0
M  V30 40992 C 3891.46 -2.23588 -3.60845 0
M  V30 40993 C 3889.36 -4.57964 -3.74196 0
M  V30 40994 H 3888.29 -0.471598 -0.588312 0
M  V30 40995 H 3890.95 -1.60052 -0.897523 0
M  V30 40996 H 3889.33 -1.82416 -3.51483 0
M  V30 40997 H 3890.5 -4.19221 -1.91287 0
M  V30 40998 H 3888.82 -3.71987 -1.87123 0
M  V30 40999 H 3891.41 -2.86162 -4.51681 0
M  V30 41000 H 3891.76 -1.2371 -3.97494 0
M  V30 41001 H 3892.29 -2.6222 -2.99141 0
M  V30 41002 H 3889.03 -5.58805 -3.42662 0
M  V30 41003 H 3888.55 -4.13964 -4.34044 0
M  V30 41004 H 3890.23 -4.72929 -4.41528 0
M  V30 41005 N 3890.36 1.03684 -1.1869 0
M  V30 41006 C 3891.29 2.137 -0.940977 0
M  V30 41007 C 3892.27 1.69657 0.12274 0
M  V30 41008 O 3893.46 1.94176 -0.0306426 0
M  V30 41009 C 3890.59 3.44103 -0.470115 0
M  V30 41010 C 3889.54 4.0179 -1.47475 0
M  V30 41011 C 3888.87 5.27718 -0.861267 0
M  V30 41012 C 3890.17 4.37519 -2.85262 0
M  V30 41013 H 3891.86 2.34531 -1.86106 0
M  V30 41014 H 3889.41 1.12711 -0.896227 0
M  V30 41015 H 3891.36 4.20432 -0.285404 0
M  V30 41016 H 3890.08 3.22971 0.485547 0
M  V30 41017 H 3888.74 3.27547 -1.64647 0
M  V30 41018 H 3888.39 5.02897 0.101702 0
M  V30 41019 H 3888.09 5.67276 -1.53206 0
M  V30 41020 H 3889.61 6.06721 -0.687173 0
M  V30 41021 H 3891.03 5.04818 -2.7172 0
M  V30 41022 H 3889.42 4.88137 -3.4906 0
M  V30 41023 H 3890.49 3.47175 -3.38522 0
M  V30 41024 N 3891.84 0.989551 1.22661 0
M  V30 41025 C 3892.79 0.529904 2.26484 0
M  V30 41026 C 3893.78 -0.41773 1.64169 0
M  V30 41027 O 3894.99 -0.290618 1.77638 0
M  V30 41028 H 3891.36 0.152962 0.736279 0
M  V30 41029 H 3893.33 1.41706 2.62606 0
M  V30 41030 C 3892.08 -0.143087 3.47405 0
M  V30 41031 H 3891.4 0.577031 3.95614 0
M  V30 41032 H 3892.84 -0.428205 4.21832 0
M  V30 41033 C 3891.3 -1.37733 3.0746 0
M  V30 41034 O 3891.83 -2.47292 3.16559 0
M  V30 41035 N 3890.04 -1.25134 2.62278 0
M  V30 41036 H 3889.59 -0.359882 2.55074 0
M  V30 41037 H 3889.54 -2.07822 2.35919 0
M  V30 41038 N 3893.32 -1.37936 0.762332 0
M  V30 41039 C 3894.23 -2.34165 0.142765 0
M  V30 41040 C 3895.24 -1.5971 -0.690559 0
M  V30 41041 O 3896.42 -1.91855 -0.612677 0
M  V30 41042 C 3893.48 -3.38857 -0.733265 0
M  V30 41043 C 3892.54 -4.29145 0.115434 0
M  V30 41044 C 3891.78 -5.28836 -0.718879 0
M  V30 41045 O 3892 -5.35797 -1.95647 0
M  V30 41046 O 3890.93 -6.01753 -0.133056 0
M  V30 41047 H 3894.76 -2.88861 0.937713 0
M  V30 41048 H 3892.34 -1.39934 0.523349 0
M  V30 41049 H 3894.23 -4.02937 -1.23367 0
M  V30 41050 H 3892.9 -2.86504 -1.50656 0
M  V30 41051 H 3891.81 -3.68196 0.66199 0
M  V30 41052 H 3893.14 -4.84777 0.85159 0
M  V30 41053 N 3894.79 -0.512106 -1.49048 0
M  V30 41054 C 3896.04 0.0284533 -2.0248 0
M  V30 41055 C 3896.37 1.35963 -1.39084 0
M  V30 41056 O 3895.62 1.88675 -0.519626 0
M  V30 41057 C 3895.92 0.218062 -3.56734 0
M  V30 41058 C 3895.59 -1.0365 -4.38825 0
M  V30 41059 C 3894.25 -1.38038 -4.60976 0
M  V30 41060 C 3896.6 -1.8699 -4.86502 0
M  V30 41061 C 3893.93 -2.55695 -5.2805 0
M  V30 41062 C 3896.28 -3.03811 -5.54871 0
M  V30 41063 C 3894.95 -3.38565 -5.75265 0
M  V30 41064 H 3894.22 0.0104118 -0.740927 0
M  V30 41065 H 3896.86 -0.674513 -1.79228 0
M  V30 41066 H 3895.17 1.00365 -3.78727 0
M  V30 41067 H 3896.87 0.650943 -3.95681 0
M  V30 41068 H 3893.46 -0.758669 -4.21832 0
M  V30 41069 H 3897.64 -1.61737 -4.69207 0
M  V30 41070 H 3892.9 -2.82846 -5.42041 0
M  V30 41071 H 3897.07 -3.68707 -5.90786 0
M  V30 41072 H 3894.7 -4.29836 -6.27013 0
M  V30 41073 N 3896.27 1.55662 -0.246424 0
M  V30 41074 C 3897.23 2.20083 0.640002 0
M  V30 41075 C 3898.23 1.16996 1.10311 0
M  V30 41076 O 3899.42 1.42081 1.0079 0
M  V30 41077 C 3896.56 2.84401 1.87959 0
M  V30 41078 H 3897.75 2.99799 0.0779507 0
M  V30 41079 H 3895.3 1.563 0.00311841 0
M  V30 41080 H 3896.04 2.08622 2.48289 0
M  V30 41081 H 3895.82 3.59916 1.55573 0
M  V30 41082 H 3897.31 3.33705 2.51059 0
M  V30 41083 N 3897.75 -0.0266943 1.57577 0
M  V30 41084 C 3898.7 -1.02657 2.06713 0
M  V30 41085 C 3899.67 -1.35775 0.956778 0
M  V30 41086 O 3900.85 -1.46072 1.2275 0
M  V30 41087 C 3897.99 -2.32171 2.55325 0
M  V30 41088 C 3897.1 -2.0519 3.80159 0
M  V30 41089 C 3896.24 -3.28592 4.17374 0
M  V30 41090 C 3895.28 -2.97177 5.35119 0
M  V30 41091 N 3894.42 -4.13036 5.67755 0
M  V30 41092 H 3899.26 -0.600615 2.91885 0
M  V30 41093 H 3896.79 -0.284942 1.44314 0
M  V30 41094 H 3898.75 -3.07848 2.81577 0
M  V30 41095 H 3897.38 -2.72485 1.73066 0
M  V30 41096 H 3896.43 -1.2 3.60977 0
M  V30 41097 H 3897.74 -1.78018 4.65952 0
M  V30 41098 H 3896.9 -4.12634 4.44767 0
M  V30 41099 H 3895.64 -3.5888 3.30237 0
M  V30 41100 H 3894.64 -2.11536 5.07476 0
M  V30 41101 H 3895.87 -2.68164 6.23911 0
M  V30 41102 H 3893.81 -4.43271 4.83577 0
M  V30 41103 H 3893.73 -3.89295 6.48063 0
M  V30 41104 H 3895 -4.97945 5.99725 0
M  V30 41105 N 3899.23 -1.54738 -0.299007 0
M  V30 41106 C 3900.16 -1.80712 -1.39351 0
M  V30 41107 C 3901.14 -0.658433 -1.48672 0
M  V30 41108 O 3902.32 -0.898608 -1.65702 0
M  V30 41109 C 3899.45 -1.94561 -2.77243 0
M  V30 41110 C 3898.5 -3.16996 -2.85335 0
M  V30 41111 S 3899.33 -4.75015 -2.47227 0
M  V30 41112 C 3900.48 -4.91803 -3.87144 0
M  V30 41113 H 3900.72 -2.73263 -1.1711 0
M  V30 41114 H 3898.25 -1.46175 -0.497228 0
M  V30 41115 H 3900.21 -2.03226 -3.56665 0
M  V30 41116 H 3898.87 -1.02944 -2.96751 0
M  V30 41117 H 3898.06 -3.23495 -3.86481 0
M  V30 41118 H 3897.66 -3.06788 -2.1391 0
M  V30 41119 H 3899.96 -4.75948 -4.82161 0
M  V30 41120 H 3900.9 -5.93892 -3.85614 0
M  V30 41121 H 3901.31 -4.19942 -3.77239 0
M  V30 41122 N 3900.71 0.562296 -1.47228 0
M  V30 41123 C 3902.12 1.14443 -1.47511 0
M  V30 41124 C 3902.47 1.94882 -0.227024 0
M  V30 41125 O 3901.59 2.05817 0.668446 0
M  V30 41126 C 3902.19 2.08212 -2.6727 0
M  V30 41127 C 3900.75 2.61708 -2.70529 0
M  V30 41128 C 3899.89 1.37984 -2.40532 0
M  V30 41129 H 3902.84 0.349158 -1.54811 0
M  V30 41130 H 3902.87 2.92008 -2.4395 0
M  V30 41131 H 3902.38 1.4964 -3.58091 0
M  V30 41132 H 3900.48 3.24093 -1.83833 0
M  V30 41133 H 3900.59 3.03049 -3.71077 0
M  V30 41134 H 3898.96 1.68486 -1.9101 0
M  V30 41135 H 3899.74 0.812118 -3.33556 0
M  V30 41136 N 3902.18 1.35274 0.808615 0
M  V30 41137 C 3903.11 1.3069 1.935 0
M  V30 41138 C 3904.09 0.181705 1.69127 0
M  V30 41139 O 3905.28 0.376345 1.90518 0
M  V30 41140 C 3902.41 1.07608 3.30209 0
M  V30 41141 C 3901.36 2.16747 3.69059 0
M  V30 41142 C 3900.69 1.78833 5.03908 0
M  V30 41143 C 3901.99 3.58696 3.7965 0
M  V30 41144 H 3903.68 2.24939 1.97593 0
M  V30 41145 H 3901.23 1.08282 0.949265 0
M  V30 41146 H 3903.18 1.03041 4.08608 0
M  V30 41147 H 3901.91 0.0980518 3.26453 0
M  V30 41148 H 3900.57 2.20407 2.92944 0
M  V30 41149 H 3900.21 0.796536 4.96653 0
M  V30 41150 H 3899.91 2.5189 5.30872 0
M  V30 41151 H 3901.44 1.75788 5.84749 0
M  V30 41152 H 3902.85 3.5737 4.48285 0
M  V30 41153 H 3901.25 4.30496 4.18082 0
M  V30 41154 H 3902.32 3.94996 2.81258 0
M  V30 41155 N 3903.66 -1.03053 1.19239 0
M  V30 41156 C 3904.61 -2.11294 0.928625 0
M  V30 41157 C 3905.58 -1.65543 -0.135912 0
M  V30 41158 O 3906.76 -1.90799 0.005882 0
M  V30 41159 C 3903.9 -3.41863 0.471593 0
M  V30 41160 C 3903.02 -4.0117 1.60271 0
M  V30 41161 C 3902.15 -5.19741 1.09738 0
M  V30 41162 C 3901.19 -5.71101 2.2025 0
M  V30 41163 N 3900.33 -6.80949 1.71036 0
M  V30 41164 H 3905.17 -2.33193 1.8554 0
M  V30 41165 H 3902.71 -1.14373 0.925049 0
M  V30 41166 H 3904.66 -4.16776 0.188022 0
M  V30 41167 H 3903.29 -3.2008 -0.418194 0
M  V30 41168 H 3902.35 -3.23486 2.00153 0
M  V30 41169 H 3903.66 -4.35305 2.43539 0
M  V30 41170 H 3902.81 -6.01807 0.768938 0
M  V30 41171 H 3901.55 -4.87136 0.23441 0
M  V30 41172 H 3900.56 -4.87649 2.53927 0
M  V30 41173 H 3901.78 -6.05746 3.07 0
M  V30 41174 H 3899.73 -6.50199 0.870449 0
M  V30 41175 H 3899.64 -7.14202 2.47895 0
M  V30 41176 H 3900.91 -7.66614 1.41151 0
M  V30 41177 N 3905.14 -0.996042 -1.22134 0
M  V30 41178 C 3906.07 -0.568949 -2.26462 0
M  V30 41179 C 3907.05 0.405754 -1.6519 0
M  V30 41180 O 3908.24 0.295701 -1.91936 0
M  V30 41181 C 3905.37 0.114105 -3.47113 0
M  V30 41182 C 3904.32 -0.779461 -4.20842 0
M  V30 41183 C 3903.65 0.0366847 -5.34687 0
M  V30 41184 C 3904.95 -2.07781 -4.79191 0
M  V30 41185 H 3906.64 -1.44102 -2.62441 0
M  V30 41186 H 3904.19 -0.694336 -1.26155 0
M  V30 41187 H 3906.14 0.424307 -4.19258 0
M  V30 41188 H 3904.86 1.02074 -3.10239 0
M  V30 41189 H 3903.52 -1.07335 -3.50535 0
M  V30 41190 H 3903.17 0.944333 -4.94056 0
M  V30 41191 H 3902.87 -0.558195 -5.84943 0
M  V30 41192 H 3904.39 0.340909 -6.09648 0
M  V30 41193 H 3905.81 -1.83135 -5.43263 0
M  V30 41194 H 3904.21 -2.62178 -5.39799 0
M  V30 41195 H 3905.28 -2.75449 -3.99069 0
M  V30 41196 N 3906.62 1.37529 -0.769636 0
M  V30 41197 C 3907.55 2.32892 -0.16843 0
M  V30 41198 C 3908.53 1.55675 0.685522 0
M  V30 41199 O 3909.71 1.83922 0.623418 0
M  V30 41200 C 3906.84 3.399 0.713123 0
M  V30 41201 C 3905.8 4.27982 -0.0393561 0
M  V30 41202 C 3905.12 5.25984 0.961503 0
M  V30 41203 C 3906.42 5.0792 -1.21713 0
M  V30 41204 H 3908.12 2.8342 -0.965072 0
M  V30 41205 H 3905.66 1.36268 -0.465526 0
M  V30 41206 H 3907.62 4.05588 1.14351 0
M  V30 41207 H 3906.34 2.87892 1.54226 0
M  V30 41208 H 3905 3.63822 -0.450493 0
M  V30 41209 H 3904.65 4.70257 1.78513 0
M  V30 41210 H 3904.35 5.85776 0.462576 0
M  V30 41211 H 3905.87 5.94548 1.39087 0
M  V30 41212 H 3907.29 5.6676 -0.863505 0
M  V30 41213 H 3905.68 5.77028 -1.648 0
M  V30 41214 H 3906.75 4.40718 -2.02227 0
M  V30 41215 N 3908.1 0.520003 1.48774 0
M  V30 41216 C 3909.32 -0.0139619 2.06895 0
M  V30 41217 C 3909.74 -1.29073 1.37789 0
M  V30 41218 O 3909.1 -1.7655 0.462199 0
M  V30 41219 C 3909.15 -0.251935 3.60621 0
M  V30 41220 O 3908.87 0.974233 4.2713 0
M  V30 41221 C 3910.37 -0.827407 4.3551 0
M  V30 41222 H 3907.59 0.0290129 0.670372 0
M  V30 41223 H 3910.13 0.722796 1.91301 0
M  V30 41224 H 3908.29 -0.938717 3.75855 0
M  V30 41225 H 3908.7 0.748789 5.19128 0
M  V30 41226 H 3910.18 -0.943396 5.43879 0
M  V30 41227 H 3910.65 -1.82989 3.99264 0
M  V30 41228 H 3911.26 -0.177504 4.24929 0
M  V30 41229 N 3909.57 -1.55529 0.254676 0
M  V30 41230 C 3910.52 -2.23106 -0.657748 0
M  V30 41231 C 3911.52 -1.22121 -1.174 0
M  V30 41232 O 3912.72 -1.40111 -1.13 0
M  V30 41233 H 3909.1 -0.715766 -0.230615 0
M  V30 41234 H 3911.07 -2.9833 -0.0647235 0
M  V30 41235 C 3909.82 -2.95016 -1.84013 0
M  V30 41236 H 3909.14 -3.72499 -1.45204 0
M  V30 41237 H 3910.58 -3.45652 -2.45562 0
M  V30 41238 C 3909.04 -1.99327 -2.71607 0
M  V30 41239 O 3909.57 -1.53132 -3.71367 0
M  V30 41240 N 3907.78 -1.66262 -2.38339 0
M  V30 41241 H 3907.32 -2.04023 -1.57265 0
M  V30 41242 H 3907.28 -1.02505 -2.97221 0
M  V30 41243 N 3911.05 0.0183372 -1.57589 0
M  V30 41244 C 3912 1.0237 -2.03726 0
M  V30 41245 C 3912.99 1.31404 -0.928538 0
M  V30 41246 O 3914.18 1.30809 -1.19239 0
M  V30 41247 C 3911.31 2.3215 -2.52905 0
M  V30 41248 C 3910.39 2.0616 -3.70619 0
M  V30 41249 N 3910.78 1.50264 -4.82964 0
M  V30 41250 C 3909.08 2.36393 -3.78199 0
M  V30 41251 C 3909.78 1.40325 -5.64521 0
M  V30 41252 N 3908.76 1.88254 -5.09962 0
M  V30 41253 H 3912.56 0.58572 -2.88004 0
M  V30 41254 H 3910.08 0.224424 -1.60842 0
M  V30 41255 H 3912.07 3.04995 -2.84224 0
M  V30 41256 H 3910.73 2.76618 -1.70038 0
M  V30 41257 H 3911.74 1.1839 -5.04187 0
M  V30 41258 H 3908.42 2.83861 -3.06152 0
M  V30 41259 H 3909.81 0.97507 -6.64787 0
M  V30 41260 N 3912.53 1.54894 0.290797 0
M  V30 41261 C 3913.76 1.78404 1.0419 0
M  V30 41262 C 3914.17 0.548662 1.8107 0
M  V30 41263 O 3913.51 -0.491372 1.77006 0
M  V30 41264 C 3913.57 2.94544 2.06116 0
M  V30 41265 C 3913.24 4.32256 1.48338 0
M  V30 41266 C 3914.23 5.11907 0.908153 0
M  V30 41267 C 3911.92 4.78879 1.51594 0
M  V30 41268 C 3913.91 6.36307 0.37317 0
M  V30 41269 C 3911.6 6.03238 0.977088 0
M  V30 41270 C 3912.6 6.81788 0.406685 0
M  V30 41271 O 3912.29 8.03804 -0.123963 0
M  V30 41272 H 3912.02 0.598487 0.314307 0
M  V30 41273 H 3914.57 2.02691 0.332469 0
M  V30 41274 H 3912.8 2.65906 2.80769 0
M  V30 41275 H 3914.49 3.05538 2.6721 0
M  V30 41276 H 3915.26 4.77026 0.875828 0
M  V30 41277 H 3911.14 4.1776 1.9493 0
M  V30 41278 H 3914.68 6.97562 -0.072694 0
M  V30 41279 H 3910.58 6.37603 1.00659 0
M  V30 41280 H 3911.35 8.18499 -0.0116291 0
M  V30 41281 N 3914.01 -0.55448 1.47524 0
M  V30 41282 C 3914.92 -1.68867 1.62854 0
M  V30 41283 C 3915.93 -1.66317 0.511334 0
M  V30 41284 O 3917.11 -1.85715 0.779228 0
M  V30 41285 C 3914.18 -3.05369 1.64166 0
M  V30 41286 C 3913.24 -3.18965 2.87333 0
M  V30 41287 C 3912.47 -4.48955 2.88574 0
M  V30 41288 O 3912.69 -5.34581 1.98946 0
M  V30 41289 O 3911.63 -4.66399 3.80467 0
M  V30 41290 H 3915.45 -1.58875 2.58829 0
M  V30 41291 H 3913.04 -0.724799 1.30641 0
M  V30 41292 H 3914.92 -3.86597 1.67693 0
M  V30 41293 H 3913.59 -3.15737 0.713589 0
M  V30 41294 H 3912.5 -2.37124 2.89349 0
M  V30 41295 H 3913.83 -3.13502 3.79443 0
M  V30 41296 N 3915.49 -1.35701 -0.80143 0
M  V30 41297 C 3916.9 -1.15852 -1.09774 0
M  V30 41298 C 3917.1 0.0255299 -2.01484 0
M  V30 41299 O 3916.16 0.694571 -2.42759 0
M  V30 41300 C 3917.47 -2.46388 -1.72376 0
M  V30 41301 C 3919.02 -2.52642 -1.84773 0
M  V30 41302 C 3919.49 -3.83234 -2.50791 0
M  V30 41303 N 3920.99 -3.84513 -2.58271 0
M  V30 41304 C 3921.72 -4.82292 -3.10133 0
M  V30 41305 N 3921.22 -5.9046 -3.62393 0
M  V30 41306 N 3923.01 -4.69723 -3.08733 0
M  V30 41307 H 3915.16 -2.11531 -0.191889 0
M  V30 41308 H 3917.42 -0.936419 -0.147726 0
M  V30 41309 H 3917.13 -3.33236 -1.12456 0
M  V30 41310 H 3917 -2.61315 -2.72019 0
M  V30 41311 H 3919.39 -1.66219 -2.43835 0
M  V30 41312 H 3919.47 -2.41625 -0.839703 0
M  V30 41313 H 3919.12 -4.70057 -1.92377 0
M  V30 41314 H 3919.05 -3.91541 -3.5214 0
M  V30 41315 H 3921.54 -3.0636 -2.21251 0
M  V30 41316 H 3921.85 -6.61056 -4.00281 0
M  V30 41317 H 3920.19 -5.94145 -3.60578 0
M  V30 41318 H 3923.39 -3.84355 -2.67186 0
M  V30 41319 H 3923.56 -5.46087 -3.48845 0
M  V30 41320 N 3916.96 1.02419 -1.19783 0
M  V30 41321 C 3918.2 1.77445 -1.01453 0
M  V30 41322 C 3918.57 1.8674 0.446338 0
M  V30 41323 O 3919.77 2.58137 0.749594 0
M  V30 41324 C 3918.04 3.15952 -1.67061 0
M  V30 41325 S 3919.6 4.07109 -1.63732 0
M  V30 41326 H 3916.42 0.610784 -0.363955 0
M  V30 41327 H 3919.02 1.22687 -1.52211 0
M  V30 41328 H 3917.72 3.06807 -2.72576 0
M  V30 41329 H 3917.25 3.75784 -1.16403 0
M  V30 41330 H 3919.27 4.91726 -0.664818 0
M  V30 41331 N 3918.44 1.0025 1.21604 0
M  V30 41332 C 3919.69 0.694477 1.91177 0
M  V30 41333 C 3920.04 -0.766144 1.76488 0
M  V30 41334 O 3919.34 -1.54791 1.12917 0
M  V30 41335 C 3919.53 1.04745 3.41706 0
M  V30 41336 C 3919.36 2.54084 3.71041 0
M  V30 41337 C 3918.13 3.20644 3.90532 0
M  V30 41338 C 3920.33 3.52235 3.74747 0
M  V30 41339 N 3918.31 4.5936 4.07261 0
M  V30 41340 C 3919.68 4.7645 3.96731 0
M  V30 41341 C 3921.74 3.46406 3.57641 0
M  V30 41342 C 3920.44 5.95544 4.03385 0
M  V30 41343 C 3922.47 4.64888 3.65559 0
M  V30 41344 C 3921.83 5.87906 3.88002 0
M  V30 41345 H 3917.93 0.305564 0.71983 0
M  V30 41346 H 3920.51 1.28447 1.4632 0
M  V30 41347 H 3918.68 0.485942 3.85348 0
M  V30 41348 H 3920.41 0.694421 3.98698 0
M  V30 41349 H 3917.17 2.71094 3.88337 0
M  V30 41350 H 3917.59 5.31339 4.19533 0
M  V30 41351 H 3922.23 2.52305 3.39267 0
M  V30 41352 H 3919.95 6.9004 4.20559 0
M  V30 41353 H 3923.54 4.61978 3.53649 0
M  V30 41354 H 3922.42 6.78054 3.9397 0
M  V30 41355 N 3919.92 -1.37119 0.776919 0
M  V30 41356 C 3920.87 -2.3021 0.164879 0
M  V30 41357 C 3921.84 -1.51358 -0.68411 0
M  V30 41358 O 3923.02 -1.79909 -0.635396 0
M  V30 41359 C 3920.16 -3.37839 -0.704204 0
M  V30 41360 C 3919.28 -4.31696 0.161957 0
M  V30 41361 C 3918.41 -5.26402 -0.712318 0
M  V30 41362 C 3917.45 -6.11901 0.156061 0
M  V30 41363 N 3916.59 -6.98833 -0.676484 0
M  V30 41364 H 3921.43 -2.81969 0.964235 0
M  V30 41365 H 3918.96 -1.38801 0.487089 0
M  V30 41366 H 3920.92 -3.98873 -1.22295 0
M  V30 41367 H 3919.55 -2.87432 -1.46911 0
M  V30 41368 H 3918.6 -3.71924 0.798557 0
M  V30 41369 H 3919.92 -4.91819 0.831582 0
M  V30 41370 H 3919.07 -5.92667 -1.29735 0
M  V30 41371 H 3917.81 -4.66703 -1.41561 0
M  V30 41372 H 3916.81 -5.44611 0.753588 0
M  V30 41373 H 3918.04 -6.73674 0.856764 0
M  V30 41374 H 3915.99 -6.41656 -1.3643 0
M  V30 41375 H 3915.9 -7.55973 -0.0642688 0
M  V30 41376 H 3917.17 -7.69481 -1.24574 0
M  V30 41377 N 3921.4 -0.527886 -1.48496 0
M  V30 41378 C 3922.63 0.00298524 -2.066 0
M  V30 41379 C 3923.04 1.28889 -1.38507 0
M  V30 41380 O 3922.38 1.77697 -0.465777 0
M  V30 41381 C 3922.44 0.299637 -3.58249 0
M  V30 41382 C 3922.11 -0.892484 -4.48201 0
M  V30 41383 C 3923.1 -1.79032 -4.88102 0
M  V30 41384 C 3920.79 -1.09889 -4.90132 0
M  V30 41385 C 3922.78 -2.87848 -5.68702 0
M  V30 41386 C 3920.47 -2.19019 -5.70503 0
M  V30 41387 C 3921.47 -3.07832 -6.09696 0
M  V30 41388 O 3921.16 -4.15074 -6.88454 0
M  V30 41389 H 3920.89 -0.0294339 -0.675359 0
M  V30 41390 H 3923.44 -0.73232 -1.91902 0
M  V30 41391 H 3921.67 1.08889 -3.71053 0
M  V30 41392 H 3923.36 0.772337 -3.98484 0
M  V30 41393 H 3924.13 -1.64279 -4.5633 0
M  V30 41394 H 3920.01 -0.416889 -4.59111 0
M  V30 41395 H 3923.55 -3.57197 -5.99213 0
M  V30 41396 H 3919.45 -2.33757 -6.01688 0
M  V30 41397 H 3920.21 -4.12758 -7.06805 0
M  V30 41398 N 3922.88 1.55391 -0.26292 0
M  V30 41399 C 3924.11 2.03431 0.360498 0
M  V30 41400 C 3924.52 1.1411 1.50915 0
M  V30 41401 O 3923.86 0.151212 1.83077 0
M  V30 41402 C 3923.92 3.47657 0.915129 0
M  V30 41403 C 3923.58 4.56883 -0.103325 0
M  V30 41404 C 3924.58 5.11721 -0.918554 0
M  V30 41405 C 3922.27 5.01754 -0.234044 0
M  V30 41406 C 3924.26 6.09938 -1.85081 0
M  V30 41407 C 3921.95 5.99799 -1.16978 0
M  V30 41408 C 3922.95 6.53771 -1.97668 0
M  V30 41409 O 3922.63 7.49901 -2.89662 0
M  V30 41410 H 3922.37 0.670262 0.0878932 0
M  V30 41411 H 3924.92 2.0168 -0.389149 0
M  V30 41412 H 3923.15 3.46608 1.71463 0
M  V30 41413 H 3924.84 3.79105 1.45033 0
M  V30 41414 H 3925.6 4.77876 -0.828236 0
M  V30 41415 H 3921.48 4.59398 0.383976 0
M  V30 41416 H 3925.03 6.5199 -2.48103 0
M  V30 41417 H 3920.92 6.33064 -1.26097 0
M  V30 41418 H 3921.69 7.67574 -2.84204 0
M  V30 41419 N 3924.36 -0.00997961 1.57597 0
M  V30 41420 C 3925.6 -0.701521 1.91984 0
M  V30 41421 C 3925.96 -1.71488 0.863483 0
M  V30 41422 O 3927.16 -2.45606 1.09229 0
M  V30 41423 C 3925.43 -1.33672 3.31461 0
M  V30 41424 S 3926.99 -2.05477 3.87717 0
M  V30 41425 H 3923.81 -0.231963 0.672097 0
M  V30 41426 H 3926.41 0.0443116 1.9545 0
M  V30 41427 H 3925.11 -0.586224 4.06192 0
M  V30 41428 H 3924.65 -2.1207 3.31346 0
M  V30 41429 H 3926.66 -3.32868 3.67986 0
M  V30 41430 N 3925.83 -1.55046 -0.282578 0
M  V30 41431 C 3926.76 -1.90274 -1.35344 0
M  V30 41432 C 3927.74 -0.763558 -1.51999 0
M  V30 41433 O 3928.93 -1.02088 -1.65202 0
M  V30 41434 C 3926.06 -2.16625 -2.7146 0
M  V30 41435 C 3925.01 -3.32457 -2.69548 0
M  V30 41436 C 3924.34 -3.44267 -4.09126 0
M  V30 41437 C 3925.64 -4.69098 -2.29661 0
M  V30 41438 H 3927.33 -2.79967 -1.06108 0
M  V30 41439 H 3924.88 -1.34704 -0.508994 0
M  V30 41440 H 3926.83 -2.39857 -3.46478 0
M  V30 41441 H 3925.56 -1.23722 -3.02259 0
M  V30 41442 H 3924.22 -3.09179 -1.96988 0
M  V30 41443 H 3923.86 -2.48848 -4.37131 0
M  V30 41444 H 3923.56 -4.2214 -4.08744 0
M  V30 41445 H 3925.09 -3.6978 -4.85896 0
M  V30 41446 H 3926.5 -4.91938 -2.94398 0
M  V30 41447 H 3924.9 -5.49818 -2.40457 0
M  V30 41448 H 3925.97 -4.68568 -1.24788 0
M  V30 41449 N 3927.31 0.546649 -1.47816 0
M  V30 41450 C 3928.72 1.12872 -1.48717 0
M  V30 41451 C 3929.07 1.9463 -0.247681 0
M  V30 41452 O 3928.2 2.06515 0.646579 0
M  V30 41453 C 3928.79 2.05366 -2.69463 0
M  V30 41454 C 3927.35 2.58824 -2.7329 0
M  V30 41455 C 3926.5 1.35425 -2.41982 0
M  V30 41456 H 3929.45 0.332719 -1.55173 0
M  V30 41457 H 3929.47 2.89404 -2.47033 0
M  V30 41458 H 3928.98 1.45833 -3.59658 0
M  V30 41459 H 3927.08 3.22125 -1.8726 0
M  V30 41460 H 3927.2 2.99096 -3.7427 0
M  V30 41461 H 3925.56 1.6645 -1.92786 0
M  V30 41462 H 3926.34 0.776695 -3.34398 0
M  V30 41463 N 3928.79 1.36124 0.794222 0
M  V30 41464 C 3930.02 1.33231 1.58295 0
M  V30 41465 C 3930.43 -0.0875095 1.88597 0
M  V30 41466 O 3929.79 -1.04304 1.49756 0
M  V30 41467 C 3929.84 2.14909 2.90683 0
M  V30 41468 O 3929.56 3.51355 2.61689 0
M  V30 41469 C 3931.06 2.19741 3.85005 0
M  V30 41470 H 3928.28 0.457199 0.491131 0
M  V30 41471 H 3930.83 1.79155 0.986097 0
M  V30 41472 H 3928.98 1.72552 3.46849 0
M  V30 41473 H 3929.4 3.9392 3.46306 0
M  V30 41474 H 3930.87 2.81258 4.74972 0
M  V30 41475 H 3931.35 1.19954 4.22502 0
M  V30 41476 H 3931.95 2.62312 3.34772 0
M  V30 41477 N 3930.27 -1.01782 1.20325 0
M  V30 41478 C 3931.52 -1.75015 1.01066 0
M  V30 41479 C 3931.84 -1.89535 -0.458425 0
M  V30 41480 O 3931.11 -1.43696 -1.33147 0
M  V30 41481 H 3929.69 -0.648376 0.370968 0
M  V30 41482 H 3932.35 -1.22719 1.51413 0
M  V30 41483 H 3931.44 -2.75422 1.46797 0
M  V30 41484 N 3931.75 -1.00894 -1.21071 0
M  V30 41485 C 3932.99 -0.704606 -1.90806 0
M  V30 41486 C 3933.35 0.756773 -1.76892 0
M  V30 41487 O 3932.64 1.5419 -1.13736 0
M  V30 41488 C 3932.83 -1.06556 -3.41146 0
M  V30 41489 C 3932.66 -2.56048 -3.69688 0
M  V30 41490 C 3931.43 -3.22711 -3.88826 0
M  V30 41491 C 3933.63 -3.54217 -3.72873 0
M  V30 41492 N 3931.61 -4.61513 -4.0482 0
M  V30 41493 C 3932.98 -4.78547 -3.94199 0
M  V30 41494 C 3935.04 -3.48298 -3.55799 0
M  V30 41495 C 3933.74 -5.97675 -4.00221 0
M  V30 41496 C 3935.77 -4.6682 -3.63088 0
M  V30 41497 C 3935.13 -5.89956 -3.84879 0
M  V30 41498 H 3931.23 -0.309377 -0.718199 0
M  V30 41499 H 3933.81 -1.29221 -1.45637 0
M  V30 41500 H 3931.98 -0.506371 -3.85085 0
M  V30 41501 H 3933.72 -0.715555 -3.98324 0
M  V30 41502 H 3930.47 -2.73149 -3.86893 0
M  V30 41503 H 3930.89 -5.33556 -4.1671 0
M  V30 41504 H 3935.54 -2.54101 -3.37924 0
M  V30 41505 H 3933.25 -6.92261 -4.16894 0
M  V30 41506 H 3936.84 -4.63847 -3.51194 0
M  V30 41507 H 3935.72 -6.80134 -3.90368 0
M  V30 41508 N 3933.22 1.36705 -0.78418 0
M  V30 41509 C 3934.19 2.28452 -0.184997 0
M  V30 41510 C 3935.19 1.48591 0.61461 0
M  V30 41511 O 3936.38 1.68646 0.436373 0
M  V30 41512 C 3933.51 3.32669 0.744603 0
M  V30 41513 H 3934.7 2.82951 -0.993911 0
M  V30 41514 H 3932.26 1.46181 -0.55324 0
M  V30 41515 H 3932.99 2.83316 1.57806 0
M  V30 41516 H 3932.78 3.91717 0.173244 0
M  V30 41517 H 3934.27 4.01198 1.15887 0
M  V30 41518 N 3934.7 0.535753 1.48214 0
M  V30 41519 C 3935.65 -0.237169 2.31388 0
M  V30 41520 C 3936.64 -0.92997 1.41591 0
M  V30 41521 O 3937.85 -0.853697 1.58468 0
M  V30 41522 H 3934.23 -0.0953532 0.74593 0
M  V30 41523 H 3936.2 0.483824 2.94452 0
M  V30 41524 C 3934.95 -1.26751 3.23774 0
M  V30 41525 H 3934.27 -0.743833 3.9282 0
M  V30 41526 H 3935.71 -1.77963 3.84844 0
M  V30 41527 C 3934.17 -2.30417 2.45783 0
M  V30 41528 O 3934.7 -3.3696 2.18679 0
M  V30 41529 N 3932.9 -2.03782 2.07175 0
M  V30 41530 H 3932.45 -1.17155 2.29418 0
M  V30 41531 H 3932.41 -2.73363 1.55305 0
M  V30 41532 N 3936.18 -1.5525 0.271158 0
M  V30 41533 C 3937.43 -1.99509 -0.346755 0
M  V30 41534 C 3937.76 -1.15953 -1.56157 0
M  V30 41535 O 3937.01 -0.216219 -1.94502 0
M  V30 41536 C 3937.31 -3.48857 -0.776762 0
M  V30 41537 C 3936.98 -4.49669 0.332978 0
M  V30 41538 C 3935.64 -4.76956 0.637704 0
M  V30 41539 C 3937.99 -5.09867 1.08096 0
M  V30 41540 C 3935.32 -5.6171 1.69406 0
M  V30 41541 C 3937.67 -5.95769 2.12701 0
M  V30 41542 C 3936.33 -6.21379 2.43813 0
M  V30 41543 H 3935.6 -0.730055 -0.126887 0
M  V30 41544 H 3938.25 -1.8761 0.384045 0
M  V30 41545 H 3936.56 -3.58212 -1.58717 0
M  V30 41546 H 3938.25 -3.80506 -1.26554 0
M  V30 41547 H 3934.84 -4.28515 0.0853486 0
M  V30 41548 H 3939.03 -4.88813 0.858794 0
M  V30 41549 H 3934.28 -5.798 1.94017 0
M  V30 41550 H 3938.46 -6.4145 2.71136 0
M  V30 41551 H 3936.08 -6.86846 3.25802 0
M  V30 41552 N 3937.66 0.00162173 -1.576 0
M  V30 41553 C 3938.91 0.685452 -1.90121 0
M  V30 41554 C 3939.23 1.74403 -0.872275 0
M  V30 41555 O 3938.5 1.95691 0.0905376 0
M  V30 41556 H 3937.08 0.256165 -0.701704 0
M  V30 41557 H 3939.74 -0.0389209 -1.94861 0
M  V30 41558 H 3938.84 1.15773 -2.89833 0
M  V30 41559 N 3939.14 1.55194 0.274352 0
M  V30 41560 C 3940.38 1.75996 1.00762 0
M  V30 41561 C 3940.72 0.558712 1.85989 0
M  V30 41562 O 3939.99 -0.44375 1.8937 0
M  V30 41563 C 3940.27 3.06433 1.89131 0
M  V30 41564 C 3940.13 4.36911 1.06907 0
M  V30 41565 C 3941.45 3.32901 2.87863 0
M  V30 41566 H 3938.56 0.640324 0.364903 0
M  V30 41567 H 3941.21 1.87924 0.280123 0
M  V30 41568 H 3939.36 2.96396 2.51161 0
M  V30 41569 H 3941.03 4.58904 0.469585 0
M  V30 41570 H 3939.27 4.32198 0.37249 0
M  V30 41571 H 3939.94 5.24501 1.72054 0
M  V30 41572 H 3942.42 3.42722 2.35968 0
M  V30 41573 H 3941.29 4.25435 3.46837 0
M  V30 41574 H 3941.56 2.52475 3.62917 0
M  V30 41575 N 3940.61 -0.538802 1.48104 0
M  V30 41576 C 3941.84 -1.32005 1.59318 0
M  V30 41577 C 3942.26 -1.87136 0.25014 0
M  V30 41578 O 3941.61 -1.65953 -0.759329 0
M  V30 41579 C 3941.67 -2.4771 2.63291 0
M  V30 41580 O 3941.39 -1.94853 3.92382 0
M  V30 41581 C 3942.89 -3.39659 2.84862 0
M  V30 41582 H 3940.11 -0.401749 0.537437 0
M  V30 41583 H 3942.65 -0.650886 1.93865 0
M  V30 41584 H 3940.81 -3.10528 2.31627 0
M  V30 41585 H 3941.22 -2.70526 4.49351 0
M  V30 41586 H 3942.69 -4.17217 3.61434 0
M  V30 41587 H 3943.17 -3.94346 1.93359 0
M  V30 41588 H 3943.78 -2.82641 3.17796 0
M  V30 41589 N 3942.09 -1.36544 -0.786992 0
M  V30 41590 C 3943.32 -1.34234 -1.58101 0
M  V30 41591 C 3943.74 0.0734601 -1.87957 0
M  V30 41592 O 3943.1 1.04612 -1.48074 0
M  V30 41593 C 3943.15 -2.1735 -2.87735 0
M  V30 41594 O 3942.25 -1.56765 -3.81442 0
M  V30 41595 H 3941.59 -0.459335 -0.479487 0
M  V30 41596 H 3944.12 -1.79861 -0.975262 0
M  V30 41597 H 3944.13 -2.30016 -3.36982 0
M  V30 41598 H 3942.81 -3.20268 -2.65332 0
M  V30 41599 H 3941.39 -1.53053 -3.40043 0
M  V30 41600 N 3943.57 1.01143 -1.20863 0
M  V30 41601 C 3944.48 2.13244 -0.977963 0
M  V30 41602 C 3945.5 1.73868 0.0678556 0
M  V30 41603 O 3946.67 2.01038 -0.120753 0
M  V30 41604 C 3943.74 3.4249 -0.538636 0
M  V30 41605 C 3942.8 3.96078 -1.65591 0
M  V30 41606 C 3942.03 5.19156 -1.23745 0
M  V30 41607 O 3942.25 5.70297 -0.108327 0
M  V30 41608 O 3941.19 5.66027 -2.04689 0
M  V30 41609 H 3945.01 2.35576 -1.9167 0
M  V30 41610 H 3942.6 1.11628 -0.992951 0
M  V30 41611 H 3944.48 4.20308 -0.303115 0
M  V30 41612 H 3943.16 3.21562 0.371459 0
M  V30 41613 H 3942.06 3.19516 -1.94577 0
M  V30 41614 H 3943.4 4.21405 -2.5432 0
M  V30 41615 N 3945.05 1.01535 1.20534 0
M  V30 41616 C 3945.96 0.594149 2.26952 0
M  V30 41617 C 3946.97 -0.367741 1.7007 0
M  V30 41618 O 3948.15 -0.229001 2.00094 0
M  V30 41619 C 3945.22 -0.062233 3.46644 0
M  V30 41620 C 3944.28 0.945442 4.1876 0
M  V30 41621 C 3943.51 0.320289 5.32738 0
M  V30 41622 O 3943.73 -0.880308 5.63566 0
M  V30 41623 O 3942.67 1.03639 5.9291 0
M  V30 41624 H 3946.49 1.48007 2.65193 0
M  V30 41625 H 3944.08 0.784774 1.27128 0
M  V30 41626 H 3945.96 -0.428878 4.19212 0
M  V30 41627 H 3944.63 -0.922373 3.1028 0
M  V30 41628 H 3943.54 1.36343 3.4837 0
M  V30 41629 H 3944.87 1.77551 4.59061 0
M  V30 41630 N 3946.53 -1.36288 0.791419 0
M  V30 41631 C 3947.44 -2.3381 0.192403 0
M  V30 41632 C 3948.45 -1.61139 -0.656527 0
M  V30 41633 O 3949.63 -1.93111 -0.571844 0
M  V30 41634 C 3946.69 -3.40336 -0.661223 0
M  V30 41635 C 3945.75 -4.28803 0.206436 0
M  V30 41636 C 3944.99 -5.30242 -0.606543 0
M  V30 41637 O 3945.21 -5.39827 -1.84238 0
M  V30 41638 O 3944.14 -6.019 -0.00538536 0
M  V30 41639 H 3947.97 -2.86807 0.998774 0
M  V30 41640 H 3945.56 -1.38792 0.552914 0
M  V30 41641 H 3947.44 -4.05463 -1.14793 0
M  V30 41642 H 3946.11 -2.89635 -1.44545 0
M  V30 41643 H 3945.02 -3.66709 0.739941 0
M  V30 41644 H 3946.35 -4.82862 0.954227 0
M  V30 41645 N 3948.01 -0.543606 -1.47928 0
M  V30 41646 C 3948.94 0.200187 -2.3264 0
M  V30 41647 C 3949.92 0.921975 -1.42946 0
M  V30 41648 O 3951.1 0.905099 -1.71819 0
M  V30 41649 C 3948.23 1.23916 -3.24441 0
M  V30 41650 C 3947.19 0.634679 -4.23268 0
M  V30 41651 C 3946.51 1.7773 -5.04298 0
M  V30 41652 C 3947.81 -0.402615 -5.20746 0
M  V30 41653 H 3949.51 -0.507009 -2.95076 0
M  V30 41654 H 3947.05 -0.245271 -1.41896 0
M  V30 41655 H 3949 1.76756 -3.82538 0
M  V30 41656 H 3947.73 1.97612 -2.60033 0
M  V30 41657 H 3946.39 0.127692 -3.66378 0
M  V30 41658 H 3946.04 2.50297 -4.36303 0
M  V30 41659 H 3945.74 1.37869 -5.71197 0
M  V30 41660 H 3947.26 2.30922 -5.6525 0
M  V30 41661 H 3948.67 0.0392042 -5.73287 0
M  V30 41662 H 3947.07 -0.719356 -5.95773 0
M  V30 41663 H 3948.14 -1.30348 -4.67052 0
M  V30 41664 N 3949.48 1.55104 -0.279387 0
M  V30 41665 C 3950.43 2.19384 0.620843 0
M  V30 41666 C 3951.42 1.15983 1.1152 0
M  V30 41667 O 3952.61 1.41782 1.05956 0
M  V30 41668 C 3949.74 2.92171 1.80252 0
M  V30 41669 C 3948.82 4.02866 1.32514 0
M  V30 41670 N 3949.22 5.02643 0.564217 0
M  V30 41671 C 3947.51 4.16014 1.60774 0
M  V30 41672 C 3948.21 5.80859 0.3127 0
M  V30 41673 N 3947.19 5.36325 0.886344 0
M  V30 41674 H 3950.99 2.93883 0.0316879 0
M  V30 41675 H 3948.51 1.62187 -0.0831416 0
M  V30 41676 H 3950.5 3.36674 2.45878 0
M  V30 41677 H 3949.16 2.19184 2.39559 0
M  V30 41678 H 3950.17 5.17469 0.211152 0
M  V30 41679 H 3946.85 3.5422 2.20985 0
M  V30 41680 H 3948.24 6.71243 -0.297003 0
M  V30 41681 N 3950.96 0.0067362 1.57599 0
M  V30 41682 C 3951.89 -0.981294 2.11879 0
M  V30 41683 C 3952.87 -1.35407 1.02952 0
M  V30 41684 O 3954.06 -1.43663 1.3067 0
M  V30 41685 C 3951.19 -2.27099 2.62761 0
M  V30 41686 C 3950.14 -2.03963 3.76275 0
M  V30 41687 C 3949.47 -3.39004 4.13497 0
M  V30 41688 C 3950.77 -1.39679 5.03276 0
M  V30 41689 H 3952.46 -0.529314 2.94684 0
M  V30 41690 H 3950.01 -0.253162 1.41757 0
M  V30 41691 H 3951.96 -2.96579 2.99364 0
M  V30 41692 H 3950.68 -2.74422 1.77087 0
M  V30 41693 H 3949.34 -1.36907 3.40077 0
M  V30 41694 H 3948.99 -3.84044 3.24837 0
M  V30 41695 H 3948.69 -3.24338 4.89978 0
M  V30 41696 H 3950.22 -4.09789 4.52665 0
M  V30 41697 H 3951.63 -1.99126 5.37607 0
M  V30 41698 H 3950.03 -1.3548 5.84607 0
M  V30 41699 H 3951.1 -0.366843 4.8351 0
M  V30 41700 N 3952.44 -1.55337 -0.266118 0
M  V30 41701 C 3953.67 -1.80301 -1.01486 0
M  V30 41702 C 3954.08 -0.579774 -1.79678 0
M  V30 41703 O 3953.44 0.451288 -1.76832 0
M  V30 41704 C 3953.49 -3.03236 -1.96799 0
M  V30 41705 O 3953.21 -4.20836 -1.21774 0
M  V30 41706 C 3954.71 -3.40856 -2.8343 0
M  V30 41707 H 3951.93 -0.600454 -0.299493 0
M  V30 41708 H 3954.48 -2.02364 -0.294818 0
M  V30 41709 H 3952.63 -2.83279 -2.64257 0
M  V30 41710 H 3953.05 -4.90383 -1.86078 0
M  V30 41711 H 3954.52 -4.30028 -3.46092 0
M  V30 41712 H 3955 -2.60568 -3.53554 0
M  V30 41713 H 3955.6 -3.63096 -2.21453 0
M  V30 41714 N 3953.92 0.53094 -1.48387 0
M  V30 41715 C 3955.33 0.859388 -1.34487 0
M  V30 41716 C 3955.53 1.98345 -0.355159 0
M  V30 41717 O 3954.59 2.51505 0.223968 0
M  V30 41718 C 3955.9 1.22782 -2.74491 0
M  V30 41719 C 3957.45 1.33776 -2.82972 0
M  V30 41720 C 3957.93 1.73962 -4.23676 0
M  V30 41721 N 3959.42 1.81067 -4.26344 0
M  V30 41722 C 3960.15 2.13544 -5.32153 0
M  V30 41723 N 3959.65 2.44453 -6.4824 0
M  V30 41724 N 3961.44 2.14542 -5.19546 0
M  V30 41725 H 3953.59 -0.21075 -2.11352 0
M  V30 41726 H 3955.85 -0.0316449 -0.947472 0
M  V30 41727 H 3955.56 0.475491 -3.48471 0
M  V30 41728 H 3955.43 2.17818 -3.07953 0
M  V30 41729 H 3957.82 2.08085 -2.09248 0
M  V30 41730 H 3957.9 0.368632 -2.5313 0
M  V30 41731 H 3957.55 1.00214 -4.97915 0
M  V30 41732 H 3957.48 2.71923 -4.5096 0
M  V30 41733 H 3959.97 1.59461 -3.42608 0
M  V30 41734 H 3960.28 2.68337 -7.24717 0
M  V30 41735 H 3958.63 2.41975 -6.51516 0
M  V30 41736 H 3961.82 1.89852 -4.27871 0
M  V30 41737 H 3961.99 2.39522 -6.02107 0
M  V30 41738 N 3955.4 1.36959 0.779739 0
M  V30 41739 C 3956.34 1.32074 1.89275 0
M  V30 41740 C 3957.31 0.187689 1.65036 0
M  V30 41741 O 3958.5 0.375769 1.87063 0
M  V30 41742 C 3955.64 1.12558 3.26228 0
M  V30 41743 C 3954.75 2.35023 3.62475 0
M  V30 41744 C 3953.89 2.08443 4.88595 0
M  V30 41745 C 3952.92 3.26817 5.17549 0
M  V30 41746 N 3952.06 2.99839 6.34855 0
M  V30 41747 H 3956.9 2.27239 1.92786 0
M  V30 41748 H 3954.44 1.12928 0.942636 0
M  V30 41749 H 3956.4 0.992666 4.05218 0
M  V30 41750 H 3955.03 0.210444 3.22113 0
M  V30 41751 H 3954.08 2.59084 2.78532 0
M  V30 41752 H 3955.39 3.2333 3.79814 0
M  V30 41753 H 3954.54 1.92137 5.75472 0
M  V30 41754 H 3953.28 1.17462 4.73343 0
M  V30 41755 H 3952.29 3.43671 4.2915 0
M  V30 41756 H 3953.51 4.18638 5.34714 0
M  V30 41757 H 3951.46 2.11479 6.20977 0
M  V30 41758 H 3951.38 3.81687 6.52573 0
M  V30 41759 H 3952.64 2.87133 7.24689 0
M  V30 41760 N 3956.87 -1.00501 1.21398 0
M  V30 41761 C 3957.8 -2.1113 0.997306 0
M  V30 41762 C 3958.78 -1.69922 -0.0777156 0
M  V30 41763 O 3959.97 -1.94026 0.0821141 0
M  V30 41764 C 3957.1 -3.42736 0.561182 0
M  V30 41765 C 3956.05 -3.97738 1.58076 0
M  V30 41766 C 3955.38 -5.25249 1.00088 0
M  V30 41767 C 3956.68 -4.29802 2.96762 0
M  V30 41768 H 3958.37 -2.29514 1.92259 0
M  V30 41769 H 3955.92 -1.10295 0.925795 0
M  V30 41770 H 3957.87 -4.19528 0.396774 0
M  V30 41771 H 3956.6 -3.24144 -0.399747 0
M  V30 41772 H 3955.26 -3.23066 1.73274 0
M  V30 41773 H 3954.9 -5.0299 0.0316681 0
M  V30 41774 H 3954.6 -5.63014 1.68192 0
M  V30 41775 H 3956.13 -6.04686 0.847793 0
M  V30 41776 H 3957.54 -4.97436 2.85009 0
M  V30 41777 H 3955.94 -4.7871 3.61879 0
M  V30 41778 H 3957.01 -3.38078 3.47608 0
M  V30 41779 N 3958.35 -1.02172 -1.19994 0
M  V30 41780 C 3959.6 -0.714023 -1.89494 0
M  V30 41781 C 3959.93 0.756788 -1.79173 0
M  V30 41782 O 3959.18 1.56601 -1.17365 0
M  V30 41783 C 3959.48 -1.10168 -3.39997 0
M  V30 41784 C 3959.15 -2.56956 -3.70519 0
M  V30 41785 C 3957.81 -2.97062 -3.7856 0
M  V30 41786 C 3960.16 -3.51959 -3.84414 0
M  V30 41787 C 3957.49 -4.31099 -3.97958 0
M  V30 41788 C 3959.84 -4.85691 -4.05324 0
M  V30 41789 C 3958.5 -5.25496 -4.11595 0
M  V30 41790 H 3957.77 -0.261279 -0.693408 0
M  V30 41791 H 3960.42 -1.28325 -1.42144 0
M  V30 41792 H 3958.73 -0.450948 -3.89196 0
M  V30 41793 H 3960.42 -0.841227 -3.92077 0
M  V30 41794 H 3957.01 -2.24883 -3.64864 0
M  V30 41795 H 3961.2 -3.2213 -3.77553 0
M  V30 41796 H 3956.45 -4.61486 -4.01049 0
M  V30 41797 H 3960.63 -5.59226 -4.15017 0
M  V30 41798 H 3958.25 -6.29369 -4.26378 0
M  V30 41799 N 3959.83 1.35866 -0.798635 0
M  V30 41800 C 3961.08 1.99724 -0.384955 0
M  V30 41801 C 3961.43 1.62231 1.03435 0
M  V30 41802 O 3960.72 0.871494 1.70633 0
M  V30 41803 C 3960.92 3.53933 -0.496634 0
M  V30 41804 C 3960.75 4.06404 -1.92524 0
M  V30 41805 C 3959.52 4.36127 -2.55188 0
M  V30 41806 C 3961.71 4.2551 -2.88869 0
M  V30 41807 N 3959.7 4.74479 -3.89542 0
M  V30 41808 C 3961.07 4.6677 -4.08076 0
M  V30 41809 C 3963.12 4.07701 -2.85805 0
M  V30 41810 C 3961.83 4.92083 -5.2464 0
M  V30 41811 C 3963.85 4.34166 -4.01564 0
M  V30 41812 C 3963.21 4.7569 -5.19518 0
M  V30 41813 H 3959.31 0.758948 -0.188471 0
M  V30 41814 H 3961.9 1.64711 -1.03819 0
M  V30 41815 H 3960.07 3.88194 0.126563 0
M  V30 41816 H 3961.8 4.04658 -0.0583093 0
M  V30 41817 H 3958.55 4.26161 -2.066 0
M  V30 41818 H 3958.98 4.97926 -4.58692 0
M  V30 41819 H 3963.62 3.74746 -1.95768 0
M  V30 41820 H 3961.34 5.23915 -6.15255 0
M  V30 41821 H 3964.92 4.21947 -4.00565 0
M  V30 41822 H 3963.8 4.9577 -6.07603 0
M  V30 41823 N 3961.31 0.551443 1.47638 0
M  V30 41824 C 3962.56 0.0251908 2.02084 0
M  V30 41825 C 3962.88 -1.3271 1.42874 0
M  V30 41826 O 3962.15 -1.86427 0.601827 0
M  V30 41827 H 3960.73 0.00632318 0.746973 0
M  V30 41828 H 3963.39 0.720145 1.81108 0
M  V30 41829 H 3962.48 -0.067206 3.12028 0
M  V30 41830 N 3962.79 -1.54953 0.287609 0
M  V30 41831 C 3964.04 -1.99043 -0.32628 0
M  V30 41832 C 3964.35 -1.17956 -1.56031 0
M  V30 41833 O 3965.55 -1.5225 -2.24794 0
M  V30 41834 C 3964.01 -3.5431 -0.631855 0
M  V30 41835 C 3963.62 -4.44189 0.583076 0
M  V30 41836 C 3965.36 -4.06959 -1.20768 0
M  V30 41837 C 3963.27 -5.90865 0.251395 0
M  V30 41838 H 3962.2 -0.74345 -0.12569 0
M  V30 41839 H 3964.85 -1.79215 0.394219 0
M  V30 41840 H 3963.23 -3.69987 -1.41159 0
M  V30 41841 H 3964.41 -4.40284 1.35965 0
M  V30 41842 H 3962.72 -4.02241 1.0766 0
M  V30 41843 H 3965.32 -5.14101 -1.46985 0
M  V30 41844 H 3965.66 -3.56747 -2.14563 0
M  V30 41845 H 3966.19 -3.94771 -0.489951 0
M  V30 41846 H 3962.93 -6.45198 1.15755 0
M  V30 41847 H 3962.45 -5.9781 -0.488169 0
M  V30 41848 H 3964.13 -6.46822 -0.151894 0
M  V30 41849 N 3964.26 -0.0150939 -1.57593 0
M  V30 41850 C 3965.51 0.666565 -1.91215 0
M  V30 41851 C 3965.84 1.72934 -0.89017 0
M  V30 41852 O 3965.09 1.95429 0.102942 0
M  V30 41853 C 3965.39 1.33371 -3.31583 0
M  V30 41854 C 3965.06 0.402669 -4.49098 0
M  V30 41855 C 3963.72 0.14637 -4.80977 0
M  V30 41856 C 3966.07 -0.237468 -5.20659 0
M  V30 41857 C 3963.4 -0.758106 -5.81781 0
M  V30 41858 C 3965.75 -1.12991 -6.22427 0
M  V30 41859 C 3964.42 -1.39524 -6.52755 0
M  V30 41860 H 3963.69 0.243914 -0.699705 0
M  V30 41861 H 3966.33 -0.0738576 -1.91358 0
M  V30 41862 H 3964.64 2.14854 -3.27635 0
M  V30 41863 H 3966.34 1.86745 -3.54863 0
M  V30 41864 H 3962.93 0.612603 -4.24199 0
M  V30 41865 H 3967.11 -0.0524953 -4.96272 0
M  V30 41866 H 3962.37 -0.971521 -6.03632 0
M  V30 41867 H 3966.54 -1.6322 -6.77002 0
M  V30 41868 H 3964.17 -2.09777 -7.30683 0
M  V30 41869 N 3965.74 1.55476 0.257876 0
M  V30 41870 C 3967.02 1.67529 1.00962 0
M  V30 41871 C 3967.4 0.551729 2.03762 0
M  V30 41872 O 3966.75 -0.446275 2.241 0
M  V30 41873 C 3966.96 3.0738 1.65284 0
M  V30 41874 C 3968.31 3.65623 2.15881 0
M  V30 41875 O 3969.33 3.10109 1.75244 0
M  V30 41876 O 3968.19 4.62919 2.90463 0
M  V30 41877 H 3965.28 0.680977 0.469254 0
M  V30 41878 H 3967.83 1.6781 0.252533 0
M  V30 41879 H 3966.6 3.80603 0.908702 0
M  V30 41880 H 3966.22 3.11062 2.47641 0
M  V30 41881 N 3967.22 -0.523064 1.48667 0
M  V30 41882 C 3968.45 -1.30784 1.60967 0
M  V30 41883 C 3968.87 -1.86113 0.272696 0
M  V30 41884 O 3968.23 -1.64757 -0.756633 0
M  V30 41885 C 3968.28 -2.42964 2.6646 0
M  V30 41886 O 3967.38 -3.46198 2.241 0
M  V30 41887 H 3966.72 -0.387055 0.539523 0
M  V30 41888 H 3969.25 -0.628649 1.94703 0
M  V30 41889 H 3969.26 -2.89051 2.87948 0
M  V30 41890 H 3967.94 -2.02056 3.63519 0
M  V30 41891 H 3966.51 -3.06183 2.12853 0
M  V30 41892 N 3968.7 -1.37371 -0.772465 0
M  V30 41893 C 3969.63 -1.35775 -1.89967 0
M  V30 41894 C 3970.61 -0.226482 -1.68585 0
M  V30 41895 O 3971.79 -0.426725 -1.89454 0
M  V30 41896 C 3968.92 -1.16325 -3.2724 0
M  V30 41897 C 3967.88 -2.26456 -3.63183 0
M  V30 41898 C 3967.2 -1.9213 -4.98989 0
M  V30 41899 C 3968.5 -3.68636 -3.70006 0
M  V30 41900 H 3970.2 -2.30098 -1.9156 0
M  V30 41901 H 3967.74 -1.10761 -0.920222 0
M  V30 41902 H 3969.7 -1.13839 -4.05732 0
M  V30 41903 H 3968.42 -0.18457 -3.26078 0
M  V30 41904 H 3967.08 -2.28097 -2.86997 0
M  V30 41905 H 3966.73 -0.927935 -4.94367 0
M  V30 41906 H 3966.43 -2.65876 -5.24007 0
M  V30 41907 H 3967.95 -1.9123 -5.79882 0
M  V30 41908 H 3969.37 -3.69129 -4.38653 0
M  V30 41909 H 3967.76 -4.4143 -4.06521 0
M  V30 41910 H 3968.83 -4.02314 -2.70687 0
M  V30 41911 N 3970.18 0.998553 -1.21929 0
M  V30 41912 C 3971.14 2.06918 -0.98578 0
M  V30 41913 C 3972.14 1.60735 0.0456624 0
M  V30 41914 O 3973.33 1.73136 -0.192271 0
M  V30 41915 C 3970.46 3.37391 -0.487849 0
M  V30 41916 H 3971.65 2.29067 -1.93567 0
M  V30 41917 H 3969.21 1.16928 -1.03718 0
M  V30 41918 H 3969.94 3.20925 0.466666 0
M  V30 41919 H 3969.73 3.72245 -1.23192 0
M  V30 41920 H 3971.22 4.16176 -0.344542 0
M  V30 41921 N 3971.65 1.02807 1.1945 0
M  V30 41922 C 3972.6 0.578771 2.20532 0
M  V30 41923 C 3973.59 -0.372053 1.56539 0
M  V30 41924 O 3974.78 -0.193154 1.75943 0
M  V30 41925 C 3971.91 -0.0698379 3.43229 0
M  V30 41926 C 3971 0.903379 4.14367 0
M  V30 41927 N 3971.39 2.06548 4.61705 0
M  V30 41928 C 3969.68 0.72665 4.40041 0
M  V30 41929 C 3970.39 2.67923 5.16326 0
M  V30 41930 N 3969.36 1.95893 5.07077 0
M  V30 41931 H 3973.16 1.46455 2.5481 0
M  V30 41932 H 3970.68 0.894951 1.35515 0
M  V30 41933 H 3972.67 -0.409338 4.14886 0
M  V30 41934 H 3971.33 -0.951313 3.10451 0
M  V30 41935 H 3972.35 2.44493 4.56556 0
M  V30 41936 H 3969.02 -0.105802 4.17366 0
M  V30 41937 H 3970.41 3.66336 5.63248 0
M  V30 41938 N 3973.13 -1.35441 0.805829 0
M  V30 41939 C 3974.08 -2.29809 0.213672 0
M  V30 41940 C 3975.05 -1.52775 -0.651851 0
M  V30 41941 O 3976.23 -1.81217 -0.597092 0
M  V30 41942 C 3973.37 -3.39256 -0.632385 0
M  V30 41943 C 3972.49 -4.31256 0.253489 0
M  V30 41944 C 3971.62 -5.27795 -0.6005 0
M  V30 41945 C 3970.66 -6.11432 0.285819 0
M  V30 41946 N 3969.8 -7.00111 -0.528099 0
M  V30 41947 H 3974.64 -2.7986 1.02383 0
M  V30 41948 H 3972.18 -1.37737 0.516422 0
M  V30 41949 H 3974.13 -4.01378 -1.13807 0
M  V30 41950 H 3972.76 -2.90483 -1.40781 0
M  V30 41951 H 3971.82 -3.70146 0.877267 0
M  V30 41952 H 3973.13 -4.89945 0.935718 0
M  V30 41953 H 3972.28 -5.95285 -1.17134 0
M  V30 41954 H 3971.02 -4.69601 -1.3163 0
M  V30 41955 H 3970.03 -5.4289 0.868939 0
M  V30 41956 H 3971.25 -6.71705 0.999467 0
M  V30 41957 H 3969.2 -6.44406 -1.22789 0
M  V30 41958 H 3969.11 -7.55939 0.0960987 0
M  V30 41959 H 3970.38 -7.71951 -1.08224 0
M  V30 41960 N 3974.61 -0.559265 -1.47343 0
M  V30 41961 C 3975.56 0.187277 -2.30039 0
M  V30 41962 C 3976.53 0.906418 -1.39188 0
M  V30 41963 O 3977.71 0.901709 -1.68148 0
M  V30 41964 C 3974.85 1.20999 -3.23192 0
M  V30 41965 C 3973.97 0.496701 -4.29135 0
M  V30 41966 C 3973.1 1.50488 -5.09438 0
M  V30 41967 C 3972.14 0.776687 -6.07152 0
M  V30 41968 N 3971.28 1.7318 -6.80407 0
M  V30 41969 H 3976.12 -0.52403 -2.93356 0
M  V30 41970 H 3973.65 -0.27025 -1.44596 0
M  V30 41971 H 3975.61 1.81555 -3.75624 0
M  V30 41972 H 3974.24 1.8893 -2.61735 0
M  V30 41973 H 3973.29 -0.223425 -3.79743 0
M  V30 41974 H 3974.61 -0.0736608 -4.98746 0
M  V30 41975 H 3973.76 2.18392 -5.6603 0
M  V30 41976 H 3972.5 2.10916 -4.39734 0
M  V30 41977 H 3971.5 0.0837415 -5.49736 0
M  V30 41978 H 3972.73 0.17812 -6.78866 0
M  V30 41979 H 3970.67 2.32462 -6.13431 0
M  V30 41980 H 3970.59 1.21364 -7.46195 0
M  V30 41981 H 3971.86 2.40191 -7.41572 0
M  V30 41982 N 3976.09 1.54799 -0.295822 0
M  V30 41983 C 3977.32 2.04149 0.317266 0
M  V30 41984 C 3977.73 1.17286 1.48461 0
M  V30 41985 O 3977.07 0.190011 1.82715 0
M  V30 41986 C 3977.13 3.4952 0.84118 0
M  V30 41987 C 3976.8 4.56561 -0.200214 0
M  V30 41988 C 3977.79 5.09658 -1.02689 0
M  V30 41989 C 3975.48 5.01145 -0.340421 0
M  V30 41990 C 3977.47 6.05875 -1.97977 0
M  V30 41991 C 3975.16 5.97183 -1.29675 0
M  V30 41992 C 3976.16 6.49431 -2.11491 0
M  V30 41993 O 3975.84 7.43588 -3.05503 0
M  V30 41994 H 3975.58 0.671975 0.0736561 0
M  V30 41995 H 3978.13 2.00809 -0.431841 0
M  V30 41996 H 3976.36 3.50167 1.64072 0
M  V30 41997 H 3978.05 3.82096 1.36959 0
M  V30 41998 H 3978.82 4.76011 -0.929414 0
M  V30 41999 H 3974.69 4.60109 0.286445 0
M  V30 42000 H 3978.24 6.46581 -2.61877 0
M  V30 42001 H 3974.14 6.30247 -1.39496 0
M  V30 42002 H 3974.9 7.61373 -3.00422 0
M  V30 42003 N 3977.57 0.0234513 1.57583 0
M  V30 42004 C 3978.84 -0.694755 1.82846 0
M  V30 42005 C 3979.22 -1.90661 0.906175 0
M  V30 42006 O 3978.57 -2.28466 -0.0395808 0
M  V30 42007 C 3978.78 -1.07834 3.31923 0
M  V30 42008 C 3980.13 -1.47236 3.98255 0
M  V30 42009 O 3981.15 -1.17148 3.36385 0
M  V30 42010 O 3980.01 -2.03276 5.07288 0
M  V30 42011 H 3977.11 -0.340326 0.753729 0
M  V30 42012 H 3979.65 0.0507002 1.69624 0
M  V30 42013 H 3978.43 -0.215572 3.90706 0
M  V30 42014 H 3978.05 -1.88214 3.5023 0
M  V30 42015 N 3979.05 -1.5561 -0.249627 0
M  V30 42016 C 3980.46 -1.67782 -0.818904 0
M  V30 42017 C 3980.81 -0.620407 -1.86133 0
M  V30 42018 O 3979.93 0.233831 -2.15133 0
M  V30 42019 C 3980.53 -3.04172 -1.49213 0
M  V30 42020 C 3979.09 -3.18293 -2.00914 0
M  V30 42021 C 3978.23 -2.6365 -0.859287 0
M  V30 42022 H 3981.18 -1.5868 -0.0254907 0
M  V30 42023 H 3981.21 -2.98465 -2.36006 0
M  V30 42024 H 3980.72 -3.81111 -0.733201 0
M  V30 42025 H 3978.82 -2.46172 -2.79697 0
M  V30 42026 H 3978.93 -4.25166 -2.2084 0
M  V30 42027 H 3977.3 -2.21404 -1.25906 0
M  V30 42028 H 3978.08 -3.43112 -0.113484 0
M  V30 42029 N 3980.52 0.515172 -1.48942 0
M  V30 42030 C 3981.43 1.64489 -1.67273 0
M  V30 42031 C 3982.45 1.64903 -0.555251 0
M  V30 42032 O 3983.63 1.83584 -0.828193 0
M  V30 42033 C 3980.69 3.00909 -1.72205 0
M  V30 42034 C 3979.75 3.11234 -2.95689 0
M  V30 42035 C 3978.98 4.41147 -3.00375 0
M  V30 42036 O 3979.21 5.29118 -2.1305 0
M  V30 42037 O 3978.14 4.56148 -3.92699 0
M  V30 42038 H 3981.97 1.51957 -2.6295 0
M  V30 42039 H 3979.55 0.689907 -1.32517 0
M  V30 42040 H 3981.43 3.82015 -1.77884 0
M  V30 42041 H 3980.11 3.13734 -0.79705 0
M  V30 42042 H 3979.02 2.29369 -2.95535 0
M  V30 42043 H 3980.35 3.03332 -3.87622 0
M  V30 42044 N 3982 1.37779 0.765169 0
M  V30 42045 C 3982.93 1.3678 1.89244 0
M  V30 42046 C 3983.91 0.235419 1.68463 0
M  V30 42047 O 3985.1 0.436767 1.89225 0
M  V30 42048 C 3982.23 1.18059 3.26618 0
M  V30 42049 C 3981.18 2.28379 3.61977 0
M  V30 42050 C 3980.51 1.94774 4.97963 0
M  V30 42051 C 3981.81 3.70593 3.68046 0
M  V30 42052 H 3983.5 2.31111 1.90337 0
M  V30 42053 H 3981.05 1.11247 0.914335 0
M  V30 42054 H 3983 1.15989 4.05123 0
M  V30 42055 H 3981.72 0.201861 3.25976 0
M  V30 42056 H 3980.38 2.29615 2.85784 0
M  V30 42057 H 3980.03 0.954139 4.93868 0
M  V30 42058 H 3979.73 2.68652 5.2259 0
M  V30 42059 H 3981.26 1.94302 5.7886 0
M  V30 42060 H 3982.67 3.71451 4.36689 0
M  V30 42061 H 3981.07 4.4358 4.04175 0
M  V30 42062 H 3982.14 4.03744 2.68549 0
M  V30 42063 N 3983.48 -0.992073 1.22457 0
M  V30 42064 C 3984.71 -1.76465 1.07441 0
M  V30 42065 C 3985.12 -1.85387 -0.377917 0
M  V30 42066 O 3984.46 -1.32378 -1.27364 0
M  V30 42067 C 3984.52 -3.21345 1.61177 0
M  V30 42068 C 3984.19 -3.35965 3.098 0
M  V30 42069 C 3985.18 -3.23215 4.0722 0
M  V30 42070 C 3982.87 -3.6099 3.49273 0
M  V30 42071 C 3984.86 -3.35274 5.42098 0
M  V30 42072 C 3982.55 -3.7269 4.84299 0
M  V30 42073 C 3983.55 -3.59841 5.8052 0
M  V30 42074 O 3983.24 -3.71149 7.13095 0
M  V30 42075 H 3982.97 -0.560999 0.377168 0
M  V30 42076 H 3985.52 -1.25592 1.62529 0
M  V30 42077 H 3983.75 -3.73413 1.00497 0
M  V30 42078 H 3985.44 -3.80322 1.41811 0
M  V30 42079 H 3986.21 -3.03792 3.78068 0
M  V30 42080 H 3982.09 -3.70068 2.74901 0
M  V30 42081 H 3985.63 -3.25161 6.17184 0
M  V30 42082 H 3981.53 -3.9162 5.13131 0
M  V30 42083 H 3982.29 -3.88016 7.20684 0
M  V30 42084 N 3984.96 -1.03439 -1.18904 0
M  V30 42085 C 3986.37 -0.752469 -1.40748 0
M  V30 42086 C 3986.57 0.660645 -1.90362 0
M  V30 42087 O 3985.63 1.42581 -2.08391 0
M  V30 42088 C 3986.94 -1.79325 -2.41377 0
M  V30 42089 C 3988.49 -1.81344 -2.55115 0
M  V30 42090 C 3988.97 -2.84397 -3.59002 0
M  V30 42091 N 3990.46 -2.83248 -3.66503 0
M  V30 42092 C 3991.19 -3.59639 -4.46595 0
M  V30 42093 N 3990.69 -4.45762 -5.30347 0
M  V30 42094 N 3992.48 -3.48156 -4.41298 0
M  V30 42095 H 3984.63 -1.94641 -0.850224 0
M  V30 42096 H 3986.89 -0.841816 -0.435947 0
M  V30 42097 H 3986.6 -2.80654 -2.11958 0
M  V30 42098 H 3986.47 -1.62014 -3.40634 0
M  V30 42099 H 3988.86 -0.806897 -2.83854 0
M  V30 42100 H 3988.94 -2.02731 -1.55993 0
M  V30 42101 H 3988.59 -3.85226 -3.31004 0
M  V30 42102 H 3988.52 -2.60266 -4.57787 0
M  V30 42103 H 3991.01 -2.20789 -3.06693 0
M  V30 42104 H 3991.32 -5.00776 -5.88594 0
M  V30 42105 H 3989.67 -4.49832 -5.29789 0
M  V30 42106 H 3992.86 -2.80282 -3.74913 0
M  V30 42107 H 3993.03 -4.07941 -5.03476 0
M  V30 42108 N 3986.44 1.35011 -0.813001 0
M  V30 42109 C 3987.37 2.27541 -0.173299 0
M  V30 42110 C 3988.35 1.48403 0.66448 0
M  V30 42111 O 3989.53 1.77647 0.630373 0
M  V30 42112 C 3986.66 3.30088 0.758913 0
M  V30 42113 C 3985.7 4.265 -6.43048e-05 0
M  V30 42114 S 3986.54 5.18451 -1.34049 0
M  V30 42115 C 3987.69 6.24537 -0.412888 0
M  V30 42116 H 3987.93 2.81449 -0.957795 0
M  V30 42117 H 3985.46 1.41908 -0.608386 0
M  V30 42118 H 3987.42 3.89663 1.29124 0
M  V30 42119 H 3986.08 2.75046 1.51685 0
M  V30 42120 H 3985.27 4.98999 0.708212 0
M  V30 42121 H 3984.87 3.71128 -0.462628 0
M  V30 42122 H 3987.16 6.76322 0.399391 0
M  V30 42123 H 3988.11 6.99389 -1.10726 0
M  V30 42124 H 3988.52 5.645 -0.00573011 0
M  V30 42125 N 3987.91 0.567071 1.47044 0
M  V30 42126 C 3988.88 -0.164718 2.28607 0
M  V30 42127 C 3989.88 -0.833518 1.3751 0
M  V30 42128 O 3991.07 -0.687867 1.60044 0
M  V30 42129 C 3988.2 -1.24205 3.17468 0
M  V30 42130 H 3989.39 0.551866 2.94779 0
M  V30 42131 H 3986.94 0.324403 1.52896 0
M  V30 42132 H 3987.68 -1.99072 2.5601 0
M  V30 42133 H 3987.46 -0.767176 3.84522 0
M  V30 42134 H 3988.95 -1.75575 3.78897 0
M  V30 42135 N 3989.39 -1.5464 0.304027 0
M  V30 42136 C 3990.32 -2.19818 -0.612798 0
M  V30 42137 C 3991.3 -1.1686 -1.1306 0
M  V30 42138 O 3992.49 -1.45515 -1.19823 0
M  V30 42139 C 3989.61 -2.84442 -1.83876 0
M  V30 42140 C 3988.66 -4.00953 -1.45393 0
M  V30 42141 S 3989.49 -5.33092 -0.507279 0
M  V30 42142 C 3990.65 -6.012 -1.74097 0
M  V30 42143 H 3990.88 -2.97241 -0.0590764 0
M  V30 42144 H 3988.41 -1.54148 0.0881572 0
M  V30 42145 H 3990.37 -3.223 -2.5423 0
M  V30 42146 H 3989.03 -2.06859 -2.36365 0
M  V30 42147 H 3988.23 -4.44963 -2.36694 0
M  V30 42148 H 3987.83 -3.64667 -0.830306 0
M  V30 42149 H 3990.12 -6.22191 -2.68113 0
M  V30 42150 H 3991.06 -6.9524 -1.34337 0
M  V30 42151 H 3991.47 -5.30879 -1.91906 0
M  V30 42152 N 3990.87 -0.0318079 -1.57568 0
M  V30 42153 C 3992.28 0.506647 -1.79694 0
M  V30 42154 C 3992.63 1.72089 -0.94232 0
M  V30 42155 O 3991.76 2.15855 -0.153473 0
M  V30 42156 C 3992.35 0.925921 -3.25902 0
M  V30 42157 C 3990.91 1.40947 -3.49014 0
M  V30 42158 C 3990.06 0.375461 -2.74746 0
M  V30 42159 H 3993.01 -0.257825 -1.56592 0
M  V30 42160 H 3993.03 1.79011 -3.35761 0
M  V30 42161 H 3992.54 0.0419759 -3.88077 0
M  V30 42162 H 3990.64 2.31326 -2.92095 0
M  V30 42163 H 3990.76 1.41499 -4.57728 0
M  V30 42164 H 3989.12 0.844145 -2.40305 0
M  V30 42165 H 3989.9 -0.500064 -3.39638 0
M  V30 42166 N 3992.35 1.55741 0.241371 0
M  V30 42167 C 3993.59 1.79597 0.975925 0
M  V30 42168 C 3993.95 0.602212 1.82311 0
M  V30 42169 O 3995.15 0.719659 2.58987 0
M  V30 42170 C 3993.42 3.0823 1.80912 0
M  V30 42171 S 3994.98 3.53328 2.60201 0
M  V30 42172 H 3991.8 0.630732 0.328173 0
M  V30 42173 H 3994.4 1.9398 0.243273 0
M  V30 42174 H 3993.11 3.93174 1.17653 0
M  V30 42175 H 3992.64 2.96599 2.58442 0
M  V30 42176 H 3994.65 3.15098 3.83312 0
M  V30 42177 N 3993.83 -0.507266 1.49213 0
M  V30 42178 C 3994.76 -1.61826 1.68329 0
M  V30 42179 C 3995.74 -1.61567 0.531998 0
M  V30 42180 O 3996.92 -1.78406 0.767135 0
M  V30 42181 C 3994.05 -3.00337 1.744 0
M  V30 42182 C 3993.01 -3.1546 2.89256 0
M  V30 42183 C 3992.33 -4.55259 2.80434 0
M  V30 42184 C 3993.63 -2.96077 4.30274 0
M  V30 42185 H 3995.33 -1.46083 2.61343 0
M  V30 42186 H 3992.87 -0.701345 1.25766 0
M  V30 42187 H 3994.83 -3.77953 1.86359 0
M  V30 42188 H 3993.55 -3.17154 0.779804 0
M  V30 42189 H 3992.21 -2.40267 2.76888 0
M  V30 42190 H 3991.86 -4.68944 1.81936 0
M  V30 42191 H 3991.56 -4.66319 3.57519 0
M  V30 42192 H 3993.08 -5.34944 2.94393 0
M  V30 42193 H 3994.49 -3.63467 4.43356 0
M  V30 42194 H 3992.89 -3.18614 5.08532 0
M  V30 42195 H 3993.96 -1.92264 4.45155 0
M  V30 42196 N 3995.3 -1.38182 -0.757851 0
M  V30 42197 C 3996.54 -1.35568 -1.52973 0
M  V30 42198 C 3996.91 0.0553855 -1.9192 0
M  V30 42199 O 3998.11 0.206371 -2.68007 0
M  V30 42200 C 3996.38 -2.2809 -2.75154 0
M  V30 42201 S 3997.94 -2.43456 -3.65068 0
M  V30 42202 H 3994.76 -0.48107 -0.523539 0
M  V30 42203 H 3997.36 -1.74067 -0.890003 0
M  V30 42204 H 3996.06 -3.29511 -2.44643 0
M  V30 42205 H 3995.59 -1.90725 -3.44075 0
M  V30 42206 H 3997.61 -1.65546 -4.6777 0
M  V30 42207 N 3996.78 0.985565 -1.22981 0
M  V30 42208 C 3997.75 2.05861 -1.00767 0
M  V30 42209 C 3998.75 1.60775 0.0286117 0
M  V30 42210 O 3999.94 1.72922 -0.210624 0
M  V30 42211 C 3997.07 3.36855 -0.523606 0
M  V30 42212 H 3998.26 2.27001 -1.95986 0
M  V30 42213 H 3995.81 1.15822 -1.04952 0
M  V30 42214 H 3996.55 3.21402 0.432602 0
M  V30 42215 H 3996.33 3.70917 -1.27134 0
M  V30 42216 H 3997.82 4.15787 -0.388664 0
M  V30 42217 N 3998.26 1.04068 1.18353 0
M  V30 42218 C 3999.51 0.739263 1.87664 0
M  V30 42219 C 3999.82 -0.735931 1.81228 0
M  V30 42220 O 4001.03 -1.15087 2.45901 0
M  V30 42221 C 3999.48 1.27208 3.36669 0
M  V30 42222 C 3999.09 2.77591 3.51635 0
M  V30 42223 C 4000.84 1.04719 4.11381 0
M  V30 42224 C 3998.74 3.24231 4.94599 0
M  V30 42225 H 3997.67 0.272842 0.702903 0
M  V30 42226 H 4000.32 1.25652 1.33731 0
M  V30 42227 H 3998.71 0.68269 3.90071 0
M  V30 42228 H 3999.88 3.42288 3.08505 0
M  V30 42229 H 3998.2 2.98493 2.90329 0
M  V30 42230 H 4000.79 1.3708 5.1683 0
M  V30 42231 H 4001.14 -0.0155612 4.16297 0
M  V30 42232 H 4001.67 1.6012 3.64152 0
M  V30 42233 H 3998.41 4.29887 4.94851 0
M  V30 42234 H 3997.93 2.64269 5.38444 0
M  V30 42235 H 3999.61 3.18254 5.63314 0
M  V30 42236 N 3999.74 -1.34578 0.820149 0
M  V30 42237 C 4000.7 -2.27881 0.245502 0
M  V30 42238 C 4001.7 -1.50168 -0.574998 0
M  V30 42239 O 4002.89 -1.69744 -0.391506 0
M  V30 42240 C 4000.02 -3.34526 -0.65614 0
M  V30 42241 H 4001.22 -2.80217 1.06858 0
M  V30 42242 H 3998.77 -1.44663 0.591803 0
M  V30 42243 H 3999.5 -2.874 -1.50239 0
M  V30 42244 H 3999.29 -3.92039 -0.0693262 0
M  V30 42245 H 4000.78 -4.0413 -1.05209 0
M  V30 42246 N 4001.22 -0.574861 -1.46742 0
M  V30 42247 C 4002.46 -0.0573375 -2.02019 0
M  V30 42248 C 4002.79 1.30421 -1.44967 0
M  V30 42249 O 4002.06 1.85445 -0.63141 0
M  V30 42250 H 4000.64 -0.0182061 -0.746778 0
M  V30 42251 H 4003.3 -0.748866 -1.79939 0
M  V30 42252 H 4002.39 0.0175566 -3.12095 0
M  V30 42253 N 4002.69 1.54476 -0.312224 0
M  V30 42254 C 4003.66 2.226 0.546081 0
M  V30 42255 C 4004.66 1.2157 1.05249 0
M  V30 42256 O 4005.85 1.46228 0.94673 0
M  V30 42257 C 4002.98 2.92118 1.75728 0
M  V30 42258 H 4004.17 2.9986 -0.0492743 0
M  V30 42259 H 4001.73 1.56172 -0.0631764 0
M  V30 42260 H 4002.46 2.18965 2.39217 0
M  V30 42261 H 4002.25 3.6619 1.40168 0
M  V30 42262 H 4003.74 3.44053 2.36679 0
M  V30 42263 N 4004.17 0.0401637 1.57549 0
M  V30 42264 C 4005.1 -0.936131 2.13913 0
M  V30 42265 C 4006.08 -1.33192 1.05801 0
M  V30 42266 O 4007.27 -1.40859 1.33688 0
M  V30 42267 C 4004.4 -2.21474 2.67519 0
M  V30 42268 C 4003.35 -1.95936 3.80517 0
M  V30 42269 C 4002.68 -3.30157 4.20595 0
M  V30 42270 C 4003.98 -1.28972 5.06126 0
M  V30 42271 H 4005.67 -0.466688 2.9574 0
M  V30 42272 H 4003.22 -0.223037 1.42262 0
M  V30 42273 H 4005.17 -2.90163 3.05587 0
M  V30 42274 H 4003.9 -2.70604 1.82868 0
M  V30 42275 H 4002.55 -1.29663 3.42904 0
M  V30 42276 H 4002.2 -3.77067 3.3291 0
M  V30 42277 H 4001.9 -3.13872 4.96748 0
M  V30 42278 H 4003.43 -4.00095 4.61255 0
M  V30 42279 H 4004.84 -1.87678 5.4171 0
M  V30 42280 H 4003.24 -1.23049 5.87349 0
M  V30 42281 H 4004.31 -0.264201 4.8418 0
M  V30 42282 N 4005.65 -1.55866 -0.233109 0
M  V30 42283 C 4007.06 -1.68641 -0.801063 0
M  V30 42284 C 4007.41 -0.640114 -1.85464 0
M  V30 42285 O 4006.54 0.211001 -2.15369 0
M  V30 42286 C 4007.13 -3.05738 -1.45979 0
M  V30 42287 C 4005.69 -3.20406 -1.97527 0
M  V30 42288 C 4004.84 -2.64547 -0.831275 0
M  V30 42289 H 4007.79 -1.58698 -0.00865918 0
M  V30 42290 H 4007.81 -3.00952 -2.32827 0
M  V30 42291 H 4007.32 -3.81867 -0.692738 0
M  V30 42292 H 4005.42 -2.49125 -2.7707 0
M  V30 42293 H 4005.54 -4.27485 -2.16318 0
M  V30 42294 H 4003.9 -2.22727 -1.2355 0
M  V30 42295 H 4004.68 -3.43213 -0.0770862 0
M  V30 42296 N 4007.13 0.499346 -1.4948 0
M  V30 42297 C 4008.54 1.08084 -1.52233 0
M  V30 42298 C 4008.89 1.93744 -0.309476 0
M  V30 42299 O 4008.02 2.08467 0.580551 0
M  V30 42300 C 4008.61 1.96689 -2.7586 0
M  V30 42301 C 4007.17 2.49998 -2.81385 0
M  V30 42302 C 4006.32 1.27658 -2.46168 0
M  V30 42303 H 4009.27 0.283183 -1.56153 0
M  V30 42304 H 4009.29 2.81398 -2.56116 0
M  V30 42305 H 4008.8 1.34317 -3.64116 0
M  V30 42306 H 4006.9 3.16004 -1.97413 0
M  V30 42307 H 4007.02 2.87038 -3.83596 0
M  V30 42308 H 4005.38 1.60233 -1.97984 0
M  V30 42309 H 4006.16 0.669915 -3.367 0
M  V30 42310 N 4008.61 1.38582 0.750513 0
M  V30 42311 C 4009.88 1.25477 1.50049 0
M  V30 42312 C 4010.26 -0.142484 2.10619 0
M  V30 42313 O 4009.61 -1.15228 1.97319 0
M  V30 42314 C 4009.82 2.36728 2.56439 0
M  V30 42315 C 4011.17 2.75302 3.23256 0
M  V30 42316 O 4012.19 2.36063 2.66745 0
M  V30 42317 O 4011.05 3.42977 4.25475 0
M  V30 42318 H 4008.15 0.490859 0.665572 0
M  V30 42319 H 4010.69 1.50418 0.785661 0
M  V30 42320 H 4009.47 3.30206 2.09952 0
M  V30 42321 H 4009.09 2.13369 3.35499 0
M  V30 42322 N 4010.09 -0.979029 1.23502 0
M  V30 42323 C 4011.32 -1.75316 1.09307 0
M  V30 42324 C 4011.72 -1.85778 -0.358233 0
M  V30 42325 O 4011.07 -1.33722 -1.25953 0
M  V30 42326 C 4011.13 -3.19617 1.64576 0
M  V30 42327 C 4010.79 -3.32661 3.13346 0
M  V30 42328 C 4011.79 -3.18877 4.10625 0
M  V30 42329 C 4009.47 -3.57265 3.53082 0
M  V30 42330 C 4011.47 -3.29506 5.45623 0
M  V30 42331 C 4009.16 -3.67533 4.88224 0
M  V30 42332 C 4010.15 -3.53663 5.84304 0
M  V30 42333 O 4009.84 -3.63564 7.16991 0
M  V30 42334 H 4009.57 -0.556967 0.383097 0
M  V30 42335 H 4012.13 -1.23861 1.63852 0
M  V30 42336 H 4010.36 -3.72326 1.04452 0
M  V30 42337 H 4012.05 -3.78796 1.45837 0
M  V30 42338 H 4012.81 -2.99765 3.81269 0
M  V30 42339 H 4008.69 -3.67132 2.78811 0
M  V30 42340 H 4012.24 -3.18597 6.20598 0
M  V30 42341 H 4008.13 -3.86156 5.17256 0
M  V30 42342 H 4008.9 -3.80351 7.24759 0
M  V30 42343 N 4011.56 -1.04695 -1.178 0
M  V30 42344 C 4012.81 -0.755174 -1.88215 0
M  V30 42345 C 4013.14 0.715699 -1.80531 0
M  V30 42346 O 4012.42 1.52289 -1.20989 0
M  V30 42347 C 4012.7 -1.22992 -3.38445 0
M  V30 42348 C 4012.55 -2.76336 -3.54906 0
M  V30 42349 C 4013.87 -0.824967 -4.32299 0
M  V30 42350 H 4010.99 -0.275807 -0.683447 0
M  V30 42351 H 4013.63 -1.30006 -1.38558 0
M  V30 42352 H 4011.78 -0.766367 -3.80866 0
M  V30 42353 H 4013.46 -3.30777 -3.21535 0
M  V30 42354 H 4011.7 -3.15856 -2.97351 0
M  V30 42355 H 4012.37 -3.04614 -4.60342 0
M  V30 42356 H 4014.85 -1.22396 -3.97692 0
M  V30 42357 H 4013.72 -1.18482 -5.3596 0
M  V30 42358 H 4013.98 0.271432 -4.41266 0
M  V30 42359 N 4013.04 1.34141 -0.827275 0
M  V30 42360 C 4014.32 1.92625 -0.339827 0
M  V30 42361 C 4014.7 1.75485 1.17339 0
M  V30 42362 O 4014.05 1.1362 1.98249 0
M  V30 42363 C 4014.26 3.4031 -0.773951 0
M  V30 42364 C 4015.6 4.17462 -0.775283 0
M  V30 42365 O 4016.63 3.48913 -0.71681 0
M  V30 42366 O 4015.49 5.39811 -0.852442 0
M  V30 42367 H 4012.58 0.821668 -0.093763 0
M  V30 42368 H 4015.13 1.43088 -0.912355 0
M  V30 42369 H 4013.9 3.46606 -1.81603 0
M  V30 42370 H 4013.52 3.97204 -0.177357 0
M  V30 42371 N 4014.52 0.582635 1.46435 0
M  V30 42372 C 4015.48 -0.140462 2.28769 0
M  V30 42373 C 4016.48 -0.818886 1.38387 0
M  V30 42374 O 4017.67 -0.670854 1.60764 0
M  V30 42375 C 4014.8 -1.20831 3.18768 0
M  V30 42376 H 4016 0.5831 2.94177 0
M  V30 42377 H 4013.55 0.340602 1.52544 0
M  V30 42378 H 4014.29 -1.96345 2.58107 0
M  V30 42379 H 4014.07 -0.726349 3.85314 0
M  V30 42380 H 4015.56 -1.71547 3.80738 0
M  V30 42381 N 4016 -1.54309 0.320412 0
M  V30 42382 C 4017.22 -2.05392 -0.287904 0
M  V30 42383 C 4017.65 -1.19519 -1.45247 0
M  V30 42384 O 4017.01 -0.203588 -1.80153 0
M  V30 42385 C 4017.05 -3.53677 -0.703199 0
M  V30 42386 O 4016.16 -3.70757 -1.80592 0
M  V30 42387 H 4015.5 -0.661915 -0.0525773 0
M  V30 42388 H 4018.03 -1.99178 0.467905 0
M  V30 42389 H 4018.04 -3.95889 -0.986723 0
M  V30 42390 H 4016.71 -4.15634 0.148587 0
M  V30 42391 H 4015.29 -3.4045 -1.52144 0
M  V30 42392 N 4017.48 -0.0485183 -1.57525 0
M  V30 42393 C 4018.71 0.634597 -1.96612 0
M  V30 42394 C 4019.11 1.65069 -0.9246 0
M  V30 42395 O 4018.46 1.83428 0.0999075 0
M  V30 42396 C 4018.52 1.38076 -3.31927 0
M  V30 42397 C 4018.18 0.520803 -4.54023 0
M  V30 42398 C 4019.18 -0.212011 -5.19468 0
M  V30 42399 C 4016.86 0.452508 -5.00258 0
M  V30 42400 C 4018.86 -1.00159 -6.29481 0
M  V30 42401 C 4016.55 -0.340759 -6.10149 0
M  V30 42402 C 4017.54 -1.0665 -6.74622 0
M  V30 42403 O 4017.23 -1.84672 -7.82401 0
M  V30 42404 H 4016.96 0.178492 -0.65201 0
M  V30 42405 H 4019.52 -0.110433 -2.05103 0
M  V30 42406 H 4017.75 2.17136 -3.19983 0
M  V30 42407 H 4019.44 1.95385 -3.5578 0
M  V30 42408 H 4020.2 -0.1687 -4.84707 0
M  V30 42409 H 4016.08 1.00698 -4.49868 0
M  V30 42410 H 4019.63 -1.56856 -6.79737 0
M  V30 42411 H 4015.52 -0.385718 -6.44347 0
M  V30 42412 H 4016.29 -1.76856 -7.99165 0
M  V30 42413 N 4018.95 1.55988 0.224839 0
M  V30 42414 C 4020.18 1.83273 0.970864 0
M  V30 42415 C 4020.6 0.62843 1.77292 0
M  V30 42416 O 4019.96 -0.422773 1.76302 0
M  V30 42417 C 4020.01 3.08517 1.8668 0
M  V30 42418 O 4019.11 2.86981 2.96169 0
M  V30 42419 H 4018.45 0.604339 0.275083 0
M  V30 42420 H 4020.98 2.03198 0.239147 0
M  V30 42421 H 4020.99 3.38534 2.27725 0
M  V30 42422 H 4019.67 3.95801 1.27726 0
M  V30 42423 H 4018.25 2.68188 2.59094 0
M  V30 42424 N 4020.43 -0.491412 1.49743 0
M  V30 42425 C 4021.66 -1.2734 1.63705 0
M  V30 42426 C 4022.08 -1.85493 0.312112 0
M  V30 42427 O 4021.44 -1.66325 -0.721515 0
M  V30 42428 C 4021.49 -2.37258 2.71553 0
M  V30 42429 O 4020.59 -3.41367 2.31393 0
M  V30 42430 H 4019.93 -0.375523 0.547611 0
M  V30 42431 H 4022.46 -0.587208 1.95992 0
M  V30 42432 H 4022.47 -2.82878 2.94014 0
M  V30 42433 H 4021.15 -1.94299 3.67723 0
M  V30 42434 H 4019.72 -3.01599 2.193 0
M  V30 42435 N 4021.91 -1.38978 -0.743153 0
M  V30 42436 C 4022.86 -1.37046 -1.85707 0
M  V30 42437 C 4023.83 -0.23138 -1.64481 0
M  V30 42438 O 4025.01 -0.425233 -1.86001 0
M  V30 42439 C 4022.15 -1.21168 -3.23129 0
M  V30 42440 C 4021.27 -2.44551 -3.56116 0
M  V30 42441 C 4020.4 -2.21324 -4.82897 0
M  V30 42442 C 4019.44 -3.40424 -5.08702 0
M  V30 42443 N 4018.58 -3.16566 -6.26682 0
M  V30 42444 H 4023.42 -2.3227 -1.86694 0
M  V30 42445 H 4020.95 -1.15388 -0.912364 0
M  V30 42446 H 4022.91 -1.09975 -4.02444 0
M  V30 42447 H 4021.54 -0.295773 -3.21442 0
M  V30 42448 H 4020.59 -2.66377 -2.71564 0
M  V30 42449 H 4021.91 -3.33287 -3.71108 0
M  V30 42450 H 4021.06 -2.07327 -5.70176 0
M  V30 42451 H 4019.8 -1.2997 -4.70063 0
M  V30 42452 H 4018.8 -3.54929 -4.19888 0
M  V30 42453 H 4020.03 -4.32668 -5.23426 0
M  V30 42454 H 4017.97 -2.27869 -6.15152 0
M  V30 42455 H 4017.89 -3.98855 -6.42223 0
M  V30 42456 H 4019.16 -3.06246 -7.16822 0
M  V30 42457 N 4023.39 0.972465 -1.2402 0
M  V30 42458 C 4024.35 2.0478 -1.02945 0
M  V30 42459 C 4025.35 1.60796 0.0115578 0
M  V30 42460 O 4026.54 1.72689 -0.228953 0
M  V30 42461 C 4023.67 3.36281 -0.559305 0
M  V30 42462 H 4024.87 2.2491 -1.98383 0
M  V30 42463 H 4022.42 1.14702 -1.06175 0
M  V30 42464 H 4023.15 3.21842 0.398488 0
M  V30 42465 H 4022.94 3.69548 -1.3106 0
M  V30 42466 H 4024.43 4.15352 -0.432742 0
M  V30 42467 N 4024.87 1.05318 1.17243 0
M  V30 42468 C 4025.78 0.666051 2.24946 0
M  V30 42469 C 4026.79 -0.313448 1.71153 0
M  V30 42470 O 4027.97 -0.165227 2.00721 0
M  V30 42471 C 4025.03 0.0480807 3.46667 0
M  V30 42472 C 4024.09 1.07819 4.1554 0
M  V30 42473 C 4023.33 0.489613 5.31449 0
M  V30 42474 O 4023.55 -0.700568 5.66081 0
M  V30 42475 O 4022.48 1.2245 5.89313 0
M  V30 42476 H 4026.31 1.56369 2.6035 0
M  V30 42477 H 4023.9 0.824822 1.24567 0
M  V30 42478 H 4025.78 -0.295292 4.20364 0
M  V30 42479 H 4024.45 -0.823193 3.13058 0
M  V30 42480 H 4023.36 1.47357 3.43856 0
M  V30 42481 H 4024.69 1.92065 4.5318 0
M  V30 42482 N 4026.34 -1.33701 0.834377 0
M  V30 42483 C 4027.29 -2.29304 0.26237 0
M  V30 42484 C 4028.26 -1.54123 -0.619298 0
M  V30 42485 O 4029.45 -1.82442 -0.558519 0
M  V30 42486 C 4026.59 -3.40521 -0.560281 0
M  V30 42487 C 4025.7 -4.30621 0.344908 0
M  V30 42488 C 4024.83 -5.2895 -0.488412 0
M  V30 42489 C 4023.87 -6.10688 0.415449 0
M  V30 42490 N 4023.01 -7.01074 -0.379476 0
M  V30 42491 H 4027.85 -2.77626 1.08296 0
M  V30 42492 H 4025.39 -1.36611 0.545521 0
M  V30 42493 H 4027.35 -4.03701 -1.05267 0
M  V30 42494 H 4025.98 -2.93404 -1.34588 0
M  V30 42495 H 4025.03 -3.68202 0.955583 0
M  V30 42496 H 4026.34 -4.8785 1.03943 0
M  V30 42497 H 4025.49 -5.97636 -1.04481 0
M  V30 42498 H 4024.23 -4.72287 -1.21639 0
M  V30 42499 H 4023.24 -5.40925 0.983898 0
M  V30 42500 H 4024.46 -6.69434 1.14172 0
M  V30 42501 H 4022.41 -6.46865 -1.09092 0
M  V30 42502 H 4022.33 -7.55565 0.256423 0
M  V30 42503 H 4023.59 -7.74073 -0.918258 0
M  V30 42504 N 4027.82 -0.590393 -1.46124 0
M  V30 42505 C 4028.77 0.13844 -2.30384 0
M  V30 42506 C 4029.74 0.876691 -1.41079 0
M  V30 42507 O 4030.92 0.86584 -1.70023 0
M  V30 42508 C 4028.06 1.14116 -3.25686 0
M  V30 42509 C 4027.18 0.405563 -4.30092 0
M  V30 42510 C 4026.31 1.39648 -5.12515 0
M  V30 42511 C 4025.35 0.647726 -6.08663 0
M  V30 42512 N 4024.49 1.58708 -6.83927 0
M  V30 42513 H 4029.33 -0.586137 -2.92179 0
M  V30 42514 H 4026.87 -0.30086 -1.4399 0
M  V30 42515 H 4028.82 1.73546 -3.79391 0
M  V30 42516 H 4027.45 1.83336 -2.65684 0
M  V30 42517 H 4026.51 -0.303924 -3.79184 0
M  V30 42518 H 4027.82 -0.179436 -4.98477 0
M  V30 42519 H 4026.97 2.06336 -5.70535 0
M  V30 42520 H 4025.71 2.01541 -4.44108 0
M  V30 42521 H 4024.72 -0.0328845 -5.4979 0
M  V30 42522 H 4025.94 0.0340825 -6.79091 0
M  V30 42523 H 4023.89 2.19397 -6.18224 0
M  V30 42524 H 4023.8 1.05509 -7.48601 0
M  V30 42525 H 4025.07 2.24407 -7.465 0
M  V30 42526 N 4029.3 1.54136 -0.328591 0
M  V30 42527 C 4030.26 2.23166 0.522441 0
M  V30 42528 C 4031.26 1.22679 1.03954 0
M  V30 42529 O 4032.45 1.47224 0.931167 0
M  V30 42530 C 4029.59 2.93965 1.72619 0
M  V30 42531 H 4030.78 2.9979 -0.0810757 0
M  V30 42532 H 4028.33 1.56096 -0.079737 0
M  V30 42533 H 4029.07 2.2149 2.36881 0
M  V30 42534 H 4028.85 3.67656 1.36276 0
M  V30 42535 H 4030.34 3.46544 2.33017 0
M  V30 42536 N 4030.78 0.0568716 1.57497 0
M  V30 42537 C 4032.01 -0.625067 1.97232 0
M  V30 42538 C 4032.42 -1.64042 0.934651 0
M  V30 42539 O 4031.78 -1.82322 -0.0804743 0
M  V30 42540 C 4031.83 -1.30692 3.37049 0
M  V30 42541 O 4031.55 -0.332226 4.36838 0
M  V30 42542 C 4033.05 -2.07809 3.91574 0
M  V30 42543 H 4030.27 -0.170494 0.648978 0
M  V30 42544 H 4032.82 0.124859 2.04118 0
M  V30 42545 H 4030.97 -2.00804 3.31295 0
M  V30 42546 H 4031.38 -0.8196 5.18057 0
M  V30 42547 H 4032.86 -2.50931 4.91668 0
M  V30 42548 H 4033.34 -2.92858 3.27308 0
M  V30 42549 H 4033.94 -1.42596 4.00682 0
M  V30 42550 N 4032.26 -1.56105 -0.216564 0
M  V30 42551 C 4033.5 -1.79615 -0.941611 0
M  V30 42552 C 4033.84 -0.627356 -1.83788 0
M  V30 42553 O 4033.11 0.373161 -1.90887 0
M  V30 42554 C 4033.39 -3.13242 -1.77628 0
M  V30 42555 C 4033.25 -4.40577 -0.906174 0
M  V30 42556 C 4034.57 -3.43355 -2.75309 0
M  V30 42557 H 4031.68 -0.653426 -0.340887 0
M  V30 42558 H 4034.33 -1.88834 -0.210184 0
M  V30 42559 H 4032.48 -3.05513 -2.39987 0
M  V30 42560 H 4034.15 -4.6033 -0.298943 0
M  V30 42561 H 4032.39 -4.33283 -0.211826 0
M  V30 42562 H 4033.06 -5.30526 -1.52469 0
M  V30 42563 H 4035.54 -3.51244 -2.23085 0
M  V30 42564 H 4034.41 -4.38015 -3.30809 0
M  V30 42565 H 4034.68 -2.65771 -3.53296 0
M  V30 42566 N 4033.73 0.483463 -1.50001 0
M  V30 42567 C 4035.01 1.24476 -1.50881 0
M  V30 42568 C 4035.39 2.09657 -0.24643 0
M  V30 42569 O 4034.74 2.15113 0.770623 0
M  V30 42570 C 4034.95 2.08643 -2.79766 0
M  V30 42571 C 4036.3 2.67247 -3.29945 0
M  V30 42572 O 4037.32 2.18897 -2.81003 0
M  V30 42573 O 4036.18 3.55312 -4.1523 0
M  V30 42574 H 4033.27 0.564195 -0.604659 0
M  V30 42575 H 4035.82 0.496297 -1.62281 0
M  V30 42576 H 4034.59 1.45793 -3.63126 0
M  V30 42577 H 4034.22 2.90648 -2.71311 0
M  V30 42578 N 4035.21 1.39371 0.735772 0
M  V30 42579 C 4036.18 1.37806 1.83146 0
M  V30 42580 C 4037.18 0.275308 1.58426 0
M  V30 42581 O 4038.37 0.533169 1.6584 0
M  V30 42582 C 4035.5 1.14989 3.20921 0
M  V30 42583 H 4036.69 2.35303 1.85937 0
M  V30 42584 H 4034.24 1.24924 0.939345 0
M  V30 42585 H 4034.98 0.181705 3.23791 0
M  V30 42586 H 4034.76 1.94847 3.4026 0
M  V30 42587 H 4036.25 1.16633 4.00982 0
M  V30 42588 N 4036.69 -0.965875 1.24534 0
M  V30 42589 C 4037.6 -2.09468 1.05643 0
M  V30 42590 C 4038.62 -1.74 -0.00327904 0
M  V30 42591 O 4039.79 -2.00451 0.195283 0
M  V30 42592 C 4036.86 -3.40255 0.665378 0
M  V30 42593 C 4035.92 -3.8966 1.80177 0
M  V30 42594 C 4035.15 -5.14205 1.42928 0
M  V30 42595 O 4035.38 -5.69502 0.319915 0
M  V30 42596 O 4034.31 -5.5804 2.25556 0
M  V30 42597 H 4038.14 -2.283 2.00281 0
M  V30 42598 H 4035.72 -1.07866 1.0337 0
M  V30 42599 H 4037.6 -4.18894 0.458901 0
M  V30 42600 H 4036.28 -3.22719 -0.251857 0
M  V30 42601 H 4035.18 -3.12074 2.06302 0
M  V30 42602 H 4036.52 -4.11676 2.69785 0
M  V30 42603 N 4038.17 -1.05938 -1.16683 0
M  V30 42604 C 4039.42 -0.772419 -1.86757 0
M  V30 42605 C 4039.74 0.703019 -1.81886 0
M  V30 42606 O 4039.01 1.50841 -1.24995 0
M  V30 42607 H 4037.59 -0.282737 -0.691425 0
M  V30 42608 H 4040.25 -1.34012 -1.41516 0
M  V30 42609 H 4039.35 -1.09411 -2.92294 0
M  V30 42610 N 4039.65 1.33256 -0.841456 0
M  V30 42611 C 4040.6 2.31084 -0.265117 0
M  V30 42612 C 4041.59 1.58254 0.604311 0
M  V30 42613 O 4042.8 1.731 0.493584 0
M  V30 42614 H 4039.17 0.749008 -0.0670106 0
M  V30 42615 H 4041.14 2.77199 -1.10469 0
M  V30 42616 C 4039.89 3.43436 0.542866 0
M  V30 42617 H 4039.21 3.99629 -0.116838 0
M  V30 42618 H 4040.65 4.14077 0.911931 0
M  V30 42619 C 4039.11 2.8952 1.72279 0
M  V30 42620 O 4039.64 2.85921 2.82156 0
M  V30 42621 N 4037.85 2.46093 1.54553 0
M  V30 42622 H 4037.4 2.4922 0.651708 0
M  V30 42623 H 4037.35 2.10371 2.33648 0
M  V30 42624 N 4041.13 0.598134 1.45809 0
M  V30 42625 C 4042.37 0.0896468 2.02301 0
M  V30 42626 C 4042.7 -1.27623 1.46774 0
M  V30 42627 O 4041.96 -1.85325 0.628745 0
M  V30 42628 C 4042.25 -0.00970527 3.57399 0
M  V30 42629 C 4041.92 1.29059 4.32035 0
M  V30 42630 C 4040.58 1.64679 4.52144 0
M  V30 42631 C 4042.93 2.15037 4.74772 0
M  V30 42632 C 4040.26 2.86047 5.12244 0
M  V30 42633 C 4042.61 3.35645 5.36214 0
M  V30 42634 C 4041.28 3.71529 5.54547 0
M  V30 42635 H 4040.55 0.0328041 0.740274 0
M  V30 42636 H 4043.2 0.77786 1.7499 0
M  V30 42637 H 4041.5 -0.781134 3.83934 0
M  V30 42638 H 4043.2 -0.419142 3.98803 0
M  V30 42639 H 4039.79 1.00332 4.16691 0
M  V30 42640 H 4043.97 1.88818 4.58979 0
M  V30 42641 H 4039.23 3.13967 5.24628 0
M  V30 42642 H 4043.4 4.02524 5.68284 0
M  V30 42643 H 4041.03 4.65662 6.00885 0
M  V30 42644 N 4042.6 -1.5396 0.33676 0
M  V30 42645 C 4043.88 -1.93018 -0.31676 0
M  V30 42646 C 4044.26 -1.26767 -1.68799 0
M  V30 42647 O 4043.61 -0.416133 -2.24679 0
M  V30 42648 C 4043.82 -3.46748 -0.395817 0
M  V30 42649 C 4045.17 -4.19597 -0.649873 0
M  V30 42650 O 4046.19 -3.52975 -0.478208 0
M  V30 42651 O 4045.05 -5.37606 -0.981941 0
M  V30 42652 H 4042.14 -0.806401 -0.183428 0
M  V30 42653 H 4044.69 -1.65218 0.387441 0
M  V30 42654 H 4043.46 -3.87174 0.566718 0
M  V30 42655 H 4043.08 -3.80694 -1.14707 0
M  V30 42656 N 4044.08 -0.0652232 -1.57465 0
M  V30 42657 C 4045.49 0.468418 -1.80728 0
M  V30 42658 C 4045.84 1.70052 -0.978611 0
M  V30 42659 O 4044.97 2.15481 -0.199224 0
M  V30 42660 C 4045.56 0.856584 -3.27793 0
M  V30 42661 C 4044.12 1.33512 -3.51925 0
M  V30 42662 C 4043.27 0.317099 -2.75481 0
M  V30 42663 H 4046.22 -0.290983 -1.5601 0
M  V30 42664 H 4046.24 1.71849 -3.39482 0
M  V30 42665 H 4045.75 -0.0403505 -3.88079 0
M  V30 42666 H 4043.85 2.25078 -2.96936 0
M  V30 42667 H 4043.97 1.31759 -4.60626 0
M  V30 42668 H 4042.33 0.792983 -2.42041 0
M  V30 42669 H 4043.11 -0.571994 -3.38501 0
M  V30 42670 N 4045.56 1.56218 0.208282 0
M  V30 42671 C 4046.98 1.49507 0.558563 0
M  V30 42672 C 4047.18 0.762817 1.86503 0
M  V30 42673 O 4046.23 0.307912 2.50616 0
M  V30 42674 C 4047.54 2.94122 0.625505 0
M  V30 42675 C 4049.09 3.04719 0.715235 0
M  V30 42676 C 4049.57 4.50719 0.813405 0
M  V30 42677 N 4051.06 4.54816 0.87728 0
M  V30 42678 C 4051.79 5.65081 0.97318 0
M  V30 42679 N 4051.29 6.85067 1.0322 0
M  V30 42680 N 4053.08 5.52963 1.00935 0
M  V30 42681 H 4045.23 2.02246 -0.648862 0
M  V30 42682 H 4047.5 0.919816 -0.229441 0
M  V30 42683 H 4047.2 3.50699 -0.265118 0
M  V30 42684 H 4047.08 3.46753 1.48467 0
M  V30 42685 H 4049.46 2.48198 1.59629 0
M  V30 42686 H 4049.54 2.55235 -0.169863 0
M  V30 42687 H 4049.19 5.07861 -0.0632495 0
M  V30 42688 H 4049.12 4.97921 1.71411 0
M  V30 42689 H 4051.61 3.68413 0.841448 0
M  V30 42690 H 4051.92 7.64852 1.10552 0
M  V30 42691 H 4050.27 6.87752 1.0011 0
M  V30 42692 H 4053.46 4.58151 0.959985 0
M  V30 42693 H 4053.63 6.38926 1.08063 0
M  V30 42694 N 4047.04 -0.475502 1.50256 0
M  V30 42695 C 4048.45 -1.05648 1.53933 0
M  V30 42696 C 4048.8 -1.93227 0.340259 0
M  V30 42697 O 4047.92 -2.09364 -0.547312 0
M  V30 42698 C 4048.52 -1.92276 2.78954 0
M  V30 42699 C 4047.08 -2.4549 2.85327 0
M  V30 42700 C 4046.23 -1.23725 2.48168 0
M  V30 42701 H 4049.18 -0.258305 1.56584 0
M  V30 42702 H 4049.2 -2.77288 2.6056 0
M  V30 42703 H 4048.71 -1.28508 3.66207 0
M  V30 42704 H 4046.81 -3.12824 2.02416 0
M  V30 42705 H 4046.92 -2.80899 3.88114 0
M  V30 42706 H 4045.29 -1.57063 2.00508 0
M  V30 42707 H 4046.07 -0.616264 3.37723 0
M  V30 42708 N 4048.52 -1.39759 -0.72837 0
M  V30 42709 C 4049.76 -1.37547 -1.49026 0
M  V30 42710 C 4050.09 0.0264833 -1.94182 0
M  V30 42711 O 4049.37 0.992707 -1.67259 0
M  V30 42712 C 4049.65 -2.3537 -2.72531 0
M  V30 42713 C 4049.51 -3.84535 -2.33351 0
M  V30 42714 C 4050.82 -2.3092 -3.74652 0
M  V30 42715 H 4047.94 -0.500944 -0.540578 0
M  V30 42716 H 4050.59 -1.708 -0.832304 0
M  V30 42717 H 4048.74 -2.07143 -3.2867 0
M  V30 42718 H 4050.41 -4.23538 -1.82792 0
M  V30 42719 H 4048.65 -4.00989 -1.65501 0
M  V30 42720 H 4049.32 -4.48479 -3.21824 0
M  V30 42721 H 4051.8 -2.55894 -3.28112 0
M  V30 42722 H 4050.67 -3.01436 -4.58724 0
M  V30 42723 H 4050.93 -1.31647 -4.22044 0
M  V30 42724 N 4049.99 0.959257 -1.25044 0
M  V30 42725 C 4050.9 2.08904 -1.06753 0
M  V30 42726 C 4051.92 1.73999 -0.00594864 0
M  V30 42727 O 4053.1 2.00345 -0.205911 0
M  V30 42728 C 4050.16 3.39898 -0.683413 0
M  V30 42729 C 4049.22 3.88699 -1.82241 0
M  V30 42730 C 4048.45 5.1344 -1.45653 0
M  V30 42731 O 4048.68 5.69324 -0.350112 0
M  V30 42732 O 4047.61 5.56836 -2.28512 0
M  V30 42733 H 4051.44 2.27235 -2.01489 0
M  V30 42734 H 4049.02 1.07316 -1.0394 0
M  V30 42735 H 4050.9 4.18645 -0.481109 0
M  V30 42736 H 4049.58 3.22848 0.234739 0
M  V30 42737 H 4048.49 3.10976 -2.07954 0
M  V30 42738 H 4049.82 4.10239 -2.71964 0
M  V30 42739 N 4051.47 1.06556 1.16119 0
M  V30 42740 C 4052.7 0.804706 1.9061 0
M  V30 42741 C 4053.12 -0.641224 1.77577 0
M  V30 42742 O 4052.47 -1.43919 1.12221 0
M  V30 42743 C 4052.52 1.19354 3.41229 0
M  V30 42744 O 4052.24 2.58272 3.53874 0
M  V30 42745 C 4053.75 0.960814 4.32762 0
M  V30 42746 H 4050.97 0.291545 0.604353 0
M  V30 42747 H 4053.51 1.41989 1.47172 0
M  V30 42748 H 4051.66 0.62284 3.8236 0
M  V30 42749 H 4052.08 2.73915 4.47293 0
M  V30 42750 H 4053.55 1.28248 5.36895 0
M  V30 42751 H 4054.03 -0.103312 4.39078 0
M  V30 42752 H 4054.64 1.51602 3.97362 0
M  V30 42753 N 4052.95 -1.32808 0.848511 0
M  V30 42754 C 4053.88 -2.31514 0.303926 0
M  V30 42755 C 4054.86 -1.59407 -0.593593 0
M  V30 42756 O 4056.05 -1.87243 -0.515126 0
M  V30 42757 C 4053.18 -3.43479 -0.513739 0
M  V30 42758 C 4052.13 -4.27024 0.288815 0
M  V30 42759 C 4051.46 -5.30695 -0.653204 0
M  V30 42760 C 4052.76 -4.9996 1.51119 0
M  V30 42761 H 4054.45 -2.77311 1.12867 0
M  V30 42762 H 4052 -1.33322 0.544182 0
M  V30 42763 H 4053.95 -4.11565 -0.905091 0
M  V30 42764 H 4052.67 -2.96394 -1.37179 0
M  V30 42765 H 4051.33 -3.60576 0.661845 0
M  V30 42766 H 4050.98 -4.79865 -1.50792 0
M  V30 42767 H 4050.68 -5.87477 -0.120265 0
M  V30 42768 H 4052.2 -6.01646 -1.04186 0
M  V30 42769 H 4053.62 -5.60761 1.19247 0
M  V30 42770 H 4052.02 -5.66438 1.98162 0
M  V30 42771 H 4053.09 -4.28178 2.27578 0
M  V30 42772 N 4054.43 -0.605858 -1.45489 0
M  V30 42773 C 4055.38 0.1265 -2.32256 0
M  V30 42774 C 4056.37 0.861356 -1.45866 0
M  V30 42775 O 4057.58 0.777118 -1.6236 0
M  V30 42776 H 4053.95 0.0596553 -0.74963 0
M  V30 42777 H 4055.92 -0.62376 -2.91808 0
M  V30 42778 C 4054.67 1.11159 -3.29452 0
M  V30 42779 H 4053.99 0.555566 -3.95921 0
M  V30 42780 H 4055.43 1.59399 -3.92897 0
M  V30 42781 C 4053.89 2.18428 -2.56497 0
M  V30 42782 O 4054.42 3.26143 -2.34507 0
M  V30 42783 N 4052.63 1.93665 -2.16662 0
M  V30 42784 H 4052.18 1.06076 -2.34746 0
M  V30 42785 H 4052.13 2.65642 -1.68171 0
M  V30 42786 N 4055.91 1.53779 -0.34492 0
M  V30 42787 C 4057.15 2.01234 0.251544 0
M  V30 42788 C 4057.49 1.23232 1.50092 0
M  V30 42789 O 4056.76 0.320316 1.91844 0
M  V30 42790 C 4057.04 3.55651 0.564303 0
M  V30 42791 C 4056.9 4.44363 -0.697264 0
M  V30 42792 C 4058.22 4.18123 1.37336 0
M  V30 42793 H 4055.33 0.73149 0.0899515 0
M  V30 42794 H 4057.98 1.84204 -0.465729 0
M  V30 42795 H 4056.13 3.70294 1.17537 0
M  V30 42796 H 4057.8 4.41554 -1.3352 0
M  V30 42797 H 4056.04 4.13169 -1.32187 0
M  V30 42798 H 4056.71 5.50294 -0.433668 0
M  V30 42799 H 4059.19 4.07187 0.856638 0
M  V30 42800 H 4058.06 5.26237 1.56094 0
M  V30 42801 H 4058.33 3.72834 2.37586 0
M  V30 42802 N 4057.38 0.0735731 1.57428 0
M  V30 42803 C 4058.63 -0.594715 1.92733 0
M  V30 42804 C 4058.95 -1.70661 0.955723 0
M  V30 42805 O 4060.15 -2.43459 1.20166 0
M  V30 42806 C 4058.61 -1.10921 3.42381 0
M  V30 42807 C 4058.22 -0.028222 4.47991 0
M  V30 42808 C 4059.96 -1.75146 3.86683 0
M  V30 42809 C 4057.87 -0.556862 5.88772 0
M  V30 42810 H 4056.8 -0.225917 0.719359 0
M  V30 42811 H 4059.45 0.146095 1.82917 0
M  V30 42812 H 4057.83 -1.90304 3.47276 0
M  V30 42813 H 4059 0.74642 4.54714 0
M  V30 42814 H 4057.32 0.517908 4.13167 0
M  V30 42815 H 4059.92 -2.15732 4.89248 0
M  V30 42816 H 4060.26 -2.61216 3.24148 0
M  V30 42817 H 4060.79 -1.02382 3.84399 0
M  V30 42818 H 4057.53 0.266717 6.54957 0
M  V30 42819 H 4057.05 -1.29899 5.85565 0
M  V30 42820 H 4058.73 -1.0327 6.38705 0
M  V30 42821 N 4058.86 -1.56326 -0.199995 0
M  V30 42822 C 4060.11 -1.79532 -0.919299 0
M  V30 42823 C 4060.42 -0.645941 -1.84627 0
M  V30 42824 O 4061.63 -0.762178 -2.60582 0
M  V30 42825 C 4060.09 -3.18017 -1.68502 0
M  V30 42826 C 4059.69 -4.40742 -0.803125 0
M  V30 42827 C 4061.44 -3.50536 -2.39426 0
M  V30 42828 C 4059.35 -5.7025 -1.56743 0
M  V30 42829 H 4058.28 -0.669405 -0.347006 0
M  V30 42830 H 4060.93 -1.82686 -0.172681 0
M  V30 42831 H 4059.31 -3.091 -2.47535 0
M  V30 42832 H 4060.48 -4.60771 -0.0518079 0
M  V30 42833 H 4058.8 -4.15895 -0.204966 0
M  V30 42834 H 4061.39 -4.44529 -2.9715 0
M  V30 42835 H 4061.74 -2.74049 -3.13374 0
M  V30 42836 H 4062.27 -3.6088 -1.67364 0
M  V30 42837 H 4059.01 -6.4969 -0.870828 0
M  V30 42838 H 4058.53 -5.54248 -2.29281 0
M  V30 42839 H 4060.21 -6.11194 -2.12251 0
M  V30 42840 N 4060.34 0.467527 -1.50506 0
M  V30 42841 C 4061.75 1.0483 -1.54491 0
M  V30 42842 C 4062.1 1.93044 -0.350502 0
M  V30 42843 O 4061.23 2.09652 0.536201 0
M  V30 42844 C 4061.82 1.90794 -2.7997 0
M  V30 42845 C 4060.38 2.43974 -2.86625 0
M  V30 42846 C 4059.53 1.22407 -2.48821 0
M  V30 42847 H 4062.48 0.249997 -1.56719 0
M  V30 42848 H 4062.5 2.75902 -2.62027 0
M  V30 42849 H 4062.01 1.26564 -3.66883 0
M  V30 42850 H 4060.11 3.11746 -2.04072 0
M  V30 42851 H 4060.23 2.78837 -3.89598 0
M  V30 42852 H 4058.59 1.55997 -2.01338 0
M  V30 42853 H 4059.37 0.598345 -3.38045 0
M  V30 42854 N 4061.82 1.40143 0.720948 0
M  V30 42855 C 4062.73 1.42288 1.86525 0
M  V30 42856 C 4063.74 0.316074 1.71105 0
M  V30 42857 O 4064.92 0.559804 1.93464 0
M  V30 42858 C 4061.99 1.27846 3.22267 0
M  V30 42859 C 4061.05 2.48622 3.49979 0
M  V30 42860 C 4060.28 2.3486 4.79246 0
M  V30 42861 O 4060.5 1.35954 5.53961 0
M  V30 42862 O 4059.44 3.24128 5.07173 0
M  V30 42863 H 4063.26 2.38775 1.87671 0
M  V30 42864 H 4060.85 1.21408 0.870655 0
M  V30 42865 H 4062.73 1.2198 4.0336 0
M  V30 42866 H 4061.4 0.344623 3.2186 0
M  V30 42867 H 4060.31 2.60066 2.68918 0
M  V30 42868 H 4061.64 3.40748 3.55178 0
M  V30 42869 N 4063.3 -0.952612 1.25551 0
M  V30 42870 C 4064.24 -2.04961 1.06112 0
M  V30 42871 C 4065.21 -1.66072 -0.030358 0
M  V30 42872 O 4066.4 -1.90375 0.127211 0
M  V30 42873 C 4063.54 -3.38171 0.68805 0
M  V30 42874 C 4062.65 -3.90165 1.85459 0
M  V30 42875 C 4061.79 -5.1171 1.42569 0
M  V30 42876 C 4060.83 -5.55938 2.56124 0
M  V30 42877 N 4059.96 -6.68693 2.13996 0
M  V30 42878 H 4064.8 -2.20921 1.99995 0
M  V30 42879 H 4062.34 -1.08259 0.995914 0
M  V30 42880 H 4064.3 -4.14737 0.452695 0
M  V30 42881 H 4062.93 -3.22091 -0.213789 0
M  V30 42882 H 4061.98 -3.10102 2.2032 0
M  V30 42883 H 4063.29 -4.18935 2.7073 0
M  V30 42884 H 4062.45 -5.95699 1.15011 0
M  V30 42885 H 4061.18 -4.84659 0.543736 0
M  V30 42886 H 4060.19 -4.70513 2.84425 0
M  V30 42887 H 4061.41 -5.84996 3.44901 0
M  V30 42888 H 4059.36 -6.43347 1.28219 0
M  V30 42889 H 4059.28 -6.96991 2.92813 0
M  V30 42890 H 4060.55 -7.56085 1.89619 0
M  V30 42891 N 4064.77 -1.0717 -1.15553 0
M  V30 42892 C 4065.7 -0.711819 -2.22386 0
M  V30 42893 C 4066.69 0.299879 -1.67436 0
M  V30 42894 O 4067.87 0.173039 -1.93428 0
M  V30 42895 C 4065 -0.106876 -3.47136 0
M  V30 42896 C 4063.95 -1.04552 -4.15033 0
M  V30 42897 C 4063.28 -0.303431 -5.33838 0
M  V30 42898 C 4064.58 -2.37835 -4.65007 0
M  V30 42899 H 4066.27 -1.605 -2.52745 0
M  V30 42900 H 4063.82 -0.77316 -1.21483 0
M  V30 42901 H 4065.77 0.156816 -4.21108 0
M  V30 42902 H 4064.5 0.821373 -3.16103 0
M  V30 42903 H 4063.16 -1.29411 -3.42999 0
M  V30 42904 H 4062.8 0.62822 -4.99062 0
M  V30 42905 H 4062.5 -0.929066 -5.80209 0
M  V30 42906 H 4064.03 -0.0474942 -6.10582 0
M  V30 42907 H 4065.44 -2.17314 -5.30516 0
M  V30 42908 H 4063.84 -2.95977 -5.22032 0
M  V30 42909 H 4064.91 -3.00271 -3.80743 0
M  V30 42910 N 4066.25 1.32356 -0.855542 0
M  V30 42911 C 4067.53 1.91861 -0.380609 0
M  V30 42912 C 4067.91 1.77934 1.1359 0
M  V30 42913 O 4067.26 1.178 1.95795 0
M  V30 42914 C 4067.47 3.38592 -0.845962 0
M  V30 42915 C 4068.82 4.15724 -0.863659 0
M  V30 42916 O 4069.84 3.47314 -0.790658 0
M  V30 42917 O 4068.7 5.37881 -0.966752 0
M  V30 42918 H 4065.79 0.819494 -0.111171 0
M  V30 42919 H 4068.34 1.41121 -0.942501 0
M  V30 42920 H 4067.11 3.42676 -1.88915 0
M  V30 42921 H 4066.73 3.96739 -0.26157 0
M  V30 42922 N 4067.73 0.613565 1.45166 0
M  V30 42923 C 4068.96 0.115858 2.07076 0
M  V30 42924 C 4069.38 -1.19313 1.45417 0
M  V30 42925 O 4068.74 -1.72786 0.549077 0
M  V30 42926 C 4068.79 -0.00399901 3.606 0
M  V30 42927 O 4067.89 -1.05266 3.98739 0
M  V30 42928 H 4067.23 0.0767795 0.659546 0
M  V30 42929 H 4069.76 0.845269 1.86323 0
M  V30 42930 H 4069.77 -0.200284 4.07508 0
M  V30 42931 H 4068.45 0.951766 4.04863 0
M  V30 42932 H 4067.02 -0.83236 3.63492 0
M  V30 42933 N 4069.21 -1.53594 0.353071 0
M  V30 42934 C 4070.46 -2.01067 -0.240513 0
M  V30 42935 C 4070.78 -1.24068 -1.49791 0
M  V30 42936 O 4070.04 -0.319016 -1.93082 0
M  V30 42937 C 4070.34 -3.52484 -0.590749 0
M  V30 42938 C 4070 -4.47272 0.570869 0
M  V30 42939 C 4068.67 -4.72905 0.889631 0
M  V30 42940 C 4071.02 -5.03421 1.34971 0
M  V30 42941 C 4068.35 -5.51941 1.98943 0
M  V30 42942 C 4070.7 -5.83657 2.43983 0
M  V30 42943 C 4069.36 -6.07581 2.76408 0
M  V30 42944 H 4068.63 -0.735755 -0.0880098 0
M  V30 42945 H 4071.28 -1.8531 0.482952 0
M  V30 42946 H 4069.58 -3.66122 -1.39506 0
M  V30 42947 H 4071.28 -3.8668 -1.06207 0
M  V30 42948 H 4067.87 -4.2746 0.312375 0
M  V30 42949 H 4072.06 -4.83574 1.1167 0
M  V30 42950 H 4067.31 -5.687 2.24478 0
M  V30 42951 H 4071.49 -6.26176 3.04757 0
M  V30 42952 H 4069.11 -6.6861 3.61753 0
M  V30 42953 N 4070.69 -0.0819208 -1.57387 0
M  V30 42954 C 4071.94 0.584485 -1.93046 0
M  V30 42955 C 4072.25 1.70152 -0.96476 0
M  V30 42956 O 4073.46 2.42818 -1.21455 0
M  V30 42957 C 4071.91 1.09104 -3.42964 0
M  V30 42958 C 4071.52 0.00446358 -4.48 0
M  V30 42959 C 4073.26 1.73093 -3.87607 0
M  V30 42960 C 4071.17 0.52563 -5.89059 0
M  V30 42961 H 4070.1 0.222099 -0.720547 0
M  V30 42962 H 4072.75 -0.155794 -1.82837 0
M  V30 42963 H 4071.13 1.8846 -3.4828 0
M  V30 42964 H 4072.31 -0.770524 -4.54312 0
M  V30 42965 H 4070.62 -0.539812 -4.12886 0
M  V30 42966 H 4073.22 2.13135 -4.90385 0
M  V30 42967 H 4073.56 2.59493 -3.25529 0
M  V30 42968 H 4074.1 1.00342 -3.84937 0
M  V30 42969 H 4070.83 -0.301448 -6.54806 0
M  V30 42970 H 4070.35 1.26791 -5.86246 0
M  V30 42971 H 4072.03 0.998816 -6.39244 0
M  V30 42972 N 4072.17 1.5643 0.191702 0
M  V30 42973 C 4073.11 1.95708 1.25702 0
M  V30 42974 C 4074.11 0.842974 1.46936 0
M  V30 42975 O 4075.31 1.028 1.47757 0
M  V30 42976 H 4071.69 0.622371 0.422088 0
M  V30 42977 H 4073.66 2.84544 0.89875 0
M  V30 42978 C 4072.41 2.31574 2.59362 0
M  V30 42979 H 4071.73 3.16831 2.4384 0
M  V30 42980 H 4073.17 2.62918 3.32641 0
M  V30 42981 C 4071.63 1.1516 3.16607 0
M  V30 42982 O 4072.16 0.428425 3.99409 0
M  V30 42983 N 4070.37 0.927516 2.75401 0
M  V30 42984 H 4069.91 1.51734 2.0817 0
M  V30 42985 H 4069.87 0.150403 3.1404 0
M  V30 42986 N 4073.64 -0.459538 1.50751 0
M  V30 42987 C 4074.59 -1.55606 1.70457 0
M  V30 42988 C 4075.56 -1.56871 0.545949 0
M  V30 42989 O 4076.75 -1.74224 0.777855 0
M  V30 42990 C 4073.89 -2.93498 1.81529 0
M  V30 42991 C 4073 -3.01933 3.08967 0
M  V30 42992 C 4072.13 -4.30811 3.10766 0
M  V30 42993 C 4071.17 -4.3303 4.3261 0
M  V30 42994 N 4070.31 -5.53397 4.32083 0
M  V30 42995 H 4075.15 -1.38108 2.64065 0
M  V30 42996 H 4072.69 -0.671284 1.3089 0
M  V30 42997 H 4074.64 -3.73478 1.8593 0
M  V30 42998 H 4073.27 -3.09605 0.9135 0
M  V30 42999 H 4072.33 -2.14753 3.13983 0
M  V30 43000 H 4073.64 -2.99433 3.98925 0
M  V30 43001 H 4072.79 -5.19147 3.1396 0
M  V30 43002 H 4071.53 -4.35936 2.18658 0
M  V30 43003 H 4070.54 -3.43089 4.29616 0
M  V30 43004 H 4071.76 -4.29587 5.25958 0
M  V30 43005 H 4069.71 -5.59286 3.42834 0
M  V30 43006 H 4069.62 -5.52686 5.15824 0
M  V30 43007 H 4070.89 -6.43827 4.39439 0
M  V30 43008 N 4075.12 -1.40523 -0.713506 0
M  V30 43009 C 4076.37 -1.38914 -1.4734 0
M  V30 43010 C 4076.7 0.00784033 -1.94498 0
M  V30 43011 O 4075.95 0.992756 -1.6865 0
M  V30 43012 C 4076.25 -2.32686 -2.71279 0
M  V30 43013 C 4075.92 -3.79898 -2.42875 0
M  V30 43014 C 4074.58 -4.20005 -2.34838 0
M  V30 43015 C 4076.93 -4.72918 -2.19085 0
M  V30 43016 C 4074.26 -5.51165 -2.01083 0
M  V30 43017 C 4076.61 -6.04378 -1.86842 0
M  V30 43018 C 4075.27 -6.43525 -1.77289 0
M  V30 43019 H 4074.54 -0.508322 -0.539157 0
M  V30 43020 H 4077.19 -1.73192 -0.817107 0
M  V30 43021 H 4075.5 -1.91599 -3.41756 0
M  V30 43022 H 4077.19 -2.28723 -3.29374 0
M  V30 43023 H 4073.78 -3.48123 -2.50017 0
M  V30 43024 H 4077.97 -4.42749 -2.24248 0
M  V30 43025 H 4073.22 -5.80396 -1.92226 0
M  V30 43026 H 4077.4 -6.75969 -1.67448 0
M  V30 43027 H 4075.02 -7.45073 -1.509 0
M  V30 43028 N 4076.6 0.94594 -1.26054 0
M  V30 43029 C 4077.56 2.02551 -1.07265 0
M  V30 43030 C 4078.56 1.60784 -0.0225519 0
M  V30 43031 O 4079.75 1.72164 -0.265531 0
M  V30 43032 C 4076.88 3.35018 -0.630509 0
M  V30 43033 H 4078.08 2.20651 -2.03109 0
M  V30 43034 H 4075.63 1.12424 -1.08584 0
M  V30 43035 H 4076.37 3.22615 0.330131 0
M  V30 43036 H 4076.15 3.66685 -1.3887 0
M  V30 43037 H 4077.64 4.1434 -0.520747 0
M  V30 43038 N 4078.08 1.07781 1.14983 0
M  V30 43039 C 4078.99 0.713615 2.23483 0
M  V30 43040 C 4080 -0.277073 1.7178 0
M  V30 43041 O 4081.18 -0.122614 2.01026 0
M  V30 43042 C 4078.24 0.121603 3.46487 0
M  V30 43043 C 4077.31 1.16609 4.1316 0
M  V30 43044 C 4076.54 0.602231 5.30291 0
M  V30 43045 O 4076.76 -0.580336 5.6744 0
M  V30 43046 O 4075.7 1.34922 5.86583 0
M  V30 43047 H 4079.52 1.61857 2.56975 0
M  V30 43048 H 4077.11 0.851059 1.2279 0
M  V30 43049 H 4078.99 -0.20606 4.20896 0
M  V30 43050 H 4077.66 -0.756603 3.14734 0
M  V30 43051 H 4076.57 1.54618 3.40653 0
M  V30 43052 H 4077.9 2.01635 4.49004 0
M  V30 43053 N 4079.56 -1.31901 0.862549 0
M  V30 43054 C 4080.79 -2.00867 0.48334 0
M  V30 43055 C 4081.19 -1.64951 -0.926704 0
M  V30 43056 O 4080.54 -0.87091 -1.61743 0
M  V30 43057 C 4080.6 -3.55238 0.551934 0
M  V30 43058 C 4080.26 -4.14605 1.92227 0
M  V30 43059 C 4081.26 -4.32255 2.8888 0
M  V30 43060 C 4078.94 -4.50502 2.22157 0
M  V30 43061 C 4080.94 -4.84981 4.13609 0
M  V30 43062 C 4078.63 -5.0293 3.47137 0
M  V30 43063 C 4079.62 -5.2012 4.42679 0
M  V30 43064 O 4079.31 -5.71425 5.65445 0
M  V30 43065 H 4079.04 -0.64946 0.187556 0
M  V30 43066 H 4081.6 -1.69276 1.1634 0
M  V30 43067 H 4079.83 -3.86257 -0.185012 0
M  V30 43068 H 4081.52 -4.05468 0.187208 0
M  V30 43069 H 4082.28 -4.04848 2.67063 0
M  V30 43070 H 4078.16 -4.36403 1.48571 0
M  V30 43071 H 4081.71 -4.98313 4.88191 0
M  V30 43072 H 4077.6 -5.2977 3.688 0
M  V30 43073 H 4078.37 -5.89806 5.67513 0
M  V30 43074 N 4081.03 -0.621255 -1.44838 0
M  V30 43075 C 4082.26 -0.128597 -2.065 0
M  V30 43076 C 4082.68 1.19274 -1.46353 0
M  V30 43077 O 4082.03 1.72947 -0.582722 0
M  V30 43078 C 4082.09 0.00291268 -3.615 0
M  V30 43079 O 4081.81 -1.26616 -4.19404 0
M  V30 43080 C 4083.31 0.525428 -4.40175 0
M  V30 43081 H 4080.53 -0.0751245 -0.666781 0
M  V30 43082 H 4083.07 -0.852862 -1.85867 0
M  V30 43083 H 4081.23 0.677568 -3.81429 0
M  V30 43084 H 4081.64 -1.10463 -5.12736 0
M  V30 43085 H 4083.11 0.566488 -5.49086 0
M  V30 43086 H 4083.59 1.5505 -4.10921 0
M  V30 43087 H 4084.2 -0.115643 -4.25143 0
M  V30 43088 N 4082.51 1.53405 -0.361211 0
M  V30 43089 C 4083.46 2.22367 0.503679 0
M  V30 43090 C 4084.45 1.21732 1.05215 0
M  V30 43091 O 4085.64 1.472 0.982919 0
M  V30 43092 C 4082.77 3.01315 1.64511 0
M  V30 43093 C 4081.85 4.09324 1.10973 0
M  V30 43094 N 4082.24 5.04927 0.296984 0
M  V30 43095 C 4080.54 4.23952 1.38496 0
M  V30 43096 C 4081.24 5.817 0.00435922 0
M  V30 43097 N 4080.22 5.4027 0.600804 0
M  V30 43098 H 4084.02 2.93638 -0.124138 0
M  V30 43099 H 4081.54 1.61518 -0.168996 0
M  V30 43100 H 4083.53 3.49235 2.27686 0
M  V30 43101 H 4082.19 2.31575 2.27603 0
M  V30 43102 H 4083.2 5.17861 -0.0634443 0
M  V30 43103 H 4079.88 3.65436 2.01898 0
M  V30 43104 H 4081.27 6.68725 -0.652397 0
M  V30 43105 N 4083.99 0.0902663 1.57341 0
M  V30 43106 C 4084.9 -0.884742 2.17277 0
M  V30 43107 C 4085.92 -1.31374 1.14091 0
M  V30 43108 O 4087.09 -1.38265 1.4644 0
M  V30 43109 C 4084.16 -2.12757 2.73743 0
M  V30 43110 C 4083.22 -1.75323 3.91868 0
M  V30 43111 C 4082.45 -2.93682 4.45631 0
M  V30 43112 O 4082.67 -4.08262 3.98344 0
M  V30 43113 O 4081.61 -2.72428 5.36719 0
M  V30 43114 H 4085.43 -0.404817 3.0099 0
M  V30 43115 H 4083.02 -0.133822 1.48799 0
M  V30 43116 H 4084.9 -2.85602 3.09854 0
M  V30 43117 H 4083.58 -2.59812 1.93079 0
M  V30 43118 H 4082.48 -0.996736 3.60577 0
M  V30 43119 H 4083.82 -1.33036 4.7388 0
M  V30 43120 N 4085.47 -1.56529 -0.183403 0
M  V30 43121 C 4086.42 -1.95468 -1.22722 0
M  V30 43122 C 4087.39 -0.816885 -1.44624 0
M  V30 43123 O 4088.57 -1.07601 -1.57565 0
M  V30 43124 C 4085.71 -2.30948 -2.56431 0
M  V30 43125 C 4084.82 -3.57848 -2.4201 0
M  V30 43126 C 4083.96 -3.82596 -3.68502 0
M  V30 43127 C 4083 -5.02883 -3.48963 0
M  V30 43128 N 4082.13 -5.23825 -4.67495 0
M  V30 43129 H 4086.97 -2.84457 -0.888154 0
M  V30 43130 H 4084.51 -1.40761 -0.427167 0
M  V30 43131 H 4086.47 -2.49538 -3.34345 0
M  V30 43132 H 4085.1 -1.45085 -2.88358 0
M  V30 43133 H 4084.15 -3.4724 -1.55333 0
M  V30 43134 H 4085.46 -4.45919 -2.23511 0
M  V30 43135 H 4084.62 -4.01488 -4.54854 0
M  V30 43136 H 4083.36 -2.92877 -3.89967 0
M  V30 43137 H 4082.36 -4.83902 -2.60997 0
M  V30 43138 H 4083.59 -5.94122 -3.28932 0
M  V30 43139 H 4081.53 -4.37056 -4.89202 0
M  V30 43140 H 4081.45 -6.06097 -4.51866 0
M  V30 43141 H 4082.72 -5.47186 -5.55165 0
M  V30 43142 N 4086.95 0.451537 -1.50993 0
M  V30 43143 C 4088.19 1.20092 -1.64163 0
M  V30 43144 C 4088.55 1.8925 -0.346754 0
M  V30 43145 O 4087.84 1.79998 0.656604 0
M  V30 43146 C 4088.03 2.25447 -2.77324 0
M  V30 43147 C 4087.86 1.66628 -4.1769 0
M  V30 43148 C 4086.63 1.45741 -4.83826 0
M  V30 43149 C 4088.83 1.15035 -5.0127 0
M  V30 43150 N 4086.81 0.823697 -6.08349 0
M  V30 43151 C 4088.18 0.641051 -6.16677 0
M  V30 43152 C 4090.24 1.04075 -4.86901 0
M  V30 43153 C 4088.94 0.0329468 -7.19292 0
M  V30 43154 C 4090.97 0.446557 -5.89712 0
M  V30 43155 C 4090.33 -0.0522631 -7.04381 0
M  V30 43156 H 4086.43 0.427626 -0.654722 0
M  V30 43157 H 4089.01 0.499746 -1.88177 0
M  V30 43158 H 4087.18 2.92968 -2.54998 0
M  V30 43159 H 4088.92 2.92443 -2.79748 0
M  V30 43160 H 4085.67 1.71517 -4.41451 0
M  V30 43161 H 4086.1 0.524693 -6.74964 0
M  V30 43162 H 4090.74 1.4123 -3.98515 0
M  V30 43163 H 4088.46 -0.350763 -8.07338 0
M  V30 43164 H 4092.04 0.363855 -5.80661 0
M  V30 43165 H 4090.92 -0.504829 -7.82573 0
M  V30 43166 N 4088.42 1.409 0.706044 0
M  V30 43167 C 4089.39 1.41659 1.80181 0
M  V30 43168 C 4090.39 0.308851 1.57806 0
M  V30 43169 O 4091.58 0.568226 1.64672 0
M  V30 43170 C 4088.71 1.21771 3.1841 0
M  V30 43171 H 4089.9 2.39194 1.80904 0
M  V30 43172 H 4087.46 1.26888 0.912635 0
M  V30 43173 H 4088.19 0.250345 3.23332 0
M  V30 43174 H 4087.98 2.0202 3.36051 0
M  V30 43175 H 4089.47 1.25113 3.98418 0
M  V30 43176 N 4089.9 -0.939242 1.26554 0
M  V30 43177 C 4091.15 -1.68566 1.12213 0
M  V30 43178 C 4091.48 -1.91608 -0.33418 0
M  V30 43179 O 4090.73 -1.49595 -1.26174 0
M  V30 43180 C 4091.03 -3.06485 1.83853 0
M  V30 43181 C 4090.7 -3.03192 3.33744 0
M  V30 43182 C 4089.36 -3.02002 3.74631 0
M  V30 43183 C 4091.71 -2.95352 4.29437 0
M  V30 43184 C 4089.04 -2.90739 5.09596 0
M  V30 43185 C 4091.39 -2.85631 5.64444 0
M  V30 43186 C 4090.06 -2.82784 6.0464 0
M  V30 43187 H 4089.33 -0.616826 0.410617 0
M  V30 43188 H 4091.97 -1.09621 1.57021 0
M  V30 43189 H 4090.28 -3.69066 1.3152 0
M  V30 43190 H 4091.97 -3.6309 1.70195 0
M  V30 43191 H 4088.56 -3.049 3.01221 0
M  V30 43192 H 4092.75 -2.95379 3.98829 0
M  V30 43193 H 4088 -2.86914 5.39899 0
M  V30 43194 H 4092.18 -2.78529 6.38275 0
M  V30 43195 H 4089.81 -2.73814 7.09176 0
M  V30 43196 N 4091.38 -1.08389 -1.14409 0
M  V30 43197 C 4092.66 -0.72622 -1.81619 0
M  V30 43198 C 4093.04 0.790095 -1.95757 0
M  V30 43199 O 4092.39 1.70853 -1.51728 0
M  V30 43200 C 4092.6 -1.45293 -3.17318 0
M  V30 43201 C 4093.94 -1.61186 -3.92816 0
M  V30 43202 O 4094.97 -1.41457 -3.26907 0
M  V30 43203 O 4093.83 -1.93737 -5.11007 0
M  V30 43204 H 4090.92 -0.259664 -0.785178 0
M  V30 43205 H 4093.47 -1.18546 -1.21429 0
M  V30 43206 H 4092.24 -2.48589 -3.0219 0
M  V30 43207 H 4091.86 -0.985161 -3.85202 0
M  V30 43208 N 4092.86 1.31442 -0.869532 0
M  V30 43209 C 4093.81 2.28528 -0.323074 0
M  V30 43210 C 4094.78 1.55711 0.578218 0
M  V30 43211 O 4095.96 1.83859 0.509951 0
M  V30 43212 C 4093.1 3.41887 0.469801 0
M  V30 43213 C 4092.21 4.29555 -0.458958 0
M  V30 43214 C 4091.35 5.30059 0.347999 0
M  V30 43215 C 4090.39 6.09372 -0.577216 0
M  V30 43216 N 4089.52 7.01833 0.193466 0
M  V30 43217 H 4094.36 2.74657 -1.15619 0
M  V30 43218 H 4091.9 1.35116 -0.58155 0
M  V30 43219 H 4093.86 4.0635 0.945267 0
M  V30 43220 H 4092.49 2.96869 1.26762 0
M  V30 43221 H 4091.54 3.65539 -1.05287 0
M  V30 43222 H 4092.85 4.84922 -1.16841 0
M  V30 43223 H 4092.01 6.00196 0.885992 0
M  V30 43224 H 4090.75 4.75346 1.09075 0
M  V30 43225 H 4089.75 5.38126 -1.12697 0
M  V30 43226 H 4090.98 6.66171 -1.31881 0
M  V30 43227 H 4088.92 6.4953 0.919032 0
M  V30 43228 H 4088.84 7.5462 -0.456657 0
M  V30 43229 H 4090.11 7.76235 0.712704 0
M  V30 43230 N 4094.34 0.628927 1.44507 0
M  V30 43231 C 4095.59 0.130001 2.01281 0
M  V30 43232 C 4095.9 -1.25485 1.50043 0
M  V30 43233 O 4097.1 -1.84767 1.9893 0
M  V30 43234 C 4095.56 0.181663 3.59441 0
M  V30 43235 C 4095.17 1.56769 4.19675 0
M  V30 43236 C 4096.91 -0.260913 4.23697 0
M  V30 43237 C 4094.82 1.57459 5.70053 0
M  V30 43238 H 4093.75 0.0448347 0.752666 0
M  V30 43239 H 4096.4 0.787401 1.65748 0
M  V30 43240 H 4094.78 -0.542795 3.92262 0
M  V30 43241 H 4095.96 2.31556 3.98395 0
M  V30 43242 H 4094.27 1.95416 3.67697 0
M  V30 43243 H 4096.87 -0.275262 5.33991 0
M  V30 43244 H 4097.21 -1.2878 3.95881 0
M  V30 43245 H 4097.74 0.410979 3.95671 0
M  V30 43246 H 4094.48 2.57977 6.02601 0
M  V30 43247 H 4094 0.869618 5.93462 0
M  V30 43248 H 4095.68 1.30756 6.3365 0
M  V30 43249 N 4095.82 -1.53211 0.369342 0
M  V30 43250 C 4096.75 -2.23451 -0.510122 0
M  V30 43251 C 4097.76 -1.24993 -1.04311 0
M  V30 43252 O 4098.95 -1.51193 -0.948842 0
M  V30 43253 C 4096.05 -2.92157 -1.71748 0
M  V30 43254 C 4095.22 -4.17154 -1.31534 0
M  V30 43255 C 4094.28 -4.69037 -2.38518 0
M  V30 43256 O 4093.31 -5.32623 -2.00752 0
M  V30 43257 N 4094.51 -4.47173 -3.70157 0
M  V30 43258 H 4097.27 -2.9956 0.0915557 0
M  V30 43259 H 4094.84 -1.60725 0.194704 0
M  V30 43260 H 4096.83 -3.23773 -2.42802 0
M  V30 43261 H 4095.4 -2.19478 -2.22594 0
M  V30 43262 H 4094.62 -3.91798 -0.434494 0
M  V30 43263 H 4095.91 -4.98409 -1.02302 0
M  V30 43264 H 4095.3 -3.96375 -4.03613 0
M  V30 43265 H 4093.86 -4.8333 -4.37304 0
M  V30 43266 N 4097.29 -0.0986092 -1.57291 0
M  V30 43267 C 4098.24 0.876546 -2.15452 0
M  V30 43268 C 4099.24 1.28972 -1.09829 0
M  V30 43269 O 4100.44 1.26384 -1.28168 0
M  V30 43270 H 4096.82 0.300712 -0.689258 0
M  V30 43271 H 4098.79 0.361338 -2.96204 0
M  V30 43272 C 4097.54 2.12463 -2.75236 0
M  V30 43273 H 4096.86 1.81559 -3.56197 0
M  V30 43274 H 4098.3 2.78746 -3.19494 0
M  V30 43275 C 4096.76 2.90098 -1.71303 0
M  V30 43276 O 4097.29 3.84765 -1.15408 0
M  V30 43277 N 4095.49 2.53704 -1.41714 0
M  V30 43278 H 4095.04 1.76791 -1.87357 0
M  V30 43279 H 4095 3.05947 -0.724126 0
M  V30 43280 N 4098.77 1.56624 0.175099 0
M  V30 43281 C 4099.72 1.9703 1.2362 0
M  V30 43282 C 4100.71 0.858511 1.46034 0
M  V30 43283 O 4101.92 1.04361 1.46659 0
M  V30 43284 H 4098.29 0.626813 0.415463 0
M  V30 43285 H 4100.27 2.85481 0.86852 0
M  V30 43286 C 4099.01 2.34312 2.56891 0
M  V30 43287 H 4098.34 3.194 2.40466 0
M  V30 43288 H 4099.78 2.66431 3.29834 0
M  V30 43289 C 4098.24 1.18512 3.15367 0
M  V30 43290 O 4098.77 0.470764 3.98932 0
M  V30 43291 N 4096.97 0.956673 2.74401 0
M  V30 43292 H 4096.52 1.53933 2.06549 0
M  V30 43293 H 4096.48 0.183703 3.13863 0
M  V30 43294 N 4100.25 -0.443523 1.5123 0
M  V30 43295 C 4101.5 -1.19219 1.64798 0
M  V30 43296 C 4101.85 -1.89063 0.356786 0
M  V30 43297 O 4101.14 -1.80344 -0.647049 0
M  V30 43298 C 4101.34 -2.23973 2.78515 0
M  V30 43299 C 4101.17 -1.6441 4.18568 0
M  V30 43300 C 4099.94 -1.43173 4.84592 0
M  V30 43301 C 4102.13 -1.12375 5.01873 0
M  V30 43302 N 4100.12 -0.791424 6.08777 0
M  V30 43303 C 4101.49 -0.608338 6.17008 0
M  V30 43304 C 4103.54 -1.01491 4.87446 0
M  V30 43305 C 4102.25 0.00519949 7.193 0
M  V30 43306 C 4104.27 -0.415277 5.8994 0
M  V30 43307 C 4103.63 0.0896174 7.04343 0
M  V30 43308 H 4099.73 -0.424148 0.65698 0
M  V30 43309 H 4102.32 -0.48976 1.88439 0
M  V30 43310 H 4100.49 -2.91612 2.56548 0
M  V30 43311 H 4102.22 -2.90955 2.81295 0
M  V30 43312 H 4098.97 -1.69174 4.42354 0
M  V30 43313 H 4099.4 -0.48889 6.75232 0
M  V30 43314 H 4104.04 -1.39114 3.99258 0
M  V30 43315 H 4101.76 0.393574 8.07141 0
M  V30 43316 H 4105.34 -0.333056 5.80846 0
M  V30 43317 H 4104.22 0.546324 7.82295 0
M  V30 43318 N 4101.73 -1.41272 -0.698562 0
M  V30 43319 C 4102.95 -1.44017 -1.49244 0
M  V30 43320 C 4103.38 -0.0462219 -1.88043 0
M  V30 43321 O 4102.74 0.949833 -1.54428 0
M  V30 43322 C 4102.78 -2.35209 -2.7333 0
M  V30 43323 O 4101.89 -1.80706 -3.70701 0
M  V30 43324 H 4101.23 -0.488899 -0.449304 0
M  V30 43325 H 4103.76 -1.85699 -0.858903 0
M  V30 43326 H 4103.77 -2.50981 -3.21671 0
M  V30 43327 H 4102.44 -3.36494 -2.44427 0
M  V30 43328 H 4101.02 -1.74369 -3.29621 0
M  V30 43329 N 4103.21 0.932517 -1.27051 0
M  V30 43330 C 4104.44 1.71138 -1.15738 0
M  V30 43331 C 4104.84 1.86979 0.289036 0
M  V30 43332 O 4104.19 1.38304 1.20903 0
M  V30 43333 C 4104.25 3.13289 -1.76325 0
M  V30 43334 C 4103.91 3.20802 -3.25477 0
M  V30 43335 C 4104.91 3.03418 -4.22177 0
M  V30 43336 C 4102.59 3.43915 -3.66098 0
M  V30 43337 C 4104.59 3.09028 -5.57477 0
M  V30 43338 C 4102.28 3.49159 -5.01529 0
M  V30 43339 C 4103.27 3.31734 -5.97028 0
M  V30 43340 O 4102.96 3.36703 -7.2999 0
M  V30 43341 H 4102.69 0.542365 -0.403504 0
M  V30 43342 H 4105.25 1.17695 -1.68336 0
M  V30 43343 H 4103.48 3.68193 -1.18199 0
M  V30 43344 H 4105.17 3.73123 -1.59795 0
M  V30 43345 H 4105.93 2.85408 -3.92132 0
M  V30 43346 H 4101.81 3.56531 -2.92244 0
M  V30 43347 H 4105.36 2.95345 -6.31995 0
M  V30 43348 H 4101.25 3.66692 -5.31232 0
M  V30 43349 H 4102.02 3.5319 -7.38376 0
M  V30 43350 N 4104.68 1.08995 1.13833 0
M  V30 43351 C 4105.93 0.821662 1.84643 0
M  V30 43352 C 4106.25 -0.654548 1.83686 0
M  V30 43353 O 4105.52 -1.47474 1.2895 0
M  V30 43354 H 4104.1 0.30097 0.683686 0
M  V30 43355 H 4106.76 1.37717 1.37913 0
M  V30 43356 H 4105.86 1.17122 2.8929 0
M  V30 43357 N 4106.16 -1.30979 0.87649 0
M  V30 43358 C 4107.07 -2.32113 0.340707 0
M  V30 43359 C 4108.09 -1.64988 -0.55272 0
M  V30 43360 O 4109.26 -1.96357 -0.447874 0
M  V30 43361 C 4106.33 -3.43852 -0.443444 0
M  V30 43362 C 4105.39 -4.26622 0.478721 0
M  V30 43363 C 4104.62 -5.33026 -0.268101 0
M  V30 43364 O 4104.85 -5.50451 -1.49534 0
M  V30 43365 O 4103.78 -6.00716 0.377411 0
M  V30 43366 H 4107.61 -2.79874 1.17915 0
M  V30 43367 H 4105.19 -1.34995 0.640061 0
M  V30 43368 H 4107.07 -4.11943 -0.887744 0
M  V30 43369 H 4105.75 -2.98241 -1.25833 0
M  V30 43370 H 4104.65 -3.61261 0.971657 0
M  V30 43371 H 4105.99 -4.75816 1.25938 0
M  V30 43372 N 4107.64 -0.636582 -1.44171 0
M  V30 43373 C 4108.59 0.0772071 -2.32472 0
M  V30 43374 C 4109.58 0.830222 -1.47661 0
M  V30 43375 O 4110.79 0.742504 -1.63972 0
M  V30 43376 H 4107.16 0.0437411 -0.750727 0
M  V30 43377 H 4109.13 -0.685516 -2.90419 0
M  V30 43378 C 4107.88 1.04146 -3.31736 0
M  V30 43379 H 4107.21 0.471461 -3.9701 0
M  V30 43380 H 4108.65 1.51029 -3.9619 0
M  V30 43381 C 4107.1 2.12939 -2.61072 0
M  V30 43382 O 4107.63 3.21096 -2.41372 0
M  V30 43383 N 4105.84 1.89026 -2.20721 0
M  V30 43384 H 4105.39 1.01073 -2.36943 0
M  V30 43385 H 4105.35 2.62015 -1.73768 0
M  V30 43386 N 4109.12 1.53013 -0.377462 0
M  V30 43387 C 4110.37 2.00607 0.209677 0
M  V30 43388 C 4110.68 1.26853 1.48888 0
M  V30 43389 O 4111.89 1.65097 2.15535 0
M  V30 43390 C 4110.34 3.57391 0.424208 0
M  V30 43391 C 4109.95 4.40034 -0.841059 0
M  V30 43392 C 4111.69 4.13308 0.968355 0
M  V30 43393 C 4109.6 5.88395 -0.595458 0
M  V30 43394 H 4108.53 0.749514 0.0821304 0
M  V30 43395 H 4111.18 1.76612 -0.498036 0
M  V30 43396 H 4109.56 3.77587 1.19348 0
M  V30 43397 H 4110.74 4.31608 -1.61403 0
M  V30 43398 H 4109.05 3.9528 -1.30929 0
M  V30 43399 H 4111.65 5.21796 1.16762 0
M  V30 43400 H 4111.99 3.6865 1.93398 0
M  V30 43401 H 4112.53 3.96956 0.258955 0
M  V30 43402 H 4109.26 6.37352 -1.53175 0
M  V30 43403 H 4108.78 5.99639 0.138798 0
M  V30 43404 H 4110.46 6.46607 -0.22548 0
M  V30 43405 N 4110.6 0.106949 1.57237 0
M  V30 43406 C 4111.87 -0.596856 1.86271 0
M  V30 43407 C 4112.25 -1.8559 1.00597 0
M  V30 43408 O 4111.6 -2.28354 0.0815795 0
M  V30 43409 C 4111.81 -0.900875 3.37172 0
M  V30 43410 C 4113.16 -1.25919 4.05499 0
M  V30 43411 O 4114.18 -0.991519 3.42122 0
M  V30 43412 O 4113.04 -1.761 5.1735 0
M  V30 43413 H 4110.14 -0.299894 0.770709 0
M  V30 43414 H 4112.68 0.140543 1.69117 0
M  V30 43415 H 4111.45 -0.00816459 3.91299 0
M  V30 43416 H 4111.08 -1.69385 3.59715 0
M  V30 43417 N 4112.07 -1.56715 -0.166791 0
M  V30 43418 C 4112.98 -1.99999 -1.22628 0
M  V30 43419 C 4114 -0.912094 -1.48178 0
M  V30 43420 O 4115.18 -1.22007 -1.60238 0
M  V30 43421 C 4112.24 -2.35503 -2.54439 0
M  V30 43422 C 4111.3 -3.58142 -2.36712 0
M  V30 43423 C 4110.54 -3.91943 -3.62238 0
M  V30 43424 O 4110.76 -3.26654 -4.67604 0
M  V30 43425 O 4109.69 -4.85275 -3.56078 0
M  V30 43426 H 4113.52 -2.90401 -0.888874 0
M  V30 43427 H 4111.1 -1.44643 -0.374006 0
M  V30 43428 H 4112.99 -2.59287 -3.32187 0
M  V30 43429 H 4111.66 -1.48261 -2.87751 0
M  V30 43430 H 4110.57 -3.3957 -1.56981 0
M  V30 43431 H 4111.9 -4.45939 -2.08324 0
M  V30 43432 N 4113.55 0.435497 -1.51463 0
M  V30 43433 C 4114.46 1.55391 -1.75758 0
M  V30 43434 C 4115.48 1.61728 -0.641881 0
M  V30 43435 O 4116.65 1.78935 -0.924342 0
M  V30 43436 C 4113.72 2.91358 -1.87914 0
M  V30 43437 C 4112.78 2.95123 -3.11771 0
M  V30 43438 C 4112.01 4.24604 -3.23337 0
M  V30 43439 O 4112.24 5.17081 -2.40798 0
M  V30 43440 O 4111.17 4.34691 -4.16326 0
M  V30 43441 H 4115 1.37805 -2.70635 0
M  V30 43442 H 4112.58 0.618693 -1.35987 0
M  V30 43443 H 4114.46 3.72048 -1.97884 0
M  V30 43444 H 4113.14 3.09068 -0.962233 0
M  V30 43445 H 4112.05 2.13381 -3.07277 0
M  V30 43446 H 4113.38 2.82358 -4.03156 0
M  V30 43447 N 4115.03 1.41641 0.69106 0
M  V30 43448 C 4115.96 1.4662 1.81728 0
M  V30 43449 C 4116.94 0.324387 1.66978 0
M  V30 43450 O 4118.13 0.536456 1.86643 0
M  V30 43451 C 4115.26 1.35206 3.19901 0
M  V30 43452 C 4114.21 2.47245 3.49362 0
M  V30 43453 C 4113.54 2.20896 4.86938 0
M  V30 43454 C 4114.84 3.89581 3.47885 0
M  V30 43455 H 4116.53 2.40875 1.77818 0
M  V30 43456 H 4114.08 1.15937 0.85408 0
M  V30 43457 H 4116.03 1.373 3.98405 0
M  V30 43458 H 4114.75 0.374369 3.24447 0
M  V30 43459 H 4113.41 2.44441 2.73211 0
M  V30 43460 H 4113.06 1.21459 4.88116 0
M  V30 43461 H 4112.76 2.95975 5.07614 0
M  V30 43462 H 4114.28 2.24713 5.67747 0
M  V30 43463 H 4115.7 3.94076 4.16385 0
M  V30 43464 H 4114.1 4.6438 3.80093 0
M  V30 43465 H 4115.17 4.17412 2.4677 0
M  V30 43466 N 4116.51 -0.925766 1.27543 0
M  V30 43467 C 4117.46 -2.02664 1.10436 0
M  V30 43468 C 4118.43 -1.66099 0.0048752 0
M  V30 43469 O 4119.61 -1.90063 0.167564 0
M  V30 43470 C 4116.75 -3.36636 0.759626 0
M  V30 43471 C 4115.86 -3.86143 1.93694 0
M  V30 43472 C 4115 -5.08571 1.53391 0
M  V30 43473 C 4114.04 -5.5038 2.67859 0
M  V30 43474 N 4113.17 -6.64003 2.28132 0
M  V30 43475 H 4118.01 -2.16629 2.04636 0
M  V30 43476 H 4115.55 -1.06122 1.01865 0
M  V30 43477 H 4117.51 -4.13683 0.540565 0
M  V30 43478 H 4116.14 -3.22472 -0.14542 0
M  V30 43479 H 4115.19 -3.05359 2.26848 0
M  V30 43480 H 4116.5 -4.13099 2.79555 0
M  V30 43481 H 4115.66 -5.93126 1.27621 0
M  V30 43482 H 4114.4 -4.83397 0.646417 0
M  V30 43483 H 4113.4 -4.64374 2.94341 0
M  V30 43484 H 4114.63 -5.77548 3.57232 0
M  V30 43485 H 4112.57 -6.40483 1.41836 0
M  V30 43486 H 4112.49 -6.90623 3.07532 0
M  V30 43487 H 4113.76 -7.51893 2.05614 0
M  V30 43488 N 4117.99 -1.09597 -1.13253 0
M  V30 43489 C 4119.21 -0.85496 -1.88409 0
M  V30 43490 C 4119.63 0.593917 -1.79215 0
M  V30 43491 O 4118.99 1.40893 -1.15997 0
M  V30 43492 C 4119.04 -1.28359 -3.37944 0
M  V30 43493 O 4118.76 -2.67564 -3.46902 0
M  V30 43494 C 4120.26 -1.07522 -4.30063 0
M  V30 43495 H 4117.48 -0.307466 -0.596411 0
M  V30 43496 H 4120.02 -1.45841 -1.43355 0
M  V30 43497 H 4118.18 -0.723997 -3.80575 0
M  V30 43498 H 4118.59 -2.85678 -4.39873 0
M  V30 43499 H 4120.07 -1.42437 -5.33306 0
M  V30 43500 H 4120.54 -0.0131383 -4.39198 0
M  V30 43501 H 4121.15 -1.62084 -3.93203 0
M  V30 43502 N 4119.46 1.30512 -0.883424 0
M  V30 43503 C 4120.41 2.25736 -0.320524 0
M  V30 43504 C 4121.4 1.51203 0.550139 0
M  V30 43505 O 4122.59 1.7254 0.394816 0
M  V30 43506 C 4119.72 3.40132 0.465288 0
M  V30 43507 C 4118.81 4.22021 -0.419375 0
M  V30 43508 N 4119.2 4.82449 -1.51911 0
M  V30 43509 C 4117.49 4.45485 -0.214211 0
M  V30 43510 C 4118.2 5.43784 -2.06576 0
M  V30 43511 N 4117.17 5.26288 -1.36093 0
M  V30 43512 H 4120.97 2.70003 -1.16085 0
M  V30 43513 H 4118.49 1.44934 -0.732659 0
M  V30 43514 H 4120.48 4.07394 0.885177 0
M  V30 43515 H 4119.14 2.97406 1.30307 0
M  V30 43516 H 4120.16 4.81711 -1.90197 0
M  V30 43517 H 4116.83 4.1336 0.586529 0
M  V30 43518 H 4118.22 6.01745 -2.98919 0
M  V30 43519 N 4120.94 0.644219 1.43832 0
M  V30 43520 C 4122.35 0.234813 1.85217 0
M  V30 43521 C 4122.7 -1.21668 1.5392 0
M  V30 43522 O 4121.83 -1.92749 0.983711 0
M  V30 43523 C 4122.42 0.419386 3.36194 0
M  V30 43524 C 4120.98 0.0643766 3.76345 0
M  V30 43525 C 4120.13 0.726553 2.67613 0
M  V30 43526 H 4123.08 0.848504 1.34112 0
M  V30 43527 H 4123.1 -0.337804 3.78998 0
M  V30 43528 H 4122.61 1.47588 3.58942 0
M  V30 43529 H 4120.72 -0.989876 3.59211 0
M  V30 43530 H 4120.83 0.483565 4.76653 0
M  V30 43531 H 4119.19 0.160619 2.54193 0
M  V30 43532 H 4119.98 1.7859 2.9319 0
M  V30 43533 N 4122.42 -1.52811 0.385571 0
M  V30 43534 C 4123.35 -2.22757 -0.495415 0
M  V30 43535 C 4124.33 -1.22689 -1.06706 0
M  V30 43536 O 4125.52 -1.51662 -1.11941 0
M  V30 43537 C 4122.64 -2.93789 -1.6854 0
M  V30 43538 C 4121.69 -4.08096 -1.23935 0
M  V30 43539 S 4122.52 -5.35031 -0.223986 0
M  V30 43540 C 4123.68 -6.09583 -1.41984 0
M  V30 43541 H 4123.91 -2.97137 0.0985678 0
M  V30 43542 H 4121.44 -1.53464 0.169744 0
M  V30 43543 H 4123.4 -3.35323 -2.36788 0
M  V30 43544 H 4122.06 -2.19097 -2.25067 0
M  V30 43545 H 4121.26 -4.56884 -2.12775 0
M  V30 43546 H 4120.86 -3.68555 -0.635837 0
M  V30 43547 H 4123.15 -6.35528 -2.34755 0
M  V30 43548 H 4124.09 -7.01384 -0.972954 0
M  V30 43549 H 4124.5 -5.40305 -1.63496 0
M  V30 43550 N 4123.9 -0.115287 -1.57178 0
M  V30 43551 C 4124.83 0.833004 -2.18136 0
M  V30 43552 C 4125.81 1.27993 -1.12035 0
M  V30 43553 O 4126.99 1.3432 -1.40256 0
M  V30 43554 C 4124.12 2.08458 -2.77781 0
M  V30 43555 C 4123.08 1.77558 -3.89432 0
M  V30 43556 C 4122.4 3.09714 -4.35868 0
M  V30 43557 C 4123.7 1.04678 -5.11703 0
M  V30 43558 H 4125.4 0.325055 -2.9763 0
M  V30 43559 H 4122.94 0.154908 -1.43164 0
M  V30 43560 H 4124.9 2.75252 -3.19083 0
M  V30 43561 H 4123.62 2.61571 -1.95571 0
M  V30 43562 H 4122.28 1.13155 -3.487 0
M  V30 43563 H 4121.93 3.60754 -3.50522 0
M  V30 43564 H 4121.63 2.89814 -5.11157 0
M  V30 43565 H 4123.15 3.77633 -4.79819 0
M  V30 43566 H 4124.57 1.61618 -5.50048 0
M  V30 43567 H 4122.96 0.948859 -5.92551 0
M  V30 43568 H 4124.03 0.0328918 -4.84889 0
M  V30 43569 N 4125.38 1.56801 0.158477 0
M  V30 43570 C 4126.79 1.51208 0.510716 0
M  V30 43571 C 4126.99 0.821765 1.83982 0
M  V30 43572 O 4126.05 0.387488 2.49509 0
M  V30 43573 C 4127.36 2.95963 0.531616 0
M  V30 43574 C 4128.91 3.0684 0.617929 0
M  V30 43575 C 4129.39 4.53079 0.669601 0
M  V30 43576 N 4130.88 4.57377 0.73214 0
M  V30 43577 C 4131.61 5.67891 0.792911 0
M  V30 43578 N 4131.11 6.88005 0.81373 0
M  V30 43579 N 4132.9 5.55895 0.832916 0
M  V30 43580 H 4125.05 2.0008 -0.712876 0
M  V30 43581 H 4127.31 0.912051 -0.258588 0
M  V30 43582 H 4127.02 3.49678 -0.376556 0
M  V30 43583 H 4126.89 3.51301 1.3736 0
M  V30 43584 H 4129.28 2.53151 1.51652 0
M  V30 43585 H 4129.36 2.54566 -0.250978 0
M  V30 43586 H 4129.01 5.07402 -0.224789 0
M  V30 43587 H 4128.94 5.03123 1.55484 0
M  V30 43588 H 4131.43 3.70903 0.723815 0
M  V30 43589 H 4131.74 7.67982 0.861631 0
M  V30 43590 H 4130.09 6.90589 0.781794 0
M  V30 43591 H 4133.28 4.60973 0.813741 0
M  V30 43592 H 4133.45 6.4204 0.876813 0
M  V30 43593 N 4126.86 -0.427458 1.51692 0
M  V30 43594 C 4128.27 -1.00698 1.57216 0
M  V30 43595 C 4128.62 -1.92047 0.401561 0
M  V30 43596 O 4127.74 -2.11 -0.480427 0
M  V30 43597 C 4128.34 -1.83304 2.8493 0
M  V30 43598 C 4126.9 -2.36288 2.92993 0
M  V30 43599 C 4126.04 -1.15767 2.51979 0
M  V30 43600 H 4128.99 -0.208358 1.57326 0
M  V30 43601 H 4129.02 -2.68858 2.6925 0
M  V30 43602 H 4128.53 -1.16792 3.7011 0
M  V30 43603 H 4126.63 -3.06226 2.12266 0
M  V30 43604 H 4126.74 -2.68409 3.96854 0
M  V30 43605 H 4125.11 -1.50604 2.05403 0
M  V30 43606 H 4125.89 -0.508508 3.39513 0
M  V30 43607 N 4128.33 -1.42005 -0.683539 0
M  V30 43608 C 4129.56 -1.45177 -1.46994 0
M  V30 43609 C 4129.97 -0.0589869 -1.89108 0
M  V30 43610 O 4129.31 0.934709 -1.58142 0
M  V30 43611 C 4129.38 -2.30821 -2.75612 0
M  V30 43612 C 4129.04 -3.78818 -2.55628 0
M  V30 43613 C 4130.04 -4.70687 -2.20794 0
M  V30 43614 C 4127.72 -4.22991 -2.70894 0
M  V30 43615 C 4129.72 -6.04718 -2.01481 0
M  V30 43616 C 4127.4 -5.57084 -2.51198 0
M  V30 43617 C 4128.4 -6.47764 -2.16543 0
M  V30 43618 O 4128.09 -7.79381 -1.97029 0
M  V30 43619 H 4127.82 -0.496179 -0.459111 0
M  V30 43620 H 4130.38 -1.87075 -0.848056 0
M  V30 43621 H 4128.61 -1.83757 -3.4025 0
M  V30 43622 H 4130.29 -2.25551 -3.37463 0
M  V30 43623 H 4131.06 -4.37847 -2.08603 0
M  V30 43624 H 4126.94 -3.52707 -2.96848 0
M  V30 43625 H 4130.48 -6.7546 -1.74355 0
M  V30 43626 H 4126.38 -5.895 -2.62982 0
M  V30 43627 H 4127.15 -7.90649 -2.11697 0
M  V30 43628 N 4129.81 0.918989 -1.28033 0
M  V30 43629 C 4130.76 2.02075 -1.11509 0
M  V30 43630 C 4131.73 1.66094 -0.0136838 0
M  V30 43631 O 4132.91 1.89971 -0.177641 0
M  V30 43632 C 4130.05 3.36228 -0.777468 0
M  V30 43633 C 4129.17 3.85111 -1.95739 0
M  V30 43634 C 4128.3 5.0775 -1.56086 0
M  V30 43635 C 4127.34 5.48952 -2.70774 0
M  V30 43636 N 4126.48 6.62784 -2.3165 0
M  V30 43637 H 4131.32 2.15541 -2.05782 0
M  V30 43638 H 4128.85 1.0558 -1.02427 0
M  V30 43639 H 4130.81 4.13391 -0.562496 0
M  V30 43640 H 4129.44 3.22545 0.128317 0
M  V30 43641 H 4128.49 3.04152 -2.28464 0
M  V30 43642 H 4129.81 4.1161 -2.81742 0
M  V30 43643 H 4128.96 5.9244 -1.30764 0
M  V30 43644 H 4127.7 4.83047 -0.672043 0
M  V30 43645 H 4126.7 4.62806 -2.968 0
M  V30 43646 H 4127.93 5.75646 -3.6029 0
M  V30 43647 H 4125.88 6.39722 -1.45231 0
M  V30 43648 H 4125.79 6.88982 -3.1119 0
M  V30 43649 H 4127.06 7.50792 -2.09598 0
M  V30 43650 N 4131.29 1.10196 1.12671 0
M  V30 43651 C 4132.52 0.86494 1.87953 0
M  V30 43652 C 4132.93 -0.584404 1.79528 0
M  V30 43653 O 4132.29 -1.40276 1.16743 0
M  V30 43654 C 4132.34 1.30149 3.37259 0
M  V30 43655 O 4132.06 2.694 3.45478 0
M  V30 43656 C 4133.56 1.09801 4.29487 0
M  V30 43657 H 4130.78 0.310624 0.594772 0
M  V30 43658 H 4133.33 1.46599 1.4258 0
M  V30 43659 H 4131.48 0.744169 3.80185 0
M  V30 43660 H 4131.9 2.88006 4.38352 0
M  V30 43661 H 4133.37 1.45264 5.32543 0
M  V30 43662 H 4133.85 0.0364299 4.39185 0
M  V30 43663 H 4134.45 1.64167 3.92338 0
M  V30 43664 N 4132.77 -1.30042 0.890333 0
M  V30 43665 C 4134.01 -1.95934 0.511485 0
M  V30 43666 C 4134.34 -1.70254 -0.940408 0
M  V30 43667 O 4133.6 -1.00305 -1.6804 0
M  V30 43668 C 4133.9 -3.49671 0.739271 0
M  V30 43669 C 4133.56 -3.9541 2.16707 0
M  V30 43670 C 4132.22 -4.07609 2.5575 0
M  V30 43671 C 4134.58 -4.19185 3.09731 0
M  V30 43672 C 4131.9 -4.40949 3.87016 0
M  V30 43673 C 4134.26 -4.53996 4.40535 0
M  V30 43674 C 4132.92 -4.64404 4.79463 0
M  V30 43675 H 4132.19 -0.716973 0.187166 0
M  V30 43676 H 4134.84 -1.5481 1.12721 0
M  V30 43677 H 4133.14 -3.91779 0.0405546 0
M  V30 43678 H 4134.84 -3.98734 0.425664 0
M  V30 43679 H 4131.43 -3.86424 1.85403 0
M  V30 43680 H 4135.61 -4.09235 2.80785 0
M  V30 43681 H 4130.87 -4.47208 4.16911 0
M  V30 43682 H 4135.04 -4.71343 5.12649 0
M  V30 43683 H 4132.67 -4.89993 5.81215 0
M  V30 43684 N 4134.25 -0.651838 -1.43488 0
M  V30 43685 C 4135.47 -0.170719 -2.06696 0
M  V30 43686 C 4135.9 1.15415 -1.48529 0
M  V30 43687 O 4135.25 1.71269 -0.594695 0
M  V30 43688 C 4135.3 -0.0916091 -3.60484 0
M  V30 43689 O 4134.41 0.946573 -4.0139 0
M  V30 43690 H 4133.75 -0.0942392 -0.657278 0
M  V30 43691 H 4136.28 -0.894372 -1.84017 0
M  V30 43692 H 4136.29 0.0921702 -4.07896 0
M  V30 43693 H 4134.96 -1.05877 -4.02197 0
M  V30 43694 H 4133.54 0.735694 -3.65571 0
M  V30 43695 N 4135.72 1.52604 -0.39367 0
M  V30 43696 C 4136.63 2.3031 0.446602 0
M  V30 43697 C 4137.65 1.37401 1.06756 0
M  V30 43698 O 4138.83 1.70473 1.07243 0
M  V30 43699 C 4135.89 3.09805 1.55634 0
M  V30 43700 C 4134.95 4.18428 0.96004 0
M  V30 43701 C 4134.18 4.94122 2.0169 0
M  V30 43702 O 4134.41 4.69953 3.23265 0
M  V30 43703 O 4133.34 5.79359 1.63175 0
M  V30 43704 H 4137.17 3.03127 -0.186548 0
M  V30 43705 H 4134.75 1.4857 -0.157271 0
M  V30 43706 H 4136.63 3.59356 2.20094 0
M  V30 43707 H 4135.31 2.39797 2.17438 0
M  V30 43708 H 4134.22 3.73061 0.278582 0
M  V30 43709 H 4135.55 4.90683 0.386159 0
M  V30 43710 N 4137.2 0.12362 1.57114 0
M  V30 43711 C 4138.15 -0.824874 2.15556 0
M  V30 43712 C 4139.12 -1.26038 1.08183 0
M  V30 43713 O 4140.3 -1.33707 1.36114 0
M  V30 43714 C 4137.44 -2.06778 2.76291 0
M  V30 43715 C 4136.56 -1.68022 3.97986 0
M  V30 43716 C 4135.69 -2.87314 4.46793 0
M  V30 43717 C 4134.73 -2.44819 5.61008 0
M  V30 43718 N 4133.87 -3.57041 6.04538 0
M  V30 43719 H 4138.71 -0.319674 2.9628 0
M  V30 43720 H 4136.24 -0.146094 1.46373 0
M  V30 43721 H 4138.2 -2.79608 3.09637 0
M  V30 43722 H 4136.83 -2.54749 1.9825 0
M  V30 43723 H 4135.88 -0.850476 3.70771 0
M  V30 43724 H 4137.2 -1.32796 4.80798 0
M  V30 43725 H 4136.35 -3.68363 4.82072 0
M  V30 43726 H 4135.09 -3.2577 3.6294 0
M  V30 43727 H 4134.09 -1.62204 5.25328 0
M  V30 43728 H 4135.32 -2.07476 6.4663 0
M  V30 43729 H 4133.27 -3.95162 5.23625 0
M  V30 43730 H 4133.18 -3.25754 6.82217 0
M  V30 43731 H 4134.45 -4.38516 6.44456 0
M  V30 43732 N 4138.68 -1.56883 -0.15016 0
M  V30 43733 C 4139.96 -1.74086 -0.891811 0
M  V30 43734 C 4140.34 -0.690786 -1.99478 0
M  V30 43735 O 4139.68 0.290837 -2.26642 0
M  V30 43736 C 4139.89 -3.18035 -1.43717 0
M  V30 43737 C 4141.24 -3.79626 -1.90182 0
M  V30 43738 O 4142.27 -3.21445 -1.53465 0
M  V30 43739 O 4141.13 -4.81828 -2.57883 0
M  V30 43740 H 4138.22 -0.711685 -0.421228 0
M  V30 43741 H 4140.77 -1.69151 -0.136332 0
M  V30 43742 H 4139.54 -3.85958 -0.644355 0
M  V30 43743 H 4139.16 -3.27383 -2.25624 0
M  V30 43744 N 4140.16 0.419408 -1.51917 0
M  V30 43745 C 4141.11 1.51032 -1.74522 0
M  V30 43746 C 4142.08 1.55369 -0.587348 0
M  V30 43747 O 4143.26 1.72101 -0.823774 0
M  V30 43748 C 4140.4 2.88582 -1.89247 0
M  V30 43749 C 4139.51 2.93635 -3.16864 0
M  V30 43750 C 4138.65 4.2242 -3.22079 0
M  V30 43751 C 4137.69 4.21408 -4.43939 0
M  V30 43752 N 4136.82 5.41747 -4.46603 0
M  V30 43753 H 4141.66 1.31058 -2.67634 0
M  V30 43754 H 4139.2 0.636345 -1.32624 0
M  V30 43755 H 4141.16 3.68417 -1.95767 0
M  V30 43756 H 4139.79 3.07074 -0.995265 0
M  V30 43757 H 4138.84 2.06353 -3.19566 0
M  V30 43758 H 4140.15 2.88751 -4.06724 0
M  V30 43759 H 4139.31 5.10641 -3.27614 0
M  V30 43760 H 4138.05 4.29985 -2.30139 0
M  V30 43761 H 4137.05 3.31578 -4.38561 0
M  V30 43762 H 4138.28 4.15491 -5.37163 0
M  V30 43763 H 4136.22 5.5 -3.57542 0
M  V30 43764 H 4136.14 5.38816 -5.30296 0
M  V30 43765 H 4137.41 6.3195 -4.56354 0
M  V30 43766 N 4141.64 1.42366 0.675998 0
M  V30 43767 C 4142.55 1.4815 1.81903 0
M  V30 43768 C 4143.56 0.37035 1.70013 0
M  V30 43769 O 4144.74 0.621069 1.91585 0
M  V30 43770 C 4141.8 1.38034 3.18037 0
M  V30 43771 C 4140.86 2.59631 3.41892 0
M  V30 43772 C 4140.1 2.49988 4.71531 0
M  V30 43773 O 4140.32 1.53509 5.49355 0
M  V30 43774 O 4139.25 3.40099 4.96605 0
M  V30 43775 H 4143.08 2.44624 1.7998 0
M  V30 43776 H 4140.67 1.24117 0.831589 0
M  V30 43777 H 4142.55 1.34751 3.99275 0
M  V30 43778 H 4141.22 0.446845 3.20601 0
M  V30 43779 H 4140.13 2.68489 2.60508 0
M  V30 43780 H 4141.46 3.51875 3.44158 0
M  V30 43781 N 4143.11 -0.912187 1.28518 0
M  V30 43782 C 4144.36 -1.65607 1.15141 0
M  V30 43783 C 4144.68 -1.93301 -0.298988 0
M  V30 43784 O 4145.88 -2.6579 -0.553903 0
M  V30 43785 C 4144.34 -2.98345 2.01292 0
M  V30 43786 C 4143.95 -2.78291 3.51081 0
M  V30 43787 C 4145.69 -3.76227 1.96605 0
M  V30 43788 C 4143.6 -4.06679 4.29378 0
M  V30 43789 H 4142.53 -0.621219 0.427321 0
M  V30 43790 H 4145.18 -1.01215 1.53062 0
M  V30 43791 H 4143.56 -3.6388 1.56229 0
M  V30 43792 H 4144.73 -2.21426 4.04113 0
M  V30 43793 H 4143.05 -2.1382 3.57309 0
M  V30 43794 H 4145.65 -4.71395 2.52371 0
M  V30 43795 H 4145.99 -4.05475 0.943158 0
M  V30 43796 H 4146.52 -3.17513 2.39647 0
M  V30 43797 H 4143.26 -3.82603 5.32255 0
M  V30 43798 H 4142.78 -4.6315 3.8112 0
M  V30 43799 H 4144.46 -4.74925 4.3938 0
M  V30 43800 N 4144.59 -1.10792 -1.12085 0
M  V30 43801 C 4145.82 -0.873627 -1.8722 0
M  V30 43802 C 4146.23 0.579697 -1.801 0
M  V30 43803 O 4145.57 1.41163 -1.17553 0
M  V30 43804 C 4145.64 -1.24823 -3.37134 0
M  V30 43805 C 4145.3 -2.70934 -3.68027 0
M  V30 43806 C 4146.3 -3.69166 -3.66078 0
M  V30 43807 C 4143.98 -3.07412 -3.97244 0
M  V30 43808 C 4145.98 -5.01896 -3.92911 0
M  V30 43809 C 4143.66 -4.40329 -4.23737 0
M  V30 43810 C 4144.66 -5.37381 -4.21558 0
M  V30 43811 O 4144.35 -6.67904 -4.47391 0
M  V30 43812 H 4144.08 -0.31312 -0.599109 0
M  V30 43813 H 4146.63 -1.47716 -1.4272 0
M  V30 43814 H 4144.86 -0.587809 -3.82206 0
M  V30 43815 H 4146.55 -0.990827 -3.93621 0
M  V30 43816 H 4147.32 -3.42329 -3.43564 0
M  V30 43817 H 4143.2 -2.32493 -3.9808 0
M  V30 43818 H 4146.74 -5.77639 -3.91125 0
M  V30 43819 H 4142.64 -4.66903 -4.45726 0
M  V30 43820 H 4143.41 -6.73591 -4.64992 0
M  V30 43821 N 4146.07 1.29568 -0.897217 0
M  V30 43822 C 4147.49 1.48176 -0.592959 0
M  V30 43823 C 4147.69 1.81933 0.866182 0
M  V30 43824 O 4146.74 1.91429 1.64654 0
M  V30 43825 C 4148.06 2.5965 -1.51665 0
M  V30 43826 C 4149.6 2.73527 -1.52158 0
M  V30 43827 C 4150.08 3.88127 -2.43149 0
M  V30 43828 N 4151.57 3.95456 -2.41182 0
M  V30 43829 C 4152.3 4.83471 -3.08292 0
M  V30 43830 N 4151.8 5.76194 -3.84672 0
M  V30 43831 N 4153.59 4.76941 -2.97462 0
M  V30 43832 H 4145.74 1.05932 -1.84098 0
M  V30 43833 H 4148.01 0.525966 -0.78871 0
M  V30 43834 H 4147.71 2.41564 -2.55616 0
M  V30 43835 H 4147.59 3.56398 -1.23532 0
M  V30 43836 H 4149.97 2.91011 -0.489523 0
M  V30 43837 H 4150.06 1.77362 -1.84327 0
M  V30 43838 H 4149.7 3.71398 -3.46447 0
M  V30 43839 H 4149.63 4.83655 -2.08291 0
M  V30 43840 H 4152.12 3.29134 -1.85686 0
M  V30 43841 H 4152.43 6.40143 -4.3294 0
M  V30 43842 H 4150.78 5.76087 -3.88779 0
M  V30 43843 H 4153.97 4.03488 -2.37308 0
M  V30 43844 H 4154.14 5.45323 -3.50038 0
M  V30 43845 N 4147.55 0.659438 1.4314 0
M  V30 43846 C 4148.79 0.184252 2.02564 0
M  V30 43847 C 4149.15 -1.19068 1.51131 0
M  V30 43848 O 4148.44 -1.7846 0.697331 0
M  V30 43849 C 4148.64 0.141888 3.57118 0
M  V30 43850 C 4148.47 1.51118 4.23549 0
M  V30 43851 C 4147.24 2.10512 4.59361 0
M  V30 43852 C 4149.43 2.45083 4.52149 0
M  V30 43853 N 4147.42 3.40381 5.10895 0
M  V30 43854 C 4148.79 3.59591 5.05069 0
M  V30 43855 C 4150.84 2.43806 4.34123 0
M  V30 43856 C 4149.54 4.73056 5.41858 0
M  V30 43857 C 4151.57 3.56357 4.71979 0
M  V30 43858 C 4150.93 4.69591 5.25037 0
M  V30 43859 H 4147.03 0.111995 0.773939 0
M  V30 43860 H 4149.62 0.869093 1.74226 0
M  V30 43861 H 4147.79 -0.512315 3.85006 0
M  V30 43862 H 4149.52 -0.344748 4.03229 0
M  V30 43863 H 4146.27 1.63157 4.44608 0
M  V30 43864 H 4146.7 4.06855 5.41108 0
M  V30 43865 H 4151.34 1.57497 3.92371 0
M  V30 43866 H 4149.06 5.60053 5.82551 0
M  V30 43867 H 4152.64 3.56578 4.59721 0
M  V30 43868 H 4151.52 5.5524 5.53785 0
M  V30 43869 N 4149.03 -1.52393 0.401757 0
M  V30 43870 C 4150.44 -1.86571 -0.0694981 0
M  V30 43871 C 4150.79 -1.32087 -1.45077 0
M  V30 43872 O 4149.91 -0.657185 -2.0618 0
M  V30 43873 C 4150.51 -3.38539 -0.132887 0
M  V30 43874 C 4149.07 -3.72383 -0.548462 0
M  V30 43875 C 4148.21 -2.75865 0.281713 0
M  V30 43876 H 4151.17 -1.46125 0.619128 0
M  V30 43877 H 4151.19 -3.6846 -0.949602 0
M  V30 43878 H 4150.7 -3.78164 0.872559 0
M  V30 43879 H 4148.8 -3.38333 -1.56082 0
M  V30 43880 H 4148.91 -4.78173 -0.297966 0
M  V30 43881 H 4147.28 -2.53422 -0.254866 0
M  V30 43882 H 4148.06 -3.18329 1.28537 0
M  V30 43883 N 4150.5 -0.131951 -1.57047 0
M  V30 43884 C 4151.75 0.522773 -1.94808 0
M  V30 43885 C 4152.07 1.66997 -1.0184 0
M  V30 43886 O 4153.27 2.38832 -1.29119 0
M  V30 43887 C 4151.73 0.981373 -3.46262 0
M  V30 43888 C 4151.34 -0.138066 -4.47787 0
M  V30 43889 C 4153.08 1.60674 -3.92918 0
M  V30 43890 C 4150.99 0.337959 -5.90434 0
M  V30 43891 H 4149.92 0.199063 -0.727248 0
M  V30 43892 H 4152.57 -0.213883 -1.82249 0
M  V30 43893 H 4150.95 1.77284 -3.54099 0
M  V30 43894 H 4152.12 -0.91467 -4.51631 0
M  V30 43895 H 4150.44 -0.670895 -4.1096 0
M  V30 43896 H 4153.04 1.97425 -4.96918 0
M  V30 43897 H 4153.38 2.49005 -3.3362 0
M  V30 43898 H 4153.91 0.880445 -3.87934 0
M  V30 43899 H 4150.65 -0.509617 -6.53516 0
M  V30 43900 H 4150.17 1.08076 -5.89983 0
M  V30 43901 H 4151.85 0.79494 -6.42098 0
M  V30 43902 N 4151.98 1.5696 0.141838 0
M  V30 43903 C 4152.93 1.98653 1.17497 0
M  V30 43904 C 4153.9 0.854943 1.42408 0
M  V30 43905 O 4155.08 1.11741 1.54656 0
M  V30 43906 C 4152.22 2.37666 2.50218 0
M  V30 43907 C 4151.34 3.64139 2.32437 0
M  V30 43908 C 4150.47 3.92231 3.58229 0
M  V30 43909 C 4149.51 5.11958 3.35507 0
M  V30 43910 N 4148.65 5.36035 4.53443 0
M  V30 43911 H 4153.49 2.86712 0.812423 0
M  V30 43912 H 4151.03 1.41844 0.389697 0
M  V30 43913 H 4152.98 2.58315 3.27612 0
M  V30 43914 H 4151.61 1.5268 2.8441 0
M  V30 43915 H 4150.67 3.51237 1.46072 0
M  V30 43916 H 4151.98 4.51689 2.1161 0
M  V30 43917 H 4151.13 4.13406 4.4405 0
M  V30 43918 H 4149.87 3.03113 3.82065 0
M  V30 43919 H 4148.88 4.90651 2.48075 0
M  V30 43920 H 4150.1 6.02634 3.13064 0
M  V30 43921 H 4148.05 4.49872 4.77442 0
M  V30 43922 H 4147.96 6.17864 4.35637 0
M  V30 43923 H 4149.23 5.61712 5.40462 0
M  V30 43924 N 4153.46 -0.411345 1.52137 0
M  V30 43925 C 4154.37 -1.52575 1.78207 0
M  V30 43926 C 4155.39 -1.60686 0.66753 0
M  V30 43927 O 4156.56 -1.77442 0.952692 0
M  V30 43928 C 4153.63 -2.88331 1.92525 0
M  V30 43929 C 4152.69 -2.90126 3.16426 0
M  V30 43930 C 4151.92 -4.19406 3.30051 0
M  V30 43931 O 4152.14 -5.13184 2.48994 0
M  V30 43932 O 4151.08 -4.28012 4.23189 0
M  V30 43933 H 4154.9 -1.33482 2.72793 0
M  V30 43934 H 4152.49 -0.59698 1.36954 0
M  V30 43935 H 4154.37 -3.68853 2.03778 0
M  V30 43936 H 4153.05 -3.07498 1.01128 0
M  V30 43937 H 4151.95 -2.08465 3.10633 0
M  V30 43938 H 4153.29 -2.75909 4.07597 0
M  V30 43939 N 4154.94 -1.42722 -0.668439 0
M  V30 43940 C 4156.16 -1.4715 -1.46156 0
M  V30 43941 C 4156.59 -0.0860982 -1.87903 0
M  V30 43942 O 4155.95 0.916863 -1.56408 0
M  V30 43943 C 4156 -2.40953 -2.68279 0
M  V30 43944 O 4155.1 -1.88529 -3.66784 0
M  V30 43945 H 4154.44 -0.498319 -0.438833 0
M  V30 43946 H 4156.97 -1.87479 -0.81932 0
M  V30 43947 H 4156.98 -2.57748 -3.16275 0
M  V30 43948 H 4155.66 -3.41603 -2.37234 0
M  V30 43949 H 4154.23 -1.81321 -3.25848 0
M  V30 43950 N 4156.42 0.905358 -1.29 0
M  V30 43951 C 4157.35 2.02538 -1.16193 0
M  V30 43952 C 4158.33 1.70003 -0.0575592 0
M  V30 43953 O 4159.51 1.9276 -0.236038 0
M  V30 43954 C 4156.64 3.37193 -0.831764 0
M  V30 43955 C 4155.6 3.83919 -1.89183 0
M  V30 43956 C 4154.92 5.15634 -1.4151 0
M  V30 43957 C 4156.22 4.0486 -3.29978 0
M  V30 43958 H 4157.92 2.13511 -2.09889 0
M  V30 43959 H 4155.46 1.0259 -1.01051 0
M  V30 43960 H 4157.42 4.15048 -0.728898 0
M  V30 43961 H 4156.14 3.26296 0.140901 0
M  V30 43962 H 4154.8 3.08275 -1.98398 0
M  V30 43963 H 4154.45 5.01148 -0.43127 0
M  V30 43964 H 4154.15 5.47868 -2.124 0
M  V30 43965 H 4155.67 5.96037 -1.32563 0
M  V30 43966 H 4157.09 4.73215 -3.23636 0
M  V30 43967 H 4155.48 4.4844 -3.98776 0
M  V30 43968 H 4156.55 3.09386 -3.73374 0
M  V30 43969 N 4157.9 1.11385 1.11495 0
M  V30 43970 C 4158.84 0.771649 2.17518 0
M  V30 43971 C 4159.81 -0.256587 1.64106 0
M  V30 43972 O 4161 -0.133639 1.90331 0
M  V30 43973 C 4158.14 0.220373 3.44396 0
M  V30 43974 C 4157.25 1.3051 4.11814 0
M  V30 43975 C 4156.39 0.714424 5.26374 0
M  V30 43976 C 4155.42 1.77904 5.85676 0
M  V30 43977 N 4154.56 1.2079 6.91632 0
M  V30 43978 H 4159.4 1.67993 2.46135 0
M  V30 43979 H 4156.94 0.838948 1.20831 0
M  V30 43980 H 4158.9 -0.117213 4.17035 0
M  V30 43981 H 4157.53 -0.651105 3.16165 0
M  V30 43982 H 4156.58 1.75965 3.37254 0
M  V30 43983 H 4157.89 2.11059 4.51946 0
M  V30 43984 H 4157.04 0.32686 6.05819 0
M  V30 43985 H 4155.78 -0.122394 4.87546 0
M  V30 43986 H 4154.79 2.17592 5.0491 0
M  V30 43987 H 4156.01 2.61888 6.26571 0
M  V30 43988 H 4153.96 0.392717 6.54823 0
M  V30 43989 H 4153.88 1.95011 7.30415 0
M  V30 43990 H 4155.14 0.847208 7.74882 0
M  V30 43991 N 4159.37 -1.2909 0.904076 0
M  V30 43992 C 4160.34 -2.25859 0.389929 0
M  V30 43993 C 4161.34 -1.53521 -0.478333 0
M  V30 43994 O 4162.53 -1.7189 -0.282763 0
M  V30 43995 C 4159.66 -3.38022 -0.442066 0
M  V30 43996 H 4160.85 -2.72854 1.24463 0
M  V30 43997 H 4158.4 -1.40607 0.682605 0
M  V30 43998 H 4159.14 -2.96373 -1.31657 0
M  V30 43999 H 4158.92 -3.91686 0.180136 0
M  V30 44000 H 4160.41 -4.10003 -0.792949 0
M  V30 44001 N 4160.85 -0.66702 -1.42789 0
M  V30 44002 C 4161.78 0.066137 -2.28104 0
M  V30 44003 C 4162.76 0.816359 -1.40621 0
M  V30 44004 O 4163.95 0.813091 -1.70062 0
M  V30 44005 C 4161.07 1.10069 -3.20316 0
M  V30 44006 C 4160.12 0.446944 -4.24152 0
M  V30 44007 S 4160.95 -0.789723 -5.29645 0
M  V30 44008 C 4162.11 0.243952 -6.25424 0
M  V30 44009 H 4162.34 -0.657538 -2.89937 0
M  V30 44010 H 4159.87 -0.456304 -1.47503 0
M  V30 44011 H 4161.83 1.69252 -3.73984 0
M  V30 44012 H 4160.49 1.79677 -2.57634 0
M  V30 44013 H 4159.69 1.2273 -4.88828 0
M  V30 44014 H 4159.29 -0.0711077 -3.73932 0
M  V30 44015 H 4161.58 1.10603 -6.68411 0
M  V30 44016 H 4162.52 -0.368144 -7.07142 0
M  V30 44017 H 4162.93 0.585944 -5.61451 0
M  V30 44018 N 4162.33 1.52178 -0.409833 0
M  V30 44019 C 4163.58 2.01007 0.167078 0
M  V30 44020 C 4163.89 1.29982 1.46164 0
M  V30 44021 O 4165.1 1.69631 2.11985 0
M  V30 44022 C 4163.55 3.58211 0.348304 0
M  V30 44023 C 4163.16 4.38151 -0.934208 0
M  V30 44024 C 4164.91 4.15269 0.880469 0
M  V30 44025 C 4162.81 5.86999 -0.720132 0
M  V30 44026 H 4161.74 0.751087 0.0662137 0
M  V30 44027 H 4164.39 1.75516 -0.535386 0
M  V30 44028 H 4162.78 3.80034 1.11312 0
M  V30 44029 H 4163.95 4.28087 -1.70522 0
M  V30 44030 H 4162.26 3.92414 -1.39284 0
M  V30 44031 H 4164.86 5.24155 1.05668 0
M  V30 44032 H 4165.2 3.72669 1.85535 0
M  V30 44033 H 4165.74 3.97416 0.174696 0
M  V30 44034 H 4162.48 6.3396 -1.6666 0
M  V30 44035 H 4162 5.99799 0.0115748 0
M  V30 44036 H 4163.68 6.45983 -0.362584 0
M  V30 44037 N 4163.81 0.140278 1.56974 0
M  V30 44038 C 4164.77 -0.787802 2.15235 0
M  V30 44039 C 4165.77 -1.17992 1.09245 0
M  V30 44040 O 4166.96 -1.10195 1.34918 0
M  V30 44041 C 4164.09 -2.06816 2.70998 0
M  V30 44042 H 4165.29 -0.281113 2.9858 0
M  V30 44043 H 4162.84 -0.109123 1.55919 0
M  V30 44044 H 4163.57 -2.61867 1.91301 0
M  V30 44045 H 4163.36 -1.79627 3.48535 0
M  V30 44046 H 4164.85 -2.73115 3.15908 0
M  V30 44047 N 4165.29 -1.57033 -0.133512 0
M  V30 44048 C 4166.53 -1.85237 -0.840174 0
M  V30 44049 C 4166.89 -0.726104 -1.78173 0
M  V30 44050 O 4166.18 0.274991 -1.89616 0
M  V30 44051 C 4166.37 -3.17536 -1.6403 0
M  V30 44052 C 4166.2 -4.42924 -0.777726 0
M  V30 44053 C 4164.97 -5.03397 -0.438136 0
M  V30 44054 C 4167.17 -5.14199 -0.101913 0
M  V30 44055 N 4165.15 -6.12345 0.436623 0
M  V30 44056 C 4166.52 -6.16766 0.632432 0
M  V30 44057 C 4168.58 -4.97894 -0.0239844 0
M  V30 44058 C 4167.28 -7.04792 1.43737 0
M  V30 44059 C 4169.31 -5.86396 0.767729 0
M  V30 44060 C 4168.67 -6.88454 1.49031 0
M  V30 44061 H 4164.77 -0.72828 -0.284836 0
M  V30 44062 H 4167.35 -1.94418 -0.104731 0
M  V30 44063 H 4165.52 -3.09477 -2.34688 0
M  V30 44064 H 4167.26 -3.33598 -2.29117 0
M  V30 44065 H 4164.01 -4.67182 -0.777045 0
M  V30 44066 H 4164.43 -6.71446 0.865424 0
M  V30 44067 H 4169.08 -4.18963 -0.568282 0
M  V30 44068 H 4166.79 -7.83141 1.99287 0
M  V30 44069 H 4170.38 -5.75846 0.830194 0
M  V30 44070 H 4169.26 -7.55751 2.09309 0
M  V30 44071 N 4166.76 0.403271 -1.52353 0
M  V30 44072 C 4167.67 1.51628 -1.79014 0
M  V30 44073 C 4168.69 1.6033 -0.676042 0
M  V30 44074 O 4169.87 1.76934 -0.962089 0
M  V30 44075 C 4166.93 2.87306 -1.94051 0
M  V30 44076 C 4165.99 2.88443 -3.17961 0
M  V30 44077 C 4165.22 4.1765 -3.32271 0
M  V30 44078 O 4165.45 5.11857 -2.51712 0
M  V30 44079 O 4164.38 4.25762 -4.25453 0
M  V30 44080 H 4168.21 1.32034 -2.73497 0
M  V30 44081 H 4165.79 0.589709 -1.37269 0
M  V30 44082 H 4167.67 3.67767 -2.05731 0
M  V30 44083 H 4166.35 3.06957 -1.02757 0
M  V30 44084 H 4165.26 2.06815 -3.11734 0
M  V30 44085 H 4166.59 2.73743 -4.09054 0
M  V30 44086 N 4168.24 1.43075 0.66086 0
M  V30 44087 C 4169.49 1.45497 1.42134 0
M  V30 44088 C 4169.84 0.0751936 1.92253 0
M  V30 44089 O 4169.14 -0.904943 1.68883 0
M  V30 44090 C 4169.33 2.42594 2.62456 0
M  V30 44091 C 4169.16 3.89877 2.24112 0
M  V30 44092 C 4167.93 4.58304 2.12803 0
M  V30 44093 C 4170.13 4.79922 1.84878 0
M  V30 44094 N 4168.11 5.90548 1.67709 0
M  V30 44095 C 4169.48 6.01379 1.50809 0
M  V30 44096 C 4171.53 4.6725 1.71993 0
M  V30 44097 C 4170.24 7.11573 1.05146 0
M  V30 44098 C 4172.26 5.7744 1.27736 0
M  V30 44099 C 4171.63 6.98019 0.945991 0
M  V30 44100 H 4167.72 0.587549 0.516053 0
M  V30 44101 H 4170.31 1.79201 0.761253 0
M  V30 44102 H 4168.48 2.10929 3.26134 0
M  V30 44103 H 4170.21 2.35504 3.2912 0
M  V30 44104 H 4166.97 4.12705 2.32318 0
M  V30 44105 H 4167.39 6.60726 1.47546 0
M  V30 44106 H 4172.03 3.74492 1.96254 0
M  V30 44107 H 4169.75 8.04167 0.796336 0
M  V30 44108 H 4173.34 5.69653 1.18267 0
M  V30 44109 H 4172.22 7.81834 0.608745 0
M  V30 44110 N 4169.72 -0.898504 1.29478 0
M  V30 44111 C 4170.95 -1.68253 1.20409 0
M  V30 44112 C 4171.36 -1.8733 -0.235108 0
M  V30 44113 O 4170.72 -1.41117 -1.15724 0
M  V30 44114 C 4170.77 -3.06638 1.91456 0
M  V30 44115 O 4170.49 -2.88431 3.29756 0
M  V30 44116 C 4171.99 -4.01048 1.88878 0
M  V30 44117 H 4169.21 -0.525466 0.417285 0
M  V30 44118 H 4171.76 -1.12353 1.70872 0
M  V30 44119 H 4169.91 -3.59311 1.44826 0
M  V30 44120 H 4170.33 -3.76125 3.65555 0
M  V30 44121 H 4171.8 -4.95561 2.43152 0
M  V30 44122 H 4172.28 -4.30606 0.864583 0
M  V30 44123 H 4172.88 -3.54308 2.35257 0
M  V30 44124 N 4171.2 -1.11974 -1.10903 0
M  V30 44125 C 4172.45 -0.866785 -1.82126 0
M  V30 44126 C 4172.76 0.609339 -1.85867 0
M  V30 44127 O 4173.97 0.978736 -2.53245 0
M  V30 44128 C 4172.42 -1.50099 -3.27106 0
M  V30 44129 C 4172.03 -3.01155 -3.31677 0
M  V30 44130 C 4173.77 -1.3281 -4.0319 0
M  V30 44131 C 4171.68 -3.57533 -4.71089 0
M  V30 44132 H 4170.61 -0.320616 -0.682438 0
M  V30 44133 H 4173.26 -1.34566 -1.24757 0
M  V30 44134 H 4171.64 -0.94978 -3.84441 0
M  V30 44135 H 4172.82 -3.62727 -2.84193 0
M  V30 44136 H 4171.13 -3.17784 -2.69077 0
M  V30 44137 H 4173.73 -1.72357 -5.06159 0
M  V30 44138 H 4174.07 -0.271254 -4.15415 0
M  V30 44139 H 4174.61 -1.84826 -3.52256 0
M  V30 44140 H 4171.35 -4.62955 -4.64061 0
M  V30 44141 H 4170.87 -3.00734 -5.1896 0
M  V30 44142 H 4172.54 -3.56304 -5.40052 0
M  V30 44143 N 4172.68 1.28609 -0.910909 0
M  V30 44144 C 4173.59 2.31128 -0.402128 0
M  V30 44145 C 4174.6 1.66395 0.508782 0
M  V30 44146 O 4175.78 1.97475 0.395656 0
M  V30 44147 C 4172.84 3.44907 0.352122 0
M  V30 44148 C 4171.9 4.25203 -0.591664 0
M  V30 44149 C 4171.14 5.3355 0.126684 0
M  V30 44150 O 4171.36 5.54222 1.34887 0
M  V30 44151 O 4170.29 5.99504 -0.536548 0
M  V30 44152 H 4174.12 2.7665 -1.25294 0
M  V30 44153 H 4171.71 1.3325 -0.675627 0
M  V30 44154 H 4173.59 4.14152 0.778212 0
M  V30 44155 H 4172.26 3.01473 1.17881 0
M  V30 44156 H 4171.17 3.58558 -1.0671 0
M  V30 44157 H 4172.5 4.72309 -1.38509 0
M  V30 44158 N 4174.15 0.674583 1.42433 0
M  V30 44159 C 4175.1 -0.003884 2.308 0
M  V30 44160 C 4176.07 -0.792946 1.45951 0
M  V30 44161 O 4177.26 -0.765238 1.74782 0
M  V30 44162 C 4174.4 -0.949334 3.31786 0
M  V30 44163 C 4173.51 -0.154117 4.31725 0
M  V30 44164 C 4172.64 -1.0953 5.19785 0
M  V30 44165 C 4171.68 -0.291756 6.11404 0
M  V30 44166 N 4170.82 -1.18563 6.92017 0
M  V30 44167 H 4175.66 0.755489 2.88264 0
M  V30 44168 H 4173.2 0.384299 1.41991 0
M  V30 44169 H 4175.16 -1.51132 3.88864 0
M  V30 44170 H 4173.79 -1.67534 2.75921 0
M  V30 44171 H 4172.84 0.524482 3.76767 0
M  V30 44172 H 4174.15 0.469757 4.96583 0
M  V30 44173 H 4173.3 -1.72721 5.81595 0
M  V30 44174 H 4172.04 -1.75306 4.55103 0
M  V30 44175 H 4171.05 0.353372 5.48663 0
M  V30 44176 H 4172.27 0.361905 6.78135 0
M  V30 44177 H 4170.22 -1.8298 6.29964 0
M  V30 44178 H 4170.14 -0.616836 7.53479 0
M  V30 44179 H 4171.4 -1.80502 7.58313 0
M  V30 44180 N 4175.63 -1.51958 0.417898 0
M  V30 44181 C 4176.6 -2.25833 -0.39144 0
M  V30 44182 C 4177.6 -1.28531 -0.966247 0
M  V30 44183 O 4178.79 -1.52403 -0.843748 0
M  V30 44184 C 4175.92 -3.03529 -1.55187 0
M  V30 44185 H 4177.11 -2.98808 0.255724 0
M  V30 44186 H 4174.66 -1.55366 0.17061 0
M  V30 44187 H 4175.4 -2.34924 -2.23564 0
M  V30 44188 H 4175.18 -3.74976 -1.14609 0
M  V30 44189 H 4176.67 -3.5954 -2.12416 0
M  V30 44190 N 4177.11 -0.1486 -1.56898 0
M  V30 44191 C 4178.53 0.207798 -1.58241 0
M  V30 44192 C 4178.73 1.64554 -1.16294 0
M  V30 44193 O 4177.78 2.37259 -0.863981 0
M  V30 44194 C 4179.1 -0.0524088 -3.00654 0
M  V30 44195 C 4180.64 0.0111747 -3.12998 0
M  V30 44196 C 4181.12 -0.221722 -4.57463 0
M  V30 44197 N 4182.61 -0.168706 -4.62893 0
M  V30 44198 C 4183.34 -0.323397 -5.72487 0
M  V30 44199 N 4182.84 -0.535898 -6.90724 0
M  V30 44200 N 4184.63 -0.260888 -5.61494 0
M  V30 44201 H 4176.78 -1.08734 -1.82457 0
M  V30 44202 H 4179.05 -0.430544 -0.844592 0
M  V30 44203 H 4178.75 -1.04751 -3.35738 0
M  V30 44204 H 4178.63 0.66628 -3.71269 0
M  V30 44205 H 4181.01 0.996825 -2.77754 0
M  V30 44206 H 4181.1 -0.739869 -2.44866 0
M  V30 44207 H 4180.74 -1.20448 -4.93411 0
M  V30 44208 H 4180.67 0.549664 -5.23723 0
M  V30 44209 H 4183.16 -0.00918224 -3.77899 0
M  V30 44210 H 4183.47 -0.643998 -7.70112 0
M  V30 44211 H 4181.82 -0.572239 -6.9264 0
M  V30 44212 H 4185.01 -0.0956253 -4.68002 0
M  V30 44213 H 4185.18 -0.384879 -6.46856 0
M  V30 44214 N 4178.59 1.57102 0.125182 0
M  V30 44215 C 4179.5 2.0318 1.17283 0
M  V30 44216 C 4180.51 0.95106 1.45708 0
M  V30 44217 O 4181.69 1.26213 1.56947 0
M  V30 44218 C 4178.76 2.42166 2.48106 0
M  V30 44219 C 4177.82 3.64292 2.27133 0
M  V30 44220 C 4177.05 4.0141 3.51719 0
M  V30 44221 O 4177.27 3.38937 4.58779 0
M  V30 44222 O 4176.21 4.94545 3.43087 0
M  V30 44223 H 4180.03 2.92656 0.811567 0
M  V30 44224 H 4177.62 1.45584 0.335525 0
M  V30 44225 H 4179.5 2.68003 3.25195 0
M  V30 44226 H 4178.17 1.55838 2.83719 0
M  V30 44227 H 4177.08 3.43613 1.47923 0
M  V30 44228 H 4178.41 4.51306 1.96427 0
M  V30 44229 N 4180.07 -0.395186 1.52565 0
M  V30 44230 C 4181.31 -1.13857 1.66976 0
M  V30 44231 C 4181.64 -1.90661 0.40905 0
M  V30 44232 O 4180.91 -1.87228 -0.576418 0
M  V30 44233 H 4179.49 -0.423302 0.615487 0
M  V30 44234 H 4182.15 -0.44899 1.89658 0
M  V30 44235 H 4181.24 -1.84491 2.51733 0
M  V30 44236 N 4181.54 -1.43423 -0.653263 0
M  V30 44237 C 4182.45 -1.51025 -1.79523 0
M  V30 44238 C 4183.47 -0.39735 -1.69402 0
M  V30 44239 O 4184.65 -0.65147 -1.90572 0
M  V30 44240 C 4181.71 -1.43076 -3.15801 0
M  V30 44241 C 4180.77 -2.65037 -3.37719 0
M  V30 44242 C 4180.01 -2.57458 -4.67494 0
M  V30 44243 O 4180.23 -1.6223 -5.46843 0
M  V30 44244 O 4179.16 -3.47957 -4.91131 0
M  V30 44245 H 4182.99 -2.47457 -1.76065 0
M  V30 44246 H 4180.57 -1.25424 -0.811738 0
M  V30 44247 H 4182.46 -1.41086 -3.9708 0
M  V30 44248 H 4181.13 -0.497794 -3.1985 0
M  V30 44249 H 4180.04 -2.726 -2.56203 0
M  V30 44250 H 4181.37 -3.57306 -3.38516 0
M  V30 44251 N 4183.02 0.891625 -1.29953 0
M  V30 44252 C 4183.93 2.02952 -1.17676 0
M  V30 44253 C 4184.95 1.73723 -0.0981733 0
M  V30 44254 O 4186.12 1.98971 -0.31182 0
M  V30 44255 C 4183.19 3.35797 -0.862624 0
M  V30 44256 C 4182.25 3.78492 -2.02589 0
M  V30 44257 C 4181.48 5.04998 -1.72665 0
M  V30 44258 O 4181.71 5.66668 -0.651407 0
M  V30 44259 O 4180.64 5.4394 -2.57707 0
M  V30 44260 H 4184.47 2.16235 -2.13251 0
M  V30 44261 H 4182.05 1.01656 -1.09483 0
M  V30 44262 H 4183.93 4.15506 -0.702347 0
M  V30 44263 H 4182.61 3.23638 0.0632746 0
M  V30 44264 H 4181.52 2.99515 -2.24146 0
M  V30 44265 H 4182.85 3.95246 -2.93328 0
M  V30 44266 N 4184.5 1.12561 1.10308 0
M  V30 44267 C 4185.41 0.80776 2.20255 0
M  V30 44268 C 4186.43 -0.203966 1.728 0
M  V30 44269 O 4187.6 -0.0372412 2.01366 0
M  V30 44270 C 4184.67 0.26845 3.45659 0
M  V30 44271 C 4183.73 1.34027 4.07842 0
M  V30 44272 C 4182.96 0.826604 5.2726 0
M  V30 44273 O 4183.19 -0.339144 5.69391 0
M  V30 44274 O 4182.12 1.5968 5.80333 0
M  V30 44275 H 4185.95 1.7261 2.49879 0
M  V30 44276 H 4183.53 0.902373 1.1907 0
M  V30 44277 H 4185.41 -0.0273581 4.21391 0
M  V30 44278 H 4184.09 -0.622433 3.17659 0
M  V30 44279 H 4182.99 1.68927 3.33788 0
M  V30 44280 H 4184.33 2.20497 4.40048 0
M  V30 44281 N 4185.98 -1.28124 0.917717 0
M  V30 44282 C 4186.93 -2.27171 0.407668 0
M  V30 44283 C 4187.9 -1.5775 -0.520028 0
M  V30 44284 O 4189.08 -1.85625 -0.441362 0
M  V30 44285 C 4186.22 -3.43395 -0.342588 0
M  V30 44286 C 4185.33 -4.27556 0.618069 0
M  V30 44287 C 4184.47 -5.30985 -0.151031 0
M  V30 44288 C 4183.51 -6.0681 0.802983 0
M  V30 44289 N 4182.65 -7.02068 0.0671485 0
M  V30 44290 H 4187.49 -2.70176 1.25733 0
M  V30 44291 H 4185.02 -1.32865 0.631296 0
M  V30 44292 H 4186.98 -4.09579 -0.793801 0
M  V30 44293 H 4185.61 -3.01369 -1.15656 0
M  V30 44294 H 4184.66 -3.6138 1.18781 0
M  V30 44295 H 4185.97 -4.80252 1.34758 0
M  V30 44296 H 4185.13 -6.03071 -0.662623 0
M  V30 44297 H 4183.87 -4.79067 -0.913573 0
M  V30 44298 H 4182.87 -5.33572 1.32591 0
M  V30 44299 H 4184.1 -6.60818 1.56514 0
M  V30 44300 H 4182.04 -6.52494 -0.67733 0
M  V30 44301 H 4181.96 -7.52405 0.736415 0
M  V30 44302 H 4183.23 -7.78345 -0.424118 0
M  V30 44303 N 4187.46 -0.682127 -1.42073 0
M  V30 44304 C 4188.69 -0.216065 -2.05769 0
M  V30 44305 C 4189.1 1.12959 -1.5128 0
M  V30 44306 O 4188.46 1.7032 -0.655551 0
M  V30 44307 C 4188.51 -0.150414 -3.61187 0
M  V30 44308 O 4188.23 -1.4429 -4.13657 0
M  V30 44309 C 4189.73 0.338262 -4.42008 0
M  V30 44310 H 4186.95 -0.103337 -0.662995 0
M  V30 44311 H 4189.49 -0.930927 -1.82082 0
M  V30 44312 H 4187.65 0.515182 -3.83959 0
M  V30 44313 H 4188.06 -1.3211 -5.0759 0
M  V30 44314 H 4189.54 0.333093 -5.50994 0
M  V30 44315 H 4190.01 1.37482 -4.17128 0
M  V30 44316 H 4190.62 -0.295857 -4.2427 0
M  V30 44317 N 4188.94 1.51735 -0.425951 0
M  V30 44318 C 4189.85 2.31205 0.397649 0
M  V30 44319 C 4190.86 1.39635 1.03818 0
M  V30 44320 O 4192.04 1.72709 1.03603 0
M  V30 44321 C 4189.1 3.13036 1.49028 0
M  V30 44322 C 4188.16 4.2037 0.871069 0
M  V30 44323 C 4187.4 4.98289 1.91163 0
M  V30 44324 O 4187.62 4.76704 3.13224 0
M  V30 44325 O 4186.55 5.8269 1.5085 0
M  V30 44326 H 4190.38 3.02663 -0.250803 0
M  V30 44327 H 4187.96 1.48203 -0.188749 0
M  V30 44328 H 4189.85 3.63944 2.12422 0
M  V30 44329 H 4188.52 2.44355 2.12302 0
M  V30 44330 H 4187.43 3.73568 0.199388 0
M  V30 44331 H 4188.76 4.91392 0.281991 0
M  V30 44332 N 4190.41 0.156919 1.56817 0
M  V30 44333 C 4191.36 -0.778965 2.17257 0
M  V30 44334 C 4192.33 -1.23715 1.10833 0
M  V30 44335 O 4193.52 -1.3079 1.38919 0
M  V30 44336 C 4190.66 -2.00871 2.80615 0
M  V30 44337 C 4189.77 -1.59542 4.0146 0
M  V30 44338 C 4188.9 -2.77772 4.52787 0
M  V30 44339 C 4187.94 -2.32864 5.66075 0
M  V30 44340 N 4187.08 -3.44137 6.11975 0
M  V30 44341 H 4191.92 -0.256757 2.96892 0
M  V30 44342 H 4189.46 -0.115013 1.4665 0
M  V30 44343 H 4191.41 -2.72977 3.15498 0
M  V30 44344 H 4190.04 -2.50486 2.03609 0
M  V30 44345 H 4189.1 -0.771639 3.72491 0
M  V30 44346 H 4190.41 -1.22567 4.83507 0
M  V30 44347 H 4189.56 -3.58055 4.89777 0
M  V30 44348 H 4188.3 -3.17998 3.69768 0
M  V30 44349 H 4187.31 -1.51024 5.28651 0
M  V30 44350 H 4188.53 -1.93713 6.50886 0
M  V30 44351 H 4186.48 -3.83966 5.31889 0
M  V30 44352 H 4186.39 -3.1121 6.88974 0
M  V30 44353 H 4187.66 -4.24748 6.53613 0
M  V30 44354 N 4191.89 -1.57166 -0.116849 0
M  V30 44355 C 4192.84 -2.00498 -1.14321 0
M  V30 44356 C 4193.81 -0.87749 -1.41029 0
M  V30 44357 O 4194.99 -1.14187 -1.52859 0
M  V30 44358 C 4192.13 -2.41616 -2.46405 0
M  V30 44359 C 4191.25 -3.67791 -2.26614 0
M  V30 44360 C 4190.38 -3.97881 -3.51944 0
M  V30 44361 C 4189.42 -5.17231 -3.2732 0
M  V30 44362 N 4188.56 -5.43181 -4.44858 0
M  V30 44363 H 4193.4 -2.87968 -0.766707 0
M  V30 44364 H 4190.93 -1.42446 -0.367081 0
M  V30 44365 H 4192.89 -2.63494 -3.23461 0
M  V30 44366 H 4191.52 -1.57185 -2.81945 0
M  V30 44367 H 4190.57 -3.53516 -1.40466 0
M  V30 44368 H 4191.89 -4.54998 -2.04397 0
M  V30 44369 H 4191.04 -4.20418 -4.37416 0
M  V30 44370 H 4189.78 -3.09153 -3.77194 0
M  V30 44371 H 4188.78 -4.94536 -2.40238 0
M  V30 44372 H 4190.01 -6.07538 -3.03437 0
M  V30 44373 H 4187.96 -4.57411 -4.70225 0
M  V30 44374 H 4187.87 -6.24717 -4.25753 0
M  V30 44375 H 4189.14 -5.7024 -5.31458 0
M  V30 44376 N 4193.37 0.38709 -1.52772 0
M  V30 44377 C 4194.32 1.47296 -1.77687 0
M  V30 44378 C 4195.29 1.54088 -0.620172 0
M  V30 44379 O 4196.47 1.70315 -0.860094 0
M  V30 44380 C 4193.61 2.84503 -1.95326 0
M  V30 44381 C 4192.72 2.86848 -3.23021 0
M  V30 44382 C 4191.86 4.15493 -3.30967 0
M  V30 44383 C 4190.9 4.11897 -4.52778 0
M  V30 44384 N 4190.04 5.32152 -4.57994 0
M  V30 44385 H 4194.88 1.25352 -2.70353 0
M  V30 44386 H 4192.41 0.60807 -1.33944 0
M  V30 44387 H 4194.37 3.64182 -2.03537 0
M  V30 44388 H 4193 3.04894 -1.06018 0
M  V30 44389 H 4192.05 1.99528 -3.23871 0
M  V30 44390 H 4193.36 2.80058 -4.12757 0
M  V30 44391 H 4192.52 5.03577 -3.38372 0
M  V30 44392 H 4191.26 4.25007 -2.39208 0
M  V30 44393 H 4190.26 3.22201 -4.45496 0
M  V30 44394 H 4191.49 4.04004 -5.45855 0
M  V30 44395 H 4189.43 5.42292 -3.69128 0
M  V30 44396 H 4189.35 5.27446 -5.41605 0
M  V30 44397 H 4190.62 6.22128 -4.69656 0
M  V30 44398 N 4194.85 1.43768 0.645648 0
M  V30 44399 C 4196.08 1.4924 1.43301 0
M  V30 44400 C 4196.49 0.112644 1.88464 0
M  V30 44401 O 4195.85 -0.878636 1.59957 0
M  V30 44402 C 4195.9 2.44475 2.66298 0
M  V30 44403 O 4195.62 3.77085 2.23021 0
M  V30 44404 C 4197.12 2.59265 3.59578 0
M  V30 44405 H 4194.34 0.506624 0.439969 0
M  V30 44406 H 4196.88 1.88587 0.790891 0
M  V30 44407 H 4195.04 2.08302 3.26633 0
M  V30 44408 H 4195.45 4.28368 3.02657 0
M  V30 44409 H 4196.93 3.29961 4.42527 0
M  V30 44410 H 4197.4 1.64008 4.07428 0
M  V30 44411 H 4198.01 2.96279 3.05121 0
M  V30 44412 N 4196.33 -0.884721 1.30424 0
M  V30 44413 C 4197.74 -1.16804 1.08761 0
M  V30 44414 C 4197.94 -2.0093 -0.151476 0
M  V30 44415 O 4197 -2.37941 -0.845019 0
M  V30 44416 C 4198.31 -1.87447 2.35126 0
M  V30 44417 C 4199.86 -2.0021 2.40593 0
M  V30 44418 C 4200.33 -2.74265 3.66801 0
M  V30 44419 N 4201.82 -2.8181 3.6761 0
M  V30 44420 C 4202.56 -3.39685 4.61954 0
M  V30 44421 N 4202.06 -3.98608 5.66642 0
M  V30 44422 N 4203.85 -3.37503 4.49498 0
M  V30 44423 H 4196 -0.323793 2.09917 0
M  V30 44424 H 4198.26 -0.205995 0.925349 0
M  V30 44425 H 4197.97 -1.33075 3.25552 0
M  V30 44426 H 4197.84 -2.87828 2.43793 0
M  V30 44427 H 4200.23 -2.53752 1.50646 0
M  V30 44428 H 4200.31 -0.989158 2.35901 0
M  V30 44429 H 4199.95 -2.21395 4.57107 0
M  V30 44430 H 4199.88 -3.75936 3.68754 0
M  V30 44431 H 4202.38 -2.39976 2.91924 0
M  V30 44432 H 4202.69 -4.40836 6.34731 0
M  V30 44433 H 4201.03 -3.97027 5.70434 0
M  V30 44434 H 4204.22 -2.90699 3.66895 0
M  V30 44435 H 4204.4 -3.82311 5.23204 0
M  V30 44436 N 4197.8 -1.13144 -1.09709 0
M  V30 44437 C 4198.75 -0.806156 -2.16263 0
M  V30 44438 C 4199.72 0.230447 -1.64494 0
M  V30 44439 O 4200.91 0.103342 -1.9052 0
M  V30 44440 C 4198.05 -0.275136 -3.44001 0
M  V30 44441 C 4197.16 -1.37045 -4.09686 0
M  V30 44442 C 4196.29 -0.798075 -5.25171 0
M  V30 44443 C 4195.33 -1.87199 -5.82772 0
M  V30 44444 N 4194.47 -1.31778 -6.89622 0
M  V30 44445 H 4199.31 -1.71888 -2.43431 0
M  V30 44446 H 4196.85 -0.858065 -1.19481 0
M  V30 44447 H 4198.8 0.0508511 -4.17169 0
M  V30 44448 H 4197.43 0.600723 -3.17161 0
M  V30 44449 H 4196.49 -1.81308 -3.34412 0
M  V30 44450 H 4197.8 -2.18223 -4.48531 0
M  V30 44451 H 4196.95 -0.4232 -6.05222 0
M  V30 44452 H 4195.69 0.0448139 -4.87679 0
M  V30 44453 H 4194.7 -2.25597 -5.01384 0
M  V30 44454 H 4195.92 -2.71823 -6.22325 0
M  V30 44455 H 4193.87 -0.496844 -6.54116 0
M  V30 44456 H 4193.78 -2.06607 -7.2722 0
M  V30 44457 H 4195.05 -0.970378 -7.73436 0
M  V30 44458 N 4199.28 1.27635 -0.924498 0
M  V30 44459 C 4200.53 1.93796 -0.55909 0
M  V30 44460 C 4200.84 1.73484 0.90347 0
M  V30 44461 O 4202.05 2.33959 1.37752 0
M  V30 44462 C 4200.51 3.4716 -0.949096 0
M  V30 44463 C 4200.11 3.76234 -2.43212 0
M  V30 44464 C 4201.86 4.1942 -0.654787 0
M  V30 44465 C 4199.77 5.22957 -2.76169 0
M  V30 44466 H 4198.7 0.725491 -0.205376 0
M  V30 44467 H 4201.35 1.44978 -1.12488 0
M  V30 44468 H 4199.73 3.94769 -0.311991 0
M  V30 44469 H 4200.9 3.39394 -3.11686 0
M  V30 44470 H 4199.22 3.17171 -2.69799 0
M  V30 44471 H 4201.81 5.2745 -0.877558 0
M  V30 44472 H 4202.16 4.14297 0.407871 0
M  V30 44473 H 4202.69 3.77622 -1.25084 0
M  V30 44474 H 4199.43 5.33167 -3.81331 0
M  V30 44475 H 4198.95 5.60955 -2.12342 0
M  V30 44476 H 4200.63 5.90804 -2.63743 0
M  V30 44477 N 4200.76 0.689652 1.41709 0
M  V30 44478 C 4201.99 0.225461 2.06171 0
M  V30 44479 C 4202.41 -1.11437 1.51537 0
M  V30 44480 O 4201.77 -1.69632 0.639895 0
M  V30 44481 C 4201.82 0.187153 3.60114 0
M  V30 44482 O 4200.92 -0.839819 4.03758 0
M  V30 44483 H 4200.26 0.111633 0.654549 0
M  V30 44484 H 4202.79 0.942846 1.81581 0
M  V30 44485 H 4202.8 0.0160086 4.07997 0
M  V30 44486 H 4201.48 1.16504 3.99249 0
M  V30 44487 H 4200.05 -0.638511 3.67393 0
M  V30 44488 N 4202.24 -1.51507 0.433991 0
M  V30 44489 C 4203.17 -2.25414 -0.41489 0
M  V30 44490 C 4204.18 -1.29304 -0.989153 0
M  V30 44491 O 4205.37 -1.55081 -0.883862 0
M  V30 44492 C 4202.47 -2.99179 -1.59202 0
M  V30 44493 C 4201.65 -4.22357 -1.13723 0
M  V30 44494 C 4200.7 -4.78731 -2.1841 0
M  V30 44495 O 4199.73 -5.40658 -1.77981 0
M  V30 44496 N 4200.93 -4.62471 -3.50858 0
M  V30 44497 H 4203.7 -2.98902 0.218527 0
M  V30 44498 H 4201.26 -1.59755 0.262698 0
M  V30 44499 H 4203.25 -3.3378 -2.28851 0
M  V30 44500 H 4201.82 -2.28722 -2.13085 0
M  V30 44501 H 4201.04 -3.93288 -0.267928 0
M  V30 44502 H 4202.33 -5.023 -0.810711 0
M  V30 44503 H 4201.73 -4.13137 -3.86438 0
M  V30 44504 H 4200.28 -5.01443 -4.16411 0
M  V30 44505 N 4203.72 -0.165233 -1.56731 0
M  V30 44506 C 4204.94 0.490907 -2.01506 0
M  V30 44507 C 4205.37 1.56422 -1.04469 0
M  V30 44508 O 4204.72 1.81285 -0.023265 0
M  V30 44509 C 4204.77 1.05173 -3.44922 0
M  V30 44510 O 4203.88 2.16597 -3.50941 0
M  V30 44511 H 4203.22 0.118199 -0.653395 0
M  V30 44512 H 4205.75 -0.267334 -2.02846 0
M  V30 44513 H 4205.76 1.37586 -3.84102 0
M  V30 44514 H 4204.43 0.265843 -4.15049 0
M  V30 44515 H 4203.01 1.85275 -3.23617 0
M  V30 44516 N 4205.19 1.57226 0.108512 0
M  V30 44517 C 4206.16 2.00155 1.11672 0
M  V30 44518 C 4207.16 0.893144 1.33715 0
M  V30 44519 O 4208.35 1.15894 1.30054 0
M  V30 44520 C 4205.48 2.35073 2.46888 0
M  V30 44521 H 4206.67 2.90435 0.747505 0
M  V30 44522 H 4204.23 1.52258 0.353143 0
M  V30 44523 H 4204.96 1.47706 2.8871 0
M  V30 44524 H 4204.75 3.15923 2.3224 0
M  V30 44525 H 4206.24 2.6899 3.19428 0
M  V30 44526 N 4206.67 -0.378982 1.52975 0
M  V30 44527 C 4207.6 -1.48329 1.74732 0
M  V30 44528 C 4208.62 -1.50205 0.627888 0
M  V30 44529 O 4209.81 -1.53926 0.903833 0
M  V30 44530 C 4206.91 -2.87145 1.80003 0
M  V30 44531 C 4206.08 -3.09119 3.09458 0
M  V30 44532 C 4205.14 -4.27974 3.06145 0
M  V30 44533 O 4204.16 -4.23794 3.79983 0
M  V30 44534 N 4205.37 -5.34688 2.26028 0
M  V30 44535 H 4208.13 -1.30049 2.70014 0
M  V30 44536 H 4205.69 -0.568591 1.51587 0
M  V30 44537 H 4207.68 -3.64772 1.75281 0
M  V30 44538 H 4206.25 -2.98735 0.920646 0
M  V30 44539 H 4205.47 -2.19269 3.27589 0
M  V30 44540 H 4206.76 -3.20662 3.95036 0
M  V30 44541 H 4206.16 -5.40942 1.65524 0
M  V30 44542 H 4204.72 -6.10944 2.27137 0
M  V30 44543 N 4208.15 -1.44108 -0.638015 0
M  V30 44544 C 4209.38 -1.49998 -1.42507 0
M  V30 44545 C 4209.79 -0.122637 -1.88401 0
M  V30 44546 O 4209.15 0.87014 -1.60421 0
M  V30 44547 C 4209.2 -2.45883 -2.64997 0
M  V30 44548 O 4208.92 -3.78262 -2.21018 0
M  V30 44549 C 4210.42 -2.61168 -3.58198 0
M  V30 44550 H 4207.64 -0.508951 -0.437276 0
M  V30 44551 H 4210.19 -1.89004 -0.780879 0
M  V30 44552 H 4208.34 -2.10032 -3.25523 0
M  V30 44553 H 4208.76 -4.29967 -3.00381 0
M  V30 44554 H 4210.23 -3.32303 -4.4077 0
M  V30 44555 H 4210.71 -1.66167 -4.06553 0
M  V30 44556 H 4211.31 -2.97893 -3.03545 0
M  V30 44557 N 4209.63 0.877792 -1.30891 0
M  V30 44558 C 4210.86 1.66075 -1.22893 0
M  V30 44559 C 4211.27 1.88037 0.209472 0
M  V30 44560 O 4210.61 1.43308 1.14929 0
M  V30 44561 C 4210.67 3.05528 -1.89454 0
M  V30 44562 C 4210.34 3.06709 -3.3879 0
M  V30 44563 C 4211.33 2.85239 -4.34666 0
M  V30 44564 C 4209.02 3.28078 -3.80355 0
M  V30 44565 C 4211.01 2.85106 -5.70082 0
M  V30 44566 C 4208.7 3.27574 -5.15886 0
M  V30 44567 C 4209.7 3.06113 -6.1056 0
M  V30 44568 O 4209.38 3.05439 -7.43614 0
M  V30 44569 H 4209.12 0.524763 -0.426145 0
M  V30 44570 H 4211.67 1.10449 -1.73177 0
M  V30 44571 H 4209.9 3.62848 -1.33709 0
M  V30 44572 H 4211.59 3.66009 -1.75476 0
M  V30 44573 H 4212.36 2.68519 -4.03884 0
M  V30 44574 H 4208.23 3.43815 -3.07103 0
M  V30 44575 H 4211.78 2.68274 -6.43953 0
M  V30 44576 H 4207.68 3.43831 -5.46306 0
M  V30 44577 H 4208.44 3.21555 -7.52692 0
M  V30 44578 N 4211.11 1.13725 1.09108 0
M  V30 44579 C 4212.38 0.812045 1.77947 0
M  V30 44580 C 4212.76 -0.695797 1.99303 0
M  V30 44581 O 4212.11 -1.63419 1.59707 0
M  V30 44582 C 4212.32 1.60267 3.10025 0
M  V30 44583 C 4213.67 1.79745 3.84678 0
M  V30 44584 O 4214.69 1.56893 3.19786 0
M  V30 44585 O 4213.55 2.17897 5.01182 0
M  V30 44586 H 4210.65 0.29683 0.771894 0
M  V30 44587 H 4213.19 1.24204 1.15635 0
M  V30 44588 H 4211.96 2.62724 2.89986 0
M  V30 44589 H 4211.59 1.16782 3.80063 0
M  V30 44590 N 4212.58 -1.27143 0.931254 0
M  V30 44591 C 4214 -1.76188 0.617638 0
M  V30 44592 C 4214.35 -1.75994 -0.867208 0
M  V30 44593 O 4213.47 -1.36569 -1.67862 0
M  V30 44594 C 4214.07 -3.19947 1.11442 0
M  V30 44595 C 4212.63 -3.66644 0.851402 0
M  V30 44596 C 4211.77 -2.46452 1.27109 0
M  V30 44597 H 4214.72 -1.1336 1.11064 0
M  V30 44598 H 4214.74 -3.77664 0.463704 0
M  V30 44599 H 4214.26 -3.20056 2.19513 0
M  V30 44600 H 4212.36 -3.71977 -0.215352 0
M  V30 44601 H 4212.47 -4.55945 1.47144 0
M  V30 44602 H 4210.83 -2.45187 0.689597 0
M  V30 44603 H 4211.62 -2.49268 2.36051 0
M  V30 44604 N 4214.06 -0.697157 -1.41342 0
M  V30 44605 C 4215.48 -0.368865 -1.55279 0
M  V30 44606 C 4215.68 1.12403 -1.67236 0
M  V30 44607 O 4214.74 1.90988 -1.65166 0
M  V30 44608 C 4216.05 -1.11878 -2.79112 0
M  V30 44609 C 4217.6 -1.10328 -2.92911 0
M  V30 44610 C 4218.07 -1.83498 -4.19634 0
M  V30 44611 N 4219.56 -1.80475 -4.26595 0
M  V30 44612 C 4220.3 -2.33929 -5.23512 0
M  V30 44613 N 4219.79 -2.9586 -6.26449 0
M  V30 44614 N 4221.59 -2.24175 -5.15463 0
M  V30 44615 H 4213.74 -1.66541 -1.31826 0
M  V30 44616 H 4216 -0.702893 -0.636117 0
M  V30 44617 H 4215.71 -2.17359 -2.76492 0
M  V30 44618 H 4215.58 -0.698395 -3.70678 0
M  V30 44619 H 4217.97 -0.0567353 -2.95045 0
M  V30 44620 H 4218.05 -1.56274 -2.02514 0
M  V30 44621 H 4217.69 -2.88133 -4.1826 0
M  V30 44622 H 4217.62 -1.34985 -5.09005 0
M  V30 44623 H 4220.11 -1.35324 -3.5284 0
M  V30 44624 H 4220.43 -3.3421 -6.96795 0
M  V30 44625 H 4218.77 -2.99938 -6.26947 0
M  V30 44626 H 4221.96 -1.75464 -4.3397 0
M  V30 44627 H 4222.14 -2.66137 -5.90826 0
M  V30 44628 N 4215.54 1.51274 -0.44202 0
M  V30 44629 C 4216.45 2.31614 0.373104 0
M  V30 44630 C 4217.47 1.40728 1.02331 0
M  V30 44631 O 4218.64 1.73798 1.01765 0
M  V30 44632 C 4215.71 3.14599 1.45699 0
M  V30 44633 C 4214.77 4.2127 0.826434 0
M  V30 44634 C 4214 5.00289 1.85868 0
M  V30 44635 O 4214.23 4.8 3.0815 0
M  V30 44636 O 4213.16 5.84257 1.44661 0
M  V30 44637 H 4216.99 3.0238 -0.282891 0
M  V30 44638 H 4214.57 1.47994 -0.204458 0
M  V30 44639 H 4216.45 3.66176 2.0855 0
M  V30 44640 H 4215.13 2.46593 2.09699 0
M  V30 44641 H 4214.03 3.73759 0.159755 0
M  V30 44642 H 4215.37 4.91663 0.229856 0
M  V30 44643 N 4217.02 0.173543 1.56642 0
M  V30 44644 C 4218.27 -0.469908 1.96561 0
M  V30 44645 C 4218.59 -1.63628 1.0607 0
M  V30 44646 O 4217.86 -1.95485 0.127511 0
M  V30 44647 H 4216.44 -0.176592 0.725827 0
M  V30 44648 H 4219.1 0.255246 1.93221 0
M  V30 44649 H 4218.2 -0.828439 3.00904 0
M  V30 44650 N 4218.5 -1.57281 -0.100172 0
M  V30 44651 C 4219.73 -1.89756 -0.817088 0
M  V30 44652 C 4220.14 -0.764899 -1.73049 0
M  V30 44653 O 4219.48 0.272352 -1.8167 0
M  V30 44654 C 4219.54 -3.17435 -1.68747 0
M  V30 44655 C 4219.2 -4.47093 -0.946422 0
M  V30 44656 C 4220.2 -5.19153 -0.278554 0
M  V30 44657 C 4217.89 -4.93765 -0.922008 0
M  V30 44658 C 4219.88 -6.3612 0.403815 0
M  V30 44659 C 4217.57 -6.10645 -0.235851 0
M  V30 44660 C 4218.57 -6.81671 0.425888 0
M  V30 44661 O 4218.25 -7.96324 1.10105 0
M  V30 44662 H 4217.99 -0.632283 -0.239152 0
M  V30 44663 H 4220.54 -2.05231 -0.0833778 0
M  V30 44664 H 4218.77 -2.98092 -2.46329 0
M  V30 44665 H 4220.46 -3.3578 -2.28049 0
M  V30 44666 H 4221.22 -4.84139 -0.288909 0
M  V30 44667 H 4217.1 -4.38374 -1.42652 0
M  V30 44668 H 4220.65 -6.91495 0.920898 0
M  V30 44669 H 4216.54 -6.45114 -0.223325 0
M  V30 44670 H 4217.31 -8.12276 1.00743 0
M  V30 44671 N 4219.98 0.370864 -1.53174 0
M  V30 44672 C 4220.92 1.47438 -1.79902 0
M  V30 44673 C 4221.92 1.55679 -0.667855 0
M  V30 44674 O 4223.12 1.58629 -0.850696 0
M  V30 44675 H 4219.5 0.491061 -0.569529 0
M  V30 44676 H 4221.47 1.22097 -2.72277 0
M  V30 44677 C 4220.22 2.84343 -2.00111 0
M  V30 44678 H 4219.54 2.78759 -2.8659 0
M  V30 44679 H 4220.98 3.60749 -2.22792 0
M  V30 44680 C 4219.44 3.27777 -0.778709 0
M  V30 44681 O 4219.97 4.01685 0.035154 0
M  V30 44682 N 4218.18 2.84261 -0.603649 0
M  V30 44683 H 4217.72 2.24283 -1.26708 0
M  V30 44684 H 4217.68 3.13679 0.212847 0
M  V30 44685 N 4221.45 1.44444 0.630363 0
M  V30 44686 C 4222.86 1.42012 1.212 0
M  V30 44687 C 4223.22 0.135867 1.95729 0
M  V30 44688 O 4222.34 -0.763729 2.02475 0
M  V30 44689 C 4222.94 2.57266 2.20453 0
M  V30 44690 C 4221.49 2.58026 2.74043 0
M  V30 44691 C 4220.64 2.33834 1.49054 0
M  V30 44692 H 4223.59 1.53014 0.420995 0
M  V30 44693 H 4223.61 2.30063 3.0307 0
M  V30 44694 H 4223.13 3.50721 1.66181 0
M  V30 44695 H 4221.23 1.68514 3.32316 0
M  V30 44696 H 4221.34 3.56536 3.20029 0
M  V30 44697 H 4219.7 1.82942 1.77213 0
M  V30 44698 H 4220.49 3.29404 0.966832 0
M  V30 44699 N 4222.93 -0.870838 1.31355 0
M  V30 44700 C 4223.86 -1.98406 1.14751 0
M  V30 44701 C 4224.88 -1.62568 0.0868309 0
M  V30 44702 O 4226.07 -1.75343 0.33424 0
M  V30 44703 C 4223.17 -3.30926 0.73085 0
M  V30 44704 C 4222.34 -3.9511 1.87635 0
M  V30 44705 C 4221.4 -5.05945 1.44589 0
M  V30 44706 O 4220.42 -5.26812 2.1554 0
M  V30 44707 N 4221.63 -5.79545 0.332799 0
M  V30 44708 H 4224.39 -2.13195 2.10637 0
M  V30 44709 H 4221.95 -1.04476 1.23678 0
M  V30 44710 H 4223.94 -4.02456 0.425608 0
M  V30 44711 H 4222.51 -3.12302 -0.136371 0
M  V30 44712 H 4221.73 -3.16572 2.34896 0
M  V30 44713 H 4223.02 -4.34729 2.64363 0
M  V30 44714 H 4222.42 -5.65111 -0.258089 0
M  V30 44715 H 4220.98 -6.51742 0.087086 0
M  V30 44716 N 4224.41 -1.14302 -1.08503 0
M  V30 44717 C 4225.82 -0.921865 -1.62353 0
M  V30 44718 C 4226.17 0.539536 -1.88636 0
M  V30 44719 O 4225.3 1.40824 -1.64309 0
M  V30 44720 C 4225.89 -1.66699 -2.94952 0
M  V30 44721 C 4224.45 -1.49145 -3.45591 0
M  V30 44722 C 4223.6 -1.69012 -2.19842 0
M  V30 44723 H 4226.55 -1.29496 -0.917419 0
M  V30 44724 H 4226.57 -1.12961 -3.63346 0
M  V30 44725 H 4226.08 -2.73058 -2.75792 0
M  V30 44726 H 4224.18 -0.451291 -3.69857 0
M  V30 44727 H 4224.3 -2.26076 -4.22406 0
M  V30 44728 H 4222.66 -1.11569 -2.28964 0
M  V30 44729 H 4223.44 -2.76711 -2.03189 0
M  V30 44730 N 4225.89 1.26648 -0.937984 0
M  V30 44731 C 4227.3 1.75858 -0.626973 0
M  V30 44732 C 4227.65 1.76452 0.857862 0
M  V30 44733 O 4226.77 1.37458 1.67136 0
M  V30 44734 C 4227.37 3.19352 -1.13137 0
M  V30 44735 C 4225.93 3.66188 -0.870834 0
M  V30 44736 C 4225.08 2.45775 -1.28414 0
M  V30 44737 H 4228.03 1.12769 -1.11664 0
M  V30 44738 H 4228.05 3.77413 -0.483726 0
M  V30 44739 H 4227.56 3.18887 -2.21207 0
M  V30 44740 H 4225.66 3.72086 0.195622 0
M  V30 44741 H 4225.77 4.55158 -1.4956 0
M  V30 44742 H 4224.14 2.44818 -0.70259 0
M  V30 44743 H 4224.92 2.48013 -2.3737 0
M  V30 44744 N 4227.37 0.704643 1.4097 0
M  V30 44745 C 4228.64 0.167093 1.94885 0
M  V30 44746 C 4229.02 -1.32487 1.64349 0
M  V30 44747 O 4228.37 -2.07572 0.955304 0
M  V30 44748 C 4228.58 0.468096 3.45847 0
M  V30 44749 C 4229.93 0.400778 4.22704 0
M  V30 44750 O 4230.95 0.403527 3.53907 0
M  V30 44751 O 4229.81 0.368772 5.45254 0
M  V30 44752 H 4226.91 0.0202845 0.826751 0
M  V30 44753 H 4229.45 0.781426 1.50638 0
M  V30 44754 H 4228.22 1.50044 3.61389 0
M  V30 44755 H 4227.85 -0.176754 3.97207 0
M  V30 44756 N 4228.84 -1.51038 0.450036 0
M  V30 44757 C 4229.77 -2.30933 -0.345275 0
M  V30 44758 C 4230.76 -1.36901 -1.00956 0
M  V30 44759 O 4231.94 -1.65822 -1.01077 0
M  V30 44760 C 4229.07 -3.16057 -1.43962 0
M  V30 44761 C 4228.02 -4.18471 -0.898124 0
M  V30 44762 C 4227.35 -4.92197 -2.08918 0
M  V30 44763 C 4228.65 -5.22244 0.0761829 0
M  V30 44764 H 4230.34 -2.97669 0.321493 0
M  V30 44765 H 4227.89 -1.43152 0.156058 0
M  V30 44766 H 4229.84 -3.70736 -2.00332 0
M  V30 44767 H 4228.57 -2.47166 -2.13486 0
M  V30 44768 H 4227.23 -3.64862 -0.356553 0
M  V30 44769 H 4226.87 -4.19797 -2.77091 0
M  V30 44770 H 4226.57 -5.61457 -1.73318 0
M  V30 44771 H 4228.1 -5.49703 -2.65817 0
M  V30 44772 H 4229.51 -5.71919 -0.397628 0
M  V30 44773 H 4227.91 -5.99105 0.345386 0
M  V30 44774 H 4228.98 -4.74289 1.00886 0
M  V30 44775 N 4230.32 -0.181847 -1.56547 0
M  V30 44776 C 4231.55 0.469507 -2.02016 0
M  V30 44777 C 4231.97 1.55305 -1.06122 0
M  V30 44778 O 4231.33 1.8125 -0.0424914 0
M  V30 44779 C 4231.38 1.01509 -3.46018 0
M  V30 44780 O 4230.48 2.12863 -3.53218 0
M  V30 44781 H 4229.82 0.111262 -0.654612 0
M  V30 44782 H 4232.35 -0.288833 -2.02551 0
M  V30 44783 H 4232.36 1.33505 -3.85539 0
M  V30 44784 H 4231.04 0.221807 -4.15308 0
M  V30 44785 H 4229.62 1.81832 -3.25563 0
M  V30 44786 N 4231.8 1.57332 0.09183 0
M  V30 44787 C 4232.76 2.01328 1.09542 0
M  V30 44788 C 4233.76 0.907275 1.3276 0
M  V30 44789 O 4234.95 1.17267 1.28818 0
M  V30 44790 C 4232.09 2.37678 2.44381 0
M  V30 44791 H 4233.28 2.91211 0.716659 0
M  V30 44792 H 4230.83 1.52624 0.336974 0
M  V30 44793 H 4231.57 1.5076 2.87127 0
M  V30 44794 H 4231.35 3.18368 2.28876 0
M  V30 44795 H 4232.84 2.72363 3.16557 0
M  V30 44796 N 4233.28 -0.362736 1.53369 0
M  V30 44797 C 4234.52 -1.10671 1.6994 0
M  V30 44798 C 4234.86 -1.88883 0.451335 0
M  V30 44799 O 4234.13 -1.8652 -0.551419 0
M  V30 44800 C 4234.42 -2.06362 2.95105 0
M  V30 44801 C 4234.27 -1.3174 4.30075 0
M  V30 44802 C 4235.59 -3.06446 3.15878 0
M  V30 44803 H 4232.71 -0.400957 0.618387 0
M  V30 44804 H 4235.35 -0.387232 1.86012 0
M  V30 44805 H 4233.5 -2.67715 2.81533 0
M  V30 44806 H 4235.17 -0.731494 4.55463 0
M  V30 44807 H 4233.41 -0.619272 4.29357 0
M  V30 44808 H 4234.08 -2.01794 5.13793 0
M  V30 44809 H 4236.56 -2.55198 3.28653 0
M  V30 44810 H 4235.44 -3.70621 4.04884 0
M  V30 44811 H 4235.7 -3.76774 2.31288 0
M  V30 44812 N 4234.76 -1.44777 -0.622694 0
M  V30 44813 C 4235.98 -1.51501 -1.40908 0
M  V30 44814 C 4236.4 -0.142612 -1.88261 0
M  V30 44815 O 4235.76 0.853077 -1.61335 0
M  V30 44816 C 4235.81 -2.4868 -2.62375 0
M  V30 44817 O 4235.53 -3.80585 -2.16994 0
M  V30 44818 C 4237.03 -2.64953 -3.55408 0
M  V30 44819 H 4234.25 -0.51356 -0.431853 0
M  V30 44820 H 4236.79 -1.89822 -0.760788 0
M  V30 44821 H 4234.95 -2.13472 -3.23277 0
M  V30 44822 H 4235.36 -4.33129 -2.95803 0
M  V30 44823 H 4236.84 -3.36959 -4.37221 0
M  V30 44824 H 4237.31 -1.70469 -4.04768 0
M  V30 44825 H 4237.92 -3.01096 -3.00368 0
M  V30 44826 N 4236.23 0.863859 -1.31815 0
M  V30 44827 C 4237.16 1.98739 -1.22577 0
M  V30 44828 C 4238.15 1.69733 -0.111615 0
M  V30 44829 O 4239.33 1.91912 -0.297243 0
M  V30 44830 C 4236.46 3.34376 -0.938618 0
M  V30 44831 C 4235.41 3.77706 -2.01301 0
M  V30 44832 C 4234.74 5.10871 -1.57843 0
M  V30 44833 C 4236.04 3.94158 -3.42691 0
M  V30 44834 H 4237.73 2.06725 -2.16576 0
M  V30 44835 H 4235.28 0.993228 -1.04264 0
M  V30 44836 H 4237.23 4.12519 -0.860573 0
M  V30 44837 H 4235.96 3.26579 0.0370209 0
M  V30 44838 H 4234.62 3.01807 -2.08105 0
M  V30 44839 H 4234.26 4.99522 -0.590488 0
M  V30 44840 H 4233.96 5.40834 -2.29723 0
M  V30 44841 H 4235.49 5.91517 -1.51458 0
M  V30 44842 H 4236.9 4.62679 -3.38527 0
M  V30 44843 H 4235.3 4.35526 -4.1284 0
M  V30 44844 H 4236.37 2.97351 -3.83028 0
M  V30 44845 N 4237.71 1.14875 1.07895 0
M  V30 44846 C 4238.94 0.944314 1.84655 0
M  V30 44847 C 4239.36 -0.502228 1.81271 0
M  V30 44848 O 4238.72 -1.35761 1.20161 0
M  V30 44849 C 4238.77 1.45628 3.29886 0
M  V30 44850 O 4237.87 0.65182 4.07216 0
M  V30 44851 H 4237.21 0.337232 0.571988 0
M  V30 44852 H 4239.74 1.52725 1.36148 0
M  V30 44853 H 4239.75 1.46672 3.80725 0
M  V30 44854 H 4238.43 2.50942 3.31664 0
M  V30 44855 H 4237.01 0.710555 3.66068 0
M  V30 44856 N 4239.19 -1.26148 0.944687 0
M  V30 44857 C 4240.61 -1.45873 0.647545 0
M  V30 44858 C 4240.81 -1.85022 -0.798063 0
M  V30 44859 O 4239.86 -1.97409 -1.57436 0
M  V30 44860 C 4241.18 -2.53843 1.61197 0
M  V30 44861 C 4242.72 -2.67691 1.62205 0
M  V30 44862 C 4243.2 -3.78835 2.57387 0
M  V30 44863 N 4244.69 -3.86232 2.55693 0
M  V30 44864 C 4245.42 -4.71695 3.26023 0
M  V30 44865 N 4244.92 -5.6152 4.05792 0
M  V30 44866 N 4246.71 -4.65572 3.14958 0
M  V30 44867 H 4238.86 -0.990263 1.87903 0
M  V30 44868 H 4241.13 -0.496331 0.807688 0
M  V30 44869 H 4240.83 -2.31911 2.64406 0
M  V30 44870 H 4240.71 -3.51568 1.36675 0
M  V30 44871 H 4243.09 -2.88994 0.597193 0
M  V30 44872 H 4243.18 -1.70398 1.90783 0
M  V30 44873 H 4242.82 -3.58284 3.59993 0
M  V30 44874 H 4242.75 -4.75592 2.26098 0
M  V30 44875 H 4245.24 -3.22015 1.97774 0
M  V30 44876 H 4245.55 -6.23634 4.564 0
M  V30 44877 H 4243.9 -5.61261 4.09892 0
M  V30 44878 H 4247.09 -3.94402 2.5212 0
M  V30 44879 H 4247.26 -5.31956 3.70037 0
M  V30 44880 N 4240.67 -0.712109 -1.40594 0
M  V30 44881 C 4241.58 -0.0582534 -2.34528 0
M  V30 44882 C 4242.59 0.747687 -1.57117 0
M  V30 44883 O 4243.77 0.681444 -1.89521 0
M  V30 44884 C 4240.84 0.854949 -3.35993 0
M  V30 44885 C 4239.9 0.0393513 -4.29282 0
M  V30 44886 C 4239.13 0.909061 -5.25901 0
M  V30 44887 O 4239.35 2.14835 -5.28396 0
M  V30 44888 O 4238.29 0.349907 -6.00882 0
M  V30 44889 H 4242.11 -0.832967 -2.92054 0
M  V30 44890 H 4239.7 -0.472562 -1.41729 0
M  V30 44891 H 4241.58 1.37813 -3.98228 0
M  V30 44892 H 4240.25 1.60887 -2.80886 0
M  V30 44893 H 4239.16 -0.528822 -3.70343 0
M  V30 44894 H 4240.49 -0.67627 -4.87532 0
M  V30 44895 N 4242.15 1.50797 -0.45804 0
M  V30 44896 C 4243.08 2.31113 0.333023 0
M  V30 44897 C 4244.06 1.37434 1.00229 0
M  V30 44898 O 4245.24 1.66356 1.00196 0
M  V30 44899 C 4242.37 3.16816 1.42284 0
M  V30 44900 C 4241.33 4.18941 0.875919 0
M  V30 44901 C 4240.65 4.93298 2.06305 0
M  V30 44902 C 4241.95 5.22197 -0.103878 0
M  V30 44903 H 4243.65 2.97494 -0.337275 0
M  V30 44904 H 4241.19 1.43067 -0.163647 0
M  V30 44905 H 4243.15 3.71793 1.98363 0
M  V30 44906 H 4241.87 2.48295 2.12172 0
M  V30 44907 H 4240.53 3.65046 0.337199 0
M  V30 44908 H 4240.18 4.21261 2.7486 0
M  V30 44909 H 4239.88 5.62369 1.70338 0
M  V30 44910 H 4241.4 5.51105 2.62898 0
M  V30 44911 H 4242.81 5.72122 0.367292 0
M  V30 44912 H 4241.21 5.98914 -0.377153 0
M  V30 44913 H 4242.28 4.73747 -1.034 0
M  V30 44914 N 4243.63 0.190147 1.56449 0
M  V30 44915 C 4244.56 -0.764469 2.16075 0
M  V30 44916 C 4245.57 -1.18032 1.12126 0
M  V30 44917 O 4246.76 -1.11691 1.39239 0
M  V30 44918 C 4243.86 -2.04302 2.70396 0
M  V30 44919 C 4243.03 -1.78775 3.99197 0
M  V30 44920 C 4242.09 -2.91029 4.38393 0
M  V30 44921 O 4241.12 -2.6085 5.05911 0
M  V30 44922 N 4242.32 -4.19268 4.01491 0
M  V30 44923 H 4245.08 -0.254599 2.98617 0
M  V30 44924 H 4242.65 0.00800778 1.61898 0
M  V30 44925 H 4244.64 -2.78529 2.93605 0
M  V30 44926 H 4243.21 -2.46425 1.92337 0
M  V30 44927 H 4242.43 -0.883534 3.84171 0
M  V30 44928 H 4243.72 -1.59111 4.83282 0
M  V30 44929 H 4243.11 -4.46641 3.47172 0
M  V30 44930 H 4241.67 -4.90138 4.29661 0
M  V30 44931 N 4245.1 -1.57379 -0.083485 0
M  V30 44932 C 4246.07 -2.01906 -1.08473 0
M  V30 44933 C 4247.07 -0.914303 -1.32277 0
M  V30 44934 O 4248.26 -1.17949 -1.28194 0
M  V30 44935 C 4245.39 -2.38971 -2.43117 0
M  V30 44936 H 4246.58 -2.91587 -0.701205 0
M  V30 44937 H 4244.13 -1.52801 -0.328876 0
M  V30 44938 H 4244.87 -1.5228 -2.86324 0
M  V30 44939 H 4244.65 -3.19577 -2.27184 0
M  V30 44940 H 4246.14 -2.74038 -3.15108 0
M  V30 44941 N 4246.58 0.354597 -1.53559 0
M  V30 44942 C 4247.51 1.45775 -1.7557 0
M  V30 44943 C 4248.49 1.50949 -0.604408 0
M  V30 44944 O 4249.68 1.68834 -0.838286 0
M  V30 44945 C 4246.8 2.84077 -1.8444 0
M  V30 44946 C 4245.85 2.96577 -3.06503 0
M  V30 44947 S 4246.68 2.64191 -4.65793 0
M  V30 44948 C 4247.84 4.04622 -4.77527 0
M  V30 44949 H 4248.07 1.26885 -2.68863 0
M  V30 44950 H 4245.6 0.549602 -1.44287 0
M  V30 44951 H 4247.56 3.63759 -1.90235 0
M  V30 44952 H 4246.22 3.0027 -0.921791 0
M  V30 44953 H 4245.42 3.97892 -3.09351 0
M  V30 44954 H 4245.02 2.24831 -2.98877 0
M  V30 44955 H 4247.31 4.99006 -4.58257 0
M  V30 44956 H 4248.25 4.06773 -5.79604 0
M  V30 44957 H 4248.66 3.92133 -4.06069 0
M  V30 44958 N 4248.06 1.45105 0.615008 0
M  V30 44959 C 4249.02 1.52831 1.70808 0
M  V30 44960 C 4250.02 0.408584 1.55522 0
M  V30 44961 O 4251.21 0.671801 1.60725 0
M  V30 44962 C 4248.34 1.41774 3.10021 0
M  V30 44963 H 4249.54 2.50215 1.65326 0
M  V30 44964 H 4247.09 1.32436 0.830092 0
M  V30 44965 H 4247.83 0.455465 3.21086 0
M  V30 44966 H 4247.61 2.22983 3.22523 0
M  V30 44967 H 4249.1 1.50197 3.89654 0
M  V30 44968 N 4249.54 -0.856857 1.32271 0
M  V30 44969 C 4250.45 -1.99761 1.23016 0
M  V30 44970 C 4251.46 -1.73401 0.144198 0
M  V30 44971 O 4252.64 -1.98075 0.364464 0
M  V30 44972 C 4249.7 -3.33392 0.951352 0
M  V30 44973 C 4248.77 -3.72987 2.12553 0
M  V30 44974 C 4248 -5.00242 1.85993 0
M  V30 44975 O 4248.22 -5.64742 0.80142 0
M  V30 44976 O 4247.16 -5.36916 2.72038 0
M  V30 44977 H 4250.98 -2.10505 2.18909 0
M  V30 44978 H 4248.57 -0.987173 1.12139 0
M  V30 44979 H 4250.45 -4.13498 0.812264 0
M  V30 44980 H 4249.12 -3.23692 0.0225545 0
M  V30 44981 H 4248.03 -2.93467 2.32008 0
M  V30 44982 H 4249.36 -3.8733 3.03704 0
M  V30 44983 N 4251.02 -1.15446 -1.07285 0
M  V30 44984 C 4251.95 -0.809609 -2.14425 0
M  V30 44985 C 4252.96 0.17868 -1.61816 0
M  V30 44986 O 4254.15 -0.0446634 -1.78444 0
M  V30 44987 C 4251.25 -0.182999 -3.38406 0
M  V30 44988 C 4250.42 -1.20888 -4.20363 0
M  V30 44989 C 4249.48 -0.603923 -5.22723 0
M  V30 44990 O 4248.51 -1.27006 -5.5485 0
M  V30 44991 N 4249.71 0.614039 -5.77243 0
M  V30 44992 H 4252.47 -1.73165 -2.4461 0
M  V30 44993 H 4250.04 -1.05043 -1.23197 0
M  V30 44994 H 4252.03 0.234497 -4.0402 0
M  V30 44995 H 4250.6 0.642397 -3.05928 0
M  V30 44996 H 4249.82 -1.80291 -3.50555 0
M  V30 44997 H 4251.11 -1.90152 -4.71932 0
M  V30 44998 H 4250.5 1.17359 -5.53393 0
M  V30 44999 H 4249.06 0.973882 -6.44483 0
M  V30 45000 N 4252.49 1.25646 -0.951364 0
M  V30 45001 C 4253.42 2.28366 -0.486938 0
M  V30 45002 C 4254.4 1.6362 0.465043 0
M  V30 45003 O 4255.59 1.90745 0.364703 0
M  V30 45004 C 4252.72 3.46476 0.239168 0
M  V30 45005 C 4251.67 4.23379 -0.627237 0
M  V30 45006 C 4251 5.34208 0.22942 0
M  V30 45007 C 4252.3 4.8637 -1.90371 0
M  V30 45008 H 4253.99 2.67465 -1.34547 0
M  V30 45009 H 4251.54 1.28576 -0.648405 0
M  V30 45010 H 4253.49 4.17456 0.575178 0
M  V30 45011 H 4252.22 3.06358 1.13192 0
M  V30 45012 H 4250.88 3.54177 -0.946285 0
M  V30 45013 H 4250.52 4.9033 1.12183 0
M  V30 45014 H 4250.22 5.86575 -0.346955 0
M  V30 45015 H 4251.75 6.08022 0.560471 0
M  V30 45016 H 4253.16 5.49512 -1.63431 0
M  V30 45017 H 4251.56 5.489 -2.42547 0
M  V30 45018 H 4252.63 4.08739 -2.60883 0
M  V30 45019 N 4253.97 0.719555 1.40215 0
M  V30 45020 C 4254.93 0.0782263 2.29066 0
M  V30 45021 C 4255.93 -0.683256 1.45562 0
M  V30 45022 O 4257.12 -0.514569 1.66427 0
M  V30 45023 C 4254.26 -0.898977 3.28833 0
M  V30 45024 H 4255.45 0.860837 2.8728 0
M  V30 45025 H 4253 0.484446 1.48603 0
M  V30 45026 H 4253.74 -1.7085 2.75646 0
M  V30 45027 H 4253.52 -0.355785 3.90482 0
M  V30 45028 H 4255.01 -1.34476 3.95356 0
M  V30 45029 N 4255.45 -1.50552 0.466031 0
M  V30 45030 C 4256.36 -2.32178 -0.336209 0
M  V30 45031 C 4257.38 -1.42338 -1.00079 0
M  V30 45032 O 4258.55 -1.75395 -0.989873 0
M  V30 45033 C 4255.62 -3.16877 -1.40676 0
M  V30 45034 C 4254.68 -4.22532 -0.759309 0
M  V30 45035 C 4253.91 -5.03183 -1.77885 0
M  V30 45036 O 4254.13 -4.84841 -3.00475 0
M  V30 45037 O 4253.07 -5.86485 -1.35348 0
M  V30 45038 H 4256.89 -3.01891 0.330961 0
M  V30 45039 H 4254.48 -1.4765 0.227976 0
M  V30 45040 H 4256.36 -3.69448 -2.02698 0
M  V30 45041 H 4255.04 -2.49898 -2.05749 0
M  V30 45042 H 4253.94 -3.73966 -0.100273 0
M  V30 45043 H 4255.28 -4.91966 -0.151608 0
M  V30 45044 N 4256.93 -0.198441 -1.56346 0
M  V30 45045 C 4257.88 0.737752 -2.2059 0
M  V30 45046 C 4258.87 1.21727 -1.17809 0
M  V30 45047 O 4260.08 1.17977 -1.35946 0
M  V30 45048 H 4256.45 0.256269 -0.706987 0
M  V30 45049 H 4258.42 0.172232 -2.97903 0
M  V30 45050 C 4257.17 1.94529 -2.88191 0
M  V30 45051 H 4256.49 1.58539 -3.67022 0
M  V30 45052 H 4257.93 2.57863 -3.36575 0
M  V30 45053 C 4256.39 2.78616 -1.89406 0
M  V30 45054 O 4256.92 3.76646 -1.39644 0
M  V30 45055 N 4255.13 2.44178 -1.57562 0
M  V30 45056 H 4254.68 1.64518 -1.98221 0
M  V30 45057 H 4254.63 3.00723 -0.917231 0
M  V30 45058 N 4258.41 1.57421 0.0751377 0
M  V30 45059 C 4259.64 1.91032 0.786796 0
M  V30 45060 C 4260.04 0.792333 1.7181 0
M  V30 45061 O 4259.39 -0.243415 1.8208 0
M  V30 45062 C 4259.45 3.20079 1.63676 0
M  V30 45063 C 4259.11 4.48542 0.875173 0
M  V30 45064 C 4260.11 5.19531 0.195926 0
M  V30 45065 C 4257.8 4.9517 0.843338 0
M  V30 45066 C 4259.79 6.35397 -0.504965 0
M  V30 45067 C 4257.48 6.10943 0.138673 0
M  V30 45068 C 4258.47 6.80907 -0.534282 0
M  V30 45069 O 4258.16 7.94472 -1.2276 0
M  V30 45070 H 4257.89 0.636008 0.229063 0
M  V30 45071 H 4260.45 2.05337 0.0507168 0
M  V30 45072 H 4258.68 3.01973 2.41555 0
M  V30 45073 H 4260.37 3.39366 2.22679 0
M  V30 45074 H 4261.13 4.84537 0.21185 0
M  V30 45075 H 4257.01 4.40588 1.3566 0
M  V30 45076 H 4260.56 6.89942 -1.03079 0
M  V30 45077 H 4256.45 6.45387 0.120664 0
M  V30 45078 H 4257.22 8.10571 -1.13653 0
M  V30 45079 N 4259.88 -0.346449 1.53745 0
M  V30 45080 C 4260.83 -1.4259 1.7791 0
M  V30 45081 C 4261.82 -1.47874 0.63421 0
M  V30 45082 O 4263.01 -1.52792 0.893508 0
M  V30 45083 C 4260.14 -2.79771 1.98954 0
M  V30 45084 C 4259.23 -2.78891 3.195 0
M  V30 45085 N 4259.62 -2.47643 4.41029 0
M  V30 45086 C 4257.91 -3.1004 3.20611 0
M  V30 45087 C 4258.62 -2.54923 5.22866 0
M  V30 45088 N 4257.59 -2.90426 4.59514 0
M  V30 45089 H 4261.39 -1.17323 2.69467 0
M  V30 45090 H 4258.91 -0.554788 1.5263 0
M  V30 45091 H 4260.9 -3.57545 2.144 0
M  V30 45092 H 4259.56 -3.05987 1.08638 0
M  V30 45093 H 4260.58 -2.20893 4.6843 0
M  V30 45094 H 4257.25 -3.41446 2.40252 0
M  V30 45095 H 4258.64 -2.33948 6.29856 0
M  V30 45096 N 4261.36 -1.45429 -0.607304 0
M  V30 45097 C 4262.31 -1.54457 -1.73913 0
M  V30 45098 C 4263.3 -0.414529 -1.6425 0
M  V30 45099 O 4264.51 -0.590449 -1.7004 0
M  V30 45100 H 4260.89 -0.48515 -0.574572 0
M  V30 45101 H 4262.86 -2.49669 -1.63426 0
M  V30 45102 C 4261.61 -1.52868 -3.12293 0
M  V30 45103 H 4260.93 -2.39148 -3.20388 0
M  V30 45104 H 4262.37 -1.63243 -3.91316 0
M  V30 45105 C 4260.83 -0.25316 -3.35947 0
M  V30 45106 O 4261.36 0.666875 -3.96126 0
M  V30 45107 N 4259.56 -0.148765 -2.90219 0
M  V30 45108 H 4259.11 -0.898326 -2.41429 0
M  V30 45109 H 4259.07 0.703853 -3.0642 0
M  V30 45110 N 4262.84 0.84983 -1.32724 0
M  V30 45111 C 4264.07 1.63668 -1.26571 0
M  V30 45112 C 4264.48 1.88074 0.16542 0
M  V30 45113 O 4263.84 1.45315 1.10407 0
M  V30 45114 C 4263.89 2.99321 -2.02705 0
M  V30 45115 O 4263.61 2.75993 -3.40234 0
M  V30 45116 C 4265.11 3.93762 -2.03633 0
M  V30 45117 H 4262.33 0.509616 -0.4365 0
M  V30 45118 H 4264.88 1.05933 -1.74924 0
M  V30 45119 H 4263.03 3.53688 -1.58062 0
M  V30 45120 H 4263.45 3.62298 -3.79263 0
M  V30 45121 H 4264.92 4.86195 -2.61377 0
M  V30 45122 H 4265.4 4.27101 -1.0238 0
M  V30 45123 H 4266 3.45332 -2.48245 0
M  V30 45124 N 4264.32 1.16013 1.06671 0
M  V30 45125 C 4265.56 0.950655 1.79817 0
M  V30 45126 C 4265.92 -0.516292 1.85343 0
M  V30 45127 O 4265.21 -1.37802 1.33121 0
M  V30 45128 C 4265.41 1.50718 3.24066 0
M  V30 45129 C 4265.24 3.02671 3.32596 0
M  V30 45130 C 4264.01 3.71279 3.42753 0
M  V30 45131 C 4266.2 4.004 3.22776 0
M  V30 45132 N 4264.19 5.10977 3.40258 0
M  V30 45133 C 4265.56 5.26458 3.27479 0
M  V30 45134 C 4267.61 3.92276 3.06634 0
M  V30 45135 C 4266.31 6.45337 3.177 0
M  V30 45136 C 4268.34 5.10721 2.98191 0
M  V30 45137 C 4267.7 6.35657 3.03513 0
M  V30 45138 H 4263.8 0.401603 0.670998 0
M  V30 45139 H 4266.39 1.47339 1.27276 0
M  V30 45140 H 4264.56 1.01098 3.75012 0
M  V30 45141 H 4266.29 1.23583 3.85369 0
M  V30 45142 H 4263.04 3.21897 3.47389 0
M  V30 45143 H 4263.47 5.8396 3.4252 0
M  V30 45144 H 4268.11 2.96542 3.01368 0
M  V30 45145 H 4265.83 7.41296 3.21723 0
M  V30 45146 H 4269.41 5.06202 2.86794 0
M  V30 45147 H 4268.29 7.25769 2.97033 0
M  V30 45148 N 4265.8 -1.25139 0.958014 0
M  V30 45149 C 4267.04 -1.92566 0.613412 0
M  V30 45150 C 4267.37 -1.75365 -0.852774 0
M  V30 45151 O 4266.64 -1.11932 -1.60773 0
M  V30 45152 H 4265.22 -0.712662 0.22388 0
M  V30 45153 H 4267.88 -1.52235 1.21699 0
M  V30 45154 H 4266.97 -3.00425 0.845647 0
M  V30 45155 N 4267.27 -0.726981 -1.39831 0
M  V30 45156 C 4268.69 -0.401719 -1.54462 0
M  V30 45157 C 4268.89 1.08831 -1.69582 0
M  V30 45158 O 4267.95 1.87442 -1.6918 0
M  V30 45159 C 4269.26 -1.17774 -2.76676 0
M  V30 45160 C 4270.81 -1.16517 -2.90505 0
M  V30 45161 C 4271.28 -1.92358 -4.15647 0
M  V30 45162 N 4272.77 -1.89483 -4.2267 0
M  V30 45163 C 4273.51 -2.44981 -5.18432 0
M  V30 45164 N 4273 -3.09081 -6.20033 0
M  V30 45165 N 4274.8 -2.35059 -5.10592 0
M  V30 45166 H 4266.95 -1.69299 -1.28263 0
M  V30 45167 H 4269.21 -0.716228 -0.621064 0
M  V30 45168 H 4268.92 -2.23175 -2.71819 0
M  V30 45169 H 4268.79 -0.776864 -3.69113 0
M  V30 45170 H 4271.18 -0.119306 -2.94859 0
M  V30 45171 H 4271.26 -1.60535 -1.99154 0
M  V30 45172 H 4270.9 -2.9694 -4.12055 0
M  V30 45173 H 4270.83 -1.45752 -5.06028 0
M  V30 45174 H 4273.32 -1.42778 -3.4989 0
M  V30 45175 H 4273.64 -3.48915 -6.89549 0
M  V30 45176 H 4271.98 -3.13169 -6.20444 0
M  V30 45177 H 4275.17 -1.84629 -4.30151 0
M  V30 45178 H 4275.35 -2.78609 -5.85048 0
M  V30 45179 N 4268.75 1.50303 -0.474008 0
M  V30 45180 C 4269.7 2.2859 0.318645 0
M  V30 45181 C 4270.67 1.33771 0.984604 0
M  V30 45182 O 4271.85 1.62711 0.99648 0
M  V30 45183 C 4268.99 3.15737 1.393 0
M  V30 45184 C 4268.11 4.25588 0.741525 0
M  V30 45185 C 4267.24 4.99988 1.79402 0
M  V30 45186 C 4266.28 6.01711 1.12295 0
M  V30 45187 N 4265.42 6.69378 2.11843 0
M  V30 45188 H 4270.26 2.95875 -0.355252 0
M  V30 45189 H 4267.8 1.45906 -0.187039 0
M  V30 45190 H 4269.75 3.64616 2.02758 0
M  V30 45191 H 4268.38 2.50492 2.03602 0
M  V30 45192 H 4267.44 3.804 -0.00569214 0
M  V30 45193 H 4268.75 4.9835 0.211944 0
M  V30 45194 H 4267.9 5.52601 2.50433 0
M  V30 45195 H 4266.64 4.2694 2.35741 0
M  V30 45196 H 4265.65 5.48356 0.398276 0
M  V30 45197 H 4266.87 6.76734 0.566414 0
M  V30 45198 H 4264.82 5.99119 2.67194 0
M  V30 45199 H 4264.73 7.38025 1.63877 0
M  V30 45200 H 4266 7.26607 2.82245 0
M  V30 45201 N 4270.23 0.20673 1.56238 0
M  V30 45202 C 4271.18 -0.709452 2.19626 0
M  V30 45203 C 4272.15 -1.20126 1.14712 0
M  V30 45204 O 4273.33 -1.26304 1.4301 0
M  V30 45205 C 4270.47 -1.91842 2.86864 0
M  V30 45206 C 4269.59 -1.46689 4.06333 0
M  V30 45207 C 4268.72 -2.63227 4.61395 0
M  V30 45208 C 4267.76 -2.14737 5.73197 0
M  V30 45209 N 4266.9 -3.24494 6.22614 0
M  V30 45210 H 4271.74 -0.162173 2.97558 0
M  V30 45211 H 4269.27 -0.0682994 1.46941 0
M  V30 45212 H 4271.23 -2.62802 3.24023 0
M  V30 45213 H 4269.86 -2.43882 2.11475 0
M  V30 45214 H 4268.91 -0.652743 3.74758 0
M  V30 45215 H 4270.23 -1.07123 4.87161 0
M  V30 45216 H 4269.38 -3.42292 5.0092 0
M  V30 45217 H 4268.12 -3.06073 3.79698 0
M  V30 45218 H 4267.12 -1.34129 5.33188 0
M  V30 45219 H 4268.35 -1.72908 6.56719 0
M  V30 45220 H 4266.29 -3.6685 5.43836 0
M  V30 45221 H 4266.21 -2.89133 6.98526 0
M  V30 45222 H 4267.48 -4.03738 6.66795 0
M  V30 45223 N 4271.71 -1.57458 -0.0667882 0
M  V30 45224 C 4272.66 -2.04033 -1.07885 0
M  V30 45225 C 4273.63 -0.921914 -1.38166 0
M  V30 45226 O 4274.81 -1.18993 -1.49149 0
M  V30 45227 C 4271.95 -2.49333 -2.38594 0
M  V30 45228 C 4271.06 -3.74814 -2.14799 0
M  V30 45229 C 4270.2 -4.08876 -3.39107 0
M  V30 45230 C 4269.24 -5.27383 -3.10699 0
M  V30 45231 N 4268.37 -5.57059 -4.27352 0
M  V30 45232 H 4273.21 -2.90262 -0.674704 0
M  V30 45233 H 4270.75 -1.43542 -0.321577 0
M  V30 45234 H 4272.71 -2.73651 -3.14914 0
M  V30 45235 H 4271.34 -1.66075 -2.76801 0
M  V30 45236 H 4270.39 -3.57806 -1.29148 0
M  V30 45237 H 4271.7 -4.6127 -1.89818 0
M  V30 45238 H 4270.86 -4.34122 -4.2382 0
M  V30 45239 H 4269.6 -3.20997 -3.67168 0
M  V30 45240 H 4268.6 -5.01929 -2.24383 0
M  V30 45241 H 4269.83 -6.16884 -2.83955 0
M  V30 45242 H 4267.77 -4.72139 -4.55434 0
M  V30 45243 H 4267.69 -6.37945 -4.05662 0
M  V30 45244 H 4268.96 -5.86859 -5.13047 0
M  V30 45245 N 4273.19 0.33829 -1.53926 0
M  V30 45246 C 4274.12 1.43644 -1.78603 0
M  V30 45247 C 4275.13 1.48487 -0.667491 0
M  V30 45248 O 4276.32 1.51475 -0.944325 0
M  V30 45249 C 4273.42 2.82271 -1.87553 0
M  V30 45250 C 4272.59 3.00806 -3.17545 0
M  V30 45251 C 4271.65 4.19706 -3.17385 0
M  V30 45252 O 4270.68 4.13571 -3.91086 0
M  V30 45253 N 4271.88 5.28508 -2.40125 0
M  V30 45254 H 4274.65 1.22844 -2.73367 0
M  V30 45255 H 4272.21 0.5282 -1.53041 0
M  V30 45256 H 4274.2 3.59996 -1.84891 0
M  V30 45257 H 4272.77 2.9619 -0.999527 0
M  V30 45258 H 4271.99 2.10506 -3.33288 0
M  V30 45259 H 4273.28 3.10075 -4.03399 0
M  V30 45260 H 4272.68 5.36363 -1.79808 0
M  V30 45261 H 4271.23 6.04707 -2.43255 0
M  V30 45262 N 4274.67 1.45749 0.599583 0
M  V30 45263 C 4275.58 1.57584 1.73794 0
M  V30 45264 C 4276.59 0.459949 1.67811 0
M  V30 45265 O 4277.77 0.721751 1.88023 0
M  V30 45266 C 4274.83 1.54699 3.10273 0
M  V30 45267 C 4273.89 2.77389 3.27649 0
M  V30 45268 C 4273.13 2.74631 4.57617 0
M  V30 45269 O 4273.35 1.82414 5.40446 0
M  V30 45270 O 4272.28 3.65945 4.77878 0
M  V30 45271 H 4276.11 2.53821 1.66759 0
M  V30 45272 H 4273.69 1.2835 0.764629 0
M  V30 45273 H 4275.58 1.55726 3.9157 0
M  V30 45274 H 4274.25 0.616161 3.17782 0
M  V30 45275 H 4273.16 2.81921 2.45909 0
M  V30 45276 H 4274.49 3.69624 3.25022 0
M  V30 45277 N 4276.14 -0.84278 1.33173 0
M  V30 45278 C 4277.07 -1.96763 1.25724 0
M  V30 45279 C 4278.05 -1.69534 0.138604 0
M  V30 45280 O 4279.24 -1.91415 0.327737 0
M  V30 45281 C 4276.37 -3.3284 0.991695 0
M  V30 45282 C 4275.32 -3.74456 2.07285 0
M  V30 45283 C 4274.65 -5.08296 1.65951 0
M  V30 45284 C 4275.95 -3.88656 3.48918 0
M  V30 45285 H 4277.64 -2.03254 2.19837 0
M  V30 45286 H 4275.19 -0.976514 1.05831 0
M  V30 45287 H 4277.14 -4.11098 0.926093 0
M  V30 45288 H 4275.87 -3.26597 0.0149397 0
M  V30 45289 H 4274.53 -2.98458 2.1288 0
M  V30 45290 H 4274.17 -4.98519 0.669883 0
M  V30 45291 H 4273.87 -5.37111 2.38298 0
M  V30 45292 H 4275.4 -5.89033 1.60849 0
M  V30 45293 H 4276.81 -4.57235 3.45845 0
M  V30 45294 H 4275.21 -4.28903 4.19717 0
M  V30 45295 H 4276.28 -2.9122 3.8771 0
M  V30 45296 N 4277.62 -1.16577 -1.06054 0
M  V30 45297 C 4278.53 -0.88895 -2.17106 0
M  V30 45298 C 4279.55 0.139692 -1.73438 0
M  V30 45299 O 4280.72 -0.0375199 -2.01365 0
M  V30 45300 C 4277.79 -0.396555 -3.44425 0
M  V30 45301 C 4276.85 -1.49072 -4.02587 0
M  V30 45302 C 4276.08 -1.02172 -5.23829 0
M  V30 45303 O 4276.31 0.127584 -5.70257 0
M  V30 45304 O 4275.24 -1.81108 -5.74006 0
M  V30 45305 H 4279.07 -1.81765 -2.433 0
M  V30 45306 H 4276.65 -0.945943 -1.15639 0
M  V30 45307 H 4278.53 -0.129057 -4.21202 0
M  V30 45308 H 4277.21 0.504107 -3.19751 0
M  V30 45309 H 4276.11 -1.81199 -3.27289 0
M  V30 45310 H 4277.45 -2.36677 -4.31561 0
M  V30 45311 N 4279.1 1.2463 -0.964637 0
M  V30 45312 C 4280.06 2.23741 -0.497245 0
M  V30 45313 C 4281.06 1.55628 0.404542 0
M  V30 45314 O 4282.25 1.73043 0.20043 0
M  V30 45315 C 4279.38 3.39746 0.280288 0
M  V30 45316 H 4280.58 2.66605 -1.37339 0
M  V30 45317 H 4278.13 1.3719 -0.748913 0
M  V30 45318 H 4278.87 3.02317 1.17367 0
M  V30 45319 H 4278.65 3.9038 -0.366809 0
M  V30 45320 H 4280.14 4.13319 0.596429 0
M  V30 45321 N 4280.58 0.734386 1.39444 0
M  V30 45322 C 4281.52 0.0940095 2.30608 0
M  V30 45323 C 4282.49 -0.73033 1.49182 0
M  V30 45324 O 4283.68 -0.690419 1.7787 0
M  V30 45325 C 4280.82 -0.807758 3.35513 0
M  V30 45326 C 4279.93 0.0291308 4.3199 0
M  V30 45327 C 4279.07 -0.873853 5.23963 0
M  V30 45328 C 4278.11 -0.0321761 6.12092 0
M  V30 45329 N 4277.24 -0.89106 6.96423 0
M  V30 45330 H 4282.08 0.877072 2.84801 0
M  V30 45331 H 4279.62 0.444177 1.40234 0
M  V30 45332 H 4281.58 -1.34502 3.94924 0
M  V30 45333 H 4280.21 -1.5568 2.82778 0
M  V30 45334 H 4279.26 0.68381 3.74203 0
M  V30 45335 H 4280.57 0.679952 4.94144 0
M  V30 45336 H 4279.73 -1.47898 5.88397 0
M  V30 45337 H 4278.47 -1.55846 4.62129 0
M  V30 45338 H 4277.47 0.585761 5.46671 0
M  V30 45339 H 4278.7 0.6492 6.7599 0
M  V30 45340 H 4276.64 -1.56096 6.37158 0
M  V30 45341 H 4276.56 -0.296704 7.55418 0
M  V30 45342 H 4277.83 -1.48177 7.65287 0
M  V30 45343 N 4282.06 -1.50049 0.481972 0
M  V30 45344 C 4283.3 -2.01982 -0.0691055 0
M  V30 45345 C 4283.62 -1.36528 -1.39231 0
M  V30 45346 O 4282.89 -0.514207 -1.89031 0
M  V30 45347 H 4281.47 -0.746455 -0.0285287 0
M  V30 45348 H 4284.14 -1.8427 0.634877 0
M  V30 45349 H 4283.23 -3.11374 -0.212688 0
M  V30 45350 N 4283.53 -0.215012 -1.56126 0
M  V30 45351 C 4284.78 0.417628 -1.97738 0
M  V30 45352 C 4285.1 1.60758 -1.10371 0
M  V30 45353 O 4284.37 1.95078 -0.179296 0
M  V30 45354 H 4282.95 0.157286 -0.730254 0
M  V30 45355 H 4285.61 -0.306385 -1.92477 0
M  V30 45356 H 4284.71 0.748368 -3.02995 0
M  V30 45357 N 4285.01 1.57492 0.0584368 0
M  V30 45358 C 4286.26 1.87526 0.753547 0
M  V30 45359 C 4286.58 0.808834 1.77434 0
M  V30 45360 O 4285.85 -0.161027 1.95237 0
M  V30 45361 H 4284.43 0.692013 0.281296 0
M  V30 45362 H 4287.09 1.94875 0.0313536 0
M  V30 45363 H 4286.19 2.85471 1.26146 0
M  V30 45364 N 4286.49 -0.330122 1.54104 0
M  V30 45365 C 4287.72 -1.08854 1.7595 0
M  V30 45366 C 4288.13 -1.81921 0.504981 0
M  V30 45367 O 4287.49 -1.74815 -0.524022 0
M  V30 45368 C 4287.54 -2.0917 2.94839 0
M  V30 45369 O 4287.26 -1.39072 4.1544 0
M  V30 45370 C 4288.76 -2.97282 3.28844 0
M  V30 45371 H 4285.98 -0.324066 0.587556 0
M  V30 45372 H 4288.53 -0.378244 2.00972 0
M  V30 45373 H 4286.68 -2.75744 2.7211 0
M  V30 45374 H 4287.1 -2.06196 4.82269 0
M  V30 45375 H 4288.57 -3.63578 4.15349 0
M  V30 45376 H 4289.05 -3.64027 2.45726 0
M  V30 45377 H 4289.65 -2.36278 3.53628 0
M  V30 45378 N 4287.97 -1.46065 -0.591845 0
M  V30 45379 C 4288.92 -1.52355 -1.69623 0
M  V30 45380 C 4289.9 -0.385309 -1.56218 0
M  V30 45381 O 4291.09 -0.633158 -1.65288 0
M  V30 45382 C 4288.22 -1.50812 -3.084 0
M  V30 45383 C 4287.31 -2.69897 -3.27134 0
M  V30 45384 N 4287.7 -3.94889 -3.16063 0
M  V30 45385 C 4286 -2.65927 -3.58048 0
M  V30 45386 C 4286.7 -4.74453 -3.36555 0
M  V30 45387 N 4285.68 -4.06172 -3.61283 0
M  V30 45388 H 4289.48 -2.46802 -1.5958 0
M  V30 45389 H 4286.99 -1.41577 -0.795598 0
M  V30 45390 H 4288.99 -1.53405 -3.8765 0
M  V30 45391 H 4287.65 -0.574348 -3.1958 0
M  V30 45392 H 4288.66 -4.26276 -2.94125 0
M  V30 45393 H 4285.34 -1.81531 -3.75969 0
M  V30 45394 H 4286.73 -5.8343 -3.33256 0
M  V30 45395 N 4289.45 0.835705 -1.33618 0
M  V30 45396 C 4290.86 1.40746 -1.22668 0
M  V30 45397 C 4291.21 1.95602 0.15312 0
M  V30 45398 O 4290.33 1.8906 1.05287 0
M  V30 45399 C 4290.93 2.55853 -2.22092 0
M  V30 45400 C 4289.49 3.08972 -2.14972 0
M  V30 45401 C 4288.63 1.81786 -2.09402 0
M  V30 45402 H 4291.59 0.641196 -1.4517 0
M  V30 45403 H 4291.61 3.33577 -1.83048 0
M  V30 45404 H 4291.12 2.15898 -3.22506 0
M  V30 45405 H 4289.22 3.53464 -1.17871 0
M  V30 45406 H 4289.33 3.68931 -3.05658 0
M  V30 45407 H 4287.7 2.02163 -1.54926 0
M  V30 45408 H 4288.48 1.44022 -3.11629 0
M  V30 45409 N 4290.92 1.17138 1.05434 0
M  V30 45410 C 4291.85 0.90915 2.15074 0
M  V30 45411 C 4292.84 -0.147912 1.69456 0
M  V30 45412 O 4294.02 0.00181366 1.942 0
M  V30 45413 C 4291.15 0.41898 3.44763 0
M  V30 45414 C 4290.1 1.41495 4.03935 0
M  V30 45415 C 4289.43 0.782832 5.28938 0
M  V30 45416 C 4290.73 2.78736 4.41705 0
M  V30 45417 H 4292.42 1.82604 2.37268 0
M  V30 45418 H 4289.97 0.879396 1.14029 0
M  V30 45419 H 4291.92 0.222959 4.2081 0
M  V30 45420 H 4290.65 -0.533439 3.22214 0
M  V30 45421 H 4289.31 1.59767 3.29955 0
M  V30 45422 H 4288.95 -0.176346 5.02691 0
M  V30 45423 H 4288.65 1.44768 5.69488 0
M  V30 45424 H 4290.18 0.597029 6.07674 0
M  V30 45425 H 4291.59 2.64196 5.08796 0
M  V30 45426 H 4289.99 3.41775 4.93265 0
M  V30 45427 H 4291.06 3.33331 3.52162 0
M  V30 45428 N 4292.4 -1.24116 0.971232 0
M  V30 45429 C 4293.33 -2.27563 0.523207 0
M  V30 45430 C 4294.31 -1.64339 -0.438954 0
M  V30 45431 O 4295.5 -1.91301 -0.334311 0
M  V30 45432 C 4292.63 -3.46812 -0.184017 0
M  V30 45433 C 4291.58 -4.22327 0.694514 0
M  V30 45434 C 4290.91 -5.34505 -0.144404 0
M  V30 45435 C 4292.21 -4.8328 1.98085 0
M  V30 45436 H 4293.9 -2.65291 1.38785 0
M  V30 45437 H 4291.45 -1.27528 0.668778 0
M  V30 45438 H 4293.4 -4.18318 -0.508692 0
M  V30 45439 H 4292.13 -3.0812 -1.08304 0
M  V30 45440 H 4290.78 -3.52626 1.00251 0
M  V30 45441 H 4290.43 -4.92053 -1.04368 0
M  V30 45442 H 4290.13 -5.85949 0.44023 0
M  V30 45443 H 4291.66 -6.08837 -0.463669 0
M  V30 45444 H 4293.07 -5.46842 1.72153 0
M  V30 45445 H 4291.47 -5.44971 2.51249 0
M  V30 45446 H 4292.54 -4.04537 2.67353 0
M  V30 45447 N 4293.88 -0.741771 -1.39052 0
M  V30 45448 C 4295.13 -0.293124 -2.0067 0
M  V30 45449 C 4295.46 1.11879 -1.58735 0
M  V30 45450 O 4294.73 1.76399 -0.819366 0
M  V30 45451 C 4295.02 -0.402636 -3.57842 0
M  V30 45452 C 4294.87 -1.85481 -4.09777 0
M  V30 45453 C 4296.19 0.210962 -4.39594 0
M  V30 45454 H 4293.31 -0.107983 -0.729046 0
M  V30 45455 H 4295.95 -0.939198 -1.65164 0
M  V30 45456 H 4294.1 0.147414 -3.8822 0
M  V30 45457 H 4295.77 -2.46226 -3.9009 0
M  V30 45458 H 4294.02 -2.37387 -3.63084 0
M  V30 45459 H 4294.69 -1.88266 -5.18902 0
M  V30 45460 H 4297.16 -0.25801 -4.15299 0
M  V30 45461 H 4296.04 0.104029 -5.48801 0
M  V30 45462 H 4296.3 1.29785 -4.22621 0
M  V30 45463 N 4295.36 1.49792 -0.489923 0
M  V30 45464 C 4296.77 1.86658 -0.0393962 0
M  V30 45465 C 4297.12 1.40321 1.3713 0
M  V30 45466 O 4296.25 0.776276 2.01997 0
M  V30 45467 C 4296.84 3.38738 -0.0647167 0
M  V30 45468 C 4295.4 3.74947 0.330419 0
M  V30 45469 C 4294.55 2.73754 -0.442071 0
M  V30 45470 H 4297.5 1.42267 -0.70327 0
M  V30 45471 H 4297.52 3.7337 0.733164 0
M  V30 45472 H 4297.03 3.72433 -1.09156 0
M  V30 45473 H 4295.13 3.46857 1.36091 0
M  V30 45474 H 4295.24 4.79096 0.018671 0
M  V30 45475 H 4293.61 2.54476 0.106681 0
M  V30 45476 H 4294.39 3.10293 -1.46878 0
M  V30 45477 N 4296.84 0.223289 1.5601 0
M  V30 45478 C 4298.07 -0.412153 2.02447 0
M  V30 45479 C 4298.47 -1.53771 1.10233 0
M  V30 45480 O 4297.82 -1.83402 0.104571 0
M  V30 45481 C 4297.88 -1.00331 3.45216 0
M  V30 45482 C 4297.54 -0.0129823 4.56998 0
M  V30 45483 C 4298.54 0.788027 5.13893 0
M  V30 45484 C 4296.23 0.106275 5.02188 0
M  V30 45485 C 4298.22 1.69498 6.1445 0
M  V30 45486 C 4295.91 1.01676 6.02582 0
M  V30 45487 C 4296.9 1.80966 6.5859 0
M  V30 45488 O 4296.59 2.70483 7.5703 0
M  V30 45489 H 4296.32 -0.104922 0.667808 0
M  V30 45490 H 4298.88 0.337697 2.02605 0
M  V30 45491 H 4297.11 -1.80228 3.42133 0
M  V30 45492 H 4298.8 -1.54634 3.75291 0
M  V30 45493 H 4299.56 0.706351 4.79829 0
M  V30 45494 H 4295.44 -0.500766 4.58272 0
M  V30 45495 H 4298.99 2.3143 6.58093 0
M  V30 45496 H 4294.88 1.09945 6.36068 0
M  V30 45497 H 4295.65 2.64578 7.74558 0
M  V30 45498 N 4298.31 -1.5752 -0.0500839 0
M  V30 45499 C 4299.59 -1.79406 -0.779293 0
M  V30 45500 C 4299.97 -0.816248 -1.94681 0
M  V30 45501 O 4299.32 0.146113 -2.28032 0
M  V30 45502 C 4299.53 -3.26531 -1.232 0
M  V30 45503 C 4300.88 -3.90953 -1.65654 0
M  V30 45504 O 4301.9 -3.30554 -1.32712 0
M  V30 45505 O 4300.76 -4.97253 -2.26719 0
M  V30 45506 H 4297.85 -0.737033 -0.375115 0
M  V30 45507 H 4300.4 -1.69676 -0.0284819 0
M  V30 45508 H 4299.17 -3.89275 -0.397595 0
M  V30 45509 H 4298.8 -3.41069 -2.04347 0
M  V30 45510 N 4299.79 0.321945 -1.54277 0
M  V30 45511 C 4301.02 1.0792 -1.76525 0
M  V30 45512 C 4301.44 1.81651 -0.514621 0
M  V30 45513 O 4300.79 1.7509 0.514744 0
M  V30 45514 C 4300.84 2.07603 -2.95944 0
M  V30 45515 O 4300.56 1.36866 -4.16172 0
M  V30 45516 C 4302.07 2.95533 -3.30416 0
M  V30 45517 H 4299.29 0.320945 -0.589267 0
M  V30 45518 H 4301.83 0.36758 -2.01169 0
M  V30 45519 H 4299.98 2.74297 -2.73569 0
M  V30 45520 H 4300.4 2.03635 -4.83356 0
M  V30 45521 H 4301.87 3.6137 -4.17271 0
M  V30 45522 H 4302.35 3.62718 -2.47653 0
M  V30 45523 H 4302.96 2.34399 -3.54876 0
M  V30 45524 N 4301.27 1.46377 0.58409 0
M  V30 45525 C 4302.2 1.59696 1.70351 0
M  V30 45526 C 4303.18 0.447353 1.64112 0
M  V30 45527 O 4304.37 0.673426 1.8215 0
M  V30 45528 C 4301.5 1.58563 3.0899 0
M  V30 45529 C 4300.45 2.72479 3.30059 0
M  V30 45530 C 4299.78 2.56407 4.69211 0
M  V30 45531 C 4301.08 4.14313 3.18028 0
M  V30 45532 H 4302.77 2.53402 1.59461 0
M  V30 45533 H 4300.32 1.21953 0.765728 0
M  V30 45534 H 4302.27 1.66475 3.87123 0
M  V30 45535 H 4300.99 0.614005 3.20776 0
M  V30 45536 H 4299.65 2.64034 2.54326 0
M  V30 45537 H 4299.3 1.57331 4.77761 0
M  V30 45538 H 4299 3.32813 4.84261 0
M  V30 45539 H 4300.52 2.66208 5.49514 0
M  V30 45540 H 4301.94 4.23877 3.86007 0
M  V30 45541 H 4300.34 4.91295 3.446 0
M  V30 45542 H 4301.41 4.34566 2.15128 0
M  V30 45543 N 4302.75 -0.828607 1.34059 0
M  V30 45544 C 4303.98 -1.61634 1.29159 0
M  V30 45545 C 4304.39 -1.88313 -0.135478 0
M  V30 45546 O 4303.75 -1.47053 -1.08081 0
M  V30 45547 C 4303.8 -2.96058 2.07441 0
M  V30 45548 O 4303.52 -2.70546 3.44582 0
M  V30 45549 C 4305.02 -3.90473 2.09872 0
M  V30 45550 H 4302.24 -0.502607 0.444552 0
M  V30 45551 H 4304.79 -1.03137 1.76587 0
M  V30 45552 H 4302.94 -3.51128 1.63669 0
M  V30 45553 H 4303.36 -3.56219 3.84979 0
M  V30 45554 H 4304.83 -4.81976 2.69079 0
M  V30 45555 H 4305.31 -4.25418 1.09162 0
M  V30 45556 H 4305.91 -3.41339 2.53708 0
M  V30 45557 N 4304.23 -1.17696 -1.04812 0
M  V30 45558 C 4305.19 -0.899376 -2.10817 0
M  V30 45559 C 4306.19 0.112088 -1.60409 0
M  V30 45560 O 4307.38 -0.120515 -1.73783 0
M  V30 45561 C 4304.51 -0.34792 -3.3912 0
M  V30 45562 H 4305.71 -1.8393 -2.36875 0
M  V30 45563 H 4303.26 -0.987944 -1.21117 0
M  V30 45564 H 4303.99 0.59897 -3.18721 0
M  V30 45565 H 4303.78 -1.07695 -3.7702 0
M  V30 45566 H 4305.27 -0.172158 -4.17245 0
M  V30 45567 N 4305.71 1.23599 -0.977801 0
M  V30 45568 C 4306.65 2.24967 -0.51559 0
M  V30 45569 C 4307.62 1.60051 0.444172 0
M  V30 45570 O 4308.81 1.87519 0.352295 0
M  V30 45571 C 4305.95 3.44639 0.17836 0
M  V30 45572 C 4305.06 4.2412 -0.821357 0
M  V30 45573 C 4304.2 5.31101 -0.102481 0
M  V30 45574 C 4303.23 6.02288 -1.09159 0
M  V30 45575 N 4302.37 7.00948 -0.402038 0
M  V30 45576 H 4307.21 2.6387 -1.3848 0
M  V30 45577 H 4304.75 1.29702 -0.693969 0
M  V30 45578 H 4306.71 4.12899 0.597482 0
M  V30 45579 H 4305.34 3.06544 1.01146 0
M  V30 45580 H 4304.39 3.55301 -1.35888 0
M  V30 45581 H 4305.7 4.73275 -1.57518 0
M  V30 45582 H 4304.85 6.05545 0.374136 0
M  V30 45583 H 4303.59 4.8288 0.683963 0
M  V30 45584 H 4302.6 5.26639 -1.57898 0
M  V30 45585 H 4303.82 6.52598 -1.87865 0
M  V30 45586 H 4301.77 6.54982 0.365246 0
M  V30 45587 H 4301.69 7.48034 -1.09456 0
M  V30 45588 H 4302.95 7.79482 0.0522767 0
M  V30 45589 N 4307.18 0.749135 1.38657 0
M  V30 45590 C 4308.09 0.120414 2.34291 0
M  V30 45591 C 4309.11 -0.705768 1.59044 0
M  V30 45592 O 4310.29 -0.630956 1.91261 0
M  V30 45593 C 4307.35 -0.765566 3.38142 0
M  V30 45594 C 4306.41 0.0744791 4.29235 0
M  V30 45595 C 4305.64 -0.769309 5.28126 0
M  V30 45596 O 4305.87 -2.0075 5.33906 0
M  V30 45597 O 4304.8 -0.190471 6.01599 0
M  V30 45598 H 4308.63 0.910107 2.89743 0
M  V30 45599 H 4306.21 0.509973 1.40427 0
M  V30 45600 H 4308.09 -1.27207 4.01742 0
M  V30 45601 H 4306.77 -1.53383 2.85053 0
M  V30 45602 H 4305.68 0.626826 3.68811 0
M  V30 45603 H 4307.01 0.805293 4.85568 0
M  V30 45604 N 4308.66 -1.4953 0.49786 0
M  V30 45605 C 4309.61 -2.29068 -0.282238 0
M  V30 45606 C 4310.58 -1.35321 -0.963198 0
M  V30 45607 O 4311.76 -1.64276 -0.970468 0
M  V30 45608 C 4308.9 -3.17913 -1.34259 0
M  V30 45609 C 4308.02 -4.26714 -0.673724 0
M  V30 45610 C 4307.15 -5.02779 -1.71425 0
M  V30 45611 C 4306.19 -6.03421 -1.02708 0
M  V30 45612 N 4305.33 -6.72664 -2.01167 0
M  V30 45613 H 4310.17 -2.95272 0.402278 0
M  V30 45614 H 4307.7 -1.4559 0.210228 0
M  V30 45615 H 4309.66 -3.67796 -1.96932 0
M  V30 45616 H 4308.29 -2.53699 -1.99591 0
M  V30 45617 H 4307.34 -3.80342 0.0662097 0
M  V30 45618 H 4308.66 -4.98624 -0.132634 0
M  V30 45619 H 4307.81 -5.56515 -2.4161 0
M  V30 45620 H 4306.55 -4.30636 -2.28919 0
M  V30 45621 H 4305.55 -5.4892 -0.310987 0
M  V30 45622 H 4306.78 -6.77549 -0.45868 0
M  V30 45623 H 4304.73 -6.03294 -2.57628 0
M  V30 45624 H 4304.64 -7.40538 -1.52115 0
M  V30 45625 H 4305.91 -7.31005 -2.7065 0
M  V30 45626 N 4310.14 -0.23156 -1.5589 0
M  V30 45627 C 4311.1 0.660974 -2.19462 0
M  V30 45628 C 4312.1 1.11422 -1.15938 0
M  V30 45629 O 4313.29 1.02141 -1.41113 0
M  V30 45630 C 4310.42 1.90664 -2.82595 0
M  V30 45631 H 4311.62 0.106555 -2.99711 0
M  V30 45632 H 4309.17 0.0180327 -1.5629 0
M  V30 45633 H 4309.91 2.50268 -2.06244 0
M  V30 45634 H 4309.69 1.59001 -3.58415 0
M  V30 45635 H 4311.18 2.54232 -3.31294 0
M  V30 45636 N 4311.62 1.57545 0.0417295 0
M  V30 45637 C 4313.03 1.5458 0.397147 0
M  V30 45638 C 4313.23 0.955974 1.77379 0
M  V30 45639 O 4312.29 0.5715 2.45947 0
M  V30 45640 C 4313.6 2.99091 0.310613 0
M  V30 45641 C 4315.15 3.10578 0.388621 0
M  V30 45642 C 4315.63 4.56797 0.331673 0
M  V30 45643 N 4317.12 4.61548 0.390852 0
M  V30 45644 C 4317.85 5.72208 0.369479 0
M  V30 45645 N 4317.35 6.92145 0.301143 0
M  V30 45646 N 4319.14 5.60542 0.418272 0
M  V30 45647 H 4311.29 1.9424 -0.859327 0
M  V30 45648 H 4313.55 0.890357 -0.325529 0
M  V30 45649 H 4313.26 3.45922 -0.634902 0
M  V30 45650 H 4313.13 3.60522 1.10923 0
M  V30 45651 H 4315.52 2.63703 1.32456 0
M  V30 45652 H 4315.6 2.52003 -0.439117 0
M  V30 45653 H 4315.25 5.04337 -0.600549 0
M  V30 45654 H 4315.18 5.1327 1.17735 0
M  V30 45655 H 4317.67 3.75251 0.446694 0
M  V30 45656 H 4317.98 7.72257 0.289587 0
M  V30 45657 H 4316.33 6.94485 0.267378 0
M  V30 45658 H 4319.52 4.65739 0.469561 0
M  V30 45659 H 4319.69 6.46776 0.398147 0
M  V30 45660 N 4313.1 -0.313759 1.54445 0
M  V30 45661 C 4314.37 -1.06936 1.63781 0
M  V30 45662 C 4314.75 -2.05619 0.477913 0
M  V30 45663 O 4314.1 -2.22345 -0.526775 0
M  V30 45664 C 4314.31 -1.76258 3.01221 0
M  V30 45665 C 4315.66 -2.28922 3.57603 0
M  V30 45666 O 4316.68 -1.8631 3.0359 0
M  V30 45667 O 4315.54 -3.06963 4.52146 0
M  V30 45668 H 4312.64 -0.493499 0.663617 0
M  V30 45669 H 4315.18 -0.312866 1.66791 0
M  V30 45670 H 4313.95 -1.04532 3.77079 0
M  V30 45671 H 4313.58 -2.58694 3.01933 0
M  V30 45672 N 4314.57 -1.46684 -0.576319 0
M  V30 45673 C 4315.99 -1.3178 -0.900337 0
M  V30 45674 C 4316.19 -0.293999 -1.99344 0
M  V30 45675 O 4315.25 0.301201 -2.50697 0
M  V30 45676 C 4316.56 -2.70585 -1.31165 0
M  V30 45677 C 4318.11 -2.78724 -1.42414 0
M  V30 45678 C 4318.58 -4.18126 -1.86908 0
M  V30 45679 N 4320.07 -4.20574 -1.94091 0
M  V30 45680 C 4320.81 -5.25334 -2.29808 0
M  V30 45681 N 4320.3 -6.40416 -2.64271 0
M  V30 45682 N 4322.1 -5.12703 -2.30417 0
M  V30 45683 H 4314.25 -2.119 0.145659 0
M  V30 45684 H 4316.51 -0.947997 0.00249463 0
M  V30 45685 H 4316.22 -3.46844 -0.582423 0
M  V30 45686 H 4316.09 -3.0111 -2.27184 0
M  V30 45687 H 4318.48 -2.0275 -2.14421 0
M  V30 45688 H 4318.56 -2.51877 -0.446297 0
M  V30 45689 H 4318.2 -4.94598 -1.15477 0
M  V30 45690 H 4318.13 -4.42385 -2.85662 0
M  V30 45691 H 4320.62 -3.37543 -1.69921 0
M  V30 45692 H 4320.94 -7.16123 -2.90496 0
M  V30 45693 H 4319.28 -6.43767 -2.61895 0
M  V30 45694 H 4322.47 -4.21831 -2.02919 0
M  V30 45695 H 4322.65 -5.94457 -2.57924 0
M  V30 45696 N 4316.05 0.821486 -1.34497 0
M  V30 45697 C 4316.96 1.96429 -1.28269 0
M  V30 45698 C 4317.98 1.72958 -0.190122 0
M  V30 45699 O 4319.15 1.97039 -0.416852 0
M  V30 45700 C 4316.22 3.30752 -1.03941 0
M  V30 45701 C 4315.28 3.67221 -2.22367 0
M  V30 45702 C 4314.51 4.95135 -1.99191 0
M  V30 45703 O 4314.74 5.62419 -0.950869 0
M  V30 45704 O 4313.67 5.29515 -2.86178 0
M  V30 45705 H 4317.5 2.04627 -2.24414 0
M  V30 45706 H 4315.08 0.957094 -1.14717 0
M  V30 45707 H 4316.96 4.11199 -0.92161 0
M  V30 45708 H 4315.64 3.23519 -0.108368 0
M  V30 45709 H 4314.54 2.87213 -2.39707 0
M  V30 45710 H 4315.88 3.79142 -3.13867 0
M  V30 45711 N 4317.53 1.1825 1.04186 0
M  V30 45712 C 4318.48 0.90842 2.12171 0
M  V30 45713 C 4319.45 -0.151703 1.65406 0
M  V30 45714 O 4320.63 -0.0123247 1.90796 0
M  V30 45715 C 4317.77 0.43895 3.42297 0
M  V30 45716 C 4316.89 1.56436 4.02681 0
M  V30 45717 C 4316.02 1.04773 5.20765 0
M  V30 45718 C 4315.06 2.14791 5.73177 0
M  V30 45719 N 4314.2 1.64531 6.8255 0
M  V30 45720 H 4319.04 1.83306 2.34953 0
M  V30 45721 H 4316.57 0.914093 1.15251 0
M  V30 45722 H 4318.53 0.148244 4.16937 0
M  V30 45723 H 4317.16 -0.448718 3.19666 0
M  V30 45724 H 4316.21 1.97057 3.25381 0
M  V30 45725 H 4317.53 2.39374 4.37609 0
M  V30 45726 H 4316.68 0.711477 6.02514 0
M  V30 45727 H 4315.42 0.187915 4.87338 0
M  V30 45728 H 4314.42 2.49262 4.9005 0
M  V30 45729 H 4315.65 3.01205 6.08648 0
M  V30 45730 H 4313.59 0.808365 6.51 0
M  V30 45731 H 4313.51 2.41068 7.16535 0
M  V30 45732 H 4314.78 1.33829 7.67926 0
M  V30 45733 N 4319.01 -1.23079 0.984342 0
M  V30 45734 C 4319.97 -2.22922 0.532777 0
M  V30 45735 C 4320.97 -1.56252 -0.379731 0
M  V30 45736 O 4322.16 -1.7334 -0.172875 0
M  V30 45737 C 4319.29 -3.40149 -0.226202 0
M  V30 45738 H 4320.49 -2.64386 1.41563 0
M  V30 45739 H 4318.04 -1.35981 0.770644 0
M  V30 45740 H 4318.77 -3.04146 -1.12542 0
M  V30 45741 H 4318.56 -3.89748 0.428869 0
M  V30 45742 H 4320.05 -4.14215 -0.530598 0
M  V30 45743 N 4320.49 -0.756478 -1.38258 0
M  V30 45744 C 4321.42 -0.0908611 -2.2902 0
M  V30 45745 C 4322.43 0.680658 -1.47888 0
M  V30 45746 O 4323.62 0.521271 -1.70719 0
M  V30 45747 C 4320.72 0.895284 -3.26861 0
M  V30 45748 C 4319.89 0.1808 -4.37026 0
M  V30 45749 C 4318.95 1.07811 -5.15037 0
M  V30 45750 O 4317.98 0.547558 -5.6656 0
M  V30 45751 N 4319.18 2.40593 -5.28295 0
M  V30 45752 H 4321.95 -0.870353 -2.86784 0
M  V30 45753 H 4319.51 -0.60751 -1.5007 0
M  V30 45754 H 4321.5 1.49866 -3.75929 0
M  V30 45755 H 4320.07 1.57584 -2.69974 0
M  V30 45756 H 4319.29 -0.60332 -3.89556 0
M  V30 45757 H 4320.58 -0.313492 -5.07833 0
M  V30 45758 H 4319.97 2.8615 -4.87991 0
M  V30 45759 H 4318.53 2.95974 -5.80726 0
M  V30 45760 N 4321.96 1.49264 -0.505783 0
M  V30 45761 C 4322.87 2.32988 0.274533 0
M  V30 45762 C 4323.89 1.44942 0.962698 0
M  V30 45763 O 4325.07 1.77958 0.943022 0
M  V30 45764 C 4322.13 3.20496 1.32225 0
M  V30 45765 C 4321.19 4.24396 0.647016 0
M  V30 45766 C 4320.43 5.07722 1.64481 0
M  V30 45767 O 4320.65 4.92637 2.87515 0
M  V30 45768 O 4319.58 5.89867 1.1975 0
M  V30 45769 H 4323.41 3.00908 -0.410886 0
M  V30 45770 H 4320.99 1.46994 -0.267043 0
M  V30 45771 H 4322.88 3.74692 1.92831 0
M  V30 45772 H 4321.55 2.55265 1.99051 0
M  V30 45773 H 4320.46 3.741 0.00108702 0
M  V30 45774 H 4321.79 4.92195 0.0211181 0
M  V30 45775 N 4323.44 0.239823 1.55765 0
M  V30 45776 C 4324.37 -0.657028 2.24066 0
M  V30 45777 C 4325.35 -1.18685 1.21852 0
M  V30 45778 O 4326.54 -1.2275 1.50486 0
M  V30 45779 C 4323.67 -1.85725 2.93468 0
M  V30 45780 C 4322.62 -1.4605 4.0231 0
M  V30 45781 C 4321.95 -2.74098 4.59102 0
M  V30 45782 C 4323.25 -0.636841 5.18403 0
M  V30 45783 H 4324.94 -0.0875149 2.99272 0
M  V30 45784 H 4322.49 -0.0406519 1.43943 0
M  V30 45785 H 4324.44 -2.49026 3.39947 0
M  V30 45786 H 4323.17 -2.45203 2.15738 0
M  V30 45787 H 4321.82 -0.850872 3.56589 0
M  V30 45788 H 4321.47 -3.31759 3.78081 0
M  V30 45789 H 4321.17 -2.48278 5.32571 0
M  V30 45790 H 4322.7 -3.38309 5.0831 0
M  V30 45791 H 4324.11 -1.17398 5.61151 0
M  V30 45792 H 4322.51 -0.474987 5.98217 0
M  V30 45793 H 4323.58 0.35253 4.83617 0
M  V30 45794 N 4324.92 -1.57565 -0.0333739 0
M  V30 45795 C 4325.85 -2.09313 -1.0349 0
M  V30 45796 C 4326.83 -0.994724 -1.37983 0
M  V30 45797 O 4328.02 -1.26971 -1.46942 0
M  V30 45798 C 4325.15 -2.56896 -2.33712 0
M  V30 45799 C 4324.1 -3.70963 -2.13473 0
M  V30 45800 C 4323.43 -4.04736 -3.49418 0
M  V30 45801 C 4324.73 -4.99559 -1.52442 0
M  V30 45802 H 4326.42 -2.93241 -0.604138 0
M  V30 45803 H 4323.97 -1.41067 -0.289157 0
M  V30 45804 H 4325.92 -2.91719 -3.04102 0
M  V30 45805 H 4324.64 -1.70046 -2.7884 0
M  V30 45806 H 4323.3 -3.36482 -1.45517 0
M  V30 45807 H 4322.95 -3.14958 -3.92186 0
M  V30 45808 H 4322.65 -4.81565 -3.36703 0
M  V30 45809 H 4324.17 -4.42089 -4.21176 0
M  V30 45810 H 4325.59 -5.32366 -2.12743 0
M  V30 45811 H 4323.99 -5.8097 -1.50314 0
M  V30 45812 H 4325.06 -4.8242 -0.489775 0
M  V30 45813 N 4326.4 0.305564 -1.54609 0
M  V30 45814 C 4327.35 1.3767 -1.85245 0
M  V30 45815 C 4328.32 1.50584 -0.700979 0
M  V30 45816 O 4329.5 1.65516 -0.949164 0
M  V30 45817 C 4326.64 2.73749 -2.10132 0
M  V30 45818 C 4325.75 2.69322 -3.37772 0
M  V30 45819 C 4324.89 3.97365 -3.52526 0
M  V30 45820 C 4323.93 3.87317 -4.73975 0
M  V30 45821 N 4323.06 5.07126 -4.85559 0
M  V30 45822 H 4327.9 1.10845 -2.76618 0
M  V30 45823 H 4325.44 0.536215 -1.36979 0
M  V30 45824 H 4327.4 3.52881 -2.22556 0
M  V30 45825 H 4326.03 2.98845 -1.2203 0
M  V30 45826 H 4325.08 1.8208 -3.33992 0
M  V30 45827 H 4326.39 2.57785 -4.27022 0
M  V30 45828 H 4325.55 4.84932 -3.64589 0
M  V30 45829 H 4324.29 4.1173 -2.614 0
M  V30 45830 H 4323.29 2.98133 -4.61949 0
M  V30 45831 H 4324.52 3.74501 -5.66503 0
M  V30 45832 H 4322.46 5.21963 -3.97355 0
M  V30 45833 H 4322.38 4.97995 -5.68803 0
M  V30 45834 H 4323.65 5.96358 -5.01974 0
M  V30 45835 N 4327.88 1.46988 0.568532 0
M  V30 45836 C 4329.12 1.5303 1.3262 0
M  V30 45837 C 4329.45 0.187849 1.93591 0
M  V30 45838 O 4328.71 -0.818073 1.77781 0
M  V30 45839 C 4329.01 2.58794 2.46496 0
M  V30 45840 C 4328.67 4.02402 2.03428 0
M  V30 45841 C 4327.33 4.41498 1.91398 0
M  V30 45842 C 4329.69 4.92557 1.70402 0
M  V30 45843 C 4327.01 5.68596 1.4462 0
M  V30 45844 C 4329.37 6.20107 1.25099 0
M  V30 45845 C 4328.03 6.58095 1.11656 0
M  V30 45846 H 4327.3 0.559978 0.485289 0
M  V30 45847 H 4329.95 1.80533 0.638746 0
M  V30 45848 H 4328.25 2.25005 3.20749 0
M  V30 45849 H 4329.95 2.60695 3.04695 0
M  V30 45850 H 4326.54 3.71507 2.13731 0
M  V30 45851 H 4330.72 4.6306 1.78574 0
M  V30 45852 H 4325.98 5.96788 1.32868 0
M  V30 45853 H 4330.15 6.89384 0.986018 0
M  V30 45854 H 4327.78 7.56473 0.751863 0
M  V30 45855 N 4329.35 -0.814342 1.3493 0
M  V30 45856 C 4330.28 -1.94052 1.29869 0
M  V30 45857 C 4331.27 -1.69202 0.174534 0
M  V30 45858 O 4332.45 -1.90676 0.368265 0
M  V30 45859 C 4329.58 -3.30662 1.06207 0
M  V30 45860 C 4328.53 -3.69975 2.15181 0
M  V30 45861 C 4327.86 -5.04661 1.76695 0
M  V30 45862 C 4329.16 -3.81167 3.57084 0
M  V30 45863 H 4330.85 -1.98545 2.24099 0
M  V30 45864 H 4328.4 -0.953846 1.07879 0
M  V30 45865 H 4330.35 -4.09041 1.01308 0
M  V30 45866 H 4329.08 -3.26491 0.0842123 0
M  V30 45867 H 4327.74 -2.93876 2.19163 0
M  V30 45868 H 4327.38 -4.96986 0.775475 0
M  V30 45869 H 4327.08 -5.31935 2.49637 0
M  V30 45870 H 4328.61 -5.85489 1.73307 0
M  V30 45871 H 4330.02 -4.49796 3.55466 0
M  V30 45872 H 4328.42 -4.19903 4.2872 0
M  V30 45873 H 4329.49 -2.8293 3.938 0
M  V30 45874 N 4330.83 -1.18801 -1.03557 0
M  V30 45875 C 4331.76 -0.877417 -2.11741 0
M  V30 45876 C 4332.78 0.127109 -1.62303 0
M  V30 45877 O 4333.97 -0.101411 -1.78212 0
M  V30 45878 C 4331.07 -0.290567 -3.37652 0
M  V30 45879 C 4330.24 -1.342 -4.16304 0
M  V30 45880 C 4329.3 -0.769918 -5.20537 0
M  V30 45881 O 4328.32 -1.44593 -5.50528 0
M  V30 45882 N 4329.53 0.430083 -5.78905 0
M  V30 45883 H 4332.29 -1.80859 -2.38977 0
M  V30 45884 H 4329.85 -1.08909 -1.19793 0
M  V30 45885 H 4331.84 0.105842 -4.04562 0
M  V30 45886 H 4330.41 0.544743 -3.07817 0
M  V30 45887 H 4329.63 -1.91353 -3.44642 0
M  V30 45888 H 4330.92 -2.0507 -4.65643 0
M  V30 45889 H 4330.32 0.996939 -5.56846 0
M  V30 45890 H 4328.88 0.768352 -6.47255 0
M  V30 45891 N 4332.31 1.22555 -0.990855 0
M  V30 45892 C 4333.24 2.22999 -0.484406 0
M  V30 45893 C 4334.22 1.56128 0.454196 0
M  V30 45894 O 4335.41 1.84626 0.380217 0
M  V30 45895 C 4332.53 3.37386 0.298009 0
M  V30 45896 C 4331.58 4.22451 -0.586281 0
M  V30 45897 S 4332.41 4.95105 -2.04037 0
M  V30 45898 C 4333.57 6.12934 -1.26739 0
M  V30 45899 H 4333.8 2.65613 -1.33555 0
M  V30 45900 H 4331.33 1.32199 -0.797663 0
M  V30 45901 H 4333.29 4.03713 0.743396 0
M  V30 45902 H 4331.95 2.93285 1.1244 0
M  V30 45903 H 4331.15 5.03998 0.0156238 0
M  V30 45904 H 4330.75 3.61247 -0.968347 0
M  V30 45905 H 4333.04 6.75392 -0.533993 0
M  V30 45906 H 4333.98 6.77532 -2.05805 0
M  V30 45907 H 4334.39 5.59063 -0.781572 0
M  V30 45908 N 4333.79 0.763799 1.37855 0
M  V30 45909 C 4334.74 0.132409 2.32223 0
M  V30 45910 C 4335.73 -0.693906 1.54536 0
M  V30 45911 O 4336.94 -0.591859 1.69991 0
M  V30 45912 H 4333.31 0.0240271 0.751616 0
M  V30 45913 H 4335.28 0.944206 2.83068 0
M  V30 45914 C 4334.03 -0.73856 3.39765 0
M  V30 45915 H 4333.36 -0.112104 3.99643 0
M  V30 45916 H 4334.8 -1.14746 4.08178 0
M  V30 45917 C 4333.25 -1.88568 2.79184 0
M  V30 45918 O 4333.78 -2.9806 2.69301 0
M  V30 45919 N 4331.99 -1.68386 2.36843 0
M  V30 45920 H 4331.54 -0.793294 2.45081 0
M  V30 45921 H 4331.5 -2.45306 1.96652 0
M  V30 45922 N 4335.27 -1.48993 0.513692 0
M  V30 45923 C 4336.52 -2.02083 -0.0262466 0
M  V30 45924 C 4336.84 -1.3945 -1.36303 0
M  V30 45925 O 4336.11 -0.554187 -1.87898 0
M  V30 45926 H 4334.69 -0.746892 -0.0126889 0
M  V30 45927 H 4337.35 -1.82882 0.673821 0
M  V30 45928 H 4336.44 -3.11756 -0.146593 0
M  V30 45929 N 4336.75 -0.248081 -1.55635 0
M  V30 45930 C 4337.98 0.379893 -2.03077 0
M  V30 45931 C 4338.38 1.51997 -1.12665 0
M  V30 45932 O 4337.73 1.83213 -0.133735 0
M  V30 45933 C 4337.79 0.948262 -3.46768 0
M  V30 45934 C 4337.45 -0.0597237 -4.56961 0
M  V30 45935 C 4338.45 -0.869683 -5.12574 0
M  V30 45936 C 4336.13 -0.186155 -5.01955 0
M  V30 45937 C 4338.13 -1.79252 -6.11676 0
M  V30 45938 C 4335.82 -1.1125 -6.00888 0
M  V30 45939 C 4336.81 -1.9142 -6.55627 0
M  V30 45940 O 4336.5 -2.82493 -7.52631 0
M  V30 45941 H 4336.23 0.0942849 -0.669393 0
M  V30 45942 H 4338.79 -0.369887 -2.02042 0
M  V30 45943 H 4337.02 1.74762 -3.44956 0
M  V30 45944 H 4338.71 1.48644 -3.77703 0
M  V30 45945 H 4339.47 -0.782598 -4.78644 0
M  V30 45946 H 4335.35 0.427795 -4.59011 0
M  V30 45947 H 4338.9 -2.4187 -6.54328 0
M  V30 45948 H 4334.79 -1.2005 -6.34238 0
M  V30 45949 H 4335.56 -2.76867 -7.70251 0
M  V30 45950 N 4338.22 1.5758 0.0250174 0
M  V30 45951 C 4339.19 2.05793 1.00905 0
M  V30 45952 C 4340.19 0.962767 1.28792 0
M  V30 45953 O 4341.38 1.22625 1.23728 0
M  V30 45954 C 4338.51 2.47829 2.3408 0
M  V30 45955 H 4339.7 2.93989 0.592501 0
M  V30 45956 H 4337.25 1.53916 0.271938 0
M  V30 45957 H 4337.99 1.62802 2.80475 0
M  V30 45958 H 4337.77 3.27789 2.15167 0
M  V30 45959 H 4339.26 2.85544 3.0472 0
M  V30 45960 N 4339.7 -0.29736 1.54769 0
M  V30 45961 C 4340.95 -1.03364 1.74481 0
M  V30 45962 C 4341.28 -1.86798 0.53104 0
M  V30 45963 O 4340.56 -1.88691 -0.471814 0
M  V30 45964 C 4340.84 -1.9366 3.03592 0
M  V30 45965 C 4340.69 -1.13381 4.35276 0
M  V30 45966 C 4342.01 -2.92773 3.28591 0
M  V30 45967 H 4339.13 -0.374369 0.634836 0
M  V30 45968 H 4341.77 -0.30799 1.87487 0
M  V30 45969 H 4339.92 -2.55533 2.92635 0
M  V30 45970 H 4341.59 -0.537658 4.58156 0
M  V30 45971 H 4339.84 -0.436609 4.31597 0
M  V30 45972 H 4340.51 -1.79821 5.21889 0
M  V30 45973 H 4342.98 -2.41029 3.39181 0
M  V30 45974 H 4341.86 -3.53115 4.20239 0
M  V30 45975 H 4342.12 -3.66625 2.4706 0
M  V30 45976 N 4341.18 -1.47287 -0.560729 0
M  V30 45977 C 4342.41 -1.57341 -1.34356 0
M  V30 45978 C 4342.82 -0.222332 -1.87486 0
M  V30 45979 O 4342.18 0.783881 -1.64808 0
M  V30 45980 C 4342.23 -2.59585 -2.51591 0
M  V30 45981 O 4341.95 -3.89446 -2.00657 0
M  V30 45982 C 4343.45 -2.79789 -3.43851 0
M  V30 45983 H 4340.67 -0.531414 -0.409683 0
M  V30 45984 H 4343.22 -1.92878 -0.679594 0
M  V30 45985 H 4341.37 -2.26992 -3.13932 0
M  V30 45986 H 4341.79 -4.45285 -2.77167 0
M  V30 45987 H 4343.26 -3.552 -4.22536 0
M  V30 45988 H 4343.74 -1.87484 -3.97173 0
M  V30 45989 H 4344.34 -3.13565 -2.87328 0
M  V30 45990 N 4342.66 0.807175 -1.3536 0
M  V30 45991 C 4344.07 1.10264 -1.15386 0
M  V30 45992 C 4344.27 2.01471 0.0340707 0
M  V30 45993 O 4343.33 2.42462 0.704855 0
M  V30 45994 C 4344.64 1.73419 -2.45655 0
M  V30 45995 C 4346.19 1.85842 -2.51856 0
M  V30 45996 C 4346.67 2.52413 -3.82167 0
M  V30 45997 N 4348.16 2.59898 -3.83415 0
M  V30 45998 C 4348.89 3.12174 -4.80973 0
M  V30 45999 N 4348.39 3.64893 -5.88918 0
M  V30 46000 N 4350.18 3.10722 -4.6841 0
M  V30 46001 H 4342.33 0.200854 -2.11448 0
M  V30 46002 H 4344.59 0.151694 -0.935785 0
M  V30 46003 H 4344.3 1.13868 -3.32757 0
M  V30 46004 H 4344.17 2.73125 -2.60159 0
M  V30 46005 H 4346.56 2.44537 -1.65184 0
M  V30 46006 H 4346.64 0.849938 -2.41267 0
M  V30 46007 H 4346.29 1.94368 -4.69237 0
M  V30 46008 H 4346.22 3.53797 -3.90045 0
M  V30 46009 H 4348.71 2.22548 -3.05419 0
M  V30 46010 H 4349.02 4.0308 -6.59353 0
M  V30 46011 H 4347.37 3.63093 -5.92611 0
M  V30 46012 H 4350.56 2.68813 -3.83219 0
M  V30 46013 H 4350.73 3.51156 -5.44604 0
M  V30 46014 N 4344.14 1.19348 1.02926 0
M  V30 46015 C 4345.38 0.993912 1.75971 0
M  V30 46016 C 4345.7 -0.476489 1.89089 0
M  V30 46017 O 4344.97 -1.34512 1.42419 0
M  V30 46018 H 4343.55 0.364764 0.651887 0
M  V30 46019 H 4346.22 1.50235 1.24159 0
M  V30 46020 H 4345.31 1.44162 2.7681 0
M  V30 46021 N 4345.61 -1.22028 0.997341 0
M  V30 46022 C 4346.54 -2.26402 0.571359 0
M  V30 46023 C 4347.52 -1.65233 -0.403996 0
M  V30 46024 O 4348.71 -1.91967 -0.293658 0
M  V30 46025 C 4345.84 -3.47124 -0.110411 0
M  V30 46026 C 4344.79 -4.20759 0.783939 0
M  V30 46027 C 4344.12 -5.34691 -0.0309947 0
M  V30 46028 C 4345.42 -4.7897 2.08291 0
M  V30 46029 H 4347.11 -2.62287 1.44381 0
M  V30 46030 H 4344.66 -1.26081 0.695678 0
M  V30 46031 H 4346.61 -4.19303 -0.419846 0
M  V30 46032 H 4345.34 -3.10348 -1.01744 0
M  V30 46033 H 4344 -3.5042 1.07708 0
M  V30 46034 H 4343.64 -4.94156 -0.939075 0
M  V30 46035 H 4343.34 -5.84883 0.564419 0
M  V30 46036 H 4344.87 -6.09684 -0.334421 0
M  V30 46037 H 4346.28 -5.43067 1.83713 0
M  V30 46038 H 4344.68 -5.39519 2.62752 0
M  V30 46039 H 4345.75 -3.98775 2.75874 0
M  V30 46040 N 4347.09 -0.771099 -1.37448 0
M  V30 46041 C 4348.04 -0.155118 -2.30278 0
M  V30 46042 C 4349.01 0.69052 -1.51066 0
M  V30 46043 O 4350.19 0.643017 -1.79638 0
M  V30 46044 C 4347.33 0.718519 -3.37537 0
M  V30 46045 C 4346.45 -0.143655 -4.31761 0
M  V30 46046 C 4345.58 0.734627 -5.26096 0
M  V30 46047 C 4344.62 -0.13012 -6.11962 0
M  V30 46048 N 4343.76 0.706102 -6.9854 0
M  V30 46049 H 4348.6 -0.952273 -2.82375 0
M  V30 46050 H 4346.14 -0.481201 -1.39007 0
M  V30 46051 H 4348.09 1.23984 -3.98351 0
M  V30 46052 H 4346.72 1.48128 -2.86806 0
M  V30 46053 H 4345.78 -0.782783 -3.72259 0
M  V30 46054 H 4347.09 -0.810726 -4.92167 0
M  V30 46055 H 4346.24 1.32246 -5.92111 0
M  V30 46056 H 4344.98 1.43538 -4.66099 0
M  V30 46057 H 4343.99 -0.730495 -5.44926 0
M  V30 46058 H 4345.21 -0.828198 -6.74031 0
M  V30 46059 H 4343.16 1.39149 -6.41072 0
M  V30 46060 H 4343.07 0.0963145 -7.55939 0
M  V30 46061 H 4344.34 1.27835 -7.68946 0
M  V30 46062 N 4348.57 1.48719 -0.521586 0
M  V30 46063 C 4349.85 1.95438 0.079556 0
M  V30 46064 C 4350.23 1.46364 1.52121 0
M  V30 46065 O 4349.58 0.686415 2.17946 0
M  V30 46066 C 4349.79 3.48988 -0.0290224 0
M  V30 46067 C 4351.13 4.24387 0.134508 0
M  V30 46068 O 4352.16 3.56171 0.0451793 0
M  V30 46069 O 4351.02 5.45559 0.320524 0
M  V30 46070 H 4348.11 0.822728 0.0839479 0
M  V30 46071 H 4350.66 1.59276 -0.585588 0
M  V30 46072 H 4349.43 3.77402 -1.03359 0
M  V30 46073 H 4349.05 3.91822 0.675349 0
M  V30 46074 N 4350.05 0.256331 1.55501 0
M  V30 46075 C 4350.98 -0.680103 2.1783 0
M  V30 46076 C 4351.96 -1.166 1.13328 0
M  V30 46077 O 4353.14 -1.24241 1.41762 0
M  V30 46078 C 4350.27 -1.92536 2.78653 0
M  V30 46079 C 4349.32 -1.57654 3.96292 0
M  V30 46080 S 4350.15 -0.670968 5.3128 0
M  V30 46081 C 4351.31 -1.92502 5.95562 0
M  V30 46082 H 4351.54 -0.150452 2.96919 0
M  V30 46083 H 4349.07 0.0407141 1.54346 0
M  V30 46084 H 4351.03 -2.6402 3.1433 0
M  V30 46085 H 4349.69 -2.42614 1.99492 0
M  V30 46086 H 4348.88 -2.50265 4.37474 0
M  V30 46087 H 4348.49 -0.94205 3.61941 0
M  V30 46088 H 4350.78 -2.87119 6.13652 0
M  V30 46089 H 4351.72 -1.55653 6.90781 0
M  V30 46090 H 4352.13 -2.0814 5.24726 0
M  V30 46091 N 4351.53 -1.57591 -0.0166602 0
M  V30 46092 C 4352.44 -2.10776 -1.03008 0
M  V30 46093 C 4353.45 -1.04918 -1.3881 0
M  V30 46094 O 4354.63 -1.36725 -1.47879 0
M  V30 46095 C 4351.69 -2.58682 -2.30834 0
M  V30 46096 C 4350.75 -3.79074 -2.01498 0
M  V30 46097 C 4349.99 -4.24685 -3.23231 0
M  V30 46098 O 4350.21 -3.69736 -4.3434 0
M  V30 46099 O 4349.14 -5.17005 -3.08204 0
M  V30 46100 H 4352.97 -2.97551 -0.608035 0
M  V30 46101 H 4350.56 -1.47549 -0.234439 0
M  V30 46102 H 4352.44 -2.89769 -3.05961 0
M  V30 46103 H 4351.11 -1.75013 -2.72309 0
M  V30 46104 H 4350.02 -3.52986 -1.23901 0
M  V30 46105 H 4351.35 -4.63765 -1.64871 0
M  V30 46106 N 4353 0.289148 -1.54925 0
M  V30 46107 C 4353.93 1.36149 -1.89699 0
M  V30 46108 C 4354.92 1.52322 -0.757108 0
M  V30 46109 O 4356.1 1.65633 -1.01387 0
M  V30 46110 C 4353.23 2.72376 -2.15473 0
M  V30 46111 C 4352.18 2.70955 -3.31312 0
M  V30 46112 C 4351.51 4.10582 -3.4253 0
M  V30 46113 C 4352.81 2.31647 -4.68121 0
M  V30 46114 H 4354.5 1.07294 -2.79514 0
M  V30 46115 H 4352.05 0.5147 -1.34487 0
M  V30 46116 H 4354 3.47491 -2.38386 0
M  V30 46117 H 4352.73 3.0278 -1.2244 0
M  V30 46118 H 4351.39 1.98296 -3.08341 0
M  V30 46119 H 4351.03 4.38182 -2.46992 0
M  V30 46120 H 4350.73 4.10529 -4.20404 0
M  V30 46121 H 4352.26 4.8746 -3.67717 0
M  V30 46122 H 4353.67 2.96481 -4.90685 0
M  V30 46123 H 4352.07 2.42786 -5.48794 0
M  V30 46124 H 4353.14 1.26773 -4.68035 0
M  V30 46125 N 4354.48 1.47583 0.55291 0
M  V30 46126 C 4355.76 1.44911 1.31378 0
M  V30 46127 C 4356.14 0.14836 2.10578 0
M  V30 46128 O 4355.49 -0.87013 2.11284 0
M  V30 46129 C 4355.7 2.69729 2.21467 0
M  V30 46130 C 4357.05 3.1712 2.82348 0
M  V30 46131 O 4358.07 2.70486 2.31767 0
M  V30 46132 O 4356.93 3.98203 3.74295 0
M  V30 46133 H 4354.02 0.577682 0.591787 0
M  V30 46134 H 4356.57 1.59789 0.571458 0
M  V30 46135 H 4355.34 3.55929 1.62573 0
M  V30 46136 H 4354.96 2.57458 3.02987 0
M  V30 46137 N 4355.96 -0.799985 1.35787 0
M  V30 46138 C 4357.19 -1.59375 1.32719 0
M  V30 46139 C 4357.61 -1.87878 -0.091392 0
M  V30 46140 O 4356.97 -1.47069 -1.0602 0
M  V30 46141 C 4357.02 -2.89796 2.14594 0
M  V30 46142 O 4356.12 -3.82921 1.53118 0
M  V30 46143 H 4355.46 -0.483848 0.454739 0
M  V30 46144 H 4357.99 -0.99238 1.78922 0
M  V30 46145 H 4358 -3.39161 2.2679 0
M  V30 46146 H 4356.68 -2.68376 3.17722 0
M  V30 46147 H 4355.25 -3.41488 1.49801 0
M  V30 46148 N 4357.44 -1.19892 -1.02292 0
M  V30 46149 C 4358.66 -1.03134 -1.79939 0
M  V30 46150 C 4359.09 0.415169 -1.83461 0
M  V30 46151 O 4358.45 1.29873 -1.26501 0
M  V30 46152 C 4358.49 -1.61202 -3.22562 0
M  V30 46153 O 4357.6 -0.845366 -4.03643 0
M  V30 46154 H 4356.94 -0.364138 -0.555247 0
M  V30 46155 H 4359.47 -1.59047 -1.28706 0
M  V30 46156 H 4359.48 -1.6467 -3.73293 0
M  V30 46157 H 4358.15 -2.6648 -3.19314 0
M  V30 46158 H 4356.73 -0.884402 -3.62261 0
M  V30 46159 N 4358.92 1.21498 -1.0038 0
M  V30 46160 C 4360.14 1.95073 -0.70436 0
M  V30 46161 C 4360.57 1.73507 0.726416 0
M  V30 46162 O 4359.92 1.02116 1.49807 0
M  V30 46163 C 4359.97 3.45594 -1.02944 0
M  V30 46164 O 4359.08 4.12182 -0.134034 0
M  V30 46165 H 4358.42 0.609889 -0.262548 0
M  V30 46166 H 4360.95 1.5429 -1.34372 0
M  V30 46167 H 4360.96 3.96159 -0.975796 0
M  V30 46168 H 4359.63 3.60614 -2.07196 0
M  V30 46169 H 4358.21 3.721 -0.244099 0
M  V30 46170 N 4360.39 0.778378 1.37037 0
M  V30 46171 C 4361.64 0.34236 1.98773 0
M  V30 46172 C 4361.96 -1.08895 1.62484 0
M  V30 46173 O 4363.16 -1.62669 2.17373 0
M  V30 46174 C 4361.62 0.561171 3.55498 0
M  V30 46175 C 4361.23 2.00318 4.0072 0
M  V30 46176 C 4362.97 0.189107 4.24079 0
M  V30 46177 C 4360.88 2.16923 5.5018 0
M  V30 46178 H 4359.81 0.124265 0.74369 0
M  V30 46179 H 4362.46 0.958447 1.5648 0
M  V30 46180 H 4360.84 -0.12447 3.95804 0
M  V30 46181 H 4362.01 2.72431 3.71642 0
M  V30 46182 H 4360.33 2.33245 3.44943 0
M  V30 46183 H 4362.93 0.291603 5.33904 0
M  V30 46184 H 4363.27 -0.861454 4.07289 0
M  V30 46185 H 4363.8 0.827553 3.89097 0
M  V30 46186 H 4360.54 3.20322 5.71904 0
M  V30 46187 H 4360.06 1.49301 5.80921 0
M  V30 46188 H 4361.74 1.97104 6.16246 0
M  V30 46189 N 4361.87 -1.4844 0.529465 0
M  V30 46190 C 4362.78 -2.33395 -0.237432 0
M  V30 46191 C 4363.8 -1.46455 -0.939517 0
M  V30 46192 O 4364.98 -1.79436 -0.914591 0
M  V30 46193 C 4362.04 -3.22559 -1.2711 0
M  V30 46194 C 4361.1 -4.25372 -0.579416 0
M  V30 46195 C 4360.33 -5.10274 -1.56383 0
M  V30 46196 O 4360.56 -4.97149 -2.79641 0
M  V30 46197 O 4359.49 -5.91698 -1.10351 0
M  V30 46198 H 4363.32 -3.00216 0.458705 0
M  V30 46199 H 4360.9 -1.46551 0.290395 0
M  V30 46200 H 4362.78 -3.77712 -1.86846 0
M  V30 46201 H 4361.46 -2.584 -1.94965 0
M  V30 46202 H 4360.37 -3.74054 0.0584292 0
M  V30 46203 H 4361.7 -4.92167 0.0571886 0
M  V30 46204 N 4363.35 -0.264574 -1.55363 0
M  V30 46205 C 4364.3 0.627451 -2.22107 0
M  V30 46206 C 4365.27 1.15786 -1.19092 0
M  V30 46207 O 4366.45 1.2091 -1.47599 0
M  V30 46208 C 4363.59 1.81063 -2.93786 0
M  V30 46209 C 4362.71 1.31507 -4.11497 0
M  V30 46210 C 4361.84 2.45921 -4.70846 0
M  V30 46211 C 4360.88 1.93316 -5.80771 0
M  V30 46212 N 4360.02 3.01162 -6.34228 0
M  V30 46213 H 4364.86 0.0516242 -2.97955 0
M  V30 46214 H 4362.39 0.0137161 -1.47094 0
M  V30 46215 H 4364.35 2.50595 -3.33554 0
M  V30 46216 H 4362.98 2.35865 -2.2038 0
M  V30 46217 H 4362.03 0.513204 -3.76922 0
M  V30 46218 H 4363.35 0.889684 -4.90801 0
M  V30 46219 H 4362.5 3.23465 -5.13279 0
M  V30 46220 H 4361.24 2.9177 -3.90796 0
M  V30 46221 H 4360.24 1.14248 -5.37799 0
M  V30 46222 H 4361.47 1.48415 -6.62684 0
M  V30 46223 H 4359.42 3.46413 -5.57076 0
M  V30 46224 H 4359.33 2.63008 -7.08775 0
M  V30 46225 H 4360.6 3.78713 -6.8132 0
M  V30 46226 N 4364.83 1.57598 0.00830251 0
M  V30 46227 C 4366.25 1.55387 0.364269 0
M  V30 46228 C 4366.45 0.993384 1.75312 0
M  V30 46229 O 4365.5 0.623541 2.4468 0
M  V30 46230 C 4366.81 2.99683 0.247101 0
M  V30 46231 C 4368.36 3.11333 0.322655 0
M  V30 46232 C 4368.84 4.57398 0.234705 0
M  V30 46233 N 4370.33 4.62273 0.292862 0
M  V30 46234 C 4371.06 5.72863 0.248022 0
M  V30 46235 N 4370.56 6.92628 0.154261 0
M  V30 46236 N 4372.35 5.61303 0.299278 0
M  V30 46237 H 4364.5 1.92374 -0.900334 0
M  V30 46238 H 4366.77 0.883251 -0.344342 0
M  V30 46239 H 4366.47 3.44497 -0.708134 0
M  V30 46240 H 4366.35 3.62794 1.03251 0
M  V30 46241 H 4368.73 2.66453 1.26833 0
M  V30 46242 H 4368.81 2.51015 -0.492472 0
M  V30 46243 H 4368.46 5.0295 -0.707391 0
M  V30 46244 H 4368.39 5.15652 1.06821 0
M  V30 46245 H 4370.88 3.76114 0.366997 0
M  V30 46246 H 4371.19 7.72698 0.125714 0
M  V30 46247 H 4369.54 6.94896 0.120007 0
M  V30 46248 H 4372.73 4.6663 0.370666 0
M  V30 46249 H 4372.9 6.47475 0.260867 0
M  V30 46250 N 4366.31 -0.280928 1.55076 0
M  V30 46251 C 4367.55 -1.01357 1.75308 0
M  V30 46252 C 4367.88 -1.86567 0.549808 0
M  V30 46253 O 4367.14 -1.90025 -0.467874 0
M  V30 46254 C 4367.44 -1.93229 3.00661 0
M  V30 46255 C 4367.1 -1.23834 4.33562 0
M  V30 46256 C 4365.76 -1.04642 4.69684 0
M  V30 46257 C 4368.12 -0.743871 5.15864 0
M  V30 46258 C 4365.44 -0.347193 5.85672 0
M  V30 46259 C 4367.8 -0.0582729 6.32573 0
M  V30 46260 C 4366.46 0.145425 6.67342 0
M  V30 46261 H 4365.73 -0.370893 0.641498 0
M  V30 46262 H 4368.38 -0.286575 1.89344 0
M  V30 46263 H 4366.68 -2.72524 2.81492 0
M  V30 46264 H 4368.38 -2.50024 3.13511 0
M  V30 46265 H 4364.97 -1.39781 4.05166 0
M  V30 46266 H 4369.15 -0.879791 4.8844 0
M  V30 46267 H 4364.41 -0.178575 6.11139 0
M  V30 46268 H 4368.58 0.33267 6.95605 0
M  V30 46269 H 4366.21 0.689224 7.57069 0
M  V30 46270 N 4367.79 -1.47874 -0.545076 0
M  V30 46271 C 4368.75 -1.60807 -1.63321 0
M  V30 46272 C 4369.75 -0.482321 -1.53396 0
M  V30 46273 O 4370.94 -0.74772 -1.57337 0
M  V30 46274 C 4368.07 -1.56404 -3.02904 0
M  V30 46275 H 4369.26 -2.57818 -1.53199 0
M  V30 46276 H 4366.82 -1.36245 -0.76596 0
M  V30 46277 H 4367.55 -0.60814 -3.18547 0
M  V30 46278 H 4367.34 -2.38117 -3.11517 0
M  V30 46279 H 4368.83 -1.68617 -3.82045 0
M  V30 46280 N 4369.26 0.792773 -1.36209 0
M  V30 46281 C 4370.51 1.5505 -1.30252 0
M  V30 46282 C 4370.84 1.94135 0.119159 0
M  V30 46283 O 4370.09 1.62691 1.08766 0
M  V30 46284 C 4370.39 2.84153 -2.16776 0
M  V30 46285 C 4370.06 2.64222 -3.65373 0
M  V30 46286 C 4368.72 2.58495 -4.05874 0
M  V30 46287 C 4371.07 2.45796 -4.59602 0
M  V30 46288 C 4368.4 2.32302 -5.38751 0
M  V30 46289 C 4370.75 2.2113 -5.92692 0
M  V30 46290 C 4369.42 2.13834 -6.32322 0
M  V30 46291 H 4368.69 0.567369 -0.476627 0
M  V30 46292 H 4371.33 0.914904 -1.68231 0
M  V30 46293 H 4369.64 3.52163 -1.71723 0
M  V30 46294 H 4371.34 3.41926 -2.09494 0
M  V30 46295 H 4367.93 2.69534 -3.33241 0
M  V30 46296 H 4372.11 2.49224 -4.29187 0
M  V30 46297 H 4367.37 2.25133 -5.68441 0
M  V30 46298 H 4371.54 2.05866 -6.65276 0
M  V30 46299 H 4369.17 1.93301 -7.35213 0
M  V30 46300 N 4370.74 1.20433 1.01654 0
M  V30 46301 C 4371.99 1.01252 1.74907 0
M  V30 46302 C 4372.31 -0.456407 1.89584 0
M  V30 46303 O 4371.58 -1.32994 1.43838 0
M  V30 46304 H 4370.16 0.371658 0.647981 0
M  V30 46305 H 4372.82 1.51544 1.22558 0
M  V30 46306 H 4371.92 1.4709 2.75265 0
M  V30 46307 N 4372.22 -1.20963 1.01023 0
M  V30 46308 C 4373.47 -1.90167 0.695908 0
M  V30 46309 C 4373.79 -1.78443 -0.77385 0
M  V30 46310 O 4373.05 -1.15865 -1.57714 0
M  V30 46311 C 4373.35 -3.41032 1.06919 0
M  V30 46312 C 4373.01 -3.72954 2.53409 0
M  V30 46313 C 4371.68 -3.81377 2.93436 0
M  V30 46314 C 4374.03 -3.87755 3.48275 0
M  V30 46315 C 4371.36 -4.02053 4.27282 0
M  V30 46316 C 4373.71 -4.0994 4.81801 0
M  V30 46317 C 4372.37 -4.16591 5.21544 0
M  V30 46318 H 4371.64 -0.695869 0.254651 0
M  V30 46319 H 4374.29 -1.43362 1.26963 0
M  V30 46320 H 4372.59 -3.89609 0.41379 0
M  V30 46321 H 4374.29 -3.92862 0.803776 0
M  V30 46322 H 4370.88 -3.66993 2.21391 0
M  V30 46323 H 4375.07 -3.80609 3.18513 0
M  V30 46324 H 4370.32 -4.05435 4.57638 0
M  V30 46325 H 4374.5 -4.20335 5.5524 0
M  V30 46326 H 4372.12 -4.32364 6.25272 0
M  V30 46327 N 4373.7 -0.785634 -1.36622 0
M  V30 46328 C 4374.63 -0.195598 -2.32679 0
M  V30 46329 C 4375.61 0.667307 -1.56464 0
M  V30 46330 O 4376.79 0.601911 -1.84637 0
M  V30 46331 C 4373.92 0.673407 -3.40709 0
M  V30 46332 C 4372.88 -0.0893007 -4.27907 0
M  V30 46333 C 4372.2 0.900053 -5.2707 0
M  V30 46334 C 4373.5 -1.27633 -5.06465 0
M  V30 46335 H 4375.2 -0.998083 -2.82274 0
M  V30 46336 H 4372.74 -0.481397 -1.35715 0
M  V30 46337 H 4374.7 1.09609 -4.06895 0
M  V30 46338 H 4373.42 1.50856 -2.89672 0
M  V30 46339 H 4372.08 -0.492922 -3.63271 0
M  V30 46340 H 4371.73 1.73013 -4.72309 0
M  V30 46341 H 4371.43 0.394182 -5.86276 0
M  V30 46342 H 4372.95 1.32139 -5.96131 0
M  V30 46343 H 4374.37 -0.929589 -5.65713 0
M  V30 46344 H 4372.76 -1.71523 -5.75065 0
M  V30 46345 H 4373.83 -2.07356 -4.38328 0
M  V30 46346 N 4375.18 1.48157 -0.53733 0
M  V30 46347 C 4376.11 2.27736 0.258622 0
M  V30 46348 C 4377.12 1.35811 0.897728 0
M  V30 46349 O 4378.31 1.60801 0.77493 0
M  V30 46350 C 4375.41 3.09435 1.38214 0
M  V30 46351 C 4374.58 4.29188 0.843576 0
M  V30 46352 C 4373.64 4.9264 1.84912 0
M  V30 46353 O 4372.67 5.51635 1.40314 0
M  V30 46354 N 4373.87 4.85542 3.18166 0
M  V30 46355 H 4376.63 2.96687 -0.423915 0
M  V30 46356 H 4374.2 1.57565 -0.372125 0
M  V30 46357 H 4376.19 3.48752 2.05314 0
M  V30 46358 H 4374.76 2.42857 1.96822 0
M  V30 46359 H 4373.98 3.942 -0.0036365 0
M  V30 46360 H 4375.27 5.06691 0.462762 0
M  V30 46361 H 4374.66 4.38776 3.5706 0
M  V30 46362 H 4373.22 5.28937 3.80879 0
M  V30 46363 N 4376.65 0.272809 1.55221 0
M  V30 46364 C 4377.59 -0.648857 2.19824 0
M  V30 46365 C 4378.6 -1.11923 1.18225 0
M  V30 46366 O 4379.79 -1.04153 1.44963 0
M  V30 46367 C 4376.89 -1.89682 2.80845 0
M  V30 46368 C 4376.06 -1.57363 4.08112 0
M  V30 46369 C 4375.12 -2.67382 4.53203 0
M  V30 46370 O 4374.15 -2.33666 5.19027 0
M  V30 46371 N 4375.35 -3.97396 4.23151 0
M  V30 46372 H 4378.11 -0.0959511 2.99546 0
M  V30 46373 H 4375.67 0.0938151 1.61628 0
M  V30 46374 H 4377.67 -2.62574 3.07956 0
M  V30 46375 H 4376.24 -2.35883 2.05129 0
M  V30 46376 H 4375.46 -0.678652 3.88314 0
M  V30 46377 H 4376.74 -1.3327 4.91036 0
M  V30 46378 H 4376.14 -4.2761 3.70359 0
M  V30 46379 H 4374.7 -4.66673 4.55038 0
M  V30 46380 N 4378.13 -1.576 5.54043e-05 0
M  V30 46381 C 4379.06 -2.11461 -0.990267 0
M  V30 46382 C 4380.04 -1.02377 -1.35842 0
M  V30 46383 O 4381.23 -1.3006 -1.44216 0
M  V30 46384 C 4378.36 -2.61796 -2.28211 0
M  V30 46385 C 4377.31 -3.75407 -2.05556 0
M  V30 46386 C 4376.64 -4.12057 -3.40754 0
M  V30 46387 C 4377.94 -5.0268 -1.41811 0
M  V30 46388 H 4379.63 -2.94457 -0.541801 0
M  V30 46389 H 4377.18 -1.41649 -0.259169 0
M  V30 46390 H 4379.13 -2.98104 -2.97846 0
M  V30 46391 H 4377.86 -1.75922 -2.75171 0
M  V30 46392 H 4376.51 -3.39493 -1.38347 0
M  V30 46393 H 4376.16 -3.23206 -3.85417 0
M  V30 46394 H 4375.86 -4.88599 -3.26412 0
M  V30 46395 H 4377.39 -4.50923 -4.11704 0
M  V30 46396 H 4378.8 -5.36758 -2.01403 0
M  V30 46397 H 4377.2 -5.84027 -1.37957 0
M  V30 46398 H 4378.27 -4.83351 -0.387336 0
M  V30 46399 N 4379.61 0.2727 -1.55223 0
M  V30 46400 C 4380.54 1.3413 -1.91132 0
M  V30 46401 C 4381.52 1.5151 -0.773221 0
M  V30 46402 O 4382.71 1.64549 -1.03138 0
M  V30 46403 C 4379.84 2.70076 -2.1835 0
M  V30 46404 C 4378.79 2.67425 -3.34167 0
M  V30 46405 C 4378.12 4.06926 -3.46865 0
M  V30 46406 C 4379.42 2.26669 -4.70551 0
M  V30 46407 H 4381.11 1.04324 -2.80637 0
M  V30 46408 H 4378.66 0.500407 -1.35026 0
M  V30 46409 H 4380.61 3.44943 -2.42058 0
M  V30 46410 H 4379.33 3.01465 -1.25645 0
M  V30 46411 H 4377.99 1.95015 -3.10427 0
M  V30 46412 H 4377.64 4.35538 -2.51626 0
M  V30 46413 H 4377.34 4.06047 -4.24734 0
M  V30 46414 H 4378.86 4.83532 -3.72866 0
M  V30 46415 H 4380.28 2.9126 -4.93802 0
M  V30 46416 H 4378.68 2.36952 -5.51338 0
M  V30 46417 H 4379.75 1.21802 -4.69353 0
M  V30 46418 N 4381.09 1.48161 0.537226 0
M  V30 46419 C 4382.5 1.34121 0.865082 0
M  V30 46420 C 4382.7 0.346748 1.98494 0
M  V30 46421 O 4381.76 -0.234627 2.51408 0
M  V30 46422 C 4383.07 2.73968 1.23944 0
M  V30 46423 C 4384.62 2.82402 1.34974 0
M  V30 46424 C 4385.1 4.22934 1.75757 0
M  V30 46425 N 4386.59 4.25573 1.82872 0
M  V30 46426 C 4387.32 5.31243 2.15798 0
M  V30 46427 N 4386.82 6.47197 2.47199 0
M  V30 46428 N 4388.61 5.18632 2.16743 0
M  V30 46429 H 4380.76 2.11439 -0.201789 0
M  V30 46430 H 4383.03 0.947597 -0.0276282 0
M  V30 46431 H 4382.73 3.48266 0.490258 0
M  V30 46432 H 4382.61 3.07027 2.19121 0
M  V30 46433 H 4384.99 2.08364 2.0897 0
M  V30 46434 H 4385.07 2.52971 0.379359 0
M  V30 46435 H 4384.72 4.97486 1.02323 0
M  V30 46436 H 4384.65 4.49804 2.73833 0
M  V30 46437 H 4387.14 3.41929 1.60912 0
M  V30 46438 H 4387.45 7.23573 2.71407 0
M  V30 46439 H 4385.8 6.50484 2.44734 0
M  V30 46440 H 4388.99 4.27063 1.91664 0
M  V30 46441 H 4389.16 6.01087 2.42072 0
M  V30 46442 N 4382.57 -0.785538 1.36627 0
M  V30 46443 C 4383.81 -1.54516 1.32274 0
M  V30 46444 C 4384.17 -1.9216 -0.096159 0
M  V30 46445 O 4383.46 -1.60161 -1.05162 0
M  V30 46446 C 4383.65 -2.82999 2.1828 0
M  V30 46447 C 4383.48 -2.57912 3.68391 0
M  V30 46448 C 4382.25 -2.52736 4.37553 0
M  V30 46449 C 4384.45 -2.26845 4.61569 0
M  V30 46450 N 4382.43 -2.19587 5.73284 0
M  V30 46451 C 4383.8 -2.03717 5.85576 0
M  V30 46452 C 4385.86 -2.12884 4.50094 0
M  V30 46453 C 4384.56 -1.68041 6.99396 0
M  V30 46454 C 4386.59 -1.78606 5.63785 0
M  V30 46455 C 4385.95 -1.56329 6.86834 0
M  V30 46456 H 4382.05 -0.566282 0.539303 0
M  V30 46457 H 4384.63 -0.917676 1.71717 0
M  V30 46458 H 4382.8 -3.43608 1.81075 0
M  V30 46459 H 4384.54 -3.48768 2.05287 0
M  V30 46460 H 4381.29 -2.68116 3.90398 0
M  V30 46461 H 4381.72 -2.05748 6.44978 0
M  V30 46462 H 4386.36 -2.28795 3.55545 0
M  V30 46463 H 4384.08 -1.50867 7.93892 0
M  V30 46464 H 4387.66 -1.68482 5.56871 0
M  V30 46465 H 4386.54 -1.30196 7.73317 0
M  V30 46466 N 4384.04 -1.20971 -1.01014 0
M  V30 46467 C 4384.98 -0.907652 -2.09373 0
M  V30 46468 C 4385.96 0.142811 -1.61972 0
M  V30 46469 O 4387.14 0.0149728 -1.88494 0
M  V30 46470 C 4384.27 -0.361909 -3.36761 0
M  V30 46471 C 4383.31 -1.39437 -4.03063 0
M  V30 46472 S 4384.15 -2.96174 -4.4614 0
M  V30 46473 C 4385.3 -2.43193 -5.76722 0
M  V30 46474 H 4385.53 -1.82528 -2.34672 0
M  V30 46475 H 4383.07 -1.03888 -1.14222 0
M  V30 46476 H 4385.03 -0.0535966 -4.10465 0
M  V30 46477 H 4383.69 0.534321 -3.09522 0
M  V30 46478 H 4382.88 -0.962026 -4.94733 0
M  V30 46479 H 4382.48 -1.6505 -3.35611 0
M  V30 46480 H 4384.77 -1.83358 -6.52216 0
M  V30 46481 H 4385.72 -3.33286 -6.24761 0
M  V30 46482 H 4386.12 -1.85087 -5.33294 0
M  V30 46483 N 4385.52 1.20426 -1.01663 0
M  V30 46484 C 4386.8 1.85478 -0.621069 0
M  V30 46485 C 4387.18 1.90913 0.900852 0
M  V30 46486 O 4386.53 1.417 1.79258 0
M  V30 46487 C 4386.74 3.25115 -1.26891 0
M  V30 46488 C 4388.09 4.01398 -1.38437 0
M  V30 46489 O 4389.11 3.34468 -1.22513 0
M  V30 46490 O 4387.97 5.21259 -1.64169 0
M  V30 46491 H 4385.06 0.798753 -0.214294 0
M  V30 46492 H 4387.61 1.28015 -1.11401 0
M  V30 46493 H 4386.38 3.15924 -2.30884 0
M  V30 46494 H 4386 3.90209 -0.763054 0
M  V30 46495 N 4387 0.792868 1.36203 0
M  V30 46496 C 4388.25 0.363423 1.98399 0
M  V30 46497 C 4388.56 -1.07166 1.6363 0
M  V30 46498 O 4389.77 -1.60354 2.19086 0
M  V30 46499 C 4388.22 0.598845 3.54883 0
M  V30 46500 C 4387.83 2.04557 3.98573 0
M  V30 46501 C 4389.58 0.234076 4.23854 0
M  V30 46502 C 4387.48 2.22747 5.47848 0
M  V30 46503 H 4386.41 0.132146 0.74233 0
M  V30 46504 H 4389.06 0.97499 1.55455 0
M  V30 46505 H 4387.45 -0.082483 3.95914 0
M  V30 46506 H 4388.62 2.76358 3.68732 0
M  V30 46507 H 4386.94 2.36891 3.4245 0
M  V30 46508 H 4389.53 0.348214 5.33565 0
M  V30 46509 H 4389.88 -0.818207 4.0818 0
M  V30 46510 H 4390.41 0.868775 3.88197 0
M  V30 46511 H 4387.15 3.2637 5.68474 0
M  V30 46512 H 4386.67 1.55454 5.79305 0
M  V30 46513 H 4388.35 2.03629 6.14121 0
M  V30 46514 N 4388.48 -1.4787 0.54518 0
M  V30 46515 C 4389.7 -2.07391 0.019134 0
M  V30 46516 C 4390.13 -1.39693 -1.25966 0
M  V30 46517 O 4389.49 -0.467878 -1.75159 0
M  V30 46518 C 4389.53 -3.60189 -0.172208 0
M  V30 46519 O 4388.64 -3.93394 -1.23752 0
M  V30 46520 H 4387.98 -0.66241 0.0459292 0
M  V30 46521 H 4390.51 -1.90063 0.757432 0
M  V30 46522 H 4390.52 -4.0613 -0.390162 0
M  V30 46523 H 4389.19 -4.08862 0.761868 0
M  V30 46524 H 4387.77 -3.59213 -1.00102 0
M  V30 46525 N 4389.96 -0.281037 -1.55074 0
M  V30 46526 C 4390.89 0.63719 -2.20165 0
M  V30 46527 C 4391.9 1.11294 -1.18817 0
M  V30 46528 O 4393.09 1.03383 -1.45514 0
M  V30 46529 C 4390.19 1.8819 -2.81847 0
M  V30 46530 C 4389.36 1.55197 -4.08941 0
M  V30 46531 C 4388.42 2.64975 -4.54615 0
M  V30 46532 O 4387.45 2.30911 -5.20259 0
M  V30 46533 N 4388.65 3.95146 -4.25252 0
M  V30 46534 H 4391.42 0.080064 -2.99593 0
M  V30 46535 H 4388.98 -0.102385 -1.61576 0
M  V30 46536 H 4390.97 2.60937 -3.09344 0
M  V30 46537 H 4389.54 2.34792 -2.06377 0
M  V30 46538 H 4388.76 0.658049 -3.88669 0
M  V30 46539 H 4390.05 1.30664 -4.91736 0
M  V30 46540 H 4389.44 4.2564 -3.72622 0
M  V30 46541 H 4388 4.64253 -4.57506 0
M  V30 46542 N 4391.44 1.57598 -0.00841331 0
M  V30 46543 C 4392.35 2.12388 0.996412 0
M  V30 46544 C 4393.36 1.07113 1.37124 0
M  V30 46545 O 4394.54 1.3906 1.45685 0
M  V30 46546 C 4391.6 2.62322 2.2669 0
M  V30 46547 C 4390.66 3.82231 1.95442 0
M  V30 46548 C 4389.9 4.29774 3.16433 0
M  V30 46549 O 4390.12 3.76599 4.28403 0
M  V30 46550 O 4389.05 5.21843 2.9994 0
M  V30 46551 H 4392.88 2.98481 0.56062 0
M  V30 46552 H 4390.46 1.47903 0.210935 0
M  V30 46553 H 4392.35 2.946 3.01312 0
M  V30 46554 H 4391.02 1.79323 2.6949 0
M  V30 46555 H 4389.93 3.54913 1.18269 0
M  V30 46556 H 4391.26 4.6633 1.57472 0
M  V30 46557 N 4392.91 -0.264465 1.55365 0
M  V30 46558 C 4394.16 -0.994924 1.76373 0
M  V30 46559 C 4394.49 -1.85974 0.569565 0
M  V30 46560 O 4393.74 -1.9051 -0.447693 0
M  V30 46561 C 4394.04 -1.90029 3.02694 0
M  V30 46562 C 4393.71 -1.19228 4.34851 0
M  V30 46563 C 4392.37 -0.996544 4.70768 0
M  V30 46564 C 4394.72 -0.689115 5.16624 0
M  V30 46565 C 4392.05 -0.285055 5.86007 0
M  V30 46566 C 4394.4 0.00882318 6.32599 0
M  V30 46567 C 4393.07 0.216197 6.6715 0
M  V30 46568 H 4392.34 -0.364069 0.645395 0
M  V30 46569 H 4394.98 -0.266476 1.89637 0
M  V30 46570 H 4393.29 -2.69523 2.84367 0
M  V30 46571 H 4394.99 -2.46684 3.16145 0
M  V30 46572 H 4391.58 -1.35476 4.06625 0
M  V30 46573 H 4395.76 -0.827936 4.89345 0
M  V30 46574 H 4391.02 -0.113746 6.11294 0
M  V30 46575 H 4395.19 0.40643 6.95213 0
M  V30 46576 H 4392.82 0.769483 7.56296 0
M  V30 46577 N 4394.39 -1.48444 -0.529361 0
M  V30 46578 C 4395.64 -1.55746 -1.28164 0
M  V30 46579 C 4395.95 -0.236579 -1.94164 0
M  V30 46580 O 4397.16 -0.187856 -2.70849 0
M  V30 46581 C 4395.62 -2.74675 -2.32555 0
M  V30 46582 C 4395.22 -4.13408 -1.72621 0
M  V30 46583 C 4396.97 -2.9129 -3.08788 0
M  V30 46584 C 4394.87 -5.23596 -2.74956 0
M  V30 46585 H 4393.8 -0.579813 -0.48201 0
M  V30 46586 H 4396.46 -1.74778 -0.558994 0
M  V30 46587 H 4394.84 -2.49078 -3.07857 0
M  V30 46588 H 4396.01 -4.49025 -1.03503 0
M  V30 46589 H 4394.33 -4.01914 -1.08878 0
M  V30 46590 H 4396.92 -3.7078 -3.85261 0
M  V30 46591 H 4397.27 -2.0077 -3.64688 0
M  V30 46592 H 4397.8 -3.16791 -2.406 0
M  V30 46593 H 4394.54 -6.16084 -2.23876 0
M  V30 46594 H 4394.06 -4.92466 -3.424 0
M  V30 46595 H 4395.74 -5.51736 -3.3793 0
M  V30 46596 N 4395.87 0.778281 -1.37042 0
M  V30 46597 C 4396.83 1.87297 -1.32109 0
M  V30 46598 C 4397.83 1.59197 -0.226461 0
M  V30 46599 O 4399.02 1.67401 -0.48192 0
M  V30 46600 C 4396.15 3.24305 -1.05066 0
M  V30 46601 H 4397.35 1.93084 -2.29474 0
M  V30 46602 H 4394.9 0.977315 -1.21976 0
M  V30 46603 H 4395.64 3.24196 -0.0820512 0
M  V30 46604 H 4395.42 3.46091 -1.84291 0
M  V30 46605 H 4396.91 4.04379 -1.04248 0
M  V30 46606 N 4397.35 1.21505 1.00371 0
M  V30 46607 C 4398.3 0.942916 2.07589 0
M  V30 46608 C 4399.28 -0.102328 1.60574 0
M  V30 46609 O 4400.47 0.106772 1.76678 0
M  V30 46610 C 4397.6 0.510849 3.39478 0
M  V30 46611 C 4396.69 1.59023 3.93157 0
M  V30 46612 N 4397.08 2.81559 4.20188 0
M  V30 46613 C 4395.38 1.4594 4.21447 0
M  V30 46614 C 4396.08 3.51277 4.63659 0
M  V30 46615 N 4395.05 2.78719 4.66708 0
M  V30 46616 H 4398.86 1.87386 2.26415 0
M  V30 46617 H 4396.37 1.11097 1.18454 0
M  V30 46618 H 4398.37 0.297248 4.15839 0
M  V30 46619 H 4397.03 -0.413322 3.22059 0
M  V30 46620 H 4398.04 3.18089 4.08705 0
M  V30 46621 H 4394.72 0.600612 4.13157 0
M  V30 46622 H 4396.11 4.56201 4.93286 0
M  V30 46623 N 4398.83 -1.19885 1.023 0
M  V30 46624 C 4399.76 -2.25139 0.619253 0
M  V30 46625 C 4400.74 -1.66053 -0.368857 0
M  V30 46626 O 4401.92 -1.92547 -0.252873 0
M  V30 46627 C 4399.05 -3.47281 -0.0367562 0
M  V30 46628 C 4398.01 -4.19002 0.873012 0
M  V30 46629 C 4397.33 -5.34636 0.0824281 0
M  V30 46630 C 4398.63 -4.74444 2.18404 0
M  V30 46631 H 4400.33 -2.59166 1.49912 0
M  V30 46632 H 4397.87 -1.24577 0.722266 0
M  V30 46633 H 4399.82 -4.201 -0.330811 0
M  V30 46634 H 4398.55 -3.12436 -0.95138 0
M  V30 46635 H 4397.21 -3.48057 1.15117 0
M  V30 46636 H 4396.86 -4.96037 -0.834046 0
M  V30 46637 H 4396.56 -5.83554 0.688354 0
M  V30 46638 H 4398.08 -6.10256 -0.205023 0
M  V30 46639 H 4399.49 -5.39048 1.95191 0
M  V30 46640 H 4397.89 -5.33825 2.74137 0
M  V30 46641 H 4398.96 -3.92834 2.8427 0
M  V30 46642 N 4400.3 -0.80008 -1.35781 0
M  V30 46643 C 4401.21 -0.207286 -2.33682 0
M  V30 46644 C 4402.23 0.646254 -1.61554 0
M  V30 46645 O 4403.41 0.559536 -1.93471 0
M  V30 46646 C 4400.47 0.639539 -3.4075 0
M  V30 46647 C 4399.53 -0.233736 -4.28663 0
M  V30 46648 C 4398.76 0.572768 -5.30618 0
M  V30 46649 O 4398.99 1.80797 -5.40989 0
M  V30 46650 O 4397.92 -0.0329401 -6.01891 0
M  V30 46651 H 4401.75 -1.01702 -2.86165 0
M  V30 46652 H 4399.33 -0.56174 -1.38437 0
M  V30 46653 H 4401.21 1.12209 -4.06186 0
M  V30 46654 H 4399.89 1.42698 -2.90549 0
M  V30 46655 H 4398.8 -0.763276 -3.66231 0
M  V30 46656 H 4400.13 -0.984954 -4.82244 0
M  V30 46657 N 4401.78 1.47579 -0.553014 0
M  V30 46658 C 4402.74 2.2844 0.186525 0
M  V30 46659 C 4403.74 1.36709 0.846602 0
M  V30 46660 O 4404.93 1.5938 0.703108 0
M  V30 46661 C 4402.07 3.16268 1.27229 0
M  V30 46662 H 4403.26 2.95292 -0.523713 0
M  V30 46663 H 4400.81 1.53199 -0.309799 0
M  V30 46664 H 4401.55 2.54098 2.01505 0
M  V30 46665 H 4401.33 3.83772 0.803833 0
M  V30 46666 H 4402.82 3.77205 1.79183 0
M  V30 46667 N 4403.26 0.289257 1.54923 0
M  V30 46668 C 4404.51 -0.323927 2.00196 0
M  V30 46669 C 4404.84 -1.54437 1.17741 0
M  V30 46670 O 4404.11 -1.92874 0.250946 0
M  V30 46671 C 4404.4 -0.692152 3.53385 0
M  V30 46672 C 4404.25 0.536614 4.46588 0
M  V30 46673 C 4405.57 -1.5232 4.129 0
M  V30 46674 H 4402.69 -0.116264 0.727772 0
M  V30 46675 H 4405.33 0.399019 1.85763 0
M  V30 46676 H 4403.48 -1.3081 3.65816 0
M  V30 46677 H 4405.15 1.17514 4.46081 0
M  V30 46678 H 4403.39 1.17206 4.17666 0
M  V30 46679 H 4404.07 0.235 5.515 0
M  V30 46680 H 4406.54 -1.00288 4.03834 0
M  V30 46681 H 4405.42 -1.74964 5.20268 0
M  V30 46682 H 4405.68 -2.50873 3.64026 0
M  V30 46683 N 4404.74 -1.57591 0.016771 0
M  V30 46684 C 4405.98 -1.91569 -0.665515 0
M  V30 46685 C 4406.32 -0.892359 -1.72484 0
M  V30 46686 O 4405.59 0.0866444 -1.94307 0
M  V30 46687 C 4405.87 -3.36074 -1.2933 0
M  V30 46688 C 4405.73 -4.49136 -0.244383 0
M  V30 46689 C 4407.05 -3.80308 -2.21481 0
M  V30 46690 H 4404.17 -0.696668 -0.240463 0
M  V30 46691 H 4406.81 -1.89865 0.0715023 0
M  V30 46692 H 4404.96 -3.37657 -1.92147 0
M  V30 46693 H 4406.63 -4.59687 0.385389 0
M  V30 46694 H 4404.87 -4.31648 0.431531 0
M  V30 46695 H 4405.54 -5.47244 -0.723014 0
M  V30 46696 H 4408.02 -3.80383 -1.68665 0
M  V30 46697 H 4406.9 -4.82136 -2.62366 0
M  V30 46698 H 4407.16 -3.15115 -3.10088 0
M  V30 46699 N 4406.22 0.256222 -1.55503 0
M  V30 46700 C 4407.44 1.00759 -1.8128 0
M  V30 46701 C 4407.87 1.78522 -0.592582 0
M  V30 46702 O 4407.22 1.75414 0.458208 0
M  V30 46703 C 4407.27 1.92858 -3.04693 0
M  V30 46704 O 4406.38 3.01891 -2.80955 0
M  V30 46705 H 4405.72 0.287203 -0.598674 0
M  V30 46706 H 4408.25 0.280038 -2.02674 0
M  V30 46707 H 4408.26 2.34499 -3.33877 0
M  V30 46708 H 4406.93 1.35675 -3.93148 0
M  V30 46709 H 4405.51 2.64445 -2.62913 0
M  V30 46710 N 4407.69 1.48722 0.521481 0
M  V30 46711 C 4408.92 1.61106 1.30612 0
M  V30 46712 C 4409.34 0.274676 1.86084 0
M  V30 46713 O 4408.7 -0.754879 1.64837 0
M  V30 46714 C 4408.75 2.66718 2.42681 0
M  V30 46715 O 4407.85 2.24468 3.45959 0
M  V30 46716 H 4407.2 0.539934 0.38648 0
M  V30 46717 H 4409.73 1.9477 0.626577 0
M  V30 46718 H 4409.74 2.88255 2.88744 0
M  V30 46719 H 4408.41 3.63734 2.01669 0
M  V30 46720 H 4406.99 2.13179 3.05956 0
M  V30 46721 N 4409.17 -0.771003 1.37453 0
M  V30 46722 C 4410.42 -1.52656 1.3244 0
M  V30 46723 C 4410.74 -1.9479 -0.0904339 0
M  V30 46724 O 4410.01 -1.66352 -1.0346 0
M  V30 46725 H 4408.59 -0.566201 0.487264 0
M  V30 46726 H 4411.25 -0.917575 1.71949 0
M  V30 46727 H 4410.35 -2.42561 1.96394 0
M  V30 46728 N 4410.65 -1.22035 -0.997255 0
M  V30 46729 C 4412.07 -0.979371 -1.26018 0
M  V30 46730 C 4412.27 0.32965 -1.98785 0
M  V30 46731 O 4411.32 1.05337 -2.29478 0
M  V30 46732 C 4412.64 -2.17516 -2.07623 0
M  V30 46733 C 4414.18 -2.21825 -2.20823 0
M  V30 46734 C 4414.66 -3.40944 -3.05813 0
M  V30 46735 N 4416.15 -3.41078 -3.134 0
M  V30 46736 C 4416.88 -4.29899 -3.7944 0
M  V30 46737 N 4416.38 -5.28929 -4.47443 0
M  V30 46738 N 4418.17 -4.17686 -3.76158 0
M  V30 46739 H 4410.32 -2.06204 -0.50928 0
M  V30 46740 H 4412.59 -0.903351 -0.28751 0
M  V30 46741 H 4412.29 -3.1242 -1.61513 0
M  V30 46742 H 4412.17 -2.17217 -3.08378 0
M  V30 46743 H 4414.55 -1.27471 -2.66149 0
M  V30 46744 H 4414.64 -2.26165 -1.19512 0
M  V30 46745 H 4414.28 -4.35596 -2.61188 0
M  V30 46746 H 4414.21 -3.33843 -4.07254 0
M  V30 46747 H 4416.7 -2.69415 -2.64998 0
M  V30 46748 H 4417.01 -5.92991 -4.95562 0
M  V30 46749 H 4415.36 -5.32847 -4.46205 0
M  V30 46750 H 4418.55 -3.39575 -3.2219 0
M  V30 46751 H 4418.72 -4.87113 -4.27346 0
M  V30 46752 N 4412.13 1.19341 -1.02934 0
M  V30 46753 C 4413.37 1.89316 -0.72715 0
M  V30 46754 C 4413.71 1.79449 0.74242 0
M  V30 46755 O 4412.98 1.18715 1.54068 0
M  V30 46756 C 4413.27 3.40233 -1.17954 0
M  V30 46757 C 4413.12 3.5897 -2.71037 0
M  V30 46758 C 4414.44 4.33476 -0.760701 0
M  V30 46759 H 4411.56 0.687466 -0.265631 0
M  V30 46760 H 4414.2 1.40473 -1.27935 0
M  V30 46761 H 4412.35 3.81962 -0.709742 0
M  V30 46762 H 4414.02 3.2641 -3.25967 0
M  V30 46763 H 4412.26 3.02007 -3.11406 0
M  V30 46764 H 4412.93 4.64813 -2.97747 0
M  V30 46765 H 4415.41 3.99465 -1.16478 0
M  V30 46766 H 4414.29 5.3766 -1.10512 0
M  V30 46767 H 4414.55 4.40814 0.336908 0
M  V30 46768 N 4413.61 0.80727 1.35355 0
M  V30 46769 C 4414.52 0.219676 2.33569 0
M  V30 46770 C 4415.53 -0.637677 1.61894 0
M  V30 46771 O 4416.71 -0.549268 1.93765 0
M  V30 46772 C 4413.77 -0.62146 3.41085 0
M  V30 46773 C 4412.83 0.256465 4.28533 0
M  V30 46774 C 4412.07 -0.54462 5.30914 0
M  V30 46775 O 4412.29 -1.77925 5.4194 0
M  V30 46776 O 4411.22 0.0648594 6.01865 0
M  V30 46777 H 4415.05 1.03218 2.85622 0
M  V30 46778 H 4412.64 0.569074 1.38137 0
M  V30 46779 H 4414.52 -1.10053 4.06776 0
M  V30 46780 H 4413.19 -1.41155 2.91302 0
M  V30 46781 H 4412.1 0.782687 3.65821 0
M  V30 46782 H 4413.43 1.01051 4.81715 0
M  V30 46783 N 4415.08 -1.47283 0.560833 0
M  V30 46784 C 4416.03 -2.30059 -0.184829 0
M  V30 46785 C 4417 -1.39284 -0.904937 0
M  V30 46786 O 4418.19 -1.68244 -0.899919 0
M  V30 46787 C 4415.33 -3.23321 -1.20655 0
M  V30 46788 C 4414.44 -4.29188 -0.492134 0
M  V30 46789 C 4413.57 -5.09598 -1.49946 0
M  V30 46790 C 4412.61 -6.07235 -0.770225 0
M  V30 46791 N 4411.75 -6.80591 -1.72456 0
M  V30 46792 H 4416.59 -2.933 0.527152 0
M  V30 46793 H 4414.13 -1.44567 0.271789 0
M  V30 46794 H 4416.09 -3.75817 -1.81155 0
M  V30 46795 H 4414.72 -2.61936 -1.88651 0
M  V30 46796 H 4413.77 -3.79719 0.227466 0
M  V30 46797 H 4415.08 -4.98737 0.0789682 0
M  V30 46798 H 4414.23 -5.66262 -2.17789 0
M  V30 46799 H 4412.97 -4.39958 -2.10448 0
M  V30 46800 H 4411.98 -5.49745 -0.0778914 0
M  V30 46801 H 4413.2 -6.78885 -0.170896 0
M  V30 46802 H 4411.15 -6.13678 -2.31809 0
M  V30 46803 H 4411.07 -7.46324 -1.2057 0
M  V30 46804 H 4412.33 -7.41827 -2.39402 0
M  V30 46805 N 4416.56 -0.297469 -1.54767 0
M  V30 46806 C 4417.79 0.318363 -2.04942 0
M  V30 46807 C 4418.21 1.47005 -1.1735 0
M  V30 46808 O 4417.57 1.80436 -0.176821 0
M  V30 46809 C 4417.62 0.755625 -3.52594 0
M  V30 46810 O 4416.72 1.86076 -3.68035 0
M  V30 46811 H 4416.06 0.0623977 -0.661062 0
M  V30 46812 H 4418.59 -0.438285 -1.99851 0
M  V30 46813 H 4418.6 1.04538 -3.9438 0
M  V30 46814 H 4417.28 -0.0868695 -4.15809 0
M  V30 46815 H 4415.86 1.57182 -3.38154 0
M  V30 46816 N 4418.04 1.5758 -0.0251282 0
M  V30 46817 C 4419.45 1.79478 0.51426 0
M  V30 46818 C 4419.8 0.935017 1.72487 0
M  V30 46819 O 4418.93 0.144321 2.15918 0
M  V30 46820 C 4419.52 3.25507 0.939728 0
M  V30 46821 C 4418.08 3.48413 1.42426 0
M  V30 46822 C 4417.23 2.74585 0.387104 0
M  V30 46823 H 4420.18 1.567 -0.251185 0
M  V30 46824 H 4420.2 3.34999 1.80433 0
M  V30 46825 H 4419.71 3.88056 0.0584264 0
M  V30 46826 H 4417.81 2.91111 2.32562 0
M  V30 46827 H 4417.93 4.57124 1.43439 0
M  V30 46828 H 4416.29 2.39945 0.854324 0
M  V30 46829 H 4417.07 3.39847 -0.485662 0
M  V30 46830 N 4419.52 -0.247971 1.55637 0
M  V30 46831 C 4420.47 -1.30987 1.86618 0
M  V30 46832 C 4421.45 -1.43541 0.726969 0
M  V30 46833 O 4422.64 -1.468 0.98887 0
M  V30 46834 C 4419.77 -2.66552 2.16344 0
M  V30 46835 C 4418.86 -2.58008 3.3659 0
M  V30 46836 N 4419.25 -2.19094 4.55886 0
M  V30 46837 C 4417.55 -2.89023 3.39679 0
M  V30 46838 C 4418.25 -2.21155 5.3802 0
M  V30 46839 N 4417.23 -2.60615 4.77054 0
M  V30 46840 H 4421.03 -0.999486 2.76383 0
M  V30 46841 H 4418.54 -0.456598 1.55849 0
M  V30 46842 H 4420.54 -3.43186 2.36704 0
M  V30 46843 H 4419.2 -2.98458 1.27877 0
M  V30 46844 H 4420.21 -1.90655 4.8153 0
M  V30 46845 H 4416.89 -3.25476 2.6148 0
M  V30 46846 H 4418.28 -1.93418 6.43459 0
M  V30 46847 N 4421 -1.48997 -0.513587 0
M  V30 46848 C 4421.91 -1.67448 -1.64311 0
M  V30 46849 C 4422.92 -0.557005 -1.64844 0
M  V30 46850 O 4424.1 -0.830146 -1.83495 0
M  V30 46851 C 4421.16 -1.72525 -3.00726 0
M  V30 46852 C 4420.23 -2.9602 -3.10919 0
M  V30 46853 C 4419.46 -3.00845 -4.40827 0
M  V30 46854 O 4419.68 -2.13613 -5.28891 0
M  V30 46855 O 4418.62 -3.93184 -4.5573 0
M  V30 46856 H 4422.44 -2.63112 -1.51677 0
M  V30 46857 H 4420.03 -1.3259 -0.688496 0
M  V30 46858 H 4421.91 -1.78291 -3.81825 0
M  V30 46859 H 4420.58 -0.800389 -3.13649 0
M  V30 46860 H 4419.49 -2.95779 -2.29054 0
M  V30 46861 H 4420.82 -3.87945 -3.02919 0
M  V30 46862 N 4422.48 0.763702 -1.3786 0
M  V30 46863 C 4423.41 1.88659 -1.30155 0
M  V30 46864 C 4424.42 1.61364 -0.215741 0
M  V30 46865 O 4425.61 1.72132 -0.47252 0
M  V30 46866 C 4422.71 3.24071 -0.99151 0
M  V30 46867 C 4421.88 3.7895 -2.18439 0
M  V30 46868 C 4420.94 4.92855 -1.84337 0
M  V30 46869 O 4419.97 5.08018 -2.56722 0
M  V30 46870 N 4421.17 5.75068 -0.792284 0
M  V30 46871 H 4423.93 1.95783 -2.26912 0
M  V30 46872 H 4421.5 0.943179 -1.31589 0
M  V30 46873 H 4423.49 3.97801 -0.744075 0
M  V30 46874 H 4422.06 3.12398 -0.112231 0
M  V30 46875 H 4421.28 2.96904 -2.5931 0
M  V30 46876 H 4422.57 4.12347 -2.98073 0
M  V30 46877 H 4421.96 5.65375 -0.191794 0
M  V30 46878 H 4420.52 6.48989 -0.604718 0
M  V30 46879 N 4423.95 1.22562 0.990769 0
M  V30 46880 C 4424.86 1.01402 2.11553 0
M  V30 46881 C 4425.88 -0.038335 1.73958 0
M  V30 46882 O 4427.06 0.154858 2.00804 0
M  V30 46883 C 4424.12 0.59669 3.41527 0
M  V30 46884 C 4423.18 1.7229 3.93211 0
M  V30 46885 C 4422.41 1.32539 5.16981 0
M  V30 46886 O 4422.64 0.205109 5.70031 0
M  V30 46887 O 4421.57 2.14267 5.62471 0
M  V30 46888 H 4425.4 1.95641 2.32289 0
M  V30 46889 H 4422.98 1.01175 1.09927 0
M  V30 46890 H 4424.86 0.374411 4.19733 0
M  V30 46891 H 4423.54 -0.316826 3.22146 0
M  V30 46892 H 4422.45 1.99972 3.16167 0
M  V30 46893 H 4423.78 2.61436 4.17028 0
M  V30 46894 N 4425.43 -1.18793 1.03566 0
M  V30 46895 C 4426.68 -1.87976 0.731302 0
M  V30 46896 C 4426.99 -1.80914 -0.743607 0
M  V30 46897 O 4428.2 -2.45411 -1.16128 0
M  V30 46898 C 4426.66 -3.37205 1.2578 0
M  V30 46899 C 4426.26 -3.52809 2.76098 0
M  V30 46900 C 4428.01 -4.11821 1.02975 0
M  V30 46901 C 4425.91 -4.95969 3.22131 0
M  V30 46902 H 4424.84 -0.704054 0.26986 0
M  V30 46903 H 4427.5 -1.34262 1.25084 0
M  V30 46904 H 4425.88 -3.90357 0.666148 0
M  V30 46905 H 4427.05 -3.09953 3.40977 0
M  V30 46906 H 4425.37 -2.91592 2.97259 0
M  V30 46907 H 4427.96 -5.17406 1.34887 0
M  V30 46908 H 4428.31 -4.16287 -0.0332082 0
M  V30 46909 H 4428.84 -3.64827 1.58575 0
M  V30 46910 H 4425.58 -4.96669 4.27785 0
M  V30 46911 H 4425.1 -5.39559 2.61984 0
M  V30 46912 H 4426.78 -5.64658 3.15864 0
M  V30 46913 N 4426.91 -0.814437 -1.34925 0
M  V30 46914 C 4427.86 -0.228301 -2.29668 0
M  V30 46915 C 4428.83 0.64211 -1.53187 0
M  V30 46916 O 4430.01 0.585541 -1.81593 0
M  V30 46917 C 4427.15 0.61077 -3.39652 0
M  V30 46918 C 4426.26 -0.280944 -4.31085 0
M  V30 46919 C 4425.4 0.566881 -5.28167 0
M  V30 46920 C 4424.44 -0.324746 -6.11238 0
M  V30 46921 N 4423.58 0.48351 -7.00433 0
M  V30 46922 H 4428.42 -1.04163 -2.79203 0
M  V30 46923 H 4425.95 -0.525181 -1.37405 0
M  V30 46924 H 4427.91 1.11248 -4.02094 0
M  V30 46925 H 4426.54 1.38929 -2.91374 0
M  V30 46926 H 4425.59 -0.900818 -3.6958 0
M  V30 46927 H 4426.9 -0.966895 -4.89339 0
M  V30 46928 H 4426.06 1.13342 -5.96019 0
M  V30 46929 H 4424.8 1.28637 -4.70429 0
M  V30 46930 H 4423.8 -0.903489 -5.42326 0
M  V30 46931 H 4425.03 -1.04222 -6.71055 0
M  V30 46932 H 4422.97 1.18683 -6.45175 0
M  V30 46933 H 4422.89 -0.14423 -7.55862 0
M  V30 46934 H 4424.16 1.03307 -7.72624 0
M  V30 46935 N 4428.39 1.46984 -0.568636 0
M  V30 46936 C 4429.63 2.02441 -0.0488698 0
M  V30 46937 C 4429.96 1.44173 1.30554 0
M  V30 46938 O 4429.22 0.591279 1.86554 0
M  V30 46939 C 4429.52 3.57307 0.0817103 0
M  V30 46940 C 4429.18 4.34548 -1.20328 0
M  V30 46941 C 4427.84 4.5537 -1.55536 0
M  V30 46942 C 4430.2 4.79008 -2.05428 0
M  V30 46943 C 4427.52 5.17903 -2.75669 0
M  V30 46944 C 4429.88 5.42867 -3.24773 0
M  V30 46945 C 4428.54 5.6192 -3.60281 0
M  V30 46946 H 4427.81 0.740784 -0.0178827 0
M  V30 46947 H 4430.46 1.76522 -0.742446 0
M  V30 46948 H 4428.76 3.82283 0.858329 0
M  V30 46949 H 4430.46 3.97878 0.499406 0
M  V30 46950 H 4427.05 4.18628 -0.919161 0
M  V30 46951 H 4431.23 4.6269 -1.79532 0
M  V30 46952 H 4426.49 5.30847 -3.03334 0
M  V30 46953 H 4430.66 5.76279 -3.90993 0
M  V30 46954 H 4428.29 6.10145 -4.53461 0
M  V30 46955 N 4429.87 0.305673 1.54607 0
M  V30 46956 C 4431.11 -0.302228 2.00232 0
M  V30 46957 C 4431.44 -1.53536 1.19403 0
M  V30 46958 O 4430.7 -1.93972 0.259491 0
M  V30 46959 C 4430.99 -0.69886 3.50501 0
M  V30 46960 C 4430.66 0.433061 4.48816 0
M  V30 46961 C 4429.32 0.743789 4.75417 0
M  V30 46962 C 4431.67 1.19427 5.07333 0
M  V30 46963 C 4429 1.81876 5.57797 0
M  V30 46964 C 4431.35 2.2592 5.90883 0
M  V30 46965 C 4430.02 2.57594 6.15794 0
M  V30 46966 H 4429.29 -0.110593 0.732701 0
M  V30 46967 H 4431.94 0.42574 1.86708 0
M  V30 46968 H 4430.24 -1.50698 3.61659 0
M  V30 46969 H 4431.94 -1.18047 3.83231 0
M  V30 46970 H 4428.53 0.180781 4.28219 0
M  V30 46971 H 4432.71 0.967466 4.86779 0
M  V30 46972 H 4427.97 2.06884 5.75334 0
M  V30 46973 H 4432.14 2.85357 6.35251 0
M  V30 46974 H 4429.77 3.41021 6.79418 0
M  V30 46975 N 4431.34 -1.57564 0.0334847 0
M  V30 46976 C 4432.31 -2.09396 -0.931974 0
M  V30 46977 C 4433.31 -1.0099 -1.2513 0
M  V30 46978 O 4434.5 -1.27133 -1.19092 0
M  V30 46979 C 4431.63 -2.56346 -2.24721 0
M  V30 46980 H 4432.82 -2.95985 -0.482981 0
M  V30 46981 H 4430.37 -1.54819 -0.214626 0
M  V30 46982 H 4431.11 -1.73099 -2.74239 0
M  V30 46983 H 4430.89 -3.35549 -2.02853 0
M  V30 46984 H 4432.38 -2.96657 -2.93913 0
M  V30 46985 N 4432.82 0.239714 -1.55766 0
M  V30 46986 C 4433.77 1.29689 -1.90917 0
M  V30 46987 C 4434.74 1.47475 -0.764216 0
M  V30 46988 O 4435.92 1.61341 -1.01851 0
M  V30 46989 C 4433.06 2.6459 -2.21553 0
M  V30 46990 C 4432.18 2.54753 -3.48891 0
M  V30 46991 C 4431.31 3.82056 -3.69062 0
M  V30 46992 C 4430.35 3.66865 -4.89976 0
M  V30 46993 N 4429.49 4.86076 -5.06631 0
M  V30 46994 H 4434.33 0.990126 -2.8107 0
M  V30 46995 H 4431.86 0.477635 -1.3913 0
M  V30 46996 H 4433.82 3.43124 -2.37322 0
M  V30 46997 H 4432.45 2.93401 -1.34595 0
M  V30 46998 H 4431.5 1.67751 -3.41415 0
M  V30 46999 H 4432.82 2.39442 -4.37572 0
M  V30 47000 H 4431.97 4.69033 -3.84829 0
M  V30 47001 H 4430.71 4.00272 -2.78628 0
M  V30 47002 H 4429.71 2.78272 -4.74178 0
M  V30 47003 H 4430.94 3.50137 -5.81877 0
M  V30 47004 H 4428.89 5.0464 -4.19135 0
M  V30 47005 H 4428.8 4.73422 -5.89413 0
M  V30 47006 H 4430.07 5.74531 -5.26816 0
M  V30 47007 N 4434.3 1.49267 0.505678 0
M  V30 47008 C 4435.55 1.57766 1.2567 0
M  V30 47009 C 4435.86 0.267439 1.93763 0
M  V30 47010 O 4437.07 0.230922 2.70516 0
M  V30 47011 C 4435.52 2.7834 2.28156 0
M  V30 47012 C 4435.13 4.16102 1.66022 0
M  V30 47013 C 4436.88 2.96166 3.04115 0
M  V30 47014 C 4434.78 5.27904 2.66591 0
M  V30 47015 H 4433.71 0.587408 0.472724 0
M  V30 47016 H 4436.36 1.75646 0.531118 0
M  V30 47017 H 4434.75 2.53944 3.03856 0
M  V30 47018 H 4435.92 4.50615 0.963463 0
M  V30 47019 H 4434.23 4.03595 1.0247 0
M  V30 47020 H 4436.83 3.76863 3.79313 0
M  V30 47021 H 4437.17 2.06547 3.61447 0
M  V30 47022 H 4437.71 3.20578 2.3553 0
M  V30 47023 H 4434.45 6.19568 2.14046 0
M  V30 47024 H 4433.97 4.97851 3.34522 0
M  V30 47025 H 4435.65 5.57042 3.29109 0
M  V30 47026 N 4435.78 -0.756381 1.38263 0
M  V30 47027 C 4436.71 -1.88369 1.37983 0
M  V30 47028 C 4437.69 -1.6831 0.246141 0
M  V30 47029 O 4438.87 -1.88943 0.448806 0
M  V30 47030 C 4436 -3.2586 1.20136 0
M  V30 47031 C 4434.96 -3.60515 2.30679 0
M  V30 47032 C 4434.28 -4.96713 1.97941 0
M  V30 47033 C 4435.58 -3.65679 3.72929 0
M  V30 47034 H 4437.28 -1.88861 2.32318 0
M  V30 47035 H 4434.82 -0.907233 1.11827 0
M  V30 47036 H 4436.78 -4.04376 1.18566 0
M  V30 47037 H 4435.5 -3.2584 0.222613 0
M  V30 47038 H 4434.16 -2.84316 2.3143 0
M  V30 47039 H 4433.81 -4.9325 0.985566 0
M  V30 47040 H 4433.51 -5.20869 2.71974 0
M  V30 47041 H 4435.03 -5.77611 1.97984 0
M  V30 47042 H 4436.45 -4.34315 3.74224 0
M  V30 47043 H 4434.84 -4.01342 4.46144 0
M  V30 47044 H 4435.91 -2.65973 4.05446 0
M  V30 47045 N 4437.26 -1.23086 -0.984255 0
M  V30 47046 C 4438.19 -1.033 -2.09407 0
M  V30 47047 C 4439.17 0.0488632 -1.7003 0
M  V30 47048 O 4440.35 -0.115035 -1.93859 0
M  V30 47049 C 4437.48 -0.619275 -3.41734 0
M  V30 47050 C 4436.44 -1.64805 -3.94998 0
M  V30 47051 C 4435.76 -1.08989 -5.23475 0
M  V30 47052 C 4437.06 -3.04014 -4.24703 0
M  V30 47053 H 4438.76 -1.96127 -2.26218 0
M  V30 47054 H 4436.3 -0.944382 -1.08708 0
M  V30 47055 H 4438.26 -0.467924 -4.18794 0
M  V30 47056 H 4436.98 0.344672 -3.24776 0
M  V30 47057 H 4435.64 -1.78732 -3.20079 0
M  V30 47058 H 4435.29 -0.117037 -5.02864 0
M  V30 47059 H 4434.99 -1.77724 -5.60079 0
M  V30 47060 H 4436.51 -0.950305 -6.0316 0
M  V30 47061 H 4437.92 -2.93411 -4.92527 0
M  V30 47062 H 4436.32 -3.69952 -4.72499 0
M  V30 47063 H 4437.39 -3.53296 -3.32129 0
M  V30 47064 N 4438.73 1.18243 -1.04194 0
M  V30 47065 C 4440.15 1.69911 -0.773757 0
M  V30 47066 C 4440.5 1.83087 0.705232 0
M  V30 47067 O 4439.62 1.51128 1.54885 0
M  V30 47068 C 4440.22 3.08614 -1.39795 0
M  V30 47069 C 4438.78 3.5749 -1.17805 0
M  V30 47070 C 4437.92 2.34007 -1.48781 0
M  V30 47071 H 4440.87 1.029 -1.20819 0
M  V30 47072 H 4440.89 3.71955 -0.801844 0
M  V30 47073 H 4440.41 2.98993 -2.47437 0
M  V30 47074 H 4438.51 3.72405 -0.120426 0
M  V30 47075 H 4438.62 4.40845 -1.87596 0
M  V30 47076 H 4436.98 2.37983 -0.907547 0
M  V30 47077 H 4437.77 2.27004 -2.57535 0
M  V30 47078 N 4440.21 0.821581 1.34491 0
M  V30 47079 C 4441.14 0.25722 2.32079 0
M  V30 47080 C 4442.12 -0.625589 1.58178 0
M  V30 47081 O 4443.31 -0.552746 1.86168 0
M  V30 47082 C 4440.44 -0.582837 3.42374 0
M  V30 47083 C 4439.39 0.202721 4.2752 0
M  V30 47084 C 4438.72 -0.759993 5.29271 0
M  V30 47085 C 4440.02 1.41016 5.02903 0
M  V30 47086 H 4441.71 1.07257 2.79529 0
M  V30 47087 H 4439.26 0.51721 1.34391 0
M  V30 47088 H 4441.21 -0.987828 4.09658 0
M  V30 47089 H 4439.94 -1.43123 2.9357 0
M  V30 47090 H 4438.59 0.589064 3.61836 0
M  V30 47091 H 4438.24 -1.6043 4.7673 0
M  V30 47092 H 4437.94 -0.238603 5.87115 0
M  V30 47093 H 4439.47 -1.16287 5.99424 0
M  V30 47094 H 4440.88 1.07925 5.6305 0
M  V30 47095 H 4439.28 1.8671 5.70315 0
M  V30 47096 H 4440.35 2.18905 4.32676 0
M  V30 47097 N 4441.69 -1.4668 0.576422 0
M  V30 47098 C 4442.94 -2.01618 0.0573534 0
M  V30 47099 C 4443.25 -1.45422 -1.30813 0
M  V30 47100 O 4444.46 -1.9214 -1.91819 0
M  V30 47101 C 4442.91 -3.59862 0.0519636 0
M  V30 47102 C 4442.52 -4.25054 1.41538 0
M  V30 47103 C 4444.27 -4.22481 -0.41349 0
M  V30 47104 C 4442.17 -5.75359 1.36805 0
M  V30 47105 H 4441.1 -0.753793 0.0176713 0
M  V30 47106 H 4443.75 -1.68478 0.727136 0
M  V30 47107 H 4442.14 -3.90051 -0.683857 0
M  V30 47108 H 4443.31 -4.06484 2.17043 0
M  V30 47109 H 4441.63 -3.74503 1.82034 0
M  V30 47110 H 4444.22 -5.32652 -0.467591 0
M  V30 47111 H 4444.57 -3.90981 -1.42968 0
M  V30 47112 H 4445.1 -3.96896 0.268068 0
M  V30 47113 H 4441.84 -6.1151 2.36085 0
M  V30 47114 H 4441.36 -5.96212 0.655105 0
M  V30 47115 H 4443.04 -6.37952 1.07827 0
M  V30 47116 N 4443.17 -0.313868 -1.54443 0
M  V30 47117 C 4444.12 0.572091 -2.25455 0
M  V30 47118 C 4445.11 1.12652 -1.26514 0
M  V30 47119 O 4446.32 1.07568 -1.44323 0
M  V30 47120 H 4442.69 0.203121 -0.724048 0
M  V30 47121 H 4444.66 -0.0492193 -2.98359 0
M  V30 47122 C 4443.41 1.72616 -3.01826 0
M  V30 47123 H 4442.73 1.30877 -3.77771 0
M  V30 47124 H 4444.17 2.32187 -3.54775 0
M  V30 47125 C 4442.63 2.63799 -2.09551 0
M  V30 47126 O 4443.16 3.6525 -1.67198 0
M  V30 47127 N 4441.37 2.31817 -1.7524 0
M  V30 47128 H 4440.92 1.49361 -2.09879 0
M  V30 47129 H 4440.87 2.93091 -1.13777 0
M  V30 47130 N 4444.65 1.57544 -0.0418402 0
M  V30 47131 C 4445.58 2.07908 0.964726 0
M  V30 47132 C 4446.59 1.00502 1.28075 0
M  V30 47133 O 4447.78 1.28091 1.24318 0
M  V30 47134 C 4444.88 2.49936 2.28878 0
M  V30 47135 C 4444.05 3.80569 2.15605 0
M  V30 47136 C 4443.11 4.0901 3.31054 0
M  V30 47137 O 4442.14 4.79072 3.07373 0
M  V30 47138 N 4443.34 3.60186 4.55243 0
M  V30 47139 H 4446.11 2.94888 0.534925 0
M  V30 47140 H 4443.67 1.61253 0.144624 0
M  V30 47141 H 4445.66 2.66045 3.04962 0
M  V30 47142 H 4444.23 1.68254 2.63457 0
M  V30 47143 H 4443.45 3.74133 1.2417 0
M  V30 47144 H 4444.74 4.66133 2.03954 0
M  V30 47145 H 4444.13 3.03528 4.77375 0
M  V30 47146 H 4442.69 3.8155 5.28453 0
M  V30 47147 N 4446.12 -0.23145 1.55891 0
M  V30 47148 C 4447.35 -0.973028 1.82252 0
M  V30 47149 C 4447.76 -1.78843 0.617391 0
M  V30 47150 O 4447.11 -1.78753 -0.423436 0
M  V30 47151 C 4447.17 -1.94721 3.02198 0
M  V30 47152 C 4446.83 -1.31727 4.37604 0
M  V30 47153 C 4447.83 -0.712057 5.15001 0
M  V30 47154 C 4445.51 -1.33201 4.84317 0
M  V30 47155 C 4447.51 -0.129971 6.37267 0
M  V30 47156 C 4445.19 -0.746073 6.06529 0
M  V30 47157 C 4446.19 -0.146097 6.82844 0
M  V30 47158 O 4445.88 0.430747 8.02745 0
M  V30 47159 H 4445.61 -0.291229 0.610051 0
M  V30 47160 H 4448.17 -0.254843 2.03813 0
M  V30 47161 H 4446.4 -2.70412 2.76431 0
M  V30 47162 H 4448.09 -2.55351 3.15517 0
M  V30 47163 H 4448.85 -0.693071 4.80022 0
M  V30 47164 H 4444.73 -1.78839 4.24897 0
M  V30 47165 H 4448.27 0.338955 6.96776 0
M  V30 47166 H 4444.17 -0.762437 6.40981 0
M  V30 47167 H 4444.94 0.324105 8.17858 0
M  V30 47168 N 4447.6 -1.49533 -0.497755 0
M  V30 47169 C 4448.85 -1.59184 -1.25167 0
M  V30 47170 C 4449.18 -0.279999 -1.92474 0
M  V30 47171 O 4448.43 0.73232 -1.81482 0
M  V30 47172 C 4448.73 -2.7026 -2.33868 0
M  V30 47173 C 4448.4 -4.1165 -1.83997 0
M  V30 47174 C 4447.06 -4.50127 -1.70116 0
M  V30 47175 C 4449.41 -5.00126 -1.46707 0
M  V30 47176 C 4446.74 -5.74849 -1.17327 0
M  V30 47177 C 4449.09 -6.2537 -0.9537 0
M  V30 47178 C 4447.76 -6.62673 -0.801305 0
M  V30 47179 H 4447.03 -0.582494 -0.458019 0
M  V30 47180 H 4449.67 -1.83375 -0.551883 0
M  V30 47181 H 4447.98 -2.40052 -3.09649 0
M  V30 47182 H 4449.67 -2.74935 -2.9191 0
M  V30 47183 H 4446.26 -3.81281 -1.95762 0
M  V30 47184 H 4450.45 -4.71053 -1.56278 0
M  V30 47185 H 4445.7 -6.02448 -1.04243 0
M  V30 47186 H 4449.88 -6.93304 -0.655981 0
M  V30 47187 H 4447.51 -7.59199 -0.390084 0
M  V30 47188 N 4449.08 0.749038 -1.38662 0
M  V30 47189 C 4450.31 1.53829 -1.38363 0
M  V30 47190 C 4450.72 1.88783 0.0254555 0
M  V30 47191 O 4450.08 1.53105 0.993238 0
M  V30 47192 C 4450.13 2.8346 -2.24349 0
M  V30 47193 O 4449.85 2.49995 -3.59769 0
M  V30 47194 C 4451.35 3.77572 -2.3228 0
M  V30 47195 H 4448.57 0.475834 -0.4731 0
M  V30 47196 H 4451.12 0.926662 -1.823 0
M  V30 47197 H 4449.27 3.40989 -1.83863 0
M  V30 47198 H 4449.69 3.33167 -4.05092 0
M  V30 47199 H 4451.16 4.65468 -2.96722 0
M  V30 47200 H 4451.64 4.1833 -1.3378 0
M  V30 47201 H 4452.24 3.25967 -2.73177 0
M  V30 47202 N 4450.56 1.23606 0.977714 0
M  V30 47203 C 4451.51 1.01712 2.09183 0
M  V30 47204 C 4452.5 -0.0447619 1.69341 0
M  V30 47205 O 4453.71 0.108965 1.7967 0
M  V30 47206 H 4450.08 0.311827 0.684301 0
M  V30 47207 H 4452.05 1.96215 2.24816 0
M  V30 47208 C 4450.8 0.627866 3.41984 0
M  V30 47209 H 4450.13 1.43669 3.73094 0
M  V30 47210 H 4451.57 0.514201 4.2087 0
M  V30 47211 C 4450.02 -0.664122 3.30289 0
M  V30 47212 O 4450.55 -1.71255 3.63366 0
M  V30 47213 N 4448.76 -0.641056 2.83441 0
M  V30 47214 H 4448.31 0.212467 2.56722 0
M  V30 47215 H 4448.27 -1.50573 2.75998 0
M  V30 47216 N 4452.04 -1.17688 1.0482 0
M  V30 47217 C 4452.99 -2.19518 0.616119 0
M  V30 47218 C 4453.97 -1.57148 -0.34543 0
M  V30 47219 O 4455.16 -1.76245 -0.163263 0
M  V30 47220 C 4452.29 -3.43298 -0.0115711 0
M  V30 47221 C 4451.38 -4.12774 0.97358 0
M  V30 47222 N 4451.77 -4.58133 2.14355 0
M  V30 47223 C 4450.07 -4.38744 0.801234 0
M  V30 47224 C 4450.77 -5.11704 2.76648 0
M  V30 47225 N 4449.74 -5.03679 2.04471 0
M  V30 47226 H 4453.55 -2.52287 1.50759 0
M  V30 47227 H 4451.06 -1.33977 0.917823 0
M  V30 47228 H 4453.06 -4.15521 -0.33886 0
M  V30 47229 H 4451.72 -3.12021 -0.898483 0
M  V30 47230 H 4452.73 -4.5234 2.52207 0
M  V30 47231 H 4449.41 -4.17485 -0.0349466 0
M  V30 47232 H 4450.8 -5.56949 3.75843 0
M  V30 47233 N 4453.52 -0.828702 -1.34053 0
M  V30 47234 C 4454.76 -0.425464 -1.99923 0
M  V30 47235 C 4455.12 0.994237 -1.64253 0
M  V30 47236 O 4456.32 1.50066 -2.2301 0
M  V30 47237 C 4454.59 -0.628195 -3.51836 0
M  V30 47238 S 4456.15 -0.318664 -4.37641 0
M  V30 47239 H 4452.97 -0.16049 -0.69265 0
M  V30 47240 H 4455.57 -1.07577 -1.6324 0
M  V30 47241 H 4454.27 -1.66102 -3.75284 0
M  V30 47242 H 4453.81 0.0366416 -3.93383 0
M  V30 47243 H 4455.82 0.86546 -4.88594 0
M  V30 47244 N 4454.99 1.46373 -0.584193 0
M  V30 47245 C 4455.92 2.33104 0.135955 0
M  V30 47246 C 4456.9 1.45434 0.882204 0
M  V30 47247 O 4458.09 1.74249 0.857372 0
M  V30 47248 C 4455.22 3.27735 1.14922 0
M  V30 47249 C 4454.17 4.24857 0.517713 0
M  V30 47250 C 4453.5 5.09007 1.63755 0
M  V30 47251 C 4454.8 5.19438 -0.546068 0
M  V30 47252 H 4456.49 2.93565 -0.588189 0
M  V30 47253 H 4454.04 1.41165 -0.284308 0
M  V30 47254 H 4455.99 3.87267 1.66139 0
M  V30 47255 H 4454.72 2.65384 1.90366 0
M  V30 47256 H 4453.38 3.6659 0.0266072 0
M  V30 47257 H 4453.02 4.4304 2.38169 0
M  V30 47258 H 4452.72 5.74782 1.22065 0
M  V30 47259 H 4454.25 5.71403 2.15246 0
M  V30 47260 H 4455.66 5.73177 -0.118906 0
M  V30 47261 H 4454.06 5.93562 -0.883379 0
M  V30 47262 H 4455.13 4.6328 -1.43178 0
M  V30 47263 N 4456.47 0.322054 1.54274 0
M  V30 47264 C 4457.7 -0.28257 2.04659 0
M  V30 47265 C 4458.11 -1.46449 1.19789 0
M  V30 47266 O 4457.45 -1.82366 0.220996 0
M  V30 47267 C 4457.51 -0.781734 3.50898 0
M  V30 47268 C 4457.18 0.277678 4.56156 0
M  V30 47269 C 4458.18 1.11325 5.07841 0
M  V30 47270 C 4455.86 0.425432 5.00495 0
M  V30 47271 C 4457.85 2.08232 6.02427 0
M  V30 47272 C 4455.54 1.39792 5.94896 0
M  V30 47273 C 4456.54 2.22483 6.45748 0
M  V30 47274 O 4456.23 3.1808 7.38296 0
M  V30 47275 H 4455.96 -0.06224 0.673129 0
M  V30 47276 H 4458.51 0.465862 2.00047 0
M  V30 47277 H 4456.74 -1.58105 3.52902 0
M  V30 47278 H 4458.43 -1.30454 3.84365 0
M  V30 47279 H 4459.2 1.01007 4.74365 0
M  V30 47280 H 4455.08 -0.208308 4.60529 0
M  V30 47281 H 4458.62 2.72813 6.42043 0
M  V30 47282 H 4454.52 1.50174 6.27788 0
M  V30 47283 H 4455.29 3.13302 7.56164 0
M  V30 47284 N 4457.95 -1.5752 0.0501946 0
M  V30 47285 C 4459.2 -1.92652 -0.623806 0
M  V30 47286 C 4459.52 -0.928471 -1.70908 0
M  V30 47287 O 4458.78 0.0593837 -1.9561 0
M  V30 47288 C 4459.08 -3.34471 -1.25951 0
M  V30 47289 C 4458.74 -4.49884 -0.30253 0
M  V30 47290 C 4457.41 -4.81184 -0.0391944 0
M  V30 47291 C 4459.76 -5.20001 0.353388 0
M  V30 47292 C 4457.09 -5.79948 0.887512 0
M  V30 47293 C 4459.44 -6.19756 1.26828 0
M  V30 47294 C 4458.1 -6.49485 1.5403 0
M  V30 47295 H 4457.37 -0.704965 -0.228267 0
M  V30 47296 H 4460.02 -1.91146 0.116465 0
M  V30 47297 H 4458.32 -3.3234 -2.07503 0
M  V30 47298 H 4460.02 -3.58934 -1.78794 0
M  V30 47299 H 4456.61 -4.25459 -0.517959 0
M  V30 47300 H 4460.8 -4.96032 0.163029 0
M  V30 47301 H 4456.05 -6.01318 1.10574 0
M  V30 47302 H 4460.23 -6.73199 1.7826 0
M  V30 47303 H 4457.85 -7.25829 2.26001 0
M  V30 47304 N 4459.43 0.223179 -1.56012 0
M  V30 47305 C 4460.36 1.27981 -1.95303 0
M  V30 47306 C 4461.34 1.48973 -0.821032 0
M  V30 47307 O 4462.52 1.61184 -1.08321 0
M  V30 47308 C 4459.65 2.62992 -2.26831 0
M  V30 47309 C 4458.61 2.56659 -3.42506 0
M  V30 47310 C 4457.93 3.95685 -3.59636 0
M  V30 47311 C 4459.23 2.11584 -4.77524 0
M  V30 47312 H 4460.93 0.953425 -2.83814 0
M  V30 47313 H 4458.47 0.457196 -1.36549 0
M  V30 47314 H 4460.43 3.37068 -2.5291 0
M  V30 47315 H 4459.15 2.97315 -1.35172 0
M  V30 47316 H 4457.81 1.8504 -3.16474 0
M  V30 47317 H 4457.46 4.27312 -2.65355 0
M  V30 47318 H 4457.16 3.92329 -4.37438 0
M  V30 47319 H 4458.68 4.71425 -3.88061 0
M  V30 47320 H 4460.1 2.75402 -5.02818 0
M  V30 47321 H 4458.49 2.19291 -5.58598 0
M  V30 47322 H 4459.56 1.06808 -4.72991 0
M  V30 47323 N 4460.91 1.49795 0.489818 0
M  V30 47324 C 4462.13 1.6384 1.27166 0
M  V30 47325 C 4462.56 0.314085 1.85459 0
M  V30 47326 O 4461.91 -0.719745 1.66401 0
M  V30 47327 C 4461.96 2.71806 2.36969 0
M  V30 47328 O 4461.07 2.31756 3.4112 0
M  V30 47329 H 4460.41 0.548011 0.37494 0
M  V30 47330 H 4462.94 1.96055 0.585122 0
M  V30 47331 H 4462.95 2.94315 2.82565 0
M  V30 47332 H 4461.62 3.6793 1.93908 0
M  V30 47333 H 4460.2 2.19621 3.01365 0
M  V30 47334 N 4462.38 -0.741673 1.39057 0
M  V30 47335 C 4463.61 -1.53093 1.39177 0
M  V30 47336 C 4464.03 -1.88794 -0.0154435 0
M  V30 47337 O 4463.38 -1.53629 -0.985105 0
M  V30 47338 C 4463.43 -2.82266 2.2585 0
M  V30 47339 O 4463.16 -2.48084 3.6109 0
M  V30 47340 C 4464.66 -3.76335 2.34279 0
M  V30 47341 H 4461.88 -0.473318 0.475616 0
M  V30 47342 H 4464.42 -0.916981 1.82789 0
M  V30 47343 H 4462.58 -3.40009 1.85668 0
M  V30 47344 H 4462.99 -3.31014 4.06854 0
M  V30 47345 H 4464.46 -4.63887 2.99186 0
M  V30 47346 H 4464.94 -4.17614 1.35996 0
M  V30 47347 H 4465.55 -3.24513 2.74902 0
M  V30 47348 N 4463.86 -1.24123 -0.971145 0
M  V30 47349 C 4465.27 -1.07241 -1.52827 0
M  V30 47350 C 4465.62 0.357284 -1.92919 0
M  V30 47351 O 4464.75 1.24522 -1.76984 0
M  V30 47352 C 4465.34 -1.94053 -2.77721 0
M  V30 47353 C 4463.9 -1.81405 -3.29802 0
M  V30 47354 C 4463.05 -1.89196 -2.02732 0
M  V30 47355 H 4466 -1.3765 -0.789815 0
M  V30 47356 H 4466.02 -1.47078 -3.50925 0
M  V30 47357 H 4465.53 -2.98102 -2.4851 0
M  V30 47358 H 4463.63 -0.801762 -3.63872 0
M  V30 47359 H 4463.75 -2.65308 -3.98934 0
M  V30 47360 H 4462.11 -1.32884 -2.17287 0
M  V30 47361 H 4462.89 -2.94818 -1.7589 0
M  V30 47362 N 4465.34 1.17131 -1.05443 0
M  V30 47363 C 4466.3 2.19436 -0.661841 0
M  V30 47364 C 4467.3 1.582 0.287986 0
M  V30 47365 O 4468.49 1.74053 0.0715191 0
M  V30 47366 C 4465.63 3.40889 0.027501 0
M  V30 47367 H 4466.82 2.55683 -1.56737 0
M  V30 47368 H 4464.37 1.31256 -0.848613 0
M  V30 47369 H 4465.11 3.1019 0.94618 0
M  V30 47370 H 4464.89 3.86584 -0.655374 0
M  V30 47371 H 4466.38 4.16604 0.288196 0
M  V30 47372 N 4466.82 0.835799 1.33612 0
M  V30 47373 C 4467.77 0.26481 2.29276 0
M  V30 47374 C 4468.74 -0.617658 1.54189 0
M  V30 47375 O 4469.92 -0.556577 1.82502 0
M  V30 47376 C 4467.06 -0.556657 3.40581 0
M  V30 47377 C 4466.17 0.34949 4.30584 0
M  V30 47378 C 4465.31 -0.482783 5.29002 0
M  V30 47379 C 4464.35 0.421947 6.10644 0
M  V30 47380 N 4463.48 -0.372016 7.01114 0
M  V30 47381 H 4468.32 1.08591 2.7751 0
M  V30 47382 H 4465.86 0.546975 1.36553 0
M  V30 47383 H 4467.82 -1.04837 4.03813 0
M  V30 47384 H 4466.45 -1.34276 2.93547 0
M  V30 47385 H 4465.5 0.959501 3.681 0
M  V30 47386 H 4466.81 1.04462 4.87739 0
M  V30 47387 H 4465.97 -1.03845 5.97747 0
M  V30 47388 H 4464.71 -1.21137 4.72416 0
M  V30 47389 H 4463.71 0.989654 5.4082 0
M  V30 47390 H 4464.94 1.14884 6.69312 0
M  V30 47391 H 4462.88 -1.08404 6.46981 0
M  V30 47392 H 4462.8 0.264463 7.55537 0
M  V30 47393 H 4464.07 -0.91002 7.7417 0
M  V30 47394 N 4468.3 -1.46061 0.591947 0
M  V30 47395 C 4469.54 -2.02637 0.0811903 0
M  V30 47396 C 4469.88 -1.46134 -1.279 0
M  V30 47397 O 4469.15 -0.629972 -1.84015 0
M  V30 47398 C 4469.43 -3.60091 0.0253702 0
M  V30 47399 C 4469.29 -4.2696 1.41511 0
M  V30 47400 C 4470.61 -4.34962 -0.670532 0
M  V30 47401 H 4467.72 -0.736349 0.0309783 0
M  V30 47402 H 4470.37 -1.74098 0.76092 0
M  V30 47403 H 4468.52 -3.84537 -0.553489 0
M  V30 47404 H 4470.19 -4.13749 2.03985 0
M  V30 47405 H 4468.43 -3.85964 1.98025 0
M  V30 47406 H 4469.1 -5.35776 1.32844 0
M  V30 47407 H 4471.58 -4.15716 -0.178679 0
M  V30 47408 H 4470.45 -5.44689 -0.678646 0
M  V30 47409 H 4470.72 -4.06691 -1.73364 0
M  V30 47410 N 4469.77 -0.330231 -1.54101 0
M  V30 47411 C 4470.7 0.525273 -2.27515 0
M  V30 47412 C 4471.69 1.11379 -1.28564 0
M  V30 47413 O 4472.87 1.13767 -1.57387 0
M  V30 47414 C 4470 1.68299 -3.03797 0
M  V30 47415 C 4468.95 1.22346 -4.10141 0
M  V30 47416 C 4468.28 2.46865 -4.74301 0
M  V30 47417 C 4469.58 0.333514 -5.21234 0
M  V30 47418 H 4471.27 -0.0871182 -2.99273 0
M  V30 47419 H 4468.82 -0.0433399 -1.43935 0
M  V30 47420 H 4470.77 2.28782 -3.53888 0
M  V30 47421 H 4469.5 2.32208 -2.29667 0
M  V30 47422 H 4468.16 0.641523 -3.60943 0
M  V30 47423 H 4467.8 3.09152 -3.9678 0
M  V30 47424 H 4467.5 2.16806 -5.4614 0
M  V30 47425 H 4469.03 3.08098 -5.2717 0
M  V30 47426 H 4470.44 0.844813 -5.67041 0
M  V30 47427 H 4468.84 0.125402 -5.99969 0
M  V30 47428 H 4469.91 -0.633893 -4.80739 0
M  V30 47429 N 4471.25 1.57491 -0.0585476 0
M  V30 47430 C 4472.5 1.92599 0.612369 0
M  V30 47431 C 4472.82 0.938222 1.70946 0
M  V30 47432 O 4472.09 -0.0157612 1.95894 0
M  V30 47433 H 4470.67 0.710972 0.229189 0
M  V30 47434 H 4473.33 1.9457 -0.113286 0
M  V30 47435 H 4472.43 2.94042 1.04623 0
M  V30 47436 N 4472.73 -0.214903 1.56128 0
M  V30 47437 C 4473.96 -0.959175 1.83887 0
M  V30 47438 C 4474.38 -1.76888 0.639706 0
M  V30 47439 O 4473.74 -1.76567 -0.411539 0
M  V30 47440 C 4473.79 -1.84712 3.097 0
M  V30 47441 O 4472.89 -2.94335 2.88861 0
M  V30 47442 H 4472.23 -0.271229 0.606078 0
M  V30 47443 H 4474.76 -0.226204 2.03346 0
M  V30 47444 H 4474.77 -2.25565 3.39977 0
M  V30 47445 H 4473.45 -1.25204 3.96607 0
M  V30 47446 H 4472.02 -2.57381 2.69832 0
M  V30 47447 N 4474.21 -1.50053 -0.481867 0
M  V30 47448 C 4475.46 -1.60185 -1.23228 0
M  V30 47449 C 4475.78 -0.299244 -1.9269 0
M  V30 47450 O 4475.05 0.682643 -1.83621 0
M  V30 47451 H 4473.63 -0.590248 -0.457839 0
M  V30 47452 H 4476.29 -1.86777 -0.556815 0
M  V30 47453 H 4475.39 -2.4076 -1.98598 0
M  V30 47454 N 4475.69 0.734288 -1.39449 0
M  V30 47455 C 4476.93 1.49091 -1.36441 0
M  V30 47456 C 4477.26 1.94961 0.0387569 0
M  V30 47457 O 4476.53 1.69036 0.990131 0
M  V30 47458 H 4475.11 0.553083 -0.502104 0
M  V30 47459 H 4477.77 0.871664 -1.74322 0
M  V30 47460 H 4476.86 2.37269 -2.02756 0
M  V30 47461 N 4477.16 1.24636 0.964549 0
M  V30 47462 C 4478.11 1.00848 2.04484 0
M  V30 47463 C 4479.1 -0.0511903 1.60819 0
M  V30 47464 O 4480.29 0.162927 1.76249 0
M  V30 47465 C 4477.42 0.618592 3.37681 0
M  V30 47466 C 4476.51 1.71451 3.87899 0
M  V30 47467 N 4476.9 2.94784 4.11018 0
M  V30 47468 C 4475.19 1.59274 4.16591 0
M  V30 47469 C 4475.9 3.6585 4.52248 0
M  V30 47470 N 4474.87 2.93426 4.57605 0
M  V30 47471 H 4478.67 1.94495 2.20338 0
M  V30 47472 H 4476.19 1.14809 1.14859 0
M  V30 47473 H 4478.18 0.429393 4.14683 0
M  V30 47474 H 4476.84 -0.310653 3.23211 0
M  V30 47475 H 4477.86 3.30931 3.98378 0
M  V30 47476 H 4474.53 0.731751 4.11037 0
M  V30 47477 H 4475.92 4.71663 4.78522 0
M  V30 47478 N 4478.64 -1.1657 1.06062 0
M  V30 47479 C 4479.61 -2.19082 0.673469 0
M  V30 47480 C 4480.61 -1.58351 -0.279592 0
M  V30 47481 O 4481.8 -1.74089 -0.0622876 0
M  V30 47482 C 4478.93 -3.40899 -0.00942249 0
M  V30 47483 H 4480.12 -2.54848 1.5809 0
M  V30 47484 H 4477.67 -1.30805 0.855562 0
M  V30 47485 H 4478.41 -3.10688 -0.929717 0
M  V30 47486 H 4478.19 -3.86231 0.675866 0
M  V30 47487 H 4479.68 -4.16751 -0.266098 0
M  V30 47488 N 4480.12 -0.842873 -1.33167 0
M  V30 47489 C 4481.35 -0.4532 -2.02388 0
M  V30 47490 C 4481.77 0.939048 -1.62983 0
M  V30 47491 O 4481.13 1.61469 -0.824457 0
M  V30 47492 C 4481.18 -0.586219 -3.55803 0
M  V30 47493 O 4480.28 0.385885 -4.10591 0
M  V30 47494 H 4479.62 -0.183687 -0.638087 0
M  V30 47495 H 4482.15 -1.13881 -1.69977 0
M  V30 47496 H 4482.16 -0.469351 -4.05291 0
M  V30 47497 H 4480.84 -1.60154 -3.83827 0
M  V30 47498 H 4479.41 0.22624 -3.72213 0
M  V30 47499 N 4481.6 1.45745 -0.599685 0
M  V30 47500 C 4482.55 2.322 0.136345 0
M  V30 47501 C 4483.54 1.455 0.867531 0
M  V30 47502 O 4484.75 1.62029 0.783994 0
M  V30 47503 H 4481.12 0.74937 0.0628325 0
M  V30 47504 H 4483.09 2.9207 -0.611384 0
M  V30 47505 C 4481.84 3.28978 1.12555 0
M  V30 47506 H 4481.17 3.95682 0.572345 0
M  V30 47507 H 4482.61 3.92218 1.61063 0
M  V30 47508 C 4481.06 2.55569 2.19514 0
M  V30 47509 O 4481.59 2.33122 3.27134 0
M  V30 47510 N 4479.8 2.15839 1.94582 0
M  V30 47511 H 4479.35 2.34294 1.0707 0
M  V30 47512 H 4479.31 1.67044 2.66353 0
M  V30 47513 N 4483.08 0.338398 1.53924 0
M  V30 47514 C 4484.02 -0.520766 2.24848 0
M  V30 47515 C 4484.99 -1.09972 1.2448 0
M  V30 47516 O 4486.18 -1.1373 1.532 0
M  V30 47517 C 4483.32 -1.6684 3.0209 0
M  V30 47518 C 4482.43 -1.11725 4.17303 0
M  V30 47519 C 4481.57 -2.23176 4.82043 0
M  V30 47520 C 4480.61 -1.65386 5.89333 0
M  V30 47521 N 4479.74 -2.70559 6.47875 0
M  V30 47522 H 4484.58 0.0905929 2.97862 0
M  V30 47523 H 4482.12 0.0564798 1.46992 0
M  V30 47524 H 4484.08 -2.34395 3.4513 0
M  V30 47525 H 4482.71 -2.25082 2.31383 0
M  V30 47526 H 4481.76 -0.332786 3.78942 0
M  V30 47527 H 4483.07 -0.654503 4.94487 0
M  V30 47528 H 4482.23 -2.98607 5.28128 0
M  V30 47529 H 4480.97 -2.72792 4.04272 0
M  V30 47530 H 4479.97 -0.884588 5.42637 0
M  V30 47531 H 4481.2 -1.16628 6.6901 0
M  V30 47532 H 4479.14 -3.1944 5.7297 0
M  V30 47533 H 4479.06 -2.28892 7.20517 0
M  V30 47534 H 4480.33 -3.45775 6.98613 0
M  V30 47535 N 4484.56 -1.57458 0.0668989 0
M  V30 47536 C 4485.47 -2.1594 -0.916899 0
M  V30 47537 C 4486.48 -1.12128 -1.33054 0
M  V30 47538 O 4487.66 -1.44371 -1.40424 0
M  V30 47539 C 4484.72 -2.70554 -2.16798 0
M  V30 47540 C 4483.78 -3.89222 -1.81121 0
M  V30 47541 C 4483.02 -4.41222 -3.00265 0
M  V30 47542 O 4483.24 -3.9224 -4.14131 0
M  V30 47543 O 4482.17 -5.32615 -2.80365 0
M  V30 47544 H 4486 -3.00356 -0.449455 0
M  V30 47545 H 4483.58 -1.48584 -0.155897 0
M  V30 47546 H 4485.47 -3.0558 -2.90171 0
M  V30 47547 H 4484.14 -1.89201 -2.62649 0
M  V30 47548 H 4483.05 -3.59058 -1.05015 0
M  V30 47549 H 4484.38 -4.71853 -1.40056 0
M  V30 47550 N 4486.03 0.20662 -1.5624 0
M  V30 47551 C 4486.98 1.2561 -1.93625 0
M  V30 47552 C 4487.95 1.45821 -0.795326 0
M  V30 47553 O 4489.14 1.59145 -1.0525 0
M  V30 47554 C 4486.28 2.59831 -2.27116 0
M  V30 47555 C 4485.39 2.47295 -3.54216 0
M  V30 47556 C 4484.52 3.74141 -3.77083 0
M  V30 47557 C 4483.56 3.5639 -4.97647 0
M  V30 47558 N 4482.7 4.7522 -5.16827 0
M  V30 47559 H 4487.54 0.930284 -2.83107 0
M  V30 47560 H 4485.08 0.448016 -1.40111 0
M  V30 47561 H 4487.03 3.38013 -2.44547 0
M  V30 47562 H 4485.66 2.9048 -1.40789 0
M  V30 47563 H 4484.72 1.60471 -3.44896 0
M  V30 47564 H 4486.03 2.30106 -4.42552 0
M  V30 47565 H 4485.18 4.60764 -3.94691 0
M  V30 47566 H 4483.92 3.94272 -2.87055 0
M  V30 47567 H 4482.93 2.68151 -4.79974 0
M  V30 47568 H 4484.15 3.37716 -5.89173 0
M  V30 47569 H 4482.1 4.95636 -4.29745 0
M  V30 47570 H 4482.01 4.60814 -5.99322 0
M  V30 47571 H 4483.28 5.63227 -5.38884 0
M  V30 47572 N 4487.51 1.50306 0.473902 0
M  V30 47573 C 4488.42 1.71746 1.59814 0
M  V30 47574 C 4489.44 0.600515 1.63309 0
M  V30 47575 O 4490.61 0.878505 1.8123 0
M  V30 47576 C 4487.68 1.80438 2.96046 0
M  V30 47577 C 4486.74 3.04159 3.02962 0
M  V30 47578 C 4485.97 3.12427 4.32695 0
M  V30 47579 O 4486.2 2.2756 5.23041 0
M  V30 47580 O 4485.13 4.05129 4.45145 0
M  V30 47581 H 4488.96 2.6704 1.44648 0
M  V30 47582 H 4486.54 1.34369 0.6531 0
M  V30 47583 H 4488.42 1.88351 3.76964 0
M  V30 47584 H 4487.1 0.883266 3.11416 0
M  V30 47585 H 4486 3.01748 2.21132 0
M  V30 47586 H 4487.34 3.9584 2.92527 0
M  V30 47587 N 4488.99 -0.726883 1.39836 0
M  V30 47588 C 4489.92 -1.85005 1.33598 0
M  V30 47589 C 4490.9 -1.61261 0.208248 0
M  V30 47590 O 4492.08 -1.8442 0.390046 0
M  V30 47591 C 4489.21 -3.21139 1.07645 0
M  V30 47592 C 4488.26 -3.63729 2.22718 0
M  V30 47593 S 4489.09 -3.72153 3.85048 0
M  V30 47594 C 4490.25 -5.11064 3.61336 0
M  V30 47595 H 4490.48 -1.90014 2.28652 0
M  V30 47596 H 4488.01 -0.89255 1.25988 0
M  V30 47597 H 4489.97 -3.99744 0.933556 0
M  V30 47598 H 4488.63 -3.13776 0.142636 0
M  V30 47599 H 4487.82 -4.62544 2.00172 0
M  V30 47600 H 4487.43 -2.92352 2.33252 0
M  V30 47601 H 4489.72 -5.97644 3.19104 0
M  V30 47602 H 4490.66 -5.38642 4.59642 0
M  V30 47603 H 4491.07 -4.81124 2.95262 0
M  V30 47604 N 4490.47 -1.25146 -0.957926 0
M  V30 47605 C 4491.72 -1.09095 -1.6965 0
M  V30 47606 C 4492.03 0.36848 -1.92098 0
M  V30 47607 O 4493.24 0.649363 -2.6362 0
M  V30 47608 C 4491.69 -1.90406 -3.05407 0
M  V30 47609 C 4491.3 -3.4082 -2.90767 0
M  V30 47610 C 4493.04 -1.82914 -3.8307 0
M  V30 47611 C 4490.95 -4.14438 -4.21894 0
M  V30 47612 H 4489.88 -0.404647 -0.63622 0
M  V30 47613 H 4492.53 -1.49313 -1.06667 0
M  V30 47614 H 4490.91 -1.43009 -3.69276 0
M  V30 47615 H 4492.09 -3.95867 -2.35851 0
M  V30 47616 H 4490.4 -3.49369 -2.26562 0
M  V30 47617 H 4493 -2.35212 -4.80187 0
M  V30 47618 H 4493.34 -0.796368 -4.08612 0
M  V30 47619 H 4493.88 -2.28044 -3.25946 0
M  V30 47620 H 4490.61 -5.18116 -4.01542 0
M  V30 47621 H 4490.13 -3.64175 -4.76588 0
M  V30 47622 H 4491.81 -4.21973 -4.90456 0
M  V30 47623 N 4491.95 1.16006 -1.06679 0
M  V30 47624 C 4493.17 1.90524 -0.806734 0
M  V30 47625 C 4493.59 1.77646 0.639334 0
M  V30 47626 O 4492.95 1.12374 1.438 0
M  V30 47627 C 4493 3.41101 -1.19717 0
M  V30 47628 O 4492.72 3.53599 -2.58649 0
M  V30 47629 C 4494.22 4.3266 -0.965419 0
M  V30 47630 H 4491.44 0.604043 -0.292188 0
M  V30 47631 H 4493.98 1.47021 -1.42145 0
M  V30 47632 H 4492.14 3.82294 -0.626908 0
M  V30 47633 H 4492.55 4.47001 -2.74391 0
M  V30 47634 H 4494.03 5.36759 -1.28819 0
M  V30 47635 H 4494.5 4.39089 0.0986393 0
M  V30 47636 H 4495.11 3.97201 -1.52025 0
M  V30 47637 N 4493.42 0.849923 1.32718 0
M  V30 47638 C 4494.65 0.463927 2.02145 0
M  V30 47639 C 4495.07 -0.930391 1.63479 0
M  V30 47640 O 4494.43 -1.6103 0.833009 0
M  V30 47641 C 4494.48 0.60508 3.55487 0
M  V30 47642 O 4493.58 -0.364105 4.1079 0
M  V30 47643 H 4492.92 0.187068 0.637104 0
M  V30 47644 H 4495.45 1.14781 1.69371 0
M  V30 47645 H 4495.46 0.490838 4.05037 0
M  V30 47646 H 4494.14 1.62187 3.82973 0
M  V30 47647 H 4492.72 -0.206497 3.72328 0
M  V30 47648 N 4494.9 -1.45425 0.607406 0
M  V30 47649 C 4495.83 -2.33291 -0.0988532 0
M  V30 47650 C 4496.81 -1.4682 -0.858955 0
M  V30 47651 O 4498 -1.75591 -0.829542 0
M  V30 47652 C 4495.13 -3.29522 -1.09693 0
M  V30 47653 C 4494.08 -4.25627 -0.450056 0
M  V30 47654 C 4493.41 -5.11548 -1.55637 0
M  V30 47655 C 4494.71 -5.18503 0.628637 0
M  V30 47656 H 4496.4 -2.92593 0.634818 0
M  V30 47657 H 4493.95 -1.40695 0.306731 0
M  V30 47658 H 4495.9 -3.89861 -1.59957 0
M  V30 47659 H 4494.63 -2.68379 -1.8612 0
M  V30 47660 H 4493.28 -3.66586 0.0317175 0
M  V30 47661 H 4492.93 -4.46773 -2.31091 0
M  V30 47662 H 4492.63 -5.76651 -1.12905 0
M  V30 47663 H 4494.16 -5.74755 -2.06128 0
M  V30 47664 H 4495.57 -5.72915 0.210078 0
M  V30 47665 H 4493.97 -5.92082 0.977697 0
M  V30 47666 H 4495.04 -4.60943 1.50531 0
M  V30 47667 N 4496.38 -0.346557 -1.53742 0
M  V30 47668 C 4497.63 0.249034 -2.00963 0
M  V30 47669 C 4497.96 1.50316 -1.23432 0
M  V30 47670 O 4497.21 1.93216 -0.310829 0
M  V30 47671 C 4497.51 0.605685 -3.5223 0
M  V30 47672 C 4497.18 -0.551904 -4.4751 0
M  V30 47673 C 4495.84 -0.869576 -4.73278 0
M  V30 47674 C 4498.19 -1.32836 -5.03988 0
M  V30 47675 C 4495.52 -1.96601 -5.52779 0
M  V30 47676 C 4497.87 -2.41506 -5.84686 0
M  V30 47677 C 4496.53 -2.7383 -6.08748 0
M  V30 47678 H 4495.8 0.0911279 -0.735375 0
M  V30 47679 H 4498.45 -0.475093 -1.85513 0
M  V30 47680 H 4496.76 1.41057 -3.65527 0
M  V30 47681 H 4498.45 1.07845 -3.86226 0
M  V30 47682 H 4495.04 -0.294252 -4.27589 0
M  V30 47683 H 4499.23 -1.09619 -4.84043 0
M  V30 47684 H 4494.48 -2.22065 -5.69646 0
M  V30 47685 H 4498.66 -3.021 -6.27462 0
M  V30 47686 H 4496.28 -3.58915 -6.70137 0
M  V30 47687 N 4497.86 1.5742 -0.0752483 0
M  V30 47688 C 4499.1 1.95497 0.596688 0
M  V30 47689 C 4499.46 0.954944 1.66568 0
M  V30 47690 O 4500.66 1.22349 2.39341 0
M  V30 47691 C 4498.93 3.38204 1.15554 0
M  V30 47692 S 4500.49 3.9826 1.84212 0
M  V30 47693 H 4497.31 0.683656 0.195283 0
M  V30 47694 H 4499.91 1.94924 -0.149927 0
M  V30 47695 H 4498.62 4.08767 0.365736 0
M  V30 47696 H 4498.15 3.42328 1.93844 0
M  V30 47697 H 4500.16 3.85446 3.12484 0
M  V30 47698 N 4499.34 -0.198331 1.56347 0
M  V30 47699 C 4500.28 -1.24582 1.94288 0
M  V30 47700 C 4501.25 -1.45397 0.803048 0
M  V30 47701 O 4502.44 -1.58584 1.06093 0
M  V30 47702 C 4499.58 -2.58623 2.28491 0
M  V30 47703 C 4498.69 -2.45413 3.55522 0
M  V30 47704 C 4497.83 -3.72136 3.79062 0
M  V30 47705 C 4496.87 -3.53746 4.9953 0
M  V30 47706 N 4496 -4.72473 5.1934 0
M  V30 47707 H 4500.84 -0.915257 2.83597 0
M  V30 47708 H 4498.38 -0.440579 1.40347 0
M  V30 47709 H 4500.34 -3.36711 2.46336 0
M  V30 47710 H 4498.97 -2.89729 1.42327 0
M  V30 47711 H 4498.02 -1.5864 3.45742 0
M  V30 47712 H 4499.33 -2.27756 4.43766 0
M  V30 47713 H 4498.49 -4.58665 3.97129 0
M  V30 47714 H 4497.22 -3.92744 2.89142 0
M  V30 47715 H 4496.23 -2.65602 4.81389 0
M  V30 47716 H 4497.45 -3.34586 5.90956 0
M  V30 47717 H 4495.4 -4.9335 4.32368 0
M  V30 47718 H 4495.32 -4.57629 6.01757 0
M  V30 47719 H 4496.59 -5.60361 5.41863 0
M  V30 47720 N 4500.81 -1.50555 -0.465925 0
M  V30 47721 C 4501.74 -1.72728 -1.57122 0
M  V30 47722 C 4502.73 -0.576351 -1.60038 0
M  V30 47723 O 4503.91 -0.816042 -1.76223 0
M  V30 47724 C 4501.04 -1.82616 -2.95413 0
M  V30 47725 C 4499.99 -2.97846 -3.07363 0
M  V30 47726 C 4499.32 -2.92882 -4.47352 0
M  V30 47727 C 4500.62 -4.38275 -2.84099 0
M  V30 47728 H 4502.31 -2.65272 -1.3882 0
M  V30 47729 H 4499.86 -1.27653 -0.666396 0
M  V30 47730 H 4501.81 -1.96711 -3.7267 0
M  V30 47731 H 4500.54 -0.866969 -3.14883 0
M  V30 47732 H 4499.2 -2.83409 -2.3254 0
M  V30 47733 H 4498.84 -1.94799 -4.63748 0
M  V30 47734 H 4498.54 -3.70243 -4.56283 0
M  V30 47735 H 4500.07 -3.09033 -5.26622 0
M  V30 47736 H 4501.48 -4.53211 -3.51102 0
M  V30 47737 H 4499.88 -5.17125 -3.04469 0
M  V30 47738 H 4500.95 -4.50287 -1.79915 0
M  V30 47739 N 4502.29 0.719457 -1.4022 0
M  V30 47740 C 4503.26 1.81525 -1.39934 0
M  V30 47741 C 4504.26 1.58094 -0.293778 0
M  V30 47742 O 4505.45 1.65207 -0.552487 0
M  V30 47743 C 4502.58 3.19557 -1.18727 0
M  V30 47744 H 4503.77 1.83178 -2.37457 0
M  V30 47745 H 4501.32 0.924702 -1.26012 0
M  V30 47746 H 4502.06 3.23556 -0.21948 0
M  V30 47747 H 4501.84 3.37963 -1.98805 0
M  V30 47748 H 4503.33 3.99593 -1.21305 0
M  V30 47749 N 4503.77 1.25652 0.951275 0
M  V30 47750 C 4504.73 1.06406 2.03004 0
M  V30 47751 C 4505.73 0.015736 1.60792 0
M  V30 47752 O 4506.92 0.25823 1.72275 0
M  V30 47753 C 4504.06 0.616302 3.35283 0
M  V30 47754 H 4505.25 2.02172 2.2151 0
M  V30 47755 H 4502.8 1.08107 1.12883 0
M  V30 47756 H 4503.54 -0.343804 3.22472 0
M  V30 47757 H 4503.32 1.37314 3.6727 0
M  V30 47758 H 4504.81 0.503178 4.14557 0
M  V30 47759 N 4505.25 -1.15438 1.07293 0
M  V30 47760 C 4506.18 -2.2231 0.714185 0
M  V30 47761 C 4507.16 -1.67468 -0.298097 0
M  V30 47762 O 4508.34 -1.93446 -0.17098 0
M  V30 47763 C 4505.47 -3.47124 0.11057 0
M  V30 47764 C 4504.43 -4.14922 1.04994 0
M  V30 47765 C 4503.75 -5.33806 0.309112 0
M  V30 47766 C 4505.05 -4.64754 2.3833 0
M  V30 47767 H 4506.75 -2.52574 1.60769 0
M  V30 47768 H 4504.29 -1.21401 0.774453 0
M  V30 47769 H 4506.25 -4.21125 -0.152334 0
M  V30 47770 H 4504.97 -3.1619 -0.818009 0
M  V30 47771 H 4503.63 -3.42861 1.29776 0
M  V30 47772 H 4503.28 -4.99128 -0.622909 0
M  V30 47773 H 4502.98 -5.80109 0.93524 0
M  V30 47774 H 4504.5 -6.10576 0.0539918 0
M  V30 47775 H 4505.92 -5.30285 2.17879 0
M  V30 47776 H 4504.31 -5.21717 2.96532 0
M  V30 47777 H 4505.38 -3.80423 3.00676 0
M  V30 47778 N 4506.73 -0.85695 -1.32265 0
M  V30 47779 C 4507.97 -0.462139 -1.97464 0
M  V30 47780 C 4508.31 0.980239 -1.67645 0
M  V30 47781 O 4507.58 1.6882 -0.965917 0
M  V30 47782 C 4507.86 -0.70446 -3.53142 0
M  V30 47783 C 4507.72 -2.19542 -3.92583 0
M  V30 47784 C 4509.04 -0.162355 -4.398 0
M  V30 47785 H 4506.15 -0.169382 -0.717272 0
M  V30 47786 H 4508.8 -1.0758 -1.5661 0
M  V30 47787 H 4506.95 -0.182135 -3.88073 0
M  V30 47788 H 4508.62 -2.784 -3.67819 0
M  V30 47789 H 4506.86 -2.67304 -3.41659 0
M  V30 47790 H 4507.53 -2.31566 -5.0108 0
M  V30 47791 H 4510.01 -0.60905 -4.11618 0
M  V30 47792 H 4508.88 -0.361457 -5.47709 0
M  V30 47793 H 4509.15 0.935006 -4.321 0
M  V30 47794 N 4508.2 1.45101 -0.61511 0
M  V30 47795 C 4509.62 1.57136 -0.279378 0
M  V30 47796 C 4509.82 1.60527 1.21792 0
M  V30 47797 O 4508.88 1.53963 2.00129 0
M  V30 47798 C 4510.19 2.85059 -0.957184 0
M  V30 47799 C 4511.74 2.98746 -0.933811 0
M  V30 47800 C 4512.21 4.29449 -1.59177 0
M  V30 47801 N 4513.7 4.36226 -1.55761 0
M  V30 47802 C 4514.44 5.36044 -2.03579 0
M  V30 47803 N 4513.93 6.42357 -2.59516 0
M  V30 47804 N 4515.73 5.2745 -1.94302 0
M  V30 47805 H 4507.88 1.41142 -1.58722 0
M  V30 47806 H 4510.14 0.675308 -0.665329 0
M  V30 47807 H 4509.85 2.88481 -2.01176 0
M  V30 47808 H 4509.72 3.74068 -0.485072 0
M  V30 47809 H 4512.11 2.94886 0.112243 0
M  V30 47810 H 4512.19 2.11127 -1.44426 0
M  V30 47811 H 4511.83 4.34067 -2.63719 0
M  V30 47812 H 4511.76 5.15898 -1.05628 0
M  V30 47813 H 4514.25 3.60007 -1.14906 0
M  V30 47814 H 4514.57 7.14783 -2.93778 0
M  V30 47815 H 4512.91 6.43088 -2.63559 0
M  V30 47816 H 4516.1 4.43302 -1.50335 0
M  V30 47817 H 4516.28 6.05091 -2.31881 0
M  V30 47818 N 4509.68 0.354705 1.53557 0
M  V30 47819 C 4510.63 -0.513101 2.22151 0
M  V30 47820 C 4511.62 -1.0573 1.21284 0
M  V30 47821 O 4512.81 -0.98915 1.46782 0
M  V30 47822 C 4509.94 -1.65787 3.00615 0
M  V30 47823 C 4509.02 -1.12707 4.08849 0
M  V30 47824 N 4509.42 -0.318385 5.04797 0
M  V30 47825 C 4507.71 -1.40292 4.23361 0
M  V30 47826 C 4508.41 -0.0290179 5.81693 0
M  V30 47827 N 4507.39 -0.623701 5.4001 0
M  V30 47828 H 4511.19 0.111689 2.93688 0
M  V30 47829 H 4508.71 0.162148 1.61588 0
M  V30 47830 H 4510.7 -2.29164 3.48266 0
M  V30 47831 H 4509.36 -2.28583 2.30608 0
M  V30 47832 H 4510.37 0.0414912 5.17883 0
M  V30 47833 H 4507.05 -2.03445 3.64577 0
M  V30 47834 H 4508.44 0.624044 6.68996 0
M  V30 47835 N 4511.16 -1.57378 0.0835957 0
M  V30 47836 C 4512.58 -1.57247 -0.273054 0
M  V30 47837 C 4512.78 -1.09391 -1.69222 0
M  V30 47838 O 4511.83 -0.765135 -2.40628 0
M  V30 47839 C 4513.15 -3.00614 -0.0719572 0
M  V30 47840 C 4514.69 -3.12684 -0.14059 0
M  V30 47841 C 4515.17 -4.57989 0.0323704 0
M  V30 47842 N 4516.66 -4.63194 -0.0228457 0
M  V30 47843 C 4517.4 -5.73335 0.0863957 0
M  V30 47844 N 4516.89 -6.92349 0.249824 0
M  V30 47845 N 4518.68 -5.62093 0.0284862 0
M  V30 47846 H 4510.84 -1.86798 1.01096 0
M  V30 47847 H 4513.1 -0.861673 0.395252 0
M  V30 47848 H 4512.8 -3.39783 0.907781 0
M  V30 47849 H 4512.68 -3.68196 -0.819231 0
M  V30 47850 H 4515.07 -2.73395 -1.11082 0
M  V30 47851 H 4515.15 -2.47716 0.637983 0
M  V30 47852 H 4514.79 -4.9797 0.999422 0
M  V30 47853 H 4514.72 -5.21003 -0.765754 0
M  V30 47854 H 4517.21 -3.77614 -0.147087 0
M  V30 47855 H 4517.52 -7.72116 0.325004 0
M  V30 47856 H 4515.87 -6.94414 0.285341 0
M  V30 47857 H 4519.06 -4.67997 -0.0979763 0
M  V30 47858 H 4519.23 -6.47894 0.117073 0
M  V30 47859 N 4512.64 0.190037 -1.5645 0
M  V30 47860 C 4513.89 0.910989 -1.81187 0
M  V30 47861 C 4514.22 1.82696 -0.65846 0
M  V30 47862 O 4513.49 1.91493 0.340708 0
M  V30 47863 C 4513.78 1.72286 -3.16211 0
M  V30 47864 C 4513.63 0.831263 -4.42052 0
M  V30 47865 C 4514.95 2.69442 -3.47979 0
M  V30 47866 H 4512.07 0.329747 -0.659118 0
M  V30 47867 H 4514.71 0.178102 -1.89163 0
M  V30 47868 H 4512.86 2.34767 -3.09543 0
M  V30 47869 H 4514.53 0.220767 -4.60771 0
M  V30 47870 H 4512.77 0.138254 -4.3358 0
M  V30 47871 H 4513.45 1.43442 -5.33037 0
M  V30 47872 H 4515.92 2.17091 -3.5498 0
M  V30 47873 H 4514.8 3.23326 -4.43566 0
M  V30 47874 H 4515.06 3.48734 -2.71729 0
M  V30 47875 N 4514.12 1.508 0.457934 0
M  V30 47876 C 4515.34 1.66501 1.23662 0
M  V30 47877 C 4515.77 0.353353 1.84751 0
M  V30 47878 O 4515.13 -0.684287 1.6789 0
M  V30 47879 C 4515.17 2.76771 2.3115 0
M  V30 47880 O 4514.28 2.38939 3.36128 0
M  V30 47881 H 4513.62 0.55584 0.363232 0
M  V30 47882 H 4516.15 1.97252 0.543404 0
M  V30 47883 H 4516.16 3.00242 2.76258 0
M  V30 47884 H 4514.83 3.7196 1.8606 0
M  V30 47885 H 4513.41 2.25964 2.96639 0
M  V30 47886 N 4515.6 -0.71201 1.40599 0
M  V30 47887 C 4516.53 -1.83884 1.43906 0
M  V30 47888 C 4517.51 -1.67441 0.299563 0
M  V30 47889 O 4518.69 -1.87419 0.50869 0
M  V30 47890 C 4515.82 -3.21873 1.30442 0
M  V30 47891 C 4514.78 -3.52994 2.42032 0
M  V30 47892 C 4514.1 -4.90164 2.13643 0
M  V30 47893 C 4515.4 -3.5363 3.84374 0
M  V30 47894 H 4517.1 -1.81375 2.38209 0
M  V30 47895 H 4514.64 -0.871197 1.14657 0
M  V30 47896 H 4516.59 -4.00399 1.31371 0
M  V30 47897 H 4515.32 -3.24967 0.326164 0
M  V30 47898 H 4513.98 -2.76809 2.40359 0
M  V30 47899 H 4513.63 -4.89865 1.14199 0
M  V30 47900 H 4513.33 -5.11952 2.88407 0
M  V30 47901 H 4514.85 -5.7102 2.1626 0
M  V30 47902 H 4516.26 -4.2219 3.87852 0
M  V30 47903 H 4514.66 -3.86945 4.58687 0
M  V30 47904 H 4515.73 -2.5294 4.13702 0
M  V30 47905 N 4517.07 -1.26155 -0.944598 0
M  V30 47906 C 4518.32 -1.11498 -1.6904 0
M  V30 47907 C 4518.65 0.342299 -1.91464 0
M  V30 47908 O 4517.9 1.26807 -1.49059 0
M  V30 47909 C 4518.2 -1.82552 -3.07261 0
M  V30 47910 C 4517.87 -3.32456 -3.04604 0
M  V30 47911 C 4516.53 -3.73348 -3.03587 0
M  V30 47912 C 4518.88 -4.28181 -2.9717 0
M  V30 47913 C 4516.21 -5.08359 -2.92897 0
M  V30 47914 C 4518.56 -5.63229 -2.88021 0
M  V30 47915 C 4517.23 -6.03436 -2.85345 0
M  V30 47916 H 4516.5 -0.407999 -0.618561 0
M  V30 47917 H 4519.14 -1.56555 -1.10285 0
M  V30 47918 H 4517.45 -1.29954 -3.6962 0
M  V30 47919 H 4519.15 -1.68654 -3.63809 0
M  V30 47920 H 4515.74 -2.99926 -3.06174 0
M  V30 47921 H 4519.92 -3.97574 -2.97067 0
M  V30 47922 H 4515.18 -5.38677 -2.892 0
M  V30 47923 H 4519.35 -6.37088 -2.81232 0
M  V30 47924 H 4516.98 -7.08009 -2.76818 0
M  V30 47925 N 4518.55 1.14868 -1.07903 0
M  V30 47926 C 4519.8 1.85419 -0.804006 0
M  V30 47927 C 4520.12 1.83053 0.672046 0
M  V30 47928 O 4519.39 1.27537 1.48698 0
M  V30 47929 H 4517.97 0.686527 -0.294432 0
M  V30 47930 H 4520.63 1.39221 -1.36395 0
M  V30 47931 H 4519.73 2.90395 -1.14356 0
M  V30 47932 N 4520.03 0.863952 1.31809 0
M  V30 47933 C 4521.26 0.486182 2.01107 0
M  V30 47934 C 4521.67 -0.919697 1.64885 0
M  V30 47935 O 4521.03 -1.60159 0.874949 0
M  V30 47936 C 4521.08 0.62656 3.56029 0
M  V30 47937 O 4520.8 1.97707 3.90952 0
M  V30 47938 C 4522.3 0.249013 4.426 0
M  V30 47939 H 4519.52 0.190074 0.643516 0
M  V30 47940 H 4522.07 1.16346 1.68178 0
M  V30 47941 H 4520.22 -0.00309098 3.874 0
M  V30 47942 H 4520.64 1.98051 4.85671 0
M  V30 47943 H 4522.11 0.39821 5.50562 0
M  V30 47944 H 4522.59 -0.811337 4.31641 0
M  V30 47945 H 4523.19 0.854118 4.16635 0
M  V30 47946 N 4521.51 -1.44772 0.622796 0
M  V30 47947 C 4522.78 -1.95522 0.0552662 0
M  V30 47948 C 4523.16 -1.56495 -1.41677 0
M  V30 47949 O 4522.51 -0.834923 -2.127 0
M  V30 47950 C 4522.72 -3.47959 0.269364 0
M  V30 47951 C 4524.07 -4.24305 0.158163 0
M  V30 47952 O 4525.09 -3.55636 0.200287 0
M  V30 47953 O 4523.95 -5.46471 0.0560614 0
M  V30 47954 H 4521.05 -0.826557 -0.0270724 0
M  V30 47955 H 4523.59 -1.54864 0.693919 0
M  V30 47956 H 4522.37 -3.69386 1.29112 0
M  V30 47957 H 4521.99 -3.95544 -0.403827 0
M  V30 47958 N 4522.99 -0.362844 -1.53366 0
M  V30 47959 C 4523.95 0.4726 -2.24275 0
M  V30 47960 C 4524.95 1.01196 -1.24964 0
M  V30 47961 O 4526.14 0.898142 -1.49262 0
M  V30 47962 C 4523.27 1.66028 -2.97737 0
M  V30 47963 H 4524.46 -0.147835 -2.99535 0
M  V30 47964 H 4522.02 -0.114488 -1.5588 0
M  V30 47965 H 4522.75 2.31888 -2.26712 0
M  V30 47966 H 4522.54 1.28053 -3.70601 0
M  V30 47967 H 4524.03 2.2524 -3.51649 0
M  V30 47968 N 4524.46 1.57332 -0.0919406 0
M  V30 47969 C 4525.88 1.81497 0.437675 0
M  V30 47970 C 4526.23 1.00733 1.68366 0
M  V30 47971 O 4525.35 0.235769 2.15112 0
M  V30 47972 C 4525.95 3.29199 0.800824 0
M  V30 47973 C 4524.51 3.54141 1.2752 0
M  V30 47974 C 4523.65 2.7598 0.270295 0
M  V30 47975 H 4526.6 1.55493 -0.31742 0
M  V30 47976 H 4526.62 3.4235 1.66062 0
M  V30 47977 H 4526.14 3.87955 -0.106214 0
M  V30 47978 H 4524.24 3.00713 2.20005 0
M  V30 47979 H 4524.35 4.62796 1.23921 0
M  V30 47980 H 4522.71 2.43352 0.751787 0
M  V30 47981 H 4523.5 3.37482 -0.629366 0
M  V30 47982 N 4525.94 -0.181737 1.56549 0
M  V30 47983 C 4526.91 -1.20887 1.94728 0
M  V30 47984 C 4527.91 -1.37735 0.829796 0
M  V30 47985 O 4529.1 -1.35319 1.09701 0
M  V30 47986 C 4526.23 -2.57585 2.233 0
M  V30 47987 H 4527.42 -0.882175 2.86632 0
M  V30 47988 H 4524.97 -0.423785 1.50445 0
M  V30 47989 H 4525.71 -2.95286 1.34077 0
M  V30 47990 H 4525.49 -2.46724 3.04745 0
M  V30 47991 H 4526.98 -3.31628 2.53796 0
M  V30 47992 N 4527.42 -1.51041 -0.44993 0
M  V30 47993 C 4528.67 -1.63327 -1.20217 0
M  V30 47994 C 4529 -0.342477 -1.91156 0
M  V30 47995 O 4528.27 0.65728 -1.83058 0
M  V30 47996 C 4528.56 -2.82809 -2.22915 0
M  V30 47997 C 4528.41 -4.21829 -1.56142 0
M  V30 47998 C 4529.73 -2.97819 -3.24025 0
M  V30 47999 H 4526.85 -0.594422 -0.435697 0
M  V30 48000 H 4529.49 -1.83491 -0.493072 0
M  V30 48001 H 4527.64 -2.65748 -2.83391 0
M  V30 48002 H 4529.31 -4.50529 -0.991004 0
M  V30 48003 H 4527.56 -4.25108 -0.864022 0
M  V30 48004 H 4528.23 -5.014 -2.30873 0
M  V30 48005 H 4530.7 -3.13507 -2.73592 0
M  V30 48006 H 4529.58 -3.83006 -3.93189 0
M  V30 48007 H 4529.84 -2.09342 -3.89395 0
M  V30 48008 N 4528.9 0.704544 -1.40975 0
M  V30 48009 C 4530.14 1.4667 -1.40056 0
M  V30 48010 C 4530.48 1.94199 -0.0064793 0
M  V30 48011 O 4529.75 1.6892 0.964175 0
M  V30 48012 C 4530.04 2.68497 -2.39962 0
M  V30 48013 C 4529.89 2.26791 -3.8844 0
M  V30 48014 C 4531.21 3.70678 -2.37246 0
M  V30 48015 H 4528.33 0.531997 -0.510047 0
M  V30 48016 H 4530.97 0.803194 -1.72188 0
M  V30 48017 H 4529.12 3.25107 -2.12692 0
M  V30 48018 H 4530.79 1.75577 -4.2658 0
M  V30 48019 H 4529.03 1.58671 -4.0374 0
M  V30 48020 H 4529.7 3.14165 -4.53877 0
M  V30 48021 H 4532.18 3.23722 -2.61426 0
M  V30 48022 H 4531.06 4.53542 -3.09178 0
M  V30 48023 H 4531.32 4.19749 -1.38791 0
M  V30 48024 N 4530.38 1.26654 0.937895 0
M  V30 48025 C 4531.32 1.08315 2.05841 0
M  V30 48026 C 4532.32 0.00913525 1.69398 0
M  V30 48027 O 4533.52 0.16607 1.79232 0
M  V30 48028 H 4529.9 0.33344 0.674034 0
M  V30 48029 H 4531.87 2.03268 2.18459 0
M  V30 48030 C 4530.62 0.736348 3.39813 0
M  V30 48031 H 4529.94 1.55466 3.68335 0
M  V30 48032 H 4531.38 0.647838 4.19022 0
M  V30 48033 C 4529.84 -0.558707 3.32235 0
M  V30 48034 O 4530.37 -1.59608 3.6863 0
M  V30 48035 N 4528.58 -0.550557 2.85337 0
M  V30 48036 H 4528.12 0.294033 2.55916 0
M  V30 48037 H 4528.08 -1.41716 2.80649 0
M  V30 48038 N 4531.85 -1.14294 1.08511 0
M  V30 48039 C 4533.09 -1.87013 0.82496 0
M  V30 48040 C 4533.46 -1.81101 -0.637672 0
M  V30 48041 O 4534.66 -2.48967 -1.01337 0
M  V30 48042 C 4532.93 -3.31579 1.33379 0
M  V30 48043 S 4534.49 -4.21899 1.20611 0
M  V30 48044 H 4531.31 -0.645249 0.298622 0
M  V30 48045 H 4533.91 -1.37817 1.3866 0
M  V30 48046 H 4532.61 -3.33431 2.39274 0
M  V30 48047 H 4532.14 -3.85833 0.767869 0
M  V30 48048 H 4534.16 -4.9597 0.151065 0
M  V30 48049 N 4533.33 -0.87093 -1.31349 0
M  V30 48050 C 4534.26 -0.343177 -2.30964 0
M  V30 48051 C 4535.24 0.566451 -1.60391 0
M  V30 48052 O 4536.43 0.48327 -1.88091 0
M  V30 48053 C 4533.56 0.455366 -3.44302 0
M  V30 48054 C 4532.51 -0.361253 -4.26473 0
M  V30 48055 C 4531.84 0.563034 -5.31727 0
M  V30 48056 C 4533.14 -1.59583 -4.97323 0
M  V30 48057 H 4534.83 -1.17558 -2.75355 0
M  V30 48058 H 4532.38 -0.566732 -1.32379 0
M  V30 48059 H 4534.33 0.835105 -4.13042 0
M  V30 48060 H 4533.06 1.32128 -2.9868 0
M  V30 48061 H 4531.71 -0.722951 -3.59401 0
M  V30 48062 H 4531.36 1.42626 -4.82356 0
M  V30 48063 H 4531.06 0.0205343 -5.87596 0
M  V30 48064 H 4532.59 0.939596 -6.03327 0
M  V30 48065 H 4534 -1.28748 -5.58656 0
M  V30 48066 H 4532.4 -2.07748 -5.62993 0
M  V30 48067 H 4533.47 -2.34813 -4.24253 0
M  V30 48068 N 4534.81 1.4444 -0.630465 0
M  V30 48069 C 4535.76 2.27795 0.0967302 0
M  V30 48070 C 4536.74 1.38627 0.816786 0
M  V30 48071 O 4537.94 1.6244 0.703003 0
M  V30 48072 C 4535.07 3.25933 1.07808 0
M  V30 48073 C 4534.15 4.22589 0.357677 0
M  V30 48074 N 4534.54 5.02067 -0.613346 0
M  V30 48075 C 4532.84 4.41916 0.60221 0
M  V30 48076 C 4533.54 5.72347 -1.03891 0
M  V30 48077 N 4532.52 5.42285 -0.377833 0
M  V30 48078 H 4536.32 2.86651 -0.648722 0
M  V30 48079 H 4533.83 1.55869 -0.455917 0
M  V30 48080 H 4535.83 3.84405 1.61364 0
M  V30 48081 H 4534.49 2.68638 1.82384 0
M  V30 48082 H 4535.5 5.08328 -0.991125 0
M  V30 48083 H 4532.18 3.95719 1.33089 0
M  V30 48084 H 4533.57 6.46184 -1.84108 0
M  V30 48085 N 4536.29 0.370972 1.53172 0
M  V30 48086 C 4537.54 -0.218179 2.00517 0
M  V30 48087 C 4537.85 -1.49425 1.2622 0
M  V30 48088 O 4539.06 -2.16233 1.64182 0
M  V30 48089 C 4537.51 -0.439354 3.57208 0
M  V30 48090 C 4537.12 0.822398 4.40387 0
M  V30 48091 C 4538.86 -0.985867 4.12893 0
M  V30 48092 C 4536.77 0.570511 5.88642 0
M  V30 48093 H 4535.7 -0.0853069 0.749159 0
M  V30 48094 H 4538.35 0.490545 1.76822 0
M  V30 48095 H 4536.73 -1.20947 3.77078 0
M  V30 48096 H 4537.91 1.59572 4.32288 0
M  V30 48097 H 4536.22 1.29252 3.95832 0
M  V30 48098 H 4538.82 -1.18973 5.21296 0
M  V30 48099 H 4539.16 -1.94959 3.67827 0
M  V30 48100 H 4539.7 -0.27578 3.96843 0
M  V30 48101 H 4536.44 1.50472 6.37996 0
M  V30 48102 H 4535.96 -0.164216 5.99575 0
M  V30 48103 H 4537.63 0.198068 6.46697 0
M  V30 48104 N 4537.77 -1.57281 0.100283 0
M  V30 48105 C 4538.7 -2.17331 -0.853781 0
M  V30 48106 C 4539.68 -1.10809 -1.29056 0
M  V30 48107 O 4540.86 -1.38968 -1.35652 0
M  V30 48108 C 4537.99 -2.75779 -2.111 0
M  V30 48109 C 4536.95 -3.8772 -1.81266 0
M  V30 48110 C 4536.27 -4.32893 -3.13859 0
M  V30 48111 C 4537.57 -5.10681 -1.09556 0
M  V30 48112 H 4539.27 -2.97307 -0.353441 0
M  V30 48113 H 4536.81 -1.4301 -0.168562 0
M  V30 48114 H 4538.77 -3.16442 -2.78284 0
M  V30 48115 H 4537.49 -1.93066 -2.63426 0
M  V30 48116 H 4536.15 -3.47604 -1.16477 0
M  V30 48117 H 4535.8 -3.47063 -3.64082 0
M  V30 48118 H 4535.5 -5.08368 -2.94678 0
M  V30 48119 H 4537.02 -4.76193 -3.82194 0
M  V30 48120 H 4538.43 -5.4848 -1.6686 0
M  V30 48121 H 4536.83 -5.91619 -1.00536 0
M  V30 48122 H 4537.9 -4.84835 -0.0791595 0
M  V30 48123 N 4539.25 0.173432 -1.56643 0
M  V30 48124 C 4540.21 1.19853 -1.95366 0
M  V30 48125 C 4541.21 1.37293 -0.837088 0
M  V30 48126 O 4542.4 1.34735 -1.10418 0
M  V30 48127 C 4539.53 2.56397 -2.24663 0
M  V30 48128 H 4540.72 0.866961 -2.87095 0
M  V30 48129 H 4538.28 0.4158 -1.50668 0
M  V30 48130 H 4539.01 2.94571 -1.35641 0
M  V30 48131 H 4538.8 2.45105 -3.06049 0
M  V30 48132 H 4540.29 3.30278 -2.55551 0
M  V30 48133 N 4540.72 1.51278 0.441914 0
M  V30 48134 C 4542.14 1.39351 0.778034 0
M  V30 48135 C 4542.34 0.472281 1.95887 0
M  V30 48136 O 4541.4 -0.0742663 2.52391 0
M  V30 48137 C 4542.71 2.81295 1.0627 0
M  V30 48138 C 4544.26 2.90414 1.16741 0
M  V30 48139 C 4544.73 4.33256 1.48504 0
M  V30 48140 N 4546.22 4.36341 1.55437 0
M  V30 48141 C 4546.96 5.43891 1.81577 0
M  V30 48142 N 4546.45 6.61608 2.05539 0
M  V30 48143 N 4548.25 5.31366 1.83321 0
M  V30 48144 H 4540.4 2.09728 -0.335848 0
M  V30 48145 H 4542.66 0.943922 -0.0878359 0
M  V30 48146 H 4542.37 3.50679 0.267782 0
M  V30 48147 H 4542.24 3.20341 1.99152 0
M  V30 48148 H 4544.63 2.21232 1.95296 0
M  V30 48149 H 4544.71 2.54872 0.217711 0
M  V30 48150 H 4544.35 5.02986 0.704781 0
M  V30 48151 H 4544.28 4.66308 2.44672 0
M  V30 48152 H 4546.77 3.51471 1.38841 0
M  V30 48153 H 4547.09 7.39369 2.24841 0
M  V30 48154 H 4545.43 6.64732 2.02871 0
M  V30 48155 H 4548.62 4.38387 1.64116 0
M  V30 48156 H 4548.8 6.15265 2.03355 0
M  V30 48157 N 4542.2 -0.697058 1.41347 0
M  V30 48158 C 4543.43 -1.49091 1.44176 0
M  V30 48159 C 4543.85 -1.88038 0.0482229 0
M  V30 48160 O 4543.21 -1.54529 -0.948189 0
M  V30 48161 C 4543.26 -2.7308 2.35499 0
M  V30 48162 O 4542.36 -3.70508 1.81101 0
M  V30 48163 H 4541.7 -0.448784 0.489376 0
M  V30 48164 H 4544.23 -0.856926 1.8579 0
M  V30 48165 H 4544.24 -3.21404 2.51323 0
M  V30 48166 H 4542.92 -2.44069 3.36754 0
M  V30 48167 H 4541.49 -3.29435 1.74719 0
M  V30 48168 N 4543.68 -1.2715 -0.931165 0
M  V30 48169 C 4544.61 -1.12088 -2.04838 0
M  V30 48170 C 4545.59 -0.0232962 -1.70084 0
M  V30 48171 O 4546.78 -0.197153 -1.93197 0
M  V30 48172 C 4543.91 -0.763659 -3.388 0
M  V30 48173 C 4542.86 -1.81409 -3.87653 0
M  V30 48174 C 4542.19 -1.31093 -5.18381 0
M  V30 48175 C 4543.49 -3.21754 -4.11427 0
M  V30 48176 H 4545.18 -2.05545 -2.17696 0
M  V30 48177 H 4542.73 -0.989639 -1.04605 0
M  V30 48178 H 4544.68 -0.645128 -4.16433 0
M  V30 48179 H 4543.4 0.206613 -3.25946 0
M  V30 48180 H 4542.06 -1.92147 -3.1221 0
M  V30 48181 H 4541.71 -0.330213 -5.01915 0
M  V30 48182 H 4541.41 -2.01319 -5.52037 0
M  V30 48183 H 4542.93 -1.20527 -5.98586 0
M  V30 48184 H 4544.35 -3.14036 -4.7964 0
M  V30 48185 H 4542.74 -3.8966 -4.56383 0
M  V30 48186 H 4543.81 -3.67065 -3.16846 0
M  V30 48187 N 4545.16 1.13717 -1.09116 0
M  V30 48188 C 4546.43 1.81153 -0.737769 0
M  V30 48189 C 4546.81 1.96256 0.777614 0
M  V30 48190 O 4546.16 1.52813 1.69883 0
M  V30 48191 C 4546.37 3.16387 -1.4731 0
M  V30 48192 C 4547.72 3.91781 -1.63684 0
M  V30 48193 O 4548.74 3.26 -1.43536 0
M  V30 48194 O 4547.6 5.09763 -1.96987 0
M  V30 48195 H 4544.7 0.783508 -0.264658 0
M  V30 48196 H 4547.24 1.20672 -1.19317 0
M  V30 48197 H 4546.02 3.00601 -2.50508 0
M  V30 48198 H 4545.64 3.84567 -1.00967 0
M  V30 48199 N 4546.64 0.877884 1.30885 0
M  V30 48200 C 4547.6 0.344345 2.26599 0
M  V30 48201 C 4548.6 -0.509167 1.52526 0
M  V30 48202 O 4549.79 -0.317337 1.71285 0
M  V30 48203 C 4546.92 -0.51008 3.37062 0
M  V30 48204 H 4548.11 1.1894 2.75306 0
M  V30 48205 H 4545.67 0.654138 1.41953 0
M  V30 48206 H 4546.4 -1.37601 2.9366 0
M  V30 48207 H 4546.19 0.101185 3.91969 0
M  V30 48208 H 4547.68 -0.875394 4.08322 0
M  V30 48209 N 4548.11 -1.44104 0.638116 0
M  V30 48210 C 4549.53 -1.56671 0.304341 0
M  V30 48211 C 4549.73 -1.62445 -1.19223 0
M  V30 48212 O 4548.79 -1.57128 -1.97654 0
M  V30 48213 C 4550.1 -2.835 1.00241 0
M  V30 48214 C 4551.65 -2.97222 0.98122 0
M  V30 48215 C 4552.12 -4.26863 1.65989 0
M  V30 48216 N 4553.61 -4.33692 1.62681 0
M  V30 48217 C 4554.35 -5.32737 2.12081 0
M  V30 48218 N 4553.84 -6.38147 2.69703 0
M  V30 48219 N 4555.64 -5.24292 2.02669 0
M  V30 48220 H 4547.79 -1.38599 1.60947 0
M  V30 48221 H 4550.05 -0.664638 0.675989 0
M  V30 48222 H 4549.76 -2.85244 2.0574 0
M  V30 48223 H 4549.63 -3.73249 0.544522 0
M  V30 48224 H 4552.02 -2.95028 -0.0653151 0
M  V30 48225 H 4552.1 -2.08803 1.47767 0
M  V30 48226 H 4551.74 -4.29817 2.70592 0
M  V30 48227 H 4551.67 -5.14152 1.13822 0
M  V30 48228 H 4554.16 -3.58133 1.20618 0
M  V30 48229 H 4554.48 -7.10019 3.05112 0
M  V30 48230 H 4552.82 -6.38813 2.73757 0
M  V30 48231 H 4556.01 -4.40854 1.57369 0
M  V30 48232 H 4556.19 -6.01325 2.41478 0
M  V30 48233 N 4549.59 -0.37909 -1.52973 0
M  V30 48234 C 4550.82 0.206717 -2.05865 0
M  V30 48235 C 4551.23 1.41352 -1.2516 0
M  V30 48236 O 4550.59 1.80089 -0.295651 0
M  V30 48237 C 4550.64 0.58692 -3.56704 0
M  V30 48238 O 4550.36 -0.571929 -4.34351 0
M  V30 48239 C 4551.86 1.22968 -4.25903 0
M  V30 48240 H 4549.08 0.0335888 -0.670159 0
M  V30 48241 H 4551.63 -0.541368 -1.97204 0
M  V30 48242 H 4549.78 1.28491 -3.65471 0
M  V30 48243 H 4550.2 -0.261729 -5.23847 0
M  V30 48244 H 4551.67 1.44616 -5.3272 0
M  V30 48245 H 4552.15 2.19402 -3.80473 0
M  V30 48246 H 4552.75 0.572744 -4.21426 0
M  V30 48247 N 4551.07 1.57225 -0.108623 0
M  V30 48248 C 4552.32 1.95123 0.552692 0
M  V30 48249 C 4552.65 0.991404 1.66987 0
M  V30 48250 O 4551.92 0.0267895 1.94482 0
M  V30 48251 C 4552.21 3.43043 1.09516 0
M  V30 48252 C 4552.06 4.49796 -0.0178914 0
M  V30 48253 C 4553.38 3.92574 1.98932 0
M  V30 48254 H 4550.5 0.709503 0.199437 0
M  V30 48255 H 4553.14 1.89126 -0.182078 0
M  V30 48256 H 4551.29 3.48285 1.72133 0
M  V30 48257 H 4552.96 4.56658 -0.652745 0
M  V30 48258 H 4551.2 4.28398 -0.68246 0
M  V30 48259 H 4551.88 5.50529 0.402725 0
M  V30 48260 H 4554.35 3.8957 1.46201 0
M  V30 48261 H 4553.23 4.96613 2.33809 0
M  V30 48262 H 4553.49 3.32658 2.91189 0
M  V30 48263 N 4552.55 -0.165123 1.56733 0
M  V30 48264 C 4553.48 -1.2333 1.92003 0
M  V30 48265 C 4554.46 -1.42474 0.783581 0
M  V30 48266 O 4555.64 -1.5738 1.03748 0
M  V30 48267 C 4552.77 -2.59525 2.17634 0
M  V30 48268 C 4551.82 -2.57081 3.40311 0
M  V30 48269 S 4552.65 -2.05554 4.94477 0
M  V30 48270 C 4553.8 -3.43514 5.2321 0
M  V30 48271 H 4554.04 -0.932288 2.82304 0
M  V30 48272 H 4551.57 -0.369961 1.49902 0
M  V30 48273 H 4553.53 -3.3791 2.33082 0
M  V30 48274 H 4552.19 -2.86823 1.28029 0
M  V30 48275 H 4551.38 -3.57296 3.55466 0
M  V30 48276 H 4550.98 -1.86795 3.24012 0
M  V30 48277 H 4553.28 -4.39541 5.15567 0
M  V30 48278 H 4554.22 -3.33229 6.24791 0
M  V30 48279 H 4554.63 -3.39812 4.50764 0
M  V30 48280 N 4554.03 -1.5151 -0.433885 0
M  V30 48281 C 4554.97 -1.73073 -1.5269 0
M  V30 48282 C 4555.94 -0.572496 -1.55922 0
M  V30 48283 O 4557.13 -0.807314 -1.72879 0
M  V30 48284 C 4554.27 -1.86485 -2.90375 0
M  V30 48285 C 4553.38 -3.14047 -2.96645 0
M  V30 48286 C 4552.52 -3.18033 -4.25474 0
M  V30 48287 C 4551.56 -4.39897 -4.25625 0
M  V30 48288 N 4550.69 -4.41414 -5.45984 0
M  V30 48289 H 4555.53 -2.66371 -1.33606 0
M  V30 48290 H 4553.07 -1.32011 -0.648971 0
M  V30 48291 H 4555.03 -1.92242 -3.70269 0
M  V30 48292 H 4553.66 -0.965918 -3.0801 0
M  V30 48293 H 4552.71 -3.17582 -2.09393 0
M  V30 48294 H 4554.02 -4.0395 -2.92618 0
M  V30 48295 H 4553.18 -3.22726 -5.13744 0
M  V30 48296 H 4551.91 -2.26025 -4.32162 0
M  V30 48297 H 4550.92 -4.35377 -3.35748 0
M  V30 48298 H 4552.14 -5.33174 -4.20598 0
M  V30 48299 H 4550.09 -3.52277 -5.53386 0
M  V30 48300 H 4550.01 -5.2513 -5.43851 0
M  V30 48301 H 4551.28 -4.50303 -6.36276 0
M  V30 48302 N 4555.5 0.689552 -1.41714 0
M  V30 48303 C 4556.73 1.48324 -1.44964 0
M  V30 48304 C 4557.15 1.8801 -0.0581944 0
M  V30 48305 O 4556.51 1.55029 0.93998 0
M  V30 48306 C 4556.56 2.71827 -2.36944 0
M  V30 48307 O 4555.66 3.69542 -1.83063 0
M  V30 48308 H 4555.01 0.446182 -0.49175 0
M  V30 48309 H 4557.54 0.847062 -1.86242 0
M  V30 48310 H 4557.55 3.20067 -2.53024 0
M  V30 48311 H 4556.22 2.42279 -3.38044 0
M  V30 48312 H 4554.8 3.28504 -1.76464 0
M  V30 48313 N 4556.98 1.27642 0.924409 0
M  V30 48314 C 4558.23 1.13947 1.66914 0
M  V30 48315 C 4558.55 -0.314521 1.92447 0
M  V30 48316 O 4557.82 -1.21958 1.53307 0
M  V30 48317 H 4556.4 0.4187 0.618627 0
M  V30 48318 H 4559.06 1.60217 1.10979 0
M  V30 48319 H 4558.16 1.67103 2.63596 0
M  V30 48320 N 4558.46 -1.13137 1.09717 0
M  V30 48321 C 4559.87 -1.66026 0.853943 0
M  V30 48322 C 4560.22 -1.86243 -0.617076 0
M  V30 48323 O 4559.35 -1.58346 -1.47498 0
M  V30 48324 C 4559.94 -3.01593 1.5436 0
M  V30 48325 C 4558.5 -3.51462 1.34727 0
M  V30 48326 C 4557.65 -2.26642 1.59777 0
M  V30 48327 H 4560.6 -0.970181 1.25591 0
M  V30 48328 H 4560.62 -3.67706 0.978396 0
M  V30 48329 H 4560.13 -2.86847 2.6142 0
M  V30 48330 H 4558.23 -3.71407 0.297969 0
M  V30 48331 H 4558.35 -4.31393 2.08416 0
M  V30 48332 H 4556.71 -2.33381 1.02006 0
M  V30 48333 H 4557.49 -2.14458 2.68072 0
M  V30 48334 N 4559.94 -0.884812 -1.30418 0
M  V30 48335 C 4560.85 -0.35548 -2.31891 0
M  V30 48336 C 4561.86 0.542203 -1.65336 0
M  V30 48337 O 4563.04 0.435363 -1.96638 0
M  V30 48338 C 4560.11 0.42154 -3.44128 0
M  V30 48339 C 4559.17 -0.505876 -4.26309 0
M  V30 48340 C 4558.4 0.234155 -5.33186 0
M  V30 48341 O 4558.62 1.46026 -5.51392 0
M  V30 48342 O 4557.56 -0.415654 -6.00463 0
M  V30 48343 H 4561.38 -1.19695 -2.79118 0
M  V30 48344 H 4558.97 -0.648644 -1.34584 0
M  V30 48345 H 4560.85 0.861496 -4.125 0
M  V30 48346 H 4559.52 1.23931 -2.99036 0
M  V30 48347 H 4558.43 -0.99464 -3.60635 0
M  V30 48348 H 4559.76 -1.28965 -4.75004 0
M  V30 48349 N 4561.42 1.43763 -0.645749 0
M  V30 48350 C 4562.67 2.01115 -0.153483 0
M  V30 48351 C 4562.98 1.51497 1.23725 0
M  V30 48352 O 4564.18 2.01073 1.82433 0
M  V30 48353 C 4562.64 3.59205 -0.223599 0
M  V30 48354 C 4562.25 4.17817 -1.61656 0
M  V30 48355 C 4563.99 4.23973 0.211448 0
M  V30 48356 C 4561.9 5.68177 -1.64101 0
M  V30 48357 H 4560.83 0.752091 -0.0536156 0
M  V30 48358 H 4563.48 1.64817 -0.806691 0
M  V30 48359 H 4561.86 3.92869 0.49698 0
M  V30 48360 H 4563.04 3.95665 -2.3619 0
M  V30 48361 H 4561.35 3.65392 -1.99694 0
M  V30 48362 H 4563.95 5.34276 0.212924 0
M  V30 48363 H 4564.29 3.97357 1.24151 0
M  V30 48364 H 4564.82 3.95165 -0.457127 0
M  V30 48365 H 4561.56 5.9955 -2.64992 0
M  V30 48366 H 4561.08 5.92407 -0.938819 0
M  V30 48367 H 4562.76 6.3208 -1.38142 0
M  V30 48368 N 4562.89 0.387197 1.5277 0
M  V30 48369 C 4564.14 -0.195954 2.01851 0
M  V30 48370 C 4564.47 -1.46636 1.27324 0
M  V30 48371 O 4563.75 -1.90888 0.373099 0
M  V30 48372 C 4564.03 -0.466011 3.57072 0
M  V30 48373 C 4563.88 0.819541 4.42271 0
M  V30 48374 C 4565.2 -1.25753 4.21751 0
M  V30 48375 H 4562.32 -0.069745 0.733692 0
M  V30 48376 H 4564.96 0.51635 1.82849 0
M  V30 48377 H 4563.11 -1.0728 3.73394 0
M  V30 48378 H 4564.79 1.45646 4.37704 0
M  V30 48379 H 4563.03 1.43531 4.09367 0
M  V30 48380 H 4563.7 0.585258 5.48889 0
M  V30 48381 H 4566.18 -0.744023 4.09394 0
M  V30 48382 H 4565.05 -1.41523 5.30342 0
M  V30 48383 H 4565.31 -2.27214 3.79244 0
M  V30 48384 N 4564.37 -1.57165 0.116959 0
M  V30 48385 C 4565.32 -2.15205 -0.834004 0
M  V30 48386 C 4566.29 -1.07648 -1.26495 0
M  V30 48387 O 4567.47 -1.35546 -1.34283 0
M  V30 48388 C 4564.61 -2.75412 -2.07947 0
M  V30 48389 C 4563.73 -3.9727 -1.69707 0
M  V30 48390 C 4562.86 -4.45571 -2.89206 0
M  V30 48391 C 4561.9 -5.59965 -2.47195 0
M  V30 48392 N 4561.04 -6.03019 -3.596 0
M  V30 48393 H 4565.88 -2.96142 -0.332231 0
M  V30 48394 H 4563.42 -1.46309 -0.152297 0
M  V30 48395 H 4565.37 -3.08449 -2.80918 0
M  V30 48396 H 4564 -1.97168 -2.55587 0
M  V30 48397 H 4563.06 -3.70407 -0.866186 0
M  V30 48398 H 4564.37 -4.80231 -1.34833 0
M  V30 48399 H 4563.52 -4.80506 -3.70403 0
M  V30 48400 H 4562.26 -3.61556 -3.27305 0
M  V30 48401 H 4561.27 -5.24636 -1.64429 0
M  V30 48402 H 4562.49 -6.45745 -2.10215 0
M  V30 48403 H 4560.44 -5.21945 -3.97378 0
M  V30 48404 H 4560.35 -6.8083 -3.28643 0
M  V30 48405 H 4561.62 -6.42592 -4.41244 0
M  V30 48406 N 4565.85 0.156809 -1.56818 0
M  V30 48407 C 4566.81 1.17774 -1.96627 0
M  V30 48408 C 4567.81 1.36398 -0.851603 0
M  V30 48409 O 4569 1.33557 -1.1184 0
M  V30 48410 C 4566.14 2.54 -2.2737 0
M  V30 48411 H 4567.33 0.836462 -2.87999 0
M  V30 48412 H 4564.88 0.399797 -1.511 0
M  V30 48413 H 4565.62 2.93116 -1.38758 0
M  V30 48414 H 4565.4 2.41845 -3.08632 0
M  V30 48415 H 4566.89 3.27548 -2.5904 0
M  V30 48416 N 4567.33 1.51738 0.425844 0
M  V30 48417 C 4568.58 1.64648 1.17198 0
M  V30 48418 C 4568.9 0.370553 1.91447 0
M  V30 48419 O 4568.17 -0.614023 1.86028 0
M  V30 48420 H 4566.75 0.606834 0.435616 0
M  V30 48421 H 4569.41 1.88715 0.487111 0
M  V30 48422 H 4568.51 2.47965 1.89526 0
M  V30 48423 N 4568.81 -0.682027 1.42078 0
M  V30 48424 C 4569.74 -1.8079 1.47774 0
M  V30 48425 C 4570.72 -1.66768 0.335012 0
M  V30 48426 O 4571.9 -1.86298 0.54833 0
M  V30 48427 C 4569.03 -3.19033 1.3724 0
M  V30 48428 C 4567.99 -3.47781 2.49465 0
M  V30 48429 C 4567.31 -4.85522 2.23992 0
M  V30 48430 C 4568.61 -3.45397 3.91789 0
M  V30 48431 H 4570.31 -1.76281 2.42003 0
M  V30 48432 H 4567.85 -0.846681 1.16479 0
M  V30 48433 H 4569.81 -3.97523 1.39835 0
M  V30 48434 H 4568.53 -3.24202 0.395021 0
M  V30 48435 H 4567.19 -2.71649 2.46176 0
M  V30 48436 H 4566.84 -4.87332 1.24564 0
M  V30 48437 H 4566.54 -5.0572 2.99201 0
M  V30 48438 H 4568.06 -5.66304 2.28324 0
M  V30 48439 H 4569.48 -4.13868 3.9672 0
M  V30 48440 H 4567.87 -3.77129 4.66791 0
M  V30 48441 H 4568.94 -2.44107 4.18974 0
M  V30 48442 N 4570.29 -1.2813 -0.917626 0
M  V30 48443 C 4571.7 -1.05753 -1.19534 0
M  V30 48444 C 4571.9 0.202563 -2.00479 0
M  V30 48445 O 4570.96 0.905299 -2.35713 0
M  V30 48446 C 4572.27 -2.3028 -1.9337 0
M  V30 48447 C 4573.82 -2.3542 -2.06268 0
M  V30 48448 C 4574.29 -3.59702 -2.83511 0
M  V30 48449 N 4575.78 -3.60319 -2.91075 0
M  V30 48450 C 4576.52 -4.53159 -3.51332 0
M  V30 48451 N 4576.02 -5.56314 -4.129 0
M  V30 48452 N 4577.81 -4.40763 -3.48833 0
M  V30 48453 H 4569.96 -2.09025 -0.377111 0
M  V30 48454 H 4572.22 -0.919806 -0.229478 0
M  V30 48455 H 4571.93 -3.2206 -1.41317 0
M  V30 48456 H 4571.8 -2.36389 -2.93939 0
M  V30 48457 H 4574.19 -1.44139 -2.57503 0
M  V30 48458 H 4574.27 -2.33307 -1.04887 0
M  V30 48459 H 4573.91 -4.51324 -2.32957 0
M  V30 48460 H 4573.84 -3.59068 -3.85199 0
M  V30 48461 H 4576.34 -2.85723 -2.47328 0
M  V30 48462 H 4576.65 -6.23306 -4.56847 0
M  V30 48463 H 4574.99 -5.60145 -4.11415 0
M  V30 48464 H 4578.18 -3.59378 -2.99942 0
M  V30 48465 H 4578.36 -5.13305 -3.95502 0
M  V30 48466 N 4571.76 1.12553 -1.10316 0
M  V30 48467 C 4572.99 1.88402 -0.867151 0
M  V30 48468 C 4573.41 1.7904 0.576754 0
M  V30 48469 O 4572.77 1.14444 1.40614 0
M  V30 48470 C 4572.82 3.35626 -1.31863 0
M  V30 48471 O 4571.92 4.09563 -0.482878 0
M  V30 48472 H 4571.26 0.585444 -0.313291 0
M  V30 48473 H 4573.79 1.42347 -1.46965 0
M  V30 48474 H 4573.8 3.86464 -1.30803 0
M  V30 48475 H 4572.48 3.41757 -2.37013 0
M  V30 48476 H 4571.06 3.68693 -0.558578 0
M  V30 48477 N 4573.24 0.891716 1.29947 0
M  V30 48478 C 4574.49 0.51357 1.95879 0
M  V30 48479 C 4574.82 -0.938596 1.70354 0
M  V30 48480 O 4574.07 -1.67933 1.00484 0
M  V30 48481 C 4574.37 0.742991 3.49592 0
M  V30 48482 C 4574.04 2.17128 3.95179 0
M  V30 48483 C 4572.7 2.56184 4.07337 0
M  V30 48484 C 4575.05 3.10177 4.18855 0
M  V30 48485 C 4572.38 3.87485 4.40536 0
M  V30 48486 C 4574.73 4.41017 4.53527 0
M  V30 48487 C 4573.39 4.79957 4.63894 0
M  V30 48488 H 4572.66 0.187928 0.716773 0
M  V30 48489 H 4575.31 1.12885 1.5469 0
M  V30 48490 H 4573.62 0.0447238 3.91774 0
M  V30 48491 H 4575.31 0.429907 3.98689 0
M  V30 48492 H 4571.9 1.85814 3.86227 0
M  V30 48493 H 4576.09 2.81221 4.08936 0
M  V30 48494 H 4571.34 4.17387 4.46764 0
M  V30 48495 H 4575.52 5.1315 4.70797 0
M  V30 48496 H 4573.14 5.81736 4.89374 0
M  V30 48497 N 4574.72 -1.43419 0.653364 0
M  V30 48498 C 4575.97 -2.01812 0.166816 0
M  V30 48499 C 4576.29 -1.5154 -1.21926 0
M  V30 48500 O 4575.55 -0.699039 -1.82789 0
M  V30 48501 C 4575.85 -3.57175 0.126749 0
M  V30 48502 C 4575.51 -4.26793 1.45459 0
M  V30 48503 C 4574.18 -4.45527 1.81821 0
M  V30 48504 C 4576.53 -4.66216 2.33006 0
M  V30 48505 C 4573.86 -5.0095 3.05395 0
M  V30 48506 C 4576.21 -5.23009 3.55872 0
M  V30 48507 C 4574.87 -5.39959 3.92429 0
M  V30 48508 H 4574.14 -0.738481 0.0610421 0
M  V30 48509 H 4576.79 -1.71893 0.844101 0
M  V30 48510 H 4575.09 -3.86637 -0.633987 0
M  V30 48511 H 4576.79 -4.00113 -0.266582 0
M  V30 48512 H 4573.38 -4.12557 1.16167 0
M  V30 48513 H 4577.57 -4.51435 2.06203 0
M  V30 48514 H 4572.82 -5.12259 3.33768 0
M  V30 48515 H 4577 -5.52503 4.23927 0
M  V30 48516 H 4574.62 -5.82669 4.88263 0
M  V30 48517 N 4576.2 -0.395293 -1.52562 0
M  V30 48518 C 4577.11 0.444151 -2.30357 0
M  V30 48519 C 4578.12 1.0661 -1.37515 0
M  V30 48520 O 4579.3 1.07061 -1.70587 0
M  V30 48521 C 4576.36 1.55305 -3.0997 0
M  V30 48522 C 4575.43 0.955587 -4.1853 0
M  V30 48523 C 4574.66 2.01164 -4.94337 0
M  V30 48524 O 4574.88 3.22765 -4.70297 0
M  V30 48525 O 4573.82 1.62559 -5.79533 0
M  V30 48526 H 4577.64 -0.189773 -3.03107 0
M  V30 48527 H 4575.23 -0.158852 -1.48553 0
M  V30 48528 H 4577.11 2.19711 -3.5959 0
M  V30 48529 H 4575.78 2.17182 -2.40028 0
M  V30 48530 H 4574.69 0.274612 -3.73091 0
M  V30 48531 H 4576.02 0.380937 -4.90724 0
M  V30 48532 N 4577.68 1.57101 -0.125292 0
M  V30 48533 C 4578.9 2.00192 0.54203 0
M  V30 48534 C 4579.33 1.00454 1.5903 0
M  V30 48535 O 4578.68 -0.0228785 1.81286 0
M  V30 48536 C 4578.73 3.42133 1.13917 0
M  V30 48537 O 4577.84 3.45315 2.25458 0
M  V30 48538 H 4577.18 0.650175 0.134789 0
M  V30 48539 H 4579.71 2.03461 -0.215624 0
M  V30 48540 H 4579.72 3.80476 1.47317 0
M  V30 48541 H 4578.39 4.14239 0.371385 0
M  V30 48542 H 4576.97 3.18797 1.93451 0
M  V30 48543 N 4579.15 -0.14849 1.56899 0
M  V30 48544 C 4580.12 -1.16729 1.97248 0
M  V30 48545 C 4581.12 -1.35944 0.858825 0
M  V30 48546 O 4582.31 -1.32962 1.12547 0
M  V30 48547 C 4579.44 -2.5279 2.28714 0
M  V30 48548 H 4580.63 -0.821177 2.88438 0
M  V30 48549 H 4578.18 -0.391778 1.5131 0
M  V30 48550 H 4578.92 -2.92376 1.4031 0
M  V30 48551 H 4578.7 -2.40205 3.0991 0
M  V30 48552 H 4580.19 -3.2617 2.60773 0
M  V30 48553 N 4580.63 -1.51961 -0.417791 0
M  V30 48554 C 4581.86 -1.69721 -1.19204 0
M  V30 48555 C 4582.28 -0.402213 -1.83749 0
M  V30 48556 O 4581.64 0.639533 -1.69646 0
M  V30 48557 C 4581.69 -2.82802 -2.23731 0
M  V30 48558 O 4580.79 -2.47767 -3.29674 0
M  V30 48559 H 4580.13 -0.565275 -0.348367 0
M  V30 48560 H 4582.66 -1.98623 -0.490916 0
M  V30 48561 H 4582.67 -3.07461 -2.68201 0
M  V30 48562 H 4581.35 -3.76763 -1.76133 0
M  V30 48563 H 4579.92 -2.33749 -2.90544 0
M  V30 48564 N 4582.11 0.674483 -1.42438 0
M  V30 48565 C 4583.02 1.81746 -1.48343 0
M  V30 48566 C 4584.04 1.69973 -0.372159 0
M  V30 48567 O 4585.21 1.91518 -0.623108 0
M  V30 48568 C 4582.28 3.1789 -1.38373 0
M  V30 48569 C 4581.34 3.41616 -2.59994 0
M  V30 48570 C 4580.57 4.71265 -2.5049 0
M  V30 48571 O 4580.79 5.49191 -1.54094 0
M  V30 48572 O 4579.73 4.96242 -3.40628 0
M  V30 48573 H 4583.55 1.79719 -2.44816 0
M  V30 48574 H 4581.14 0.830268 -1.24205 0
M  V30 48575 H 4583.02 3.99131 -1.35175 0
M  V30 48576 H 4581.7 3.20553 -0.450257 0
M  V30 48577 H 4580.6 2.60222 -2.68766 0
M  V30 48578 H 4581.94 3.43783 -3.52241 0
M  V30 48579 N 4583.59 1.28615 0.910818 0
M  V30 48580 C 4584.87 1.06638 1.63975 0
M  V30 48581 C 4585.25 -0.393278 2.07404 0
M  V30 48582 O 4584.59 -1.37993 1.82127 0
M  V30 48583 C 4584.8 2.0437 2.82902 0
M  V30 48584 C 4586.15 2.34678 3.53852 0
M  V30 48585 O 4587.18 2.02478 2.93055 0
M  V30 48586 O 4586.03 2.89647 4.63429 0
M  V30 48587 H 4583.13 0.407762 0.719485 0
M  V30 48588 H 4585.67 1.39945 0.959865 0
M  V30 48589 H 4584.45 3.02735 2.47926 0
M  V30 48590 H 4584.07 1.71726 3.58603 0
M  V30 48591 N 4585.07 -1.11967 1.10911 0
M  V30 48592 C 4586.32 -1.82944 0.849367 0
M  V30 48593 C 4586.63 -1.85277 -0.627047 0
M  V30 48594 O 4587.83 -2.52299 -1.00286 0
M  V30 48595 C 4586.29 -3.28523 1.46971 0
M  V30 48596 C 4585.9 -3.34536 2.97976 0
M  V30 48597 C 4587.64 -4.04438 1.28956 0
M  V30 48598 C 4585.55 -4.74479 3.53021 0
M  V30 48599 H 4584.48 -0.685466 0.314089 0
M  V30 48600 H 4587.13 -1.26035 1.33369 0
M  V30 48601 H 4585.51 -3.8533 0.913052 0
M  V30 48602 H 4586.69 -2.87641 3.59999 0
M  V30 48603 H 4585 -2.72097 3.15202 0
M  V30 48604 H 4587.6 -5.07781 1.6752 0
M  V30 48605 H 4587.94 -4.15655 0.231602 0
M  V30 48606 H 4588.47 -3.54004 1.81456 0
M  V30 48607 H 4585.21 -4.68458 4.58506 0
M  V30 48608 H 4584.73 -5.21806 2.95768 0
M  V30 48609 H 4586.41 -5.43428 3.51134 0
M  V30 48610 N 4586.54 -0.898595 -1.29472 0
M  V30 48611 C 4587.45 -0.380055 -2.31501 0
M  V30 48612 C 4588.47 0.524637 -1.65902 0
M  V30 48613 O 4589.65 0.414482 -1.97089 0
M  V30 48614 C 4586.71 0.385017 -3.44556 0
M  V30 48615 C 4585.77 -0.551064 -4.25748 0
M  V30 48616 C 4585.01 0.177591 -5.33404 0
M  V30 48617 O 4585.23 1.40169 -5.52909 0
M  V30 48618 O 4584.16 -0.479317 -5.99988 0
M  V30 48619 H 4587.99 -1.22648 -2.77833 0
M  V30 48620 H 4585.57 -0.662882 -1.33889 0
M  V30 48621 H 4587.46 0.817696 -4.1339 0
M  V30 48622 H 4586.13 1.20752 -3.00334 0
M  V30 48623 H 4585.04 -1.03283 -3.5956 0
M  V30 48624 H 4586.37 -1.33996 -4.7361 0
M  V30 48625 N 4588.02 1.4307 -0.660961 0
M  V30 48626 C 4588.97 2.30785 0.0259072 0
M  V30 48627 C 4589.94 1.45187 0.806837 0
M  V30 48628 O 4591.12 1.74044 0.781882 0
M  V30 48629 C 4588.26 3.30865 0.980951 0
M  V30 48630 C 4587.38 4.31558 0.195306 0
M  V30 48631 C 4586.51 5.18716 1.14485 0
M  V30 48632 C 4585.55 6.11098 0.350084 0
M  V30 48633 N 4584.69 6.90854 1.25161 0
M  V30 48634 H 4589.53 2.88972 -0.727948 0
M  V30 48635 H 4587.07 1.42352 -0.370732 0
M  V30 48636 H 4589.02 3.87404 1.54835 0
M  V30 48637 H 4587.65 2.7431 1.70159 0
M  V30 48638 H 4586.71 3.7725 -0.488507 0
M  V30 48639 H 4588.02 4.97009 -0.42235 0
M  V30 48640 H 4587.17 5.7992 1.78263 0
M  V30 48641 H 4585.91 4.5341 1.7964 0
M  V30 48642 H 4584.92 5.48975 -0.301001 0
M  V30 48643 H 4586.14 6.78449 -0.29718 0
M  V30 48644 H 4584.09 6.28189 1.88983 0
M  V30 48645 H 4584 7.52856 0.688706 0
M  V30 48646 H 4585.27 7.56556 1.8773 0
M  V30 48647 N 4589.5 0.403378 1.5235 0
M  V30 48648 C 4590.43 -0.469385 2.2332 0
M  V30 48649 C 4591.41 -1.05267 1.23926 0
M  V30 48650 O 4592.6 -1.10164 1.52958 0
M  V30 48651 C 4589.72 -1.651 2.95736 0
M  V30 48652 C 4588.77 -1.19164 4.09515 0
M  V30 48653 S 4589.6 -0.16153 5.35256 0
M  V30 48654 C 4590.76 -1.3486 6.11198 0
M  V30 48655 H 4590.99 0.133238 2.97001 0
M  V30 48656 H 4588.52 0.187642 1.53256 0
M  V30 48657 H 4590.48 -2.32858 3.38064 0
M  V30 48658 H 4589.14 -2.22495 2.21709 0
M  V30 48659 H 4588.34 -2.07428 4.59336 0
M  V30 48660 H 4587.94 -0.592781 3.69272 0
M  V30 48661 H 4590.23 -2.27322 6.38225 0
M  V30 48662 H 4591.17 -0.891033 7.02471 0
M  V30 48663 H 4591.58 -1.57179 5.42176 0
M  V30 48664 N 4590.98 -1.57033 0.133622 0
M  V30 48665 C 4592.22 -1.95978 -0.52158 0
M  V30 48666 C 4592.56 -1.01784 -1.65389 0
M  V30 48667 O 4591.83 -0.0577265 -1.94414 0
M  V30 48668 C 4592.12 -3.44741 -1.04045 0
M  V30 48669 C 4591.97 -4.49711 0.0894478 0
M  V30 48670 C 4593.29 -3.95689 -1.92661 0
M  V30 48671 H 4590.41 -0.712586 -0.188124 0
M  V30 48672 H 4593.05 -1.88812 0.212143 0
M  V30 48673 H 4591.2 -3.50979 -1.66571 0
M  V30 48674 H 4592.87 -4.55562 0.725312 0
M  V30 48675 H 4591.11 -4.27258 0.750528 0
M  V30 48676 H 4591.78 -5.511 -0.31509 0
M  V30 48677 H 4594.26 -3.91846 -1.39984 0
M  V30 48678 H 4593.14 -5.0027 -2.25879 0
M  V30 48679 H 4593.4 -3.37249 -2.8586 0
M  V30 48680 N 4592.46 0.140167 -1.56975 0
M  V30 48681 C 4593.37 1.19216 -2.02051 0
M  V30 48682 C 4594.38 1.46609 -0.937113 0
M  V30 48683 O 4595.56 1.58144 -1.2471 0
M  V30 48684 C 4592.62 2.50406 -2.39787 0
M  V30 48685 C 4591.68 2.30599 -3.62108 0
M  V30 48686 C 4590.92 3.55533 -3.98035 0
M  V30 48687 O 4591.14 4.61992 -3.34544 0
M  V30 48688 O 4590.07 3.4779 -4.91249 0
M  V30 48689 H 4593.9 0.839456 -2.91868 0
M  V30 48690 H 4591.49 0.349402 -1.45257 0
M  V30 48691 H 4593.37 3.27738 -2.64888 0
M  V30 48692 H 4592.04 2.85193 -1.53124 0
M  V30 48693 H 4590.95 1.51195 -3.42186 0
M  V30 48694 H 4592.28 2.00725 -4.49411 0
M  V30 48695 N 4593.93 1.52181 0.409726 0
M  V30 48696 C 4594.88 1.76091 1.51969 0
M  V30 48697 C 4595.88 0.628019 1.57329 0
M  V30 48698 O 4597.08 0.81005 1.60743 0
M  V30 48699 H 4593.46 0.556847 0.505396 0
M  V30 48700 H 4595.43 2.69082 1.28987 0
M  V30 48701 C 4594.18 1.9281 2.89344 0
M  V30 48702 H 4593.5 2.79403 2.85962 0
M  V30 48703 H 4594.94 2.13539 3.66302 0
M  V30 48704 C 4593.4 0.695039 3.29653 0
M  V30 48705 O 4593.93 -0.137369 4.01465 0
M  V30 48706 N 4592.14 0.53111 2.85705 0
M  V30 48707 H 4591.68 1.2096 2.27435 0
M  V30 48708 H 4591.64 -0.292608 3.13035 0
M  V30 48709 N 4595.41 -0.666919 1.42793 0
M  V30 48710 C 4596.34 -1.79213 1.49683 0
M  V30 48711 C 4597.32 -1.66404 0.352681 0
M  V30 48712 O 4598.51 -1.85706 0.568058 0
M  V30 48713 C 4595.64 -3.1756 1.40616 0
M  V30 48714 C 4594.59 -3.45115 2.5314 0
M  V30 48715 C 4593.92 -4.83119 2.29129 0
M  V30 48716 C 4595.22 -3.41222 3.9543 0
M  V30 48717 H 4596.91 -1.73704 2.43859 0
M  V30 48718 H 4594.46 -0.834279 1.1737 0
M  V30 48719 H 4596.41 -3.96017 1.44043 0
M  V30 48720 H 4595.14 -3.23765 0.429384 0
M  V30 48721 H 4593.79 -2.69022 2.49043 0
M  V30 48722 H 4593.44 -4.85984 1.29726 0
M  V30 48723 H 4593.14 -5.02518 3.04548 0
M  V30 48724 H 4594.67 -5.63851 2.34317 0
M  V30 48725 H 4596.08 -4.09637 4.01087 0
M  V30 48726 H 4594.48 -3.72157 4.70765 0
M  V30 48727 H 4595.55 -2.3965 4.2154 0
M  V30 48728 N 4596.89 -1.29096 -0.903985 0
M  V30 48729 C 4598.31 -1.07015 -1.18406 0
M  V30 48730 C 4598.51 0.181288 -2.00683 0
M  V30 48731 O 4597.56 0.880248 -2.3666 0
M  V30 48732 C 4598.88 -2.32318 -1.90916 0
M  V30 48733 C 4600.42 -2.37594 -2.0376 0
M  V30 48734 C 4600.9 -3.62689 -2.7968 0
M  V30 48735 N 4602.39 -3.63386 -2.87237 0
M  V30 48736 C 4603.12 -4.5686 -3.46506 0
M  V30 48737 N 4602.62 -5.60663 -4.06976 0
M  V30 48738 N 4604.41 -4.44438 -3.44139 0
M  V30 48739 H 4596.56 -2.09414 -0.35492 0
M  V30 48740 H 4598.83 -0.922189 -0.219709 0
M  V30 48741 H 4598.53 -3.2354 -1.37893 0
M  V30 48742 H 4598.41 -2.39493 -2.91415 0
M  V30 48743 H 4600.79 -1.46862 -2.5596 0
M  V30 48744 H 4600.88 -2.34407 -1.02407 0
M  V30 48745 H 4600.52 -4.5377 -2.28157 0
M  V30 48746 H 4600.45 -3.63133 -3.81369 0
M  V30 48747 H 4602.94 -2.8833 -2.44283 0
M  V30 48748 H 4603.25 -6.28117 -4.5021 0
M  V30 48749 H 4601.6 -5.64477 -4.05451 0
M  V30 48750 H 4604.79 -3.62539 -2.96113 0
M  V30 48751 H 4604.96 -5.17471 -3.90036 0
M  V30 48752 N 4598.37 1.11377 -1.11503 0
M  V30 48753 C 4599.3 2.19506 -0.796202 0
M  V30 48754 C 4600.28 1.68459 0.235737 0
M  V30 48755 O 4601.47 1.93947 0.0990662 0
M  V30 48756 C 4598.6 3.46474 -0.239327 0
M  V30 48757 C 4597.55 4.10739 -1.20321 0
M  V30 48758 C 4596.88 5.32291 -0.507017 0
M  V30 48759 C 4598.18 4.55588 -2.55415 0
M  V30 48760 H 4599.87 2.46433 -1.70032 0
M  V30 48761 H 4597.42 1.18443 -0.818976 0
M  V30 48762 H 4599.37 4.214 -0.00406821 0
M  V30 48763 H 4598.09 3.19008 0.700094 0
M  V30 48764 H 4596.75 3.37808 -1.42411 0
M  V30 48765 H 4596.4 5.01096 0.437232 0
M  V30 48766 H 4596.1 5.76239 -1.1499 0
M  V30 48767 H 4597.62 6.09955 -0.280566 0
M  V30 48768 H 4599.04 5.21833 -2.3741 0
M  V30 48769 H 4597.43 5.10352 -3.15691 0
M  V30 48770 H 4598.5 3.69002 -3.14588 0
M  V30 48771 N 4599.85 0.905449 1.28994 0
M  V30 48772 C 4601.1 0.533261 1.94938 0
M  V30 48773 C 4601.42 -0.924558 1.71688 0
M  V30 48774 O 4600.69 -1.65264 1.05189 0
M  V30 48775 H 4599.27 0.19422 0.72131 0
M  V30 48776 H 4601.93 1.153 1.57137 0
M  V30 48777 H 4601.02 0.720697 3.03665 0
M  V30 48778 N 4601.33 -1.42718 0.668539 0
M  V30 48779 C 4602.27 -2.30796 -0.0136678 0
M  V30 48780 C 4603.24 -1.45613 -0.799126 0
M  V30 48781 O 4604.43 -1.74456 -0.772641 0
M  V30 48782 C 4601.57 -3.3138 -0.96339 0
M  V30 48783 C 4600.68 -4.31656 -0.172417 0
M  V30 48784 C 4599.82 -5.19316 -1.11732 0
M  V30 48785 C 4598.85 -6.11275 -0.317671 0
M  V30 48786 N 4597.99 -6.91508 -1.21496 0
M  V30 48787 H 4602.83 -2.88582 0.743262 0
M  V30 48788 H 4600.37 -1.42153 0.378276 0
M  V30 48789 H 4602.33 -3.8822 -1.52779 0
M  V30 48790 H 4600.96 -2.75208 -1.68702 0
M  V30 48791 H 4600.01 -3.76986 0.508506 0
M  V30 48792 H 4601.32 -4.96778 0.448702 0
M  V30 48793 H 4600.47 -5.80857 -1.75185 0
M  V30 48794 H 4599.21 -4.54356 -1.77233 0
M  V30 48795 H 4598.22 -5.48808 0.33011 0
M  V30 48796 H 4599.44 -6.78282 0.333155 0
M  V30 48797 H 4597.39 -6.29182 -1.85649 0
M  V30 48798 H 4597.31 -7.53211 -0.648771 0
M  V30 48799 H 4598.57 -7.57541 -1.83715 0
M  V30 48800 N 4602.8 -0.411452 -1.52134 0
M  V30 48801 C 4604.05 0.163817 -2.02137 0
M  V30 48802 C 4604.38 1.44592 -1.29641 0
M  V30 48803 O 4603.66 1.9027 -0.40342 0
M  V30 48804 C 4603.94 0.409145 -3.57768 0
M  V30 48805 C 4603.79 -0.889798 -4.40911 0
M  V30 48806 C 4605.11 1.19027 -4.23699 0
M  V30 48807 H 4602.23 0.0580637 -0.734709 0
M  V30 48808 H 4604.87 -0.545374 -1.82005 0
M  V30 48809 H 4603.02 1.01326 -3.75054 0
M  V30 48810 H 4604.7 -1.52591 -4.35332 0
M  V30 48811 H 4602.94 -1.50026 -4.07032 0
M  V30 48812 H 4603.61 -0.672507 -5.47888 0
M  V30 48813 H 4606.09 0.678797 -4.10526 0
M  V30 48814 H 4604.96 1.33068 -5.32526 0
M  V30 48815 H 4605.22 2.21152 -3.82811 0
M  V30 48816 N 4604.28 1.56959 -0.141948 0
M  V30 48817 C 4605.51 2.00756 0.520767 0
M  V30 48818 C 4605.93 1.02135 1.57956 0
M  V30 48819 O 4605.29 -0.0036495 1.813 0
M  V30 48820 C 4605.34 3.43322 1.10282 0
M  V30 48821 O 4604.44 3.47687 2.21783 0
M  V30 48822 H 4603.78 0.651568 0.127885 0
M  V30 48823 H 4606.31 2.0322 -0.237192 0
M  V30 48824 H 4606.32 3.82017 1.43273 0
M  V30 48825 H 4605 4.14609 0.327429 0
M  V30 48826 H 4603.57 3.2083 1.90059 0
M  V30 48827 N 4605.76 -0.13184 1.57048 0
M  V30 48828 C 4606.69 -1.18773 1.96025 0
M  V30 48829 C 4607.7 -1.3836 0.857924 0
M  V30 48830 O 4608.89 -1.37662 1.13628 0
M  V30 48831 C 4605.99 -2.55001 2.23222 0
M  V30 48832 C 4605.17 -2.56189 3.54522 0
M  V30 48833 C 4604.23 -3.74067 3.70082 0
M  V30 48834 O 4603.25 -3.58242 4.42325 0
M  V30 48835 N 4604.45 -4.92126 3.07883 0
M  V30 48836 H 4607.22 -0.856289 2.87207 0
M  V30 48837 H 4604.78 -0.321254 1.58681 0
M  V30 48838 H 4606.77 -3.32396 2.30858 0
M  V30 48839 H 4605.34 -2.80377 1.3823 0
M  V30 48840 H 4604.56 -1.646 3.5819 0
M  V30 48841 H 4605.85 -2.54027 4.40849 0
M  V30 48842 H 4605.25 -5.07887 2.49134 0
M  V30 48843 H 4603.8 -5.67243 3.21059 0
M  V30 48844 N 4607.24 -1.52396 -0.40165 0
M  V30 48845 C 4608.2 -1.75641 -1.47251 0
M  V30 48846 C 4609.2 -0.626332 -1.481 0
M  V30 48847 O 4610.39 -0.894279 -1.49493 0
M  V30 48848 C 4607.52 -1.84563 -2.86617 0
M  V30 48849 H 4608.72 -2.71246 -1.27928 0
M  V30 48850 H 4606.27 -1.42926 -0.632612 0
M  V30 48851 H 4607 -0.908991 -3.113 0
M  V30 48852 H 4606.79 -2.66725 -2.87403 0
M  V30 48853 H 4608.28 -2.04263 -3.64234 0
M  V30 48854 N 4608.72 0.659337 -1.43145 0
M  V30 48855 C 4610.13 0.974293 -1.26411 0
M  V30 48856 C 4610.33 2.007 -0.179411 0
M  V30 48857 O 4609.39 2.48562 0.444207 0
M  V30 48858 C 4610.7 1.46438 -2.62634 0
M  V30 48859 C 4612.25 1.58135 -2.70116 0
M  V30 48860 C 4612.72 2.10536 -4.06742 0
M  V30 48861 N 4614.21 2.17847 -4.08775 0
M  V30 48862 C 4614.95 2.59501 -5.11319 0
M  V30 48863 N 4614.45 3.00496 -6.24239 0
M  V30 48864 N 4616.24 2.59387 -4.98673 0
M  V30 48865 H 4608.39 -0.0241275 -2.12386 0
M  V30 48866 H 4610.65 0.0517732 -0.946585 0
M  V30 48867 H 4610.36 0.780003 -3.42941 0
M  V30 48868 H 4610.23 2.44048 -2.87612 0
M  V30 48869 H 4612.62 2.25675 -1.90144 0
M  V30 48870 H 4612.7 0.589741 -2.48909 0
M  V30 48871 H 4612.34 1.43599 -4.87177 0
M  V30 48872 H 4612.27 3.10516 -4.25309 0
M  V30 48873 H 4614.77 1.88964 -3.27263 0
M  V30 48874 H 4615.08 3.31011 -6.98321 0
M  V30 48875 H 4613.42 2.98315 -6.27721 0
M  V30 48876 H 4616.61 2.26733 -4.09524 0
M  V30 48877 H 4616.79 2.91528 -5.78719 0
M  V30 48878 N 4610.19 1.29574 0.897126 0
M  V30 48879 C 4611.42 1.20588 1.68125 0
M  V30 48880 C 4611.84 -0.233115 1.87355 0
M  V30 48881 O 4611.19 -1.15574 1.4124 0
M  V30 48882 C 4611.24 1.91783 3.06434 0
M  V30 48883 O 4610.97 3.30063 2.8808 0
M  V30 48884 C 4612.47 1.89305 4.00847 0
M  V30 48885 H 4609.69 0.417844 0.525021 0
M  V30 48886 H 4612.23 1.70991 1.12171 0
M  V30 48887 H 4610.39 1.45209 3.59156 0
M  V30 48888 H 4610.8 3.65955 3.75735 0
M  V30 48889 H 4612.27 2.4368 4.95302 0
M  V30 48890 H 4612.75 0.869165 4.30514 0
M  V30 48891 H 4613.36 2.35634 3.54057 0
M  V30 48892 N 4611.67 -1.10784 1.12092 0
M  V30 48893 C 4612.6 -2.16813 0.743289 0
M  V30 48894 C 4613.62 -1.61191 -0.228355 0
M  V30 48895 O 4614.81 -1.78497 -0.0102304 0
M  V30 48896 C 4611.91 -3.38808 0.0788504 0
M  V30 48897 C 4611.08 -4.23881 1.07905 0
M  V30 48898 C 4610.14 -5.24333 0.442897 0
M  V30 48899 O 4609.16 -5.58493 1.09883 0
M  V30 48900 N 4610.37 -5.75082 -0.791255 0
M  V30 48901 H 4613.13 -2.49819 1.65561 0
M  V30 48902 H 4610.69 -1.26369 1.01205 0
M  V30 48903 H 4612.68 -4.03108 -0.358625 0
M  V30 48904 H 4611.25 -3.03808 -0.736168 0
M  V30 48905 H 4610.47 -3.55933 1.69426 0
M  V30 48906 H 4611.76 -4.77556 1.7555 0
M  V30 48907 H 4611.16 -5.49522 -1.34321 0
M  V30 48908 H 4609.72 -6.41184 -1.1716 0
M  V30 48909 N 4613.15 -0.912277 -1.28512 0
M  V30 48910 C 4614.4 -0.545474 -1.95326 0
M  V30 48911 C 4614.73 0.908253 -1.71652 0
M  V30 48912 O 4614 1.64572 -1.03665 0
M  V30 48913 C 4614.29 -0.853606 -3.49837 0
M  V30 48914 C 4614.14 -2.35996 -3.82918 0
M  V30 48915 C 4615.46 -0.348743 -4.38716 0
M  V30 48916 H 4612.58 -0.199651 -0.709442 0
M  V30 48917 H 4615.22 -1.14125 -1.51906 0
M  V30 48918 H 4613.37 -0.346566 -3.86951 0
M  V30 48919 H 4615.04 -2.9375 -3.5568 0
M  V30 48920 H 4613.29 -2.81555 -3.30014 0
M  V30 48921 H 4613.96 -2.5261 -4.90808 0
M  V30 48922 H 4616.43 -0.783084 -4.08665 0
M  V30 48923 H 4615.31 -0.593434 -5.45683 0
M  V30 48924 H 4615.57 0.750896 -4.35676 0
M  V30 48925 N 4614.63 1.42361 -0.676098 0
M  V30 48926 C 4615.58 2.308 0.0014279 0
M  V30 48927 C 4616.55 1.46035 0.791392 0
M  V30 48928 O 4617.73 1.74863 0.763378 0
M  V30 48929 C 4614.87 3.31886 0.945803 0
M  V30 48930 C 4613.98 4.31741 0.149523 0
M  V30 48931 C 4613.12 5.19901 1.08977 0
M  V30 48932 C 4612.16 6.11435 0.28525 0
M  V30 48933 N 4611.29 6.92142 1.17827 0
M  V30 48934 H 4616.13 2.88184 -0.758556 0
M  V30 48935 H 4613.67 1.4195 -0.38581 0
M  V30 48936 H 4615.63 3.89024 1.50718 0
M  V30 48937 H 4614.26 2.76099 1.6724 0
M  V30 48938 H 4613.31 3.76711 -0.528491 0
M  V30 48939 H 4614.62 4.96533 -0.475041 0
M  V30 48940 H 4613.78 5.81778 1.72102 0
M  V30 48941 H 4612.52 4.5529 1.74821 0
M  V30 48942 H 4611.52 5.48625 -0.35921 0
M  V30 48943 H 4612.75 6.78096 -0.369122 0
M  V30 48944 H 4610.69 6.30158 1.8231 0
M  V30 48945 H 4610.61 7.53545 0.608817 0
M  V30 48946 H 4611.88 7.58505 1.79695 0
M  V30 48947 N 4616.11 0.419515 1.51914 0
M  V30 48948 C 4617.35 -0.152566 2.01523 0
M  V30 48949 C 4617.68 -1.44757 1.30654 0
M  V30 48950 O 4616.95 -1.90996 0.435602 0
M  V30 48951 H 4615.53 -0.0593704 0.744637 0
M  V30 48952 H 4618.19 0.558138 1.86737 0
M  V30 48953 H 4617.28 -0.34126 3.10229 0
M  V30 48954 N 4617.58 -1.56882 0.15027 0
M  V30 48955 C 4618.83 -1.9652 -0.500765 0
M  V30 48956 C 4619.16 -1.03533 -1.643 0
M  V30 48957 O 4618.44 -0.0783434 -1.94342 0
M  V30 48958 C 4618.72 -3.45826 -1.00383 0
M  V30 48959 C 4618.57 -4.49591 0.137141 0
M  V30 48960 C 4619.89 -3.9771 -1.88453 0
M  V30 48961 H 4617.01 -0.714541 -0.180555 0
M  V30 48962 H 4619.65 -1.88576 0.232157 0
M  V30 48963 H 4617.8 -3.52726 -1.62839 0
M  V30 48964 H 4619.48 -4.54767 0.77359 0
M  V30 48965 H 4617.72 -4.26438 0.795802 0
M  V30 48966 H 4618.39 -5.51403 -0.256621 0
M  V30 48967 H 4620.87 -3.93309 -1.3582 0
M  V30 48968 H 4619.74 -5.02637 -2.2056 0
M  V30 48969 H 4620 -3.40262 -2.82267 0
M  V30 48970 N 4619.06 0.12351 -1.57115 0
M  V30 48971 C 4620.31 0.830445 -1.8425 0
M  V30 48972 C 4620.63 1.80627 -0.734773 0
M  V30 48973 O 4619.9 1.94404 0.24162 0
M  V30 48974 H 4618.48 0.30967 -0.679789 0
M  V30 48975 H 4621.14 0.111908 -1.94578 0
M  V30 48976 H 4620.24 1.37843 -2.8001 0
M  V30 48977 N 4620.54 1.52607 0.393562 0
M  V30 48978 C 4621.47 1.73309 1.49989 0
M  V30 48979 C 4622.49 0.613526 1.50797 0
M  V30 48980 O 4623.67 0.889103 1.54781 0
M  V30 48981 C 4620.77 1.77255 2.88849 0
M  V30 48982 C 4619.95 3.06494 3.12058 0
M  V30 48983 C 4619.01 3.02048 4.30875 0
M  V30 48984 O 4618.03 3.75922 4.27401 0
M  V30 48985 N 4619.23 2.20916 5.36821 0
M  V30 48986 H 4622 2.6876 1.3262 0
M  V30 48987 H 4619.56 1.51038 0.58303 0
M  V30 48988 H 4621.55 1.71793 3.66428 0
M  V30 48989 H 4620.12 0.892098 2.996 0
M  V30 48990 H 4619.34 3.25482 2.22385 0
M  V30 48991 H 4620.63 3.91958 3.24417 0
M  V30 48992 H 4620.03 1.60355 5.42497 0
M  V30 48993 H 4618.59 2.21297 6.13083 0
M  V30 48994 N 4622.02 -0.651737 1.43493 0
M  V30 48995 C 4622.97 -1.78581 1.49036 0
M  V30 48996 C 4623.96 -1.65447 0.363825 0
M  V30 48997 O 4625.17 -1.71776 0.537882 0
M  V30 48998 H 4621.54 -0.589219 0.467252 0
M  V30 48999 H 4623.51 -1.71026 2.44525 0
M  V30 49000 C 4622.26 -3.16846 1.43193 0
M  V30 49001 H 4621.58 -3.2759 2.29183 0
M  V30 49002 H 4623.02 -3.9615 1.51132 0
M  V30 49003 C 4621.48 -3.36567 0.149734 0
M  V30 49004 O 4622.01 -3.93888 -0.78837 0
M  V30 49005 N 4620.22 -2.90539 0.0594505 0
M  V30 49006 H 4619.77 -2.44077 0.823661 0
M  V30 49007 H 4619.72 -3.04111 -0.797746 0
M  V30 49008 N 4623.5 -1.30048 -0.890242 0
M  V30 49009 C 4624.43 -1.18548 -2.01168 0
M  V30 49010 C 4625.41 -0.0773953 -1.69924 0
M  V30 49011 O 4626.59 -0.258518 -1.92472 0
M  V30 49012 C 4623.72 -0.871059 -3.36199 0
M  V30 49013 C 4622.68 -1.9365 -3.81685 0
M  V30 49014 C 4622 -1.47518 -5.13948 0
M  V30 49015 C 4623.3 -3.3468 -4.00982 0
M  V30 49016 H 4625 -2.12367 -2.11047 0
M  V30 49017 H 4622.54 -1.02242 -1.01403 0
M  V30 49018 H 4624.5 -0.777286 -4.14169 0
M  V30 49019 H 4623.22 0.102811 -3.26438 0
M  V30 49020 H 4621.88 -2.01982 -3.05939 0
M  V30 49021 H 4621.53 -0.489727 -5.0061 0
M  V30 49022 H 4621.23 -2.1878 -5.45352 0
M  V30 49023 H 4622.75 -1.3951 -5.94449 0
M  V30 49024 H 4624.16 -3.29137 -4.69406 0
M  V30 49025 H 4622.56 -4.03982 -4.43755 0
M  V30 49026 H 4623.63 -3.76959 -3.05008 0
M  V30 49027 N 4624.97 1.10188 -1.12678 0
M  V30 49028 C 4626.2 1.8598 -0.906593 0
M  V30 49029 C 4626.62 1.80785 0.544269 0
M  V30 49030 O 4625.97 1.19839 1.37641 0
M  V30 49031 C 4626.03 3.34276 -1.37629 0
M  V30 49032 O 4625.75 3.39392 -2.77029 0
M  V30 49033 C 4627.25 4.26934 -1.1934 0
M  V30 49034 H 4624.47 0.587705 -0.323796 0
M  V30 49035 H 4627.01 1.39279 -1.49738 0
M  V30 49036 H 4625.17 3.78433 -0.828672 0
M  V30 49037 H 4625.58 4.31828 -2.97699 0
M  V30 49038 H 4627.05 5.29175 -1.5709 0
M  V30 49039 H 4627.53 4.38995 -0.134251 0
M  V30 49040 H 4628.14 3.88584 -1.72866 0
M  V30 49041 N 4626.45 0.919079 1.28026 0
M  V30 49042 C 4627.68 0.570213 1.98575 0
M  V30 49043 C 4628.09 -0.854113 1.68824 0
M  V30 49044 O 4627.43 -1.57804 0.940407 0
M  V30 49045 C 4627.5 0.705858 3.52502 0
M  V30 49046 C 4627.16 2.10071 4.05856 0
M  V30 49047 C 4628.16 3.07399 4.19287 0
M  V30 49048 C 4625.84 2.41533 4.40417 0
M  V30 49049 C 4627.84 4.34303 4.6654 0
M  V30 49050 C 4625.52 3.68675 4.87363 0
M  V30 49051 C 4626.52 4.64873 5.00382 0
M  V30 49052 O 4626.21 5.89754 5.46301 0
M  V30 49053 H 4625.94 0.215615 0.640692 0
M  V30 49054 H 4628.49 1.23589 1.64057 0
M  V30 49055 H 4626.72 -0.0169054 3.86696 0
M  V30 49056 H 4628.41 0.363314 4.04271 0
M  V30 49057 H 4629.18 2.84412 3.92855 0
M  V30 49058 H 4625.06 1.67404 4.29531 0
M  V30 49059 H 4628.6 5.09394 4.76617 0
M  V30 49060 H 4624.5 3.91484 5.13235 0
M  V30 49061 H 4625.27 5.92619 5.64575 0
M  V30 49062 N 4627.93 -1.42001 0.683638 0
M  V30 49063 C 4629.16 -2.05746 0.218255 0
M  V30 49064 C 4629.57 -1.514 -1.12798 0
M  V30 49065 O 4628.93 -0.657363 -1.7025 0
M  V30 49066 C 4628.98 -3.61171 0.154258 0
M  V30 49067 O 4628.7 -4.13503 1.44731 0
M  V30 49068 C 4630.2 -4.42043 -0.333558 0
M  V30 49069 H 4627.42 -0.662885 0.104043 0
M  V30 49070 H 4629.97 -1.81983 0.932864 0
M  V30 49071 H 4628.12 -3.84014 -0.511096 0
M  V30 49072 H 4628.54 -5.07449 1.3265 0
M  V30 49073 H 4630.01 -5.51029 -0.327229 0
M  V30 49074 H 4630.49 -4.17274 -1.37038 0
M  V30 49075 H 4631.09 -4.24238 0.300371 0
M  V30 49076 N 4629.41 -0.427565 -1.51689 0
M  V30 49077 C 4630.64 0.141118 -2.06418 0
M  V30 49078 C 4631.05 1.37299 -1.29594 0
M  V30 49079 O 4630.41 1.79058 -0.352795 0
M  V30 49080 C 4630.46 0.47314 -3.5839 0
M  V30 49081 O 4630.18 -0.709825 -4.32311 0
M  V30 49082 C 4631.68 1.09356 -4.296 0
M  V30 49083 H 4628.9 0.0122512 -0.670888 0
M  V30 49084 H 4631.45 -0.603833 -1.95382 0
M  V30 49085 H 4629.6 1.16799 -3.69374 0
M  V30 49086 H 4630.02 -0.428254 -5.22749 0
M  V30 49087 H 4631.49 1.27595 -5.37051 0
M  V30 49088 H 4631.97 2.07187 -3.8726 0
M  V30 49089 H 4632.57 0.438381 -4.23035 0
M  V30 49090 N 4630.89 1.568 -0.158588 0
M  V30 49091 C 4632.13 1.96783 0.490336 0
M  V30 49092 C 4632.47 1.04403 1.63749 0
M  V30 49093 O 4631.74 0.0886488 1.94298 0
M  V30 49094 C 4632.02 3.46353 0.985472 0
M  V30 49095 C 4631.88 4.49512 -0.160982 0
M  V30 49096 C 4633.2 3.98704 1.86341 0
M  V30 49097 H 4630.32 0.715488 0.176763 0
M  V30 49098 H 4632.96 1.88451 -0.242154 0
M  V30 49099 H 4631.11 3.53585 1.60966 0
M  V30 49100 H 4632.78 4.54351 -0.797697 0
M  V30 49101 H 4631.02 4.2601 -0.818406 0
M  V30 49102 H 4631.69 5.51532 0.227375 0
M  V30 49103 H 4634.17 3.94024 1.33733 0
M  V30 49104 H 4633.05 5.038 2.17892 0
M  V30 49105 H 4633.31 3.41754 2.80458 0
M  V30 49106 N 4632.37 -0.115176 1.57179 0
M  V30 49107 C 4633.33 -1.12519 1.9968 0
M  V30 49108 C 4634.33 -1.34092 0.887467 0
M  V30 49109 O 4635.52 -1.30544 1.15342 0
M  V30 49110 C 4632.65 -2.47882 2.34024 0
M  V30 49111 H 4633.84 -0.75981 2.90115 0
M  V30 49112 H 4631.4 -0.359595 1.52107 0
M  V30 49113 H 4632.13 -2.89334 1.46481 0
M  V30 49114 H 4631.92 -2.33577 3.14935 0
M  V30 49115 H 4633.41 -3.20565 2.67633 0
M  V30 49116 N 4633.84 -1.52813 -0.385464 0
M  V30 49117 C 4634.77 -1.80814 -1.47745 0
M  V30 49118 C 4635.75 -0.660373 -1.56758 0
M  V30 49119 O 4636.94 -0.908307 -1.71649 0
M  V30 49120 C 4634.07 -1.98018 -2.85318 0
M  V30 49121 C 4633.02 -3.13719 -2.91143 0
M  V30 49122 C 4632.35 -3.16184 -4.31198 0
M  V30 49123 C 4633.65 -4.52719 -2.60467 0
M  V30 49124 H 4635.34 -2.72258 -1.24563 0
M  V30 49125 H 4632.89 -1.31005 -0.597793 0
M  V30 49126 H 4634.84 -2.16189 -3.61718 0
M  V30 49127 H 4633.57 -1.03266 -3.09845 0
M  V30 49128 H 4632.23 -2.95337 -2.1719 0
M  V30 49129 H 4631.87 -2.19107 -4.5277 0
M  V30 49130 H 4631.57 -3.93909 -4.36015 0
M  V30 49131 H 4633.1 -3.36514 -5.095 0
M  V30 49132 H 4634.51 -4.71185 -3.26585 0
M  V30 49133 H 4632.91 -5.32538 -2.76629 0
M  V30 49134 H 4633.98 -4.59191 -1.55793 0
M  V30 49135 N 4635.32 0.644118 -1.43836 0
M  V30 49136 C 4636.25 1.76809 -1.52515 0
M  V30 49137 C 4637.23 1.65821 -0.37911 0
M  V30 49138 O 4638.42 1.84779 -0.597531 0
M  V30 49139 C 4635.55 3.15283 -1.45651 0
M  V30 49140 C 4634.5 3.41044 -2.58598 0
M  V30 49141 C 4633.83 4.79413 -2.36786 0
M  V30 49142 C 4635.13 3.34888 -4.00808 0
M  V30 49143 H 4636.82 1.69803 -2.46591 0
M  V30 49144 H 4634.37 0.815501 -1.18683 0
M  V30 49145 H 4636.32 3.93675 -1.50325 0
M  V30 49146 H 4635.04 3.23041 -0.480838 0
M  V30 49147 H 4633.7 2.65026 -2.53292 0
M  V30 49148 H 4633.35 4.83858 -1.37441 0
M  V30 49149 H 4633.05 4.97609 -3.12505 0
M  V30 49150 H 4634.58 5.60052 -2.43258 0
M  V30 49151 H 4635.99 4.03204 -4.07553 0
M  V30 49152 H 4634.39 3.6462 -4.76626 0
M  V30 49153 H 4635.46 2.32913 -4.25299 0
M  V30 49154 N 4636.8 1.30518 0.883332 0
M  V30 49155 C 4638.21 1.17514 1.45077 0
M  V30 49156 C 4638.56 -0.223537 1.94922 0
M  V30 49157 O 4637.69 -1.12034 1.85141 0
M  V30 49158 C 4638.28 2.12724 2.63693 0
M  V30 49159 C 4636.84 2.03694 3.16522 0
M  V30 49160 C 4635.99 2.02712 1.89217 0
M  V30 49161 H 4638.94 1.42764 0.693115 0
M  V30 49162 H 4638.96 1.70903 3.39959 0
M  V30 49163 H 4638.47 3.14513 2.27384 0
M  V30 49164 H 4636.57 1.05052 3.57484 0
M  V30 49165 H 4636.69 2.92159 3.7971 0
M  V30 49166 H 4635.05 1.47537 2.07617 0
M  V30 49167 H 4635.83 3.06234 1.55163 0
M  V30 49168 N 4638.28 -1.09589 1.13261 0
M  V30 49169 C 4639.52 -1.82 0.894644 0
M  V30 49170 C 4639.86 -1.85404 -0.577841 0
M  V30 49171 O 4639.13 -1.32104 -1.42754 0
M  V30 49172 C 4639.41 -3.28232 1.48108 0
M  V30 49173 C 4639.27 -3.33109 3.02255 0
M  V30 49174 C 4640.59 -4.24867 1.14788 0
M  V30 49175 H 4637.71 -0.660758 0.326447 0
M  V30 49176 H 4640.35 -1.28384 1.40063 0
M  V30 49177 H 4638.5 -3.74021 1.05075 0
M  V30 49178 H 4640.17 -2.95736 3.54031 0
M  V30 49179 H 4638.41 -2.72744 3.37333 0
M  V30 49180 H 4639.08 -4.36118 3.38386 0
M  V30 49181 H 4641.56 -3.87355 1.5197 0
M  V30 49182 H 4640.44 -5.25527 1.58471 0
M  V30 49183 H 4640.7 -4.42057 0.0613403 0
M  V30 49184 N 4639.76 -0.925856 -1.27537 0
M  V30 49185 C 4640.69 -0.440829 -2.29301 0
M  V30 49186 C 4641.67 0.497914 -1.62649 0
M  V30 49187 O 4642.85 0.40306 -1.89971 0
M  V30 49188 C 4639.98 0.308926 -3.45923 0
M  V30 49189 C 4638.94 -0.541809 -4.24557 0
M  V30 49190 C 4638.26 0.337004 -5.33637 0
M  V30 49191 C 4639.56 -1.80533 -4.90107 0
M  V30 49192 H 4641.26 -1.29131 -2.70121 0
M  V30 49193 H 4638.8 -0.622369 -1.29856 0
M  V30 49194 H 4640.75 0.659168 -4.16213 0
M  V30 49195 H 4639.48 1.19341 -3.04015 0
M  V30 49196 H 4638.14 -0.874735 -3.56011 0
M  V30 49197 H 4637.79 1.22039 -4.87971 0
M  V30 49198 H 4637.49 -0.228704 -5.87155 0
M  V30 49199 H 4639.01 0.682859 -6.0677 0
M  V30 49200 H 4640.42 -1.52327 -5.52693 0
M  V30 49201 H 4638.82 -2.31439 -5.53675 0
M  V30 49202 H 4639.89 -2.52595 -4.13913 0
M  V30 49203 N 4641.23 1.41636 -0.691159 0
M  V30 49204 C 4642.46 2.05627 -0.229163 0
M  V30 49205 C 4642.88 1.51996 1.11994 0
M  V30 49206 O 4642.23 0.666382 1.69899 0
M  V30 49207 C 4642.28 3.61084 -0.17341 0
M  V30 49208 O 4642.01 4.1273 -1.46921 0
M  V30 49209 C 4643.51 4.42214 0.31011 0
M  V30 49210 H 4640.73 0.662324 -0.107557 0
M  V30 49211 H 4643.27 1.81486 -0.942502 0
M  V30 49212 H 4641.43 3.84279 0.490723 0
M  V30 49213 H 4641.84 5.06738 -1.35339 0
M  V30 49214 H 4643.31 5.51195 0.298002 0
M  V30 49215 H 4643.79 4.17994 1.34823 0
M  V30 49216 H 4644.4 4.24073 -0.322865 0
M  V30 49217 N 4642.71 0.435603 1.5146 0
M  V30 49218 C 4643.94 -0.13017 2.0649 0
M  V30 49219 C 4644.36 -1.36609 1.3032 0
M  V30 49220 O 4643.71 -1.78868 0.362286 0
M  V30 49221 C 4643.76 -0.454127 3.58636 0
M  V30 49222 O 4643.48 0.732742 4.31929 0
M  V30 49223 C 4644.99 -1.07076 4.30174 0
M  V30 49224 H 4642.21 -0.00869311 0.670944 0
M  V30 49225 H 4644.75 0.614186 1.95059 0
M  V30 49226 H 4642.9 -1.14838 3.69988 0
M  V30 49227 H 4643.32 0.45597 5.22514 0
M  V30 49228 H 4644.79 -1.24745 5.3772 0
M  V30 49229 H 4645.27 -2.0513 3.88353 0
M  V30 49230 H 4645.88 -0.41594 4.23261 0
M  V30 49231 N 4644.19 -1.56714 0.166901 0
M  V30 49232 C 4645.12 -2.20757 -0.760835 0
M  V30 49233 C 4646.1 -1.16183 -1.2424 0
M  V30 49234 O 4647.29 -1.44596 -1.29636 0
M  V30 49235 C 4644.42 -2.84485 -1.99213 0
M  V30 49236 C 4643.37 -3.95059 -1.64658 0
M  V30 49237 C 4642.7 -4.45816 -2.95216 0
M  V30 49238 C 4644 -5.14868 -0.877974 0
M  V30 49239 H 4645.69 -2.98538 -0.227025 0
M  V30 49240 H 4643.24 -1.43596 -0.107754 0
M  V30 49241 H 4645.19 -3.27961 -2.64613 0
M  V30 49242 H 4643.91 -2.04065 -2.55 0
M  V30 49243 H 4642.57 -3.52232 -1.01629 0
M  V30 49244 H 4642.22 -3.62193 -3.49035 0
M  V30 49245 H 4641.92 -5.20409 -2.72852 0
M  V30 49246 H 4643.44 -4.91975 -3.61653 0
M  V30 49247 H 4644.86 -5.55064 -1.43447 0
M  V30 49248 H 4643.26 -5.9535 -0.753528 0
M  V30 49249 H 4644.33 -4.84735 0.126547 0
M  V30 49250 N 4645.67 0.106839 -1.57237 0
M  V30 49251 C 4646.92 0.812461 -1.85487 0
M  V30 49252 C 4647.24 1.79301 -0.75375 0
M  V30 49253 O 4646.5 1.94047 0.253785 0
M  V30 49254 C 4646.8 1.58617 -3.20274 0
M  V30 49255 C 4646.46 0.74881 -4.44639 0
M  V30 49256 C 4645.13 0.517936 -4.78404 0
M  V30 49257 C 4647.48 0.165938 -5.20936 0
M  V30 49258 C 4644.81 -0.305865 -5.85902 0
M  V30 49259 C 4647.16 -0.645121 -6.29302 0
M  V30 49260 C 4645.82 -0.886198 -6.61591 0
M  V30 49261 H 4645.09 0.2973 -0.678744 0
M  V30 49262 H 4647.74 0.0743659 -1.91356 0
M  V30 49263 H 4646.04 2.39551 -3.10036 0
M  V30 49264 H 4647.74 2.13632 -3.39356 0
M  V30 49265 H 4644.33 0.938859 -4.18191 0
M  V30 49266 H 4648.51 0.331496 -4.95192 0
M  V30 49267 H 4643.77 -0.501742 -6.09338 0
M  V30 49268 H 4647.94 -1.10369 -6.87598 0
M  V30 49269 H 4645.57 -1.52635 -7.44719 0
M  V30 49270 N 4647.15 1.53016 0.377354 0
M  V30 49271 C 4648.08 1.7489 1.48143 0
M  V30 49272 C 4649.09 0.629486 1.50138 0
M  V30 49273 O 4650.28 0.90547 1.53829 0
M  V30 49274 C 4647.38 1.80309 2.86953 0
M  V30 49275 C 4646.55 3.09786 3.0879 0
M  V30 49276 C 4645.61 3.06601 4.27648 0
M  V30 49277 O 4644.64 3.80434 4.2339 0
M  V30 49278 N 4645.84 2.26597 5.34447 0
M  V30 49279 H 4648.61 2.70152 1.29762 0
M  V30 49280 H 4646.17 1.51648 0.566977 0
M  V30 49281 H 4648.16 1.7567 3.64585 0
M  V30 49282 H 4646.73 0.923825 2.98637 0
M  V30 49283 H 4645.95 3.27823 2.1892 0
M  V30 49284 H 4647.24 3.95377 3.20241 0
M  V30 49285 H 4646.63 1.661 5.40766 0
M  V30 49286 H 4645.19 2.27787 6.10701 0
M  V30 49287 N 4648.62 -0.636481 1.44176 0
M  V30 49288 C 4649.57 -1.74227 1.47067 0
M  V30 49289 C 4650.56 -1.57329 0.337089 0
M  V30 49290 O 4651.75 -1.67157 0.582031 0
M  V30 49291 C 4648.88 -3.12892 1.41257 0
M  V30 49292 C 4647.97 -3.35278 2.5971 0
M  V30 49293 N 4648.36 -3.28057 3.84984 0
M  V30 49294 C 4646.65 -3.66057 2.54791 0
M  V30 49295 C 4647.36 -3.50985 4.6388 0
M  V30 49296 N 4646.33 -3.73603 3.9487 0
M  V30 49297 H 4650.13 -1.67094 2.41778 0
M  V30 49298 H 4647.65 -0.838757 1.39063 0
M  V30 49299 H 4649.64 -3.92184 1.41412 0
M  V30 49300 H 4648.3 -3.21195 0.475803 0
M  V30 49301 H 4649.32 -3.07094 4.17029 0
M  V30 49302 H 4645.99 -3.81374 1.69884 0
M  V30 49303 H 4647.38 -3.51039 5.72906 0
M  V30 49304 N 4650.1 -1.30985 -0.876398 0
M  V30 49305 C 4651.35 -1.19664 -1.62368 0
M  V30 49306 C 4651.66 0.245567 -1.94052 0
M  V30 49307 O 4652.87 0.480396 -2.67216 0
M  V30 49308 C 4651.33 -2.09443 -2.9268 0
M  V30 49309 C 4650.93 -3.58622 -2.68504 0
M  V30 49310 C 4652.68 -2.06906 -3.70662 0
M  V30 49311 C 4650.59 -4.4043 -3.94684 0
M  V30 49312 H 4649.52 -0.44429 -0.609198 0
M  V30 49313 H 4652.17 -1.55795 -0.969551 0
M  V30 49314 H 4650.55 -1.66204 -3.59433 0
M  V30 49315 H 4651.72 -4.10065 -2.10198 0
M  V30 49316 H 4650.04 -3.6307 -2.03885 0
M  V30 49317 H 4652.63 -2.65274 -4.64256 0
M  V30 49318 H 4652.98 -1.05462 -4.0272 0
M  V30 49319 H 4653.51 -2.48311 -3.10783 0
M  V30 49320 H 4650.25 -5.42604 -3.67779 0
M  V30 49321 H 4649.77 -3.93747 -4.52463 0
M  V30 49322 H 4651.45 -4.5231 -4.62628 0
M  V30 49323 N 4651.58 1.08987 -1.13841 0
M  V30 49324 C 4652.54 2.13922 -0.82279 0
M  V30 49325 C 4653.54 1.59901 0.169844 0
M  V30 49326 O 4654.73 1.74104 -0.0577863 0
M  V30 49327 C 4651.87 3.40154 -0.225438 0
M  V30 49328 H 4653.06 2.43352 -1.75271 0
M  V30 49329 H 4650.61 1.246 -0.943638 0
M  V30 49330 H 4651.35 3.16354 0.713482 0
M  V30 49331 H 4651.13 3.80658 -0.940327 0
M  V30 49332 H 4652.62 4.17594 -0.0216252 0
M  V30 49333 N 4653.06 0.932607 1.27044 0
M  V30 49334 C 4653.99 0.392813 2.25809 0
M  V30 49335 C 4655 -0.479186 1.55588 0
M  V30 49336 O 4656.19 -0.291016 1.76112 0
M  V30 49337 C 4653.29 -0.455338 3.35827 0
M  V30 49338 C 4652.47 0.398508 4.35581 0
M  V30 49339 C 4651.52 -0.387801 5.24769 0
M  V30 49340 O 4650.55 0.206203 5.68826 0
M  V30 49341 N 4651.75 -1.68644 5.55463 0
M  V30 49342 H 4654.52 1.24182 2.72761 0
M  V30 49343 H 4652.08 0.800561 1.40722 0
M  V30 49344 H 4654.07 -0.988554 3.92441 0
M  V30 49345 H 4652.64 -1.20512 2.88437 0
M  V30 49346 H 4651.86 1.11299 3.78161 0
M  V30 49347 H 4653.15 0.982064 4.99232 0
M  V30 49348 H 4652.55 -2.19129 5.21535 0
M  V30 49349 H 4651.1 -2.16608 6.14755 0
M  V30 49350 N 4654.54 -1.41267 0.698661 0
M  V30 49351 C 4655.49 -2.27997 0.0120637 0
M  V30 49352 C 4656.47 -1.42366 -0.749715 0
M  V30 49353 O 4657.66 -1.65609 -0.6247 0
M  V30 49354 C 4654.79 -3.30706 -0.921342 0
M  V30 49355 C 4653.88 -4.23814 -0.155647 0
M  V30 49356 N 4654.27 -4.98569 0.85219 0
M  V30 49357 C 4652.57 -4.44286 -0.39068 0
M  V30 49358 C 4653.27 -5.66739 1.3108 0
M  V30 49359 N 4652.24 -5.39865 0.636134 0
M  V30 49360 H 4656.05 -2.83229 0.784748 0
M  V30 49361 H 4653.56 -1.53516 0.529765 0
M  V30 49362 H 4655.56 -3.91666 -1.4284 0
M  V30 49363 H 4654.22 -2.77034 -1.69359 0
M  V30 49364 H 4655.23 -5.0302 1.23253 0
M  V30 49365 H 4651.9 -4.01618 -1.14057 0
M  V30 49366 H 4653.29 -6.36664 2.14729 0
M  V30 49367 N 4656.01 -0.44363 -1.51227 0
M  V30 49368 C 4656.95 0.400529 -2.25673 0
M  V30 49369 C 4657.96 0.9809 -1.29932 0
M  V30 49370 O 4659.15 0.87397 -1.55641 0
M  V30 49371 C 4656.25 1.57294 -3.00186 0
M  V30 49372 C 4655.42 1.11031 -4.23073 0
M  V30 49373 C 4654.48 2.15357 -4.80112 0
M  V30 49374 O 4653.51 1.74535 -5.41781 0
M  V30 49375 N 4654.71 3.47906 -4.64695 0
M  V30 49376 H 4657.47 -0.237555 -2.98757 0
M  V30 49377 H 4655.03 -0.272865 -1.59584 0
M  V30 49378 H 4657.03 2.26721 -3.3523 0
M  V30 49379 H 4655.6 2.11624 -2.30074 0
M  V30 49380 H 4654.82 0.24288 -3.93451 0
M  V30 49381 H 4656.1 0.778712 -5.02806 0
M  V30 49382 H 4655.5 3.838 -4.15589 0
M  V30 49383 H 4654.06 4.1321 -5.04084 0
M  V30 49384 N 4657.49 1.56623 -0.175209 0
M  V30 49385 C 4658.74 1.97 0.468742 0
M  V30 49386 C 4659.07 1.06135 1.6299 0
M  V30 49387 O 4658.32 0.0962458 1.95463 0
M  V30 49388 C 4658.62 3.43422 0.989743 0
M  V30 49389 C 4658.29 4.50865 -0.0559272 0
M  V30 49390 C 4656.95 4.79974 -0.343303 0
M  V30 49391 C 4659.3 5.15548 -0.765489 0
M  V30 49392 C 4656.63 5.71062 -1.34556 0
M  V30 49393 C 4658.98 6.07718 -1.75676 0
M  V30 49394 C 4657.65 6.35191 -2.05154 0
M  V30 49395 H 4656.92 0.720875 0.171525 0
M  V30 49396 H 4659.56 1.89616 -0.267991 0
M  V30 49397 H 4657.87 3.47778 1.80437 0
M  V30 49398 H 4659.57 3.72007 1.49705 0
M  V30 49399 H 4656.16 4.28229 0.17823 0
M  V30 49400 H 4660.34 4.93168 -0.556686 0
M  V30 49401 H 4655.6 5.9063 -1.58008 0
M  V30 49402 H 4659.77 6.56904 -2.31192 0
M  V30 49403 H 4657.4 7.05574 -2.82964 0
M  V30 49404 N 4658.97 -0.0984986 1.57292 0
M  V30 49405 C 4660.22 -0.801027 1.85548 0
M  V30 49406 C 4660.54 -1.79435 0.763417 0
M  V30 49407 O 4659.81 -1.94764 -0.210662 0
M  V30 49408 H 4658.39 -0.298816 0.68463 0
M  V30 49409 H 4661.05 -0.080938 1.94732 0
M  V30 49410 H 4660.15 -1.3337 2.82168 0
M  V30 49411 N 4660.45 -1.53214 -0.369234 0
M  V30 49412 C 4661.73 -1.59819 -1.12771 0
M  V30 49413 C 4662.11 -0.403474 -2.07208 0
M  V30 49414 O 4661.45 0.60659 -2.20301 0
M  V30 49415 C 4661.66 -2.94671 -1.87003 0
M  V30 49416 C 4663.01 -3.49118 -2.41665 0
M  V30 49417 O 4664.04 -2.96676 -1.97134 0
M  V30 49418 O 4662.9 -4.40786 -3.23063 0
M  V30 49419 H 4659.99 -0.645395 -0.517102 0
M  V30 49420 H 4662.54 -1.65555 -0.372792 0
M  V30 49421 H 4661.31 -3.73066 -1.18058 0
M  V30 49422 H 4660.93 -2.9241 -2.69411 0
M  V30 49423 N 4661.93 0.628826 -1.44511 0
M  V30 49424 C 4663.2 1.38728 -1.37891 0
M  V30 49425 C 4663.58 2.11064 -0.038775 0
M  V30 49426 O 4662.93 2.06479 0.978707 0
M  V30 49427 C 4663.14 2.35179 -2.5786 0
M  V30 49428 C 4664.49 2.9844 -3.02025 0
M  V30 49429 O 4665.51 2.45504 -2.58082 0
M  V30 49430 O 4664.37 3.94474 -3.78223 0
M  V30 49431 H 4661.47 0.620996 -0.546162 0
M  V30 49432 H 4664.01 0.653689 -1.56605 0
M  V30 49433 H 4662.79 1.80842 -3.47004 0
M  V30 49434 H 4662.41 3.15952 -2.41371 0
M  V30 49435 N 4663.41 1.31448 0.869439 0
M  V30 49436 C 4664.65 1.21343 1.62492 0
M  V30 49437 C 4664.98 -0.227804 1.92859 0
M  V30 49438 O 4664.26 -1.16088 1.56057 0
M  V30 49439 C 4664.54 2.05825 2.9548 0
M  V30 49440 C 4664.4 3.5825 2.71988 0
M  V30 49441 C 4665.71 1.90804 3.96588 0
M  V30 49442 H 4662.83 0.442155 0.589633 0
M  V30 49443 H 4665.48 1.61243 1.00502 0
M  V30 49444 H 4663.63 1.71925 3.48388 0
M  V30 49445 H 4665.3 4.02288 2.25748 0
M  V30 49446 H 4663.54 3.81654 2.0621 0
M  V30 49447 H 4664.21 4.12669 3.66617 0
M  V30 49448 H 4666.69 2.20471 3.5289 0
M  V30 49449 H 4665.56 2.52216 4.87522 0
M  V30 49450 H 4665.82 0.871494 4.33425 0
M  V30 49451 N 4664.88 -1.08381 1.14417 0
M  V30 49452 C 4666.13 -1.8015 0.907139 0
M  V30 49453 C 4666.45 -1.87178 -0.567785 0
M  V30 49454 O 4667.65 -2.55362 -0.922082 0
M  V30 49455 C 4666.11 -3.23681 1.57348 0
M  V30 49456 C 4665.72 -3.24886 3.08468 0
M  V30 49457 C 4667.46 -4.00131 1.41758 0
M  V30 49458 C 4665.37 -4.63007 3.67938 0
M  V30 49459 H 4664.3 -0.675127 0.335738 0
M  V30 49460 H 4666.95 -1.21729 1.37311 0
M  V30 49461 H 4665.33 -3.8223 1.03518 0
M  V30 49462 H 4666.5 -2.76042 3.68968 0
M  V30 49463 H 4664.82 -2.61931 3.23699 0
M  V30 49464 H 4667.42 -5.02194 1.83589 0
M  V30 49465 H 4667.76 -4.14708 0.363722 0
M  V30 49466 H 4668.29 -3.48052 1.92626 0
M  V30 49467 H 4665.03 -4.53634 4.73177 0
M  V30 49468 H 4664.55 -5.12132 3.12219 0
M  V30 49469 H 4666.23 -5.31982 3.68245 0
M  V30 49470 N 4666.36 -0.939331 -1.26548 0
M  V30 49471 C 4667.29 -0.465124 -2.28821 0
M  V30 49472 C 4668.27 0.480635 -1.63168 0
M  V30 49473 O 4669.46 0.382888 -1.90388 0
M  V30 49474 C 4666.59 0.272219 -3.46232 0
M  V30 49475 C 4665.54 -0.586809 -4.23958 0
M  V30 49476 C 4664.87 0.280385 -5.33964 0
M  V30 49477 C 4666.17 -1.85721 -4.88165 0
M  V30 49478 H 4667.86 -1.31989 -2.68737 0
M  V30 49479 H 4665.41 -0.636107 -1.29189 0
M  V30 49480 H 4667.36 0.614986 -4.16888 0
M  V30 49481 H 4666.08 1.1611 -3.05264 0
M  V30 49482 H 4664.74 -0.912445 -3.55063 0
M  V30 49483 H 4664.39 1.16857 -4.89238 0
M  V30 49484 H 4664.09 -0.290967 -5.86879 0
M  V30 49485 H 4665.62 0.618464 -6.0746 0
M  V30 49486 H 4667.03 -1.5818 -5.51046 0
M  V30 49487 H 4665.43 -2.37299 -5.51189 0
M  V30 49488 H 4666.5 -2.56971 -4.1121 0
M  V30 49489 N 4667.84 1.40895 -0.706143 0
M  V30 49490 C 4669.12 1.94867 -0.169167 0
M  V30 49491 C 4669.5 1.64489 1.32312 0
M  V30 49492 O 4668.84 0.957513 2.0747 0
M  V30 49493 C 4669.05 3.45797 -0.471776 0
M  V30 49494 C 4670.4 4.22661 -0.405276 0
M  V30 49495 O 4671.43 3.53864 -0.407292 0
M  V30 49496 O 4670.29 5.45215 -0.374574 0
M  V30 49497 H 4667.38 0.826729 -0.0211643 0
M  V30 49498 H 4669.93 1.50555 -0.783029 0
M  V30 49499 H 4668.7 3.6123 -1.50429 0
M  V30 49500 H 4668.32 3.97226 0.172526 0
M  V30 49501 N 4669.32 0.451643 1.5099 0
M  V30 49502 C 4670.59 -0.170638 1.94854 0
M  V30 49503 C 4670.97 -1.58783 1.39108 0
M  V30 49504 O 4670.32 -2.20911 0.583999 0
M  V30 49505 C 4670.53 -0.133806 3.48743 0
M  V30 49506 C 4671.88 -0.332331 4.23297 0
M  V30 49507 O 4672.9 -0.211278 3.55573 0
M  V30 49508 O 4671.76 -0.574669 5.4347 0
M  V30 49509 H 4668.86 -0.122235 0.817917 0
M  V30 49510 H 4671.4 0.510651 1.61835 0
M  V30 49511 H 4670.18 0.856417 3.81813 0
M  V30 49512 H 4669.8 -0.857393 3.88245 0
M  V30 49513 N 4670.8 -1.56528 0.183513 0
M  V30 49514 C 4672.04 -1.97538 -0.458967 0
M  V30 49515 C 4672.37 -1.06995 -1.62067 0
M  V30 49516 O 4671.65 -0.119549 -1.94132 0
M  V30 49517 C 4671.93 -3.47877 -0.930246 0
M  V30 49518 C 4671.79 -4.49199 0.232475 0
M  V30 49519 C 4673.1 -4.01618 -1.79975 0
M  V30 49520 H 4670.22 -0.71821 -0.165358 0
M  V30 49521 H 4672.87 -1.88041 0.272105 0
M  V30 49522 H 4671.02 -3.56101 -1.5532 0
M  V30 49523 H 4672.69 -4.53024 0.869879 0
M  V30 49524 H 4670.93 -4.24654 0.886077 0
M  V30 49525 H 4671.6 -5.51823 -0.139602 0
M  V30 49526 H 4674.08 -3.96102 -1.27447 0
M  V30 49527 H 4672.95 -5.07203 -2.09849 0
M  V30 49528 H 4673.21 -3.46172 -2.74986 0
M  V30 49529 N 4672.27 0.0901557 -1.57342 0
M  V30 49530 C 4673.21 1.13534 -1.99105 0
M  V30 49531 C 4674.22 1.36037 -0.894306 0
M  V30 49532 O 4675.41 1.34601 -1.17238 0
M  V30 49533 C 4672.51 2.48993 -2.29904 0
M  V30 49534 C 4671.68 2.46699 -3.6119 0
M  V30 49535 C 4670.74 3.64123 -3.79869 0
M  V30 49536 O 4669.77 3.46389 -4.51667 0
M  V30 49537 N 4670.97 4.8379 -3.20823 0
M  V30 49538 H 4673.73 0.77984 -2.89376 0
M  V30 49539 H 4671.29 0.279069 -1.59477 0
M  V30 49540 H 4673.29 3.26158 -2.39589 0
M  V30 49541 H 4671.86 2.76614 -1.45615 0
M  V30 49542 H 4671.08 1.55046 -3.62429 0
M  V30 49543 H 4672.36 2.4225 -4.47429 0
M  V30 49544 H 4671.76 5.01103 -2.62512 0
M  V30 49545 H 4670.32 5.58531 -3.35985 0
M  V30 49546 N 4673.75 1.53407 0.361103 0
M  V30 49547 C 4675 1.70058 1.1049 0
M  V30 49548 C 4675.33 0.453344 1.88834 0
M  V30 49549 O 4674.61 -0.549434 1.86578 0
M  V30 49550 C 4674.89 2.95324 2.06048 0
M  V30 49551 C 4674.74 4.30215 1.31283 0
M  V30 49552 C 4676.06 3.16204 3.0611 0
M  V30 49553 H 4673.18 0.618813 0.400299 0
M  V30 49554 H 4675.82 1.86053 0.385253 0
M  V30 49555 H 4673.97 2.81818 2.67415 0
M  V30 49556 H 4675.64 4.55541 0.726647 0
M  V30 49557 H 4673.89 4.29423 0.614702 0
M  V30 49558 H 4674.56 5.14007 2.01247 0
M  V30 49559 H 4677.03 3.28925 2.54848 0
M  V30 49560 H 4675.91 4.05279 3.7019 0
M  V30 49561 H 4676.17 2.31689 3.76527 0
M  V30 49562 N 4675.23 -0.621153 1.44843 0
M  V30 49563 C 4676.46 -1.41239 1.51876 0
M  V30 49564 C 4676.88 -1.87518 0.14783 0
M  V30 49565 O 4676.24 -1.59337 -0.864944 0
M  V30 49566 C 4676.29 -2.60212 2.49644 0
M  V30 49567 O 4675.39 -3.60387 2.00486 0
M  V30 49568 H 4674.73 -0.422212 0.512477 0
M  V30 49569 H 4677.26 -0.757238 1.90071 0
M  V30 49570 H 4677.27 -3.0763 2.68007 0
M  V30 49571 H 4675.95 -2.25875 3.49218 0
M  V30 49572 H 4674.52 -3.19711 1.91936 0
M  V30 49573 N 4676.71 -1.31907 -0.862456 0
M  V30 49574 C 4677.95 -1.2333 -1.63 0
M  V30 49575 C 4678.31 0.203657 -1.90917 0
M  V30 49576 O 4679.51 0.413038 -2.65608 0
M  V30 49577 C 4677.78 -2.06126 -2.91971 0
M  V30 49578 S 4679.34 -2.14491 -3.82804 0
M  V30 49579 H 4676.16 -0.439137 -0.559178 0
M  V30 49580 H 4678.76 -1.66662 -1.02197 0
M  V30 49581 H 4677.47 -3.09603 -2.69396 0
M  V30 49582 H 4677 -1.63542 -3.57795 0
M  V30 49583 H 4679.01 -1.28871 -4.79173 0
M  V30 49584 N 4678.19 1.07773 -1.1499 0
M  V30 49585 C 4679.42 1.83748 -0.944466 0
M  V30 49586 C 4679.82 1.82182 0.510516 0
M  V30 49587 O 4679.17 1.22857 1.36572 0
M  V30 49588 C 4679.23 3.32123 -1.37603 0
M  V30 49589 C 4678.89 3.57415 -2.84787 0
M  V30 49590 C 4679.89 3.51717 -3.82872 0
M  V30 49591 C 4677.58 3.85219 -3.22354 0
M  V30 49592 C 4679.57 3.73464 -5.1653 0
M  V30 49593 C 4677.26 4.06618 -4.56186 0
M  V30 49594 C 4678.25 4.00735 -5.53083 0
M  V30 49595 O 4677.94 4.21566 -6.84498 0
M  V30 49596 H 4677.67 0.586718 -0.335765 0
M  V30 49597 H 4680.23 1.36977 -1.53057 0
M  V30 49598 H 4678.46 3.79684 -0.733298 0
M  V30 49599 H 4680.15 3.89551 -1.14038 0
M  V30 49600 H 4680.91 3.30244 -3.55196 0
M  V30 49601 H 4676.79 3.88914 -2.47521 0
M  V30 49602 H 4680.34 3.68787 -5.9215 0
M  V30 49603 H 4676.23 4.27576 -4.83579 0
M  V30 49604 H 4677 4.38937 -6.90852 0
M  V30 49605 N 4679.66 0.946029 1.26048 0
M  V30 49606 C 4681.08 0.649097 1.45804 0
M  V30 49607 C 4681.28 -0.796093 1.85107 0
M  V30 49608 O 4680.34 -1.57226 1.97576 0
M  V30 49609 C 4681.65 1.61467 2.53671 0
M  V30 49610 C 4683.2 1.6249 2.67518 0
M  V30 49611 C 4683.67 2.5779 3.78561 0
M  V30 49612 N 4685.16 2.56104 3.8596 0
M  V30 49613 C 4685.9 3.26525 4.71348 0
M  V30 49614 N 4685.39 4.06389 5.61088 0
M  V30 49615 N 4687.19 3.15454 4.65237 0
M  V30 49616 H 4679.34 1.88008 0.988262 0
M  V30 49617 H 4681.6 0.808216 0.495471 0
M  V30 49618 H 4681.31 2.64652 2.31629 0
M  V30 49619 H 4681.18 1.37049 3.51422 0
M  V30 49620 H 4683.57 0.600268 2.8893 0
M  V30 49621 H 4683.65 1.90964 1.70195 0
M  V30 49622 H 4683.29 3.60374 3.57901 0
M  V30 49623 H 4683.22 2.26604 4.75351 0
M  V30 49624 H 4685.71 1.98116 3.21805 0
M  V30 49625 H 4686.03 4.57063 6.23148 0
M  V30 49626 H 4684.37 4.10489 5.60824 0
M  V30 49627 H 4687.56 2.52539 3.94134 0
M  V30 49628 H 4687.74 3.70602 5.31562 0
M  V30 49629 N 4681.14 -1.40518 0.713605 0
M  V30 49630 C 4682.37 -2.05236 0.261847 0
M  V30 49631 C 4682.79 -1.53759 -1.09561 0
M  V30 49632 O 4682.14 -0.693327 -1.68817 0
M  V30 49633 C 4682.19 -3.60762 0.230833 0
M  V30 49634 O 4681.91 -4.1034 1.53469 0
M  V30 49635 C 4683.42 -4.42651 -0.239719 0
M  V30 49636 H 4680.64 -0.660529 0.11808 0
M  V30 49637 H 4683.18 -1.79964 0.971256 0
M  V30 49638 H 4681.33 -3.85011 -0.429526 0
M  V30 49639 H 4681.75 -5.04521 1.43384 0
M  V30 49640 H 4683.22 -5.51599 -0.210274 0
M  V30 49641 H 4683.7 -4.20086 -1.28156 0
M  V30 49642 H 4684.31 -4.23505 0.390291 0
M  V30 49643 N 4682.62 -0.459644 -1.50748 0
M  V30 49644 C 4683.55 0.330563 -2.31148 0
M  V30 49645 C 4684.53 1.00082 -1.37541 0
M  V30 49646 O 4685.72 1.00019 -1.66462 0
M  V30 49647 C 4682.85 1.41947 -3.16967 0
M  V30 49648 C 4681.8 0.87146 -4.19034 0
M  V30 49649 C 4681.13 2.0578 -4.93517 0
M  V30 49650 C 4682.43 -0.109435 -5.22185 0
M  V30 49651 H 4684.12 -0.34044 -2.97458 0
M  V30 49652 H 4681.67 -0.165169 -1.4305 0
M  V30 49653 H 4683.62 1.97967 -3.72004 0
M  V30 49654 H 4682.34 2.11908 -2.48521 0
M  V30 49655 H 4681 0.333314 -3.65082 0
M  V30 49656 H 4680.65 2.74412 -4.21553 0
M  V30 49657 H 4680.35 1.6974 -5.6255 0
M  V30 49658 H 4681.87 2.62312 -5.51385 0
M  V30 49659 H 4683.29 0.361203 -5.72161 0
M  V30 49660 H 4681.69 -0.383526 -5.98873 0
M  V30 49661 H 4682.76 -1.03904 -4.73637 0
M  V30 49662 N 4684.1 1.56428 -0.191812 0
M  V30 49663 C 4685.34 1.99384 0.450029 0
M  V30 49664 C 4685.7 1.07587 1.59025 0
M  V30 49665 O 4686.9 1.39766 2.29606 0
M  V30 49666 C 4685.17 3.45844 0.901489 0
M  V30 49667 S 4686.73 4.10827 1.54163 0
M  V30 49668 H 4683.55 0.696258 0.144033 0
M  V30 49669 H 4686.15 1.93275 -0.294104 0
M  V30 49670 H 4684.86 4.10354 0.0615154 0
M  V30 49671 H 4684.39 3.55763 1.67917 0
M  V30 49672 H 4686.4 4.07563 2.83031 0
M  V30 49673 N 4685.58 -0.0818102 1.57388 0
M  V30 49674 C 4686.8 -0.799879 1.91355 0
M  V30 49675 C 4687.23 -1.7083 0.787318 0
M  V30 49676 O 4686.58 -1.7942 -0.260417 0
M  V30 49677 C 4686.63 -1.578 3.2424 0
M  V30 49678 O 4685.74 -2.68795 3.12766 0
M  V30 49679 H 4685.08 -0.218888 0.626884 0
M  V30 49680 H 4687.61 -0.0530537 2.04531 0
M  V30 49681 H 4687.62 -1.9594 3.57871 0
M  V30 49682 H 4686.29 -0.911405 4.05791 0
M  V30 49683 H 4684.87 -2.33587 2.90675 0
M  V30 49684 N 4687.06 -1.53597 -0.352963 0
M  V30 49685 C 4688.3 -1.69607 -1.09162 0
M  V30 49686 C 4688.62 -0.460992 -1.9009 0
M  V30 49687 O 4689.82 -0.501868 -2.66821 0
M  V30 49688 C 4688.28 -2.99879 -1.99 0
M  V30 49689 C 4687.89 -4.30692 -1.23324 0
M  V30 49690 C 4689.63 -3.25255 -2.72781 0
M  V30 49691 C 4687.54 -5.52044 -2.12136 0
M  V30 49692 H 4686.47 -0.63198 -0.411238 0
M  V30 49693 H 4689.12 -1.80097 -0.351739 0
M  V30 49694 H 4687.5 -2.83222 -2.7677 0
M  V30 49695 H 4688.68 -4.58021 -0.505295 0
M  V30 49696 H 4686.99 -4.11855 -0.613518 0
M  V30 49697 H 4689.59 -4.13107 -3.3948 0
M  V30 49698 H 4689.93 -2.41858 -3.38837 0
M  V30 49699 H 4690.46 -3.42645 -2.02088 0
M  V30 49700 H 4687.2 -6.37957 -1.50637 0
M  V30 49701 H 4686.72 -5.28975 -2.82745 0
M  V30 49702 H 4688.4 -5.87322 -2.71406 0
M  V30 49703 N 4688.53 0.613463 -1.4517 0
M  V30 49704 C 4689.76 1.39738 -1.52174 0
M  V30 49705 C 4690.17 1.88595 -0.151153 0
M  V30 49706 O 4689.51 1.62513 0.856464 0
M  V30 49707 C 4689.58 2.64026 -2.43989 0
M  V30 49708 C 4689.24 2.36847 -3.90836 0
M  V30 49709 C 4690.24 1.97574 -4.80896 0
M  V30 49710 C 4687.92 2.49941 -4.35701 0
M  V30 49711 C 4689.92 1.71747 -6.13826 0
M  V30 49712 C 4687.6 2.23727 -5.68673 0
M  V30 49713 C 4688.6 1.84691 -6.57555 0
M  V30 49714 O 4688.29 1.58781 -7.88063 0
M  V30 49715 H 4688.02 0.434363 -0.517981 0
M  V30 49716 H 4690.58 0.755802 -1.90989 0
M  V30 49717 H 4688.81 3.30883 -2.00133 0
M  V30 49718 H 4690.49 3.26061 -2.41742 0
M  V30 49719 H 4691.26 1.86999 -4.475 0
M  V30 49720 H 4687.14 2.79292 -3.66766 0
M  V30 49721 H 4690.68 1.41203 -6.8316 0
M  V30 49722 H 4686.58 2.33917 -6.01626 0
M  V30 49723 H 4687.35 1.72882 -8.00034 0
M  V30 49724 N 4690.01 1.32363 0.855449 0
M  V30 49725 C 4691.24 1.26016 1.64726 0
M  V30 49726 C 4691.66 -0.169002 1.87339 0
M  V30 49727 O 4691.02 -1.12011 1.4256 0
M  V30 49728 C 4691.07 2.02428 2.98422 0
M  V30 49729 O 4690.17 1.37154 3.88925 0
M  V30 49730 H 4689.51 0.434342 0.502238 0
M  V30 49731 H 4692.04 1.74665 1.06552 0
M  V30 49732 H 4692.05 2.12571 3.48249 0
M  V30 49733 H 4690.73 3.06353 2.81284 0
M  V30 49734 H 4689.3 1.35553 3.4739 0
M  V30 49735 N 4691.49 -1.07162 1.1556 0
M  V30 49736 C 4692.42 -2.164 0.877122 0
M  V30 49737 C 4693.4 -1.69217 -0.173052 0
M  V30 49738 O 4694.59 -1.94181 -0.0270157 0
M  V30 49739 C 4691.72 -3.45347 0.367754 0
M  V30 49740 C 4690.67 -4.05991 1.35483 0
M  V30 49741 C 4690 -5.30042 0.704224 0
M  V30 49742 C 4691.3 -4.45795 2.72148 0
M  V30 49743 H 4692.99 -2.39953 1.79062 0
M  V30 49744 H 4690.54 -1.15322 0.862372 0
M  V30 49745 H 4692.49 -4.21094 0.160465 0
M  V30 49746 H 4691.21 -3.21387 -0.581213 0
M  V30 49747 H 4689.87 -3.3229 1.54851 0
M  V30 49748 H 4689.52 -5.02374 -0.250952 0
M  V30 49749 H 4689.22 -5.71574 1.36297 0
M  V30 49750 H 4690.74 -6.08494 0.506753 0
M  V30 49751 H 4692.16 -5.12662 2.56613 0
M  V30 49752 H 4690.55 -4.98284 3.34415 0
M  V30 49753 H 4691.62 -3.57072 3.28067 0
M  V30 49754 N 4692.97 -0.9527 -1.25544 0
M  V30 49755 C 4694.22 -0.605243 -1.92824 0
M  V30 49756 C 4694.54 0.8602 -1.75002 0
M  V30 49757 O 4693.81 1.61246 -1.1125 0
M  V30 49758 H 4692.39 -0.220857 -0.713604 0
M  V30 49759 H 4695.05 -1.21052 -1.52749 0
M  V30 49760 H 4694.14 -0.832904 -3.00781 0
M  V30 49761 N 4694.45 1.40138 -0.721047 0
M  V30 49762 C 4695.67 2.05095 -0.272728 0
M  V30 49763 C 4696.09 1.54338 1.08744 0
M  V30 49764 O 4695.45 0.70227 1.68447 0
M  V30 49765 C 4695.5 3.60635 -0.249962 0
M  V30 49766 O 4695.22 4.0952 -1.55643 0
M  V30 49767 C 4696.72 4.42772 0.21624 0
M  V30 49768 H 4693.94 0.659893 -0.121582 0
M  V30 49769 H 4696.48 1.79446 -0.980786 0
M  V30 49770 H 4694.64 3.85234 0.409101 0
M  V30 49771 H 4695.05 5.03753 -1.46058 0
M  V30 49772 H 4696.53 5.51703 0.181018 0
M  V30 49773 H 4697 4.2076 1.25926 0
M  V30 49774 H 4697.61 4.23292 -0.412745 0
M  V30 49775 N 4695.92 0.467632 1.50502 0
M  V30 49776 C 4697.15 -0.0863407 2.0672 0
M  V30 49777 C 4697.57 -1.33814 1.33188 0
M  V30 49778 O 4696.92 -1.78059 0.400145 0
M  V30 49779 C 4696.97 -0.377953 3.59519 0
M  V30 49780 O 4696.7 0.824195 4.30277 0
M  V30 49781 C 4698.2 -0.979274 4.32348 0
M  V30 49782 H 4695.42 0.00554056 0.670977 0
M  V30 49783 H 4697.96 0.655422 1.93712 0
M  V30 49784 H 4696.12 -1.06964 3.7234 0
M  V30 49785 H 4696.53 0.566701 5.2143 0
M  V30 49786 H 4698 -1.13311 5.40245 0
M  V30 49787 H 4698.48 -1.96846 3.92617 0
M  V30 49788 H 4699.09 -0.326067 4.24048 0
M  V30 49789 N 4697.4 -1.56324 0.200105 0
M  V30 49790 C 4698.35 -2.19323 -0.718756 0
M  V30 49791 C 4699.32 -1.14202 -1.20611 0
M  V30 49792 O 4700.5 -1.42473 -1.26909 0
M  V30 49793 C 4697.64 -2.86048 -1.93056 0
M  V30 49794 C 4696.76 -4.05707 -1.4841 0
M  V30 49795 C 4695.89 -4.60275 -2.6518 0
M  V30 49796 C 4694.93 -5.72281 -2.17165 0
M  V30 49797 N 4694.07 -6.21233 -3.2713 0
M  V30 49798 H 4698.91 -2.97487 -0.174785 0
M  V30 49799 H 4696.44 -1.46911 -0.0745278 0
M  V30 49800 H 4698.4 -3.22906 -2.64173 0
M  V30 49801 H 4697.03 -2.10439 -2.44776 0
M  V30 49802 H 4696.08 -3.74478 -0.668624 0
M  V30 49803 H 4697.4 -4.86703 -1.09187 0
M  V30 49804 H 4696.55 -4.99465 -3.44412 0
M  V30 49805 H 4695.29 -3.78397 -3.0768 0
M  V30 49806 H 4694.29 -5.32615 -1.36388 0
M  V30 49807 H 4695.52 -6.5598 -1.7569 0
M  V30 49808 H 4693.47 -5.42276 -3.69152 0
M  V30 49809 H 4693.38 -6.97294 -2.92091 0
M  V30 49810 H 4694.65 -6.65077 -4.06561 0
M  V30 49811 N 4698.88 0.0734624 -1.57429 0
M  V30 49812 C 4699.83 1.10621 -2.04611 0
M  V30 49813 C 4700.82 1.40178 -0.951137 0
M  V30 49814 O 4702.03 1.39604 -1.13625 0
M  V30 49815 H 4698.4 0.374065 -0.652364 0
M  V30 49816 H 4700.37 0.682115 -2.90499 0
M  V30 49817 C 4699.12 2.41204 -2.50432 0
M  V30 49818 H 4698.45 2.19311 -3.3428 0
M  V30 49819 H 4699.89 3.11917 -2.872 0
M  V30 49820 C 4698.34 3.07045 -1.38655 0
M  V30 49821 O 4698.87 3.95053 -0.727721 0
M  V30 49822 N 4697.08 2.67642 -1.13209 0
M  V30 49823 H 4696.63 1.96163 -1.66966 0
M  V30 49824 H 4696.59 3.12018 -0.386256 0
M  V30 49825 N 4700.36 1.53782 0.344812 0
M  V30 49826 C 4701.59 1.74903 1.10528 0
M  V30 49827 C 4702 0.487598 1.82395 0
M  V30 49828 O 4701.36 -0.54068 1.74307 0
M  V30 49829 C 4701.41 2.9283 2.11974 0
M  V30 49830 O 4701.13 4.14094 1.4303 0
M  V30 49831 C 4702.63 3.25993 3.00406 0
M  V30 49832 H 4699.85 0.584437 0.329658 0
M  V30 49833 H 4702.39 2.00601 0.397404 0
M  V30 49834 H 4700.55 2.69466 2.78328 0
M  V30 49835 H 4700.96 4.8028 2.10788 0
M  V30 49836 H 4702.44 4.11861 3.67525 0
M  V30 49837 H 4702.91 2.42241 3.66355 0
M  V30 49838 H 4703.52 3.51357 2.39642 0
M  V30 49839 N 4701.84 -0.605756 1.45494 0
M  V30 49840 C 4703.07 -1.38929 1.52913 0
M  V30 49841 C 4703.47 -1.88512 0.161152 0
M  V30 49842 O 4702.82 -1.62965 -0.847834 0
M  V30 49843 C 4702.88 -2.62729 2.45385 0
M  V30 49844 C 4702.54 -2.34771 3.92086 0
M  V30 49845 C 4703.54 -1.95021 4.81937 0
M  V30 49846 C 4701.23 -2.47626 4.3702 0
M  V30 49847 C 4703.22 -1.68489 6.14728 0
M  V30 49848 C 4700.91 -2.20708 5.69852 0
M  V30 49849 C 4701.9 -1.81201 6.58525 0
M  V30 49850 O 4701.59 -1.54599 7.88894 0
M  V30 49851 H 4701.32 -0.43161 0.520277 0
M  V30 49852 H 4703.88 -0.745663 1.91387 0
M  V30 49853 H 4702.11 -3.29817 2.01885 0
M  V30 49854 H 4703.8 -3.24774 2.43468 0
M  V30 49855 H 4704.56 -1.84623 4.48485 0
M  V30 49856 H 4700.44 -2.77343 3.68242 0
M  V30 49857 H 4703.99 -1.37578 6.83899 0
M  V30 49858 H 4699.88 -2.30723 6.02858 0
M  V30 49859 H 4700.65 -1.68637 8.00939 0
M  V30 49860 N 4703.31 -1.32814 -0.848417 0
M  V30 49861 C 4704.56 -1.23913 -1.60541 0
M  V30 49862 C 4704.89 0.197093 -1.93197 0
M  V30 49863 O 4704.17 1.13591 -1.57884 0
M  V30 49864 C 4704.45 -2.10499 -2.92168 0
M  V30 49865 C 4704.3 -3.62531 -2.66254 0
M  V30 49866 C 4705.62 -1.97089 -3.93502 0
M  V30 49867 H 4702.74 -0.45148 -0.582525 0
M  V30 49868 H 4705.38 -1.62822 -0.979238 0
M  V30 49869 H 4703.53 -1.77446 -3.45608 0
M  V30 49870 H 4705.21 -4.05828 -2.19319 0
M  V30 49871 H 4703.45 -3.84886 -2.00112 0
M  V30 49872 H 4704.12 -4.1845 -3.60005 0
M  V30 49873 H 4706.6 -2.26057 -3.49338 0
M  V30 49874 H 4705.47 -2.5994 -4.83448 0
M  V30 49875 H 4705.73 -0.940337 -4.31984 0
M  V30 49876 N 4704.79 1.06547 -1.16127 0
M  V30 49877 C 4705.7 2.1748 -0.879739 0
M  V30 49878 C 4706.72 1.73378 0.147043 0
M  V30 49879 O 4707.89 2.01379 -0.0289836 0
M  V30 49880 C 4704.96 3.4459 -0.381951 0
M  V30 49881 C 4704.02 4.03215 -1.47364 0
M  V30 49882 C 4703.25 5.24257 -0.999509 0
M  V30 49883 O 4703.48 5.70198 0.151757 0
M  V30 49884 O 4702.41 5.74769 -1.78674 0
M  V30 49885 H 4706.24 2.44069 -1.80732 0
M  V30 49886 H 4703.82 1.16039 -0.941032 0
M  V30 49887 H 4705.7 4.21253 -0.111201 0
M  V30 49888 H 4704.38 3.19534 0.517657 0
M  V30 49889 H 4703.29 3.28054 -1.7981 0
M  V30 49890 H 4704.62 4.3256 -2.34846 0
M  V30 49891 N 4706.27 0.959345 1.25037 0
M  V30 49892 C 4707.22 0.482136 2.25708 0
M  V30 49893 C 4708.19 -0.467883 1.59374 0
M  V30 49894 O 4709.37 -0.380093 1.86976 0
M  V30 49895 C 4706.51 -0.229502 3.44336 0
M  V30 49896 C 4705.63 0.758306 4.25293 0
M  V30 49897 C 4704.76 0.023627 5.31195 0
M  V30 49898 C 4703.8 1.00205 6.03842 0
M  V30 49899 N 4702.94 0.297937 7.01468 0
M  V30 49900 H 4707.78 1.34548 2.65897 0
M  V30 49901 H 4705.31 0.674638 1.30717 0
M  V30 49902 H 4707.27 -0.658711 4.11967 0
M  V30 49903 H 4705.9 -1.05685 3.05009 0
M  V30 49904 H 4704.95 1.30598 3.57279 0
M  V30 49905 H 4706.27 1.50475 4.75561 0
M  V30 49906 H 4705.42 -0.463988 6.04923 0
M  V30 49907 H 4704.16 -0.755572 4.81812 0
M  V30 49908 H 4703.16 1.50062 5.28925 0
M  V30 49909 H 4704.39 1.78156 6.55315 0
M  V30 49910 H 4702.33 -0.462438 6.54368 0
M  V30 49911 H 4702.25 0.983391 7.49577 0
M  V30 49912 H 4703.52 -0.167986 7.79319 0
M  V30 49913 N 4707.75 -1.39754 0.728469 0
M  V30 49914 C 4708.68 -2.33289 0.0992174 0
M  V30 49915 C 4709.66 -1.53571 -0.731435 0
M  V30 49916 O 4710.84 -1.8199 -0.677743 0
M  V30 49917 C 4707.97 -3.37633 -0.813715 0
M  V30 49918 C 4706.93 -4.2791 -0.0877159 0
M  V30 49919 C 4706.25 -5.22898 -1.11723 0
M  V30 49920 C 4707.55 -5.1131 1.06581 0
M  V30 49921 H 4709.25 -2.8616 0.880508 0
M  V30 49922 H 4706.79 -1.3759 0.424867 0
M  V30 49923 H 4708.75 -4.02015 -1.26341 0
M  V30 49924 H 4707.47 -2.83187 -1.62705 0
M  V30 49925 H 4706.13 -3.64999 0.342287 0
M  V30 49926 H 4705.78 -4.64751 -1.92395 0
M  V30 49927 H 4705.48 -5.84145 -0.636271 0
M  V30 49928 H 4707 -5.90157 -1.56676 0
M  V30 49929 H 4708.42 -5.69073 0.694871 0
M  V30 49930 H 4706.81 -5.81666 1.47597 0
M  V30 49931 H 4707.88 -4.46527 1.89054 0
M  V30 49932 N 4709.23 -0.475607 -1.50252 0
M  V30 49933 C 4710.64 -0.130026 -1.59069 0
M  V30 49934 C 4710.84 1.3638 -1.48333 0
M  V30 49935 O 4709.9 2.1375 -1.34415 0
M  V30 49936 C 4711.21 -0.684242 -2.92812 0
M  V30 49937 C 4712.76 -0.648072 -3.06217 0
M  V30 49938 C 4713.23 -1.17991 -4.42541 0
M  V30 49939 N 4714.73 -1.13951 -4.48965 0
M  V30 49940 C 4715.46 -1.52148 -5.52846 0
M  V30 49941 N 4714.96 -1.97816 -6.63958 0
M  V30 49942 N 4716.75 -1.43723 -5.43415 0
M  V30 49943 H 4708.9 -1.44712 -1.55474 0
M  V30 49944 H 4711.16 -0.598717 -0.735012 0
M  V30 49945 H 4710.87 -1.7309 -3.06158 0
M  V30 49946 H 4710.74 -0.130336 -3.76975 0
M  V30 49947 H 4713.13 0.389687 -2.92516 0
M  V30 49948 H 4713.21 -1.23883 -2.238 0
M  V30 49949 H 4712.86 -2.21632 -4.56992 0
M  V30 49950 H 4712.79 -0.565322 -5.23557 0
M  V30 49951 H 4715.28 -0.804617 -3.69235 0
M  V30 49952 H 4715.59 -2.25098 -7.39291 0
M  V30 49953 H 4713.93 -2.01772 -6.65066 0
M  V30 49954 H 4717.13 -1.07883 -4.55498 0
M  V30 49955 H 4717.3 -1.73816 -6.24253 0
M  V30 49956 N 4710.7 1.56216 -0.208392 0
M  V30 49957 C 4712.12 1.84244 0.301839 0
M  V30 49958 C 4712.47 1.12945 1.6043 0
M  V30 49959 O 4711.59 0.394685 2.1277 0
M  V30 49960 C 4712.19 3.34233 0.554425 0
M  V30 49961 C 4710.75 3.62624 1.00899 0
M  V30 49962 C 4709.89 2.77224 0.0648356 0
M  V30 49963 H 4712.84 1.5271 -0.431887 0
M  V30 49964 H 4712.86 3.53725 1.4021 0
M  V30 49965 H 4712.38 3.86098 -0.393697 0
M  V30 49966 H 4710.48 3.16204 1.97093 0
M  V30 49967 H 4710.59 4.70713 0.892508 0
M  V30 49968 H 4708.95 2.48258 0.569203 0
M  V30 49969 H 4709.74 3.31883 -0.877968 0
M  V30 49970 N 4712.18 -0.0651125 1.57465 0
M  V30 49971 C 4713.15 -1.06109 2.03159 0
M  V30 49972 C 4714.15 -1.31201 0.929678 0
M  V30 49973 O 4715.34 -1.26809 1.19437 0
M  V30 49974 C 4712.47 -2.40311 2.41792 0
M  V30 49975 H 4713.66 -0.667128 2.92386 0
M  V30 49976 H 4711.21 -0.311021 1.53174 0
M  V30 49977 H 4711.95 -2.84527 1.55611 0
M  V30 49978 H 4711.73 -2.23439 3.22207 0
M  V30 49979 H 4713.22 -3.11889 2.77696 0
M  V30 49980 N 4713.66 -1.53962 -0.336652 0
M  V30 49981 C 4714.59 -1.85422 -1.41918 0
M  V30 49982 C 4715.57 -0.70991 -1.54578 0
M  V30 49983 O 4716.76 -0.962456 -1.68673 0
M  V30 49984 C 4713.89 -2.06995 -2.78873 0
M  V30 49985 C 4712.84 -3.22823 -2.81015 0
M  V30 49986 C 4712.17 -3.29742 -4.20921 0
M  V30 49987 C 4713.47 -4.60776 -2.45933 0
M  V30 49988 H 4715.16 -2.76083 -1.15839 0
M  V30 49989 H 4712.71 -1.32841 -0.555812 0
M  V30 49990 H 4714.66 -2.27587 -3.54657 0
M  V30 49991 H 4713.38 -1.13071 -3.06402 0
M  V30 49992 H 4712.04 -3.02097 -2.07684 0
M  V30 49993 H 4711.69 -2.33401 -4.4557 0
M  V30 49994 H 4711.39 -4.07581 -4.23263 0
M  V30 49995 H 4712.91 -3.52553 -4.98537 0
M  V30 49996 H 4714.33 -4.81336 -3.11429 0
M  V30 49997 H 4712.73 -5.41069 -2.59547 0
M  V30 49998 H 4713.8 -4.63915 -1.41105 0
M  V30 49999 N 4715.14 0.598031 -1.45813 0
M  V30 50000 C 4716.39 1.35408 -1.5003 0
M  V30 50001 C 4716.71 1.94443 -0.147245 0
M  V30 50002 O 4715.98 1.77704 0.824509 0
M  V30 50003 H 4714.56 0.502707 -0.552535 0
M  V30 50004 H 4717.22 0.701542 -1.81836 0
M  V30 50005 H 4716.32 2.16863 -2.24448 0
M  V30 50006 N 4716.62 1.33262 0.841362 0
M  V30 50007 C 4717.53 1.25339 1.98311 0
M  V30 50008 C 4718.54 0.164425 1.73221 0
M  V30 50009 O 4719.72 0.387555 1.97636 0
M  V30 50010 C 4716.78 0.990195 3.32259 0
M  V30 50011 C 4715.85 2.16892 3.70482 0
M  V30 50012 C 4715.08 1.91819 4.98037 0
M  V30 50013 O 4715.3 0.867273 5.63768 0
M  V30 50014 O 4714.24 2.78286 5.33705 0
M  V30 50015 H 4718.06 2.21351 2.07936 0
M  V30 50016 H 4715.65 1.13284 0.974018 0
M  V30 50017 H 4717.53 0.860466 4.12521 0
M  V30 50018 H 4716.2 0.0603293 3.23644 0
M  V30 50019 H 4715.11 2.35417 2.9074 0
M  V30 50020 H 4716.44 3.08204 3.83759 0
M  V30 50021 N 4718.1 -1.0593 1.1669 0
M  V30 50022 C 4719.34 -1.80378 0.961409 0
M  V30 50023 C 4719.7 -1.85333 -0.501578 0
M  V30 50024 O 4720.9 -2.55798 -0.825896 0
M  V30 50025 C 4719.17 -3.20772 1.57608 0
M  V30 50026 S 4720.73 -4.1179 1.51574 0
M  V30 50027 H 4717.55 -0.62132 0.345663 0
M  V30 50028 H 4720.15 -1.27152 1.48501 0
M  V30 50029 H 4718.85 -3.14763 2.63348 0
M  V30 50030 H 4718.39 -3.79074 1.05196 0
M  V30 50031 H 4720.4 -4.93483 0.518547 0
M  V30 50032 N 4719.57 -0.965962 -1.24527 0
M  V30 50033 C 4720.5 -0.513556 -2.27782 0
M  V30 50034 C 4721.48 0.445916 -1.64151 0
M  V30 50035 O 4722.67 0.342418 -1.91157 0
M  V30 50036 C 4719.8 0.198717 -3.46731 0
M  V30 50037 C 4718.75 -0.676605 -4.22618 0
M  V30 50038 C 4718.08 0.16706 -5.34439 0
M  V30 50039 C 4719.38 -1.96034 -4.84116 0
M  V30 50040 H 4721.07 -1.37659 -2.65877 0
M  V30 50041 H 4718.62 -0.663366 -1.2781 0
M  V30 50042 H 4720.57 0.52642 -4.18099 0
M  V30 50043 H 4719.3 1.09609 -3.07658 0
M  V30 50044 H 4717.96 -0.987554 -3.53048 0
M  V30 50045 H 4717.6 1.06453 -4.91606 0
M  V30 50046 H 4717.3 -0.415387 -5.8613 0
M  V30 50047 H 4718.83 0.489474 -6.08635 0
M  V30 50048 H 4720.24 -1.69833 -5.47567 0
M  V30 50049 H 4718.64 -2.48937 -5.46032 0
M  V30 50050 H 4719.71 -2.65636 -4.05667 0
M  V30 50051 N 4721.05 1.39365 -0.73587 0
M  V30 50052 C 4722.01 2.2896 -0.104954 0
M  V30 50053 C 4723.01 1.46349 0.666222 0
M  V30 50054 O 4724.2 1.67016 0.495111 0
M  V30 50055 C 4721.34 3.2986 0.86054 0
M  V30 50056 H 4722.53 2.86255 -0.894305 0
M  V30 50057 H 4720.08 1.48027 -0.501756 0
M  V30 50058 H 4720.82 2.77621 1.67621 0
M  V30 50059 H 4720.6 3.90871 0.310189 0
M  V30 50060 H 4722.09 3.96898 1.29853 0
M  V30 50061 N 4722.53 0.483569 1.49998 0
M  V30 50062 C 4723.95 0.13846 1.58998 0
M  V30 50063 C 4724.15 -1.35591 1.49054 0
M  V30 50064 O 4723.2 -2.13034 1.35546 0
M  V30 50065 C 4724.51 0.699761 2.92445 0
M  V30 50066 C 4726.06 0.664303 3.05869 0
M  V30 50067 C 4726.54 1.20336 4.41909 0
M  V30 50068 N 4728.03 1.16331 4.48354 0
M  V30 50069 C 4728.76 1.55078 5.52031 0
M  V30 50070 N 4728.26 2.01334 6.629 0
M  V30 50071 N 4730.05 1.46603 5.42645 0
M  V30 50072 H 4722.2 1.45534 1.54705 0
M  V30 50073 H 4724.47 0.602606 0.731826 0
M  V30 50074 H 4724.17 1.74711 3.05236 0
M  V30 50075 H 4724.05 0.150326 3.769 0
M  V30 50076 H 4726.43 -0.374169 2.92718 0
M  V30 50077 H 4726.51 1.25069 2.2314 0
M  V30 50078 H 4726.16 2.24053 4.5581 0
M  V30 50079 H 4726.09 0.59308 5.2325 0
M  V30 50080 H 4728.58 0.824187 3.68803 0
M  V30 50081 H 4728.89 2.29016 7.38086 0
M  V30 50082 H 4727.24 2.05296 6.63987 0
M  V30 50083 H 4730.43 1.10297 4.5492 0
M  V30 50084 H 4730.6 1.77124 6.23322 0
M  V30 50085 N 4724.01 -1.56103 0.216674 0
M  V30 50086 C 4724.94 -2.23066 -0.690218 0
M  V30 50087 C 4725.92 -1.20076 -1.20481 0
M  V30 50088 O 4727.1 -1.48647 -1.2497 0
M  V30 50089 C 4724.23 -2.90678 -1.90061 0
M  V30 50090 C 4723.19 -4.00098 -1.52006 0
M  V30 50091 C 4722.51 -4.54982 -2.80883 0
M  V30 50092 C 4723.81 -5.174 -0.713728 0
M  V30 50093 H 4725.51 -2.99109 -0.131932 0
M  V30 50094 H 4723.05 -1.43866 -0.0620158 0
M  V30 50095 H 4725.01 -3.36213 -2.54045 0
M  V30 50096 H 4723.73 -2.12074 -2.48379 0
M  V30 50097 H 4722.39 -3.55287 -0.903714 0
M  V30 50098 H 4722.04 -3.73114 -3.37335 0
M  V30 50099 H 4721.74 -5.28826 -2.56157 0
M  V30 50100 H 4723.26 -5.03232 -3.45818 0
M  V30 50101 H 4724.68 -5.59347 -1.25715 0
M  V30 50102 H 4723.07 -5.97446 -0.563741 0
M  V30 50103 H 4724.14 -4.84087 0.280698 0
M  V30 50104 N 4725.49 0.0567608 -1.57498 0
M  V30 50105 C 4726.45 1.05031 -2.03718 0
M  V30 50106 C 4727.45 1.30706 -0.936623 0
M  V30 50107 O 4728.64 1.26174 -1.20108 0
M  V30 50108 C 4725.77 2.39026 -2.43063 0
M  V30 50109 H 4726.96 0.651613 -2.92735 0
M  V30 50110 H 4724.52 0.302893 -1.53337 0
M  V30 50111 H 4725.25 2.83698 -1.57118 0
M  V30 50112 H 4725.04 2.21727 -3.23387 0
M  V30 50113 H 4726.53 3.10411 -2.79347 0
M  V30 50114 N 4726.96 1.54139 0.328482 0
M  V30 50115 C 4727.93 1.82467 1.38703 0
M  V30 50116 C 4728.93 0.69628 1.44943 0
M  V30 50117 O 4730.12 0.964586 1.45056 0
M  V30 50118 C 4727.25 1.98027 2.77485 0
M  V30 50119 H 4728.44 2.77041 1.14841 0
M  V30 50120 H 4725.99 1.45781 0.5637 0
M  V30 50121 H 4726.73 1.05648 3.06609 0
M  V30 50122 H 4726.51 2.80133 2.74349 0
M  V30 50123 H 4728 2.21409 3.54073 0
M  V30 50124 N 4728.44 -0.59029 1.46128 0
M  V30 50125 C 4729.4 -1.68189 1.55709 0
M  V30 50126 C 4730.4 -1.54807 0.434922 0
M  V30 50127 O 4731.59 -1.59561 0.698984 0
M  V30 50128 C 4728.73 -3.0757 1.47015 0
M  V30 50129 H 4729.92 -1.61055 2.52985 0
M  V30 50130 H 4727.47 -0.807493 1.33825 0
M  V30 50131 H 4728.21 -3.20266 0.509898 0
M  V30 50132 H 4727.99 -3.18692 2.28425 0
M  V30 50133 H 4729.48 -3.87049 1.56789 0
M  V30 50134 N 4729.92 -1.33707 -0.834283 0
M  V30 50135 C 4730.85 -1.18682 -1.9491 0
M  V30 50136 C 4731.83 -0.0811715 -1.62397 0
M  V30 50137 O 4733.01 -0.244251 -1.86911 0
M  V30 50138 C 4730.14 -0.821347 -3.2859 0
M  V30 50139 C 4729.19 -1.93514 -3.80072 0
M  V30 50140 S 4730.02 -3.54685 -4.01197 0
M  V30 50141 C 4731.18 -3.20154 -5.37821 0
M  V30 50142 H 4731.41 -2.13051 -2.07356 0
M  V30 50143 H 4728.94 -1.18602 -0.988583 0
M  V30 50144 H 4730.9 -0.617266 -4.05833 0
M  V30 50145 H 4729.56 0.103817 -3.13928 0
M  V30 50146 H 4728.75 -1.6329 -4.76815 0
M  V30 50147 H 4728.36 -2.09612 -3.0974 0
M  V30 50148 H 4730.65 -2.71264 -6.20824 0
M  V30 50149 H 4731.59 -4.15995 -5.73022 0
M  V30 50150 H 4732 -2.56631 -5.02793 0
M  V30 50151 N 4731.4 1.0531 -1.1725 0
M  V30 50152 C 4732.81 1.59749 -0.966287 0
M  V30 50153 C 4733.16 1.90052 0.487311 0
M  V30 50154 O 4732.29 1.6813 1.36239 0
M  V30 50155 C 4732.88 2.90243 -1.7477 0
M  V30 50156 C 4731.44 3.41346 -1.58618 0
M  V30 50157 C 4730.59 2.15097 -1.7501 0
M  V30 50158 H 4733.54 0.88136 -1.31976 0
M  V30 50159 H 4733.56 3.60092 -1.22938 0
M  V30 50160 H 4733.07 2.68157 -2.8056 0
M  V30 50161 H 4731.17 3.68472 -0.553115 0
M  V30 50162 H 4731.28 4.1601 -2.37639 0
M  V30 50163 H 4729.65 2.258 -1.17841 0
M  V30 50164 H 4730.43 1.95481 -2.82209 0
M  V30 50165 N 4732.88 0.972553 1.24013 0
M  V30 50166 C 4734.12 0.638046 1.92501 0
M  V30 50167 C 4734.46 -0.825321 1.7579 0
M  V30 50168 O 4733.73 -1.59438 1.11399 0
M  V30 50169 C 4734.01 1.01955 3.45365 0
M  V30 50170 C 4733.87 2.53996 3.71222 0
M  V30 50171 C 4735.19 0.557663 4.36553 0
M  V30 50172 H 4732.3 0.233272 0.699109 0
M  V30 50173 H 4734.95 1.21243 1.46288 0
M  V30 50174 H 4733.1 0.530791 3.84857 0
M  V30 50175 H 4734.77 3.10386 3.4126 0
M  V30 50176 H 4733.01 2.96979 3.16205 0
M  V30 50177 H 4733.68 2.7574 4.78196 0
M  V30 50178 H 4736.16 0.977171 4.04463 0
M  V30 50179 H 4735.03 0.85311 5.4223 0
M  V30 50180 H 4735.3 -0.542174 4.38763 0
M  V30 50181 N 4734.35 -1.38973 0.74325 0
M  V30 50182 C 4735.32 -2.28901 0.117095 0
M  V30 50183 C 4736.32 -1.46701 -0.658452 0
M  V30 50184 O 4737.51 -1.67276 -0.486247 0
M  V30 50185 C 4734.64 -3.30312 -0.843034 0
M  V30 50186 H 4735.83 -2.85777 0.909473 0
M  V30 50187 H 4733.39 -1.47759 0.509599 0
M  V30 50188 H 4734.12 -2.78506 -1.66147 0
M  V30 50189 H 4733.91 -3.9103 -0.289456 0
M  V30 50190 H 4735.4 -3.97581 -1.27746 0
M  V30 50191 N 4735.83 -0.491517 -1.49739 0
M  V30 50192 C 4737.08 0.0563544 -2.02422 0
M  V30 50193 C 4737.41 1.37867 -1.37197 0
M  V30 50194 O 4736.66 1.89374 -0.493575 0
M  V30 50195 C 4736.96 0.267203 -3.564 0
M  V30 50196 C 4736.63 -0.97593 -4.40212 0
M  V30 50197 C 4735.29 -1.31672 -4.62835 0
M  V30 50198 C 4737.64 -1.80268 -4.89033 0
M  V30 50199 C 4734.97 -2.48394 -5.31524 0
M  V30 50200 C 4737.32 -2.96136 -5.59005 0
M  V30 50201 C 4735.99 -3.30605 -5.79876 0
M  V30 50202 H 4735.26 0.0206215 -0.740713 0
M  V30 50203 H 4737.9 -0.649749 -1.8014 0
M  V30 50204 H 4736.21 1.05575 -3.77308 0
M  V30 50205 H 4737.9 0.70541 -3.94747 0
M  V30 50206 H 4734.49 -0.700464 -4.22837 0
M  V30 50207 H 4738.68 -1.55256 -4.71391 0
M  V30 50208 H 4733.93 -2.75349 -5.45887 0
M  V30 50209 H 4738.11 -3.6053 -5.95811 0
M  V30 50210 H 4735.74 -4.21154 -6.32877 0
M  V30 50211 N 4737.31 1.55986 -0.224949 0
M  V30 50212 C 4738.24 2.23428 0.678378 0
M  V30 50213 C 4739.22 1.20714 1.19842 0
M  V30 50214 O 4740.41 1.49308 1.2418 0
M  V30 50215 C 4737.54 2.91682 1.88517 0
M  V30 50216 C 4736.49 4.00898 1.49882 0
M  V30 50217 C 4735.82 4.56465 2.78467 0
M  V30 50218 C 4737.12 5.17772 0.686279 0
M  V30 50219 H 4738.81 2.99175 0.116068 0
M  V30 50220 H 4736.36 1.43897 0.0543854 0
M  V30 50221 H 4738.31 3.37556 2.52258 0
M  V30 50222 H 4737.03 2.13389 2.47251 0
M  V30 50223 H 4735.69 3.55761 0.88486 0
M  V30 50224 H 4735.34 3.74898 3.35352 0
M  V30 50225 H 4735.04 5.30177 2.53349 0
M  V30 50226 H 4736.56 5.05059 3.43144 0
M  V30 50227 H 4737.98 5.60005 1.22747 0
M  V30 50228 H 4736.38 5.97737 0.532049 0
M  V30 50229 H 4737.45 4.83931 -0.306366 0
M  V30 50230 N 4738.79 -0.0484076 1.57526 0
M  V30 50231 C 4739.7 -1.07233 2.08658 0
M  V30 50232 C 4740.71 -1.40896 1.021 0
M  V30 50233 O 4741.89 -1.50604 1.33718 0
M  V30 50234 C 4738.96 -2.35999 2.53979 0
M  V30 50235 C 4738.02 -2.09095 3.74937 0
M  V30 50236 C 4737.25 -3.31721 4.18087 0
M  V30 50237 O 4737.47 -4.41701 3.6091 0
M  V30 50238 O 4736.41 -3.18558 5.1069 0
M  V30 50239 H 4740.23 -0.667861 2.96266 0
M  V30 50240 H 4737.82 -0.264119 1.47047 0
M  V30 50241 H 4739.7 -3.11737 2.83546 0
M  V30 50242 H 4738.37 -2.7578 1.69491 0
M  V30 50243 H 4737.28 -1.30987 3.50419 0
M  V30 50244 H 4738.61 -1.74182 4.60349 0
M  V30 50245 N 4740.27 -1.54311 -0.320303 0
M  V30 50246 C 4741.68 -1.63875 -0.894537 0
M  V30 50247 C 4742.03 -0.534913 -1.88767 0
M  V30 50248 O 4741.15 0.331657 -2.13843 0
M  V30 50249 C 4741.75 -2.97054 -1.62924 0
M  V30 50250 C 4740.31 -3.08803 -2.15215 0
M  V30 50251 C 4739.45 -2.59459 -0.978579 0
M  V30 50252 H 4742.41 -1.58398 -0.0977987 0
M  V30 50253 H 4742.43 -2.87397 -2.49366 0
M  V30 50254 H 4741.94 -3.77373 -0.906169 0
M  V30 50255 H 4740.04 -2.33166 -2.90628 0
M  V30 50256 H 4740.15 -4.14657 -2.39992 0
M  V30 50257 H 4738.52 -2.15435 -1.35868 0
M  V30 50258 H 4739.3 -3.42238 -0.269775 0
M  V30 50259 N 4741.74 0.582532 -1.46439 0
M  V30 50260 C 4742.68 1.70612 -1.53049 0
M  V30 50261 C 4743.69 1.5732 -0.418824 0
M  V30 50262 O 4744.88 1.64742 -0.687193 0
M  V30 50263 C 4741.98 3.08864 -1.39485 0
M  V30 50264 C 4741.15 3.48157 -2.64774 0
M  V30 50265 C 4740.21 4.6547 -2.45407 0
M  V30 50266 O 4739.24 4.71322 -3.19131 0
M  V30 50267 N 4740.44 5.60359 -1.51584 0
M  V30 50268 H 4743.2 1.65396 -2.49928 0
M  V30 50269 H 4740.76 0.768517 -1.42497 0
M  V30 50270 H 4742.76 3.85138 -1.243 0
M  V30 50271 H 4741.33 3.08447 -0.507867 0
M  V30 50272 H 4740.55 2.61587 -2.949 0
M  V30 50273 H 4741.83 3.71176 -3.48003 0
M  V30 50274 H 4741.23 5.58367 -0.907901 0
M  V30 50275 H 4739.79 6.36063 -1.42362 0
M  V30 50276 N 4743.22 1.34147 0.82718 0
M  V30 50277 C 4744.15 1.28011 1.95283 0
M  V30 50278 C 4745.13 0.15838 1.69361 0
M  V30 50279 O 4746.32 0.350054 1.91019 0
M  V30 50280 C 4743.45 1.03047 3.3166 0
M  V30 50281 C 4742.4 2.11641 3.72011 0
M  V30 50282 C 4741.73 1.71872 5.06324 0
M  V30 50283 C 4743.03 3.5343 3.84557 0
M  V30 50284 H 4744.72 2.22194 2.00674 0
M  V30 50285 H 4742.27 1.06963 0.964097 0
M  V30 50286 H 4744.22 0.974007 4.09989 0
M  V30 50287 H 4742.95 0.0530539 3.26557 0
M  V30 50288 H 4741.6 2.16349 2.95954 0
M  V30 50289 H 4741.25 0.728016 4.97704 0
M  V30 50290 H 4740.95 2.4455 5.34293 0
M  V30 50291 H 4742.48 1.67713 5.87116 0
M  V30 50292 H 4743.89 3.51158 4.53168 0
M  V30 50293 H 4742.29 4.24694 4.23975 0
M  V30 50294 H 4743.36 3.91082 2.86675 0
M  V30 50295 N 4744.7 -1.04686 1.17807 0
M  V30 50296 C 4745.65 -2.14662 0.895711 0
M  V30 50297 C 4746.64 -1.68807 -0.14162 0
M  V30 50298 O 4747.85 -1.79999 0.00594242 0
M  V30 50299 H 4744.22 -0.701028 0.272146 0
M  V30 50300 H 4746.19 -2.35679 1.83025 0
M  V30 50301 C 4744.94 -3.45017 0.431084 0
M  V30 50302 H 4744.27 -3.80706 1.22077 0
M  V30 50303 H 4745.71 -4.23124 0.27245 0
M  V30 50304 C 4744.17 -3.25946 -0.852092 0
M  V30 50305 O 4744.7 -3.52967 -1.91773 0
M  V30 50306 N 4742.9 -2.79307 -0.802248 0
M  V30 50307 H 4742.45 -2.57518 0.0651693 0
M  V30 50308 H 4742.41 -2.66927 -1.66125 0
M  V30 50309 N 4746.18 -0.979116 -1.23495 0
M  V30 50310 C 4747.09 -0.526512 -2.28615 0
M  V30 50311 C 4748.11 0.418067 -1.68903 0
M  V30 50312 O 4749.28 0.288302 -1.99326 0
M  V30 50313 C 4746.35 0.165113 -3.46307 0
M  V30 50314 C 4745.41 -0.820708 -4.21382 0
M  V30 50315 C 4744.64 -0.161994 -5.33454 0
M  V30 50316 O 4744.86 1.04723 -5.60704 0
M  V30 50317 O 4743.8 -0.859917 -5.95726 0
M  V30 50318 H 4747.62 -1.40069 -2.6947 0
M  V30 50319 H 4745.21 -0.746688 -1.29402 0
M  V30 50320 H 4747.09 0.55314 -4.17754 0
M  V30 50321 H 4745.77 1.01408 -3.07405 0
M  V30 50322 H 4744.67 -1.25941 -3.52264 0
M  V30 50323 H 4746.01 -1.63844 -4.64129 0
M  V30 50324 N 4747.66 1.38577 -0.75061 0
M  V30 50325 C 4748.89 2.04174 -0.315711 0
M  V30 50326 C 4749.3 1.5673 1.05983 0
M  V30 50327 O 4748.64 0.734284 1.68386 0
M  V30 50328 C 4748.7 3.58584 -0.256515 0
M  V30 50329 C 4748.36 4.29071 -1.57311 0
M  V30 50330 C 4749.36 4.54647 -2.52175 0
M  V30 50331 C 4747.05 4.67318 -1.84172 0
M  V30 50332 C 4749.04 5.17499 -3.72121 0
M  V30 50333 C 4746.73 5.29894 -3.04393 0
M  V30 50334 C 4747.73 5.54919 -3.98188 0
M  V30 50335 O 4747.41 6.16194 -5.16295 0
M  V30 50336 H 4747.15 0.662737 -0.13325 0
M  V30 50337 H 4749.7 1.7831 -1.01955 0
M  V30 50338 H 4747.93 3.83408 0.503542 0
M  V30 50339 H 4749.62 4.05628 0.148469 0
M  V30 50340 H 4750.38 4.25531 -2.32698 0
M  V30 50341 H 4746.26 4.47187 -1.12004 0
M  V30 50342 H 4749.81 5.36948 -4.45346 0
M  V30 50343 H 4745.7 5.58433 -3.23764 0
M  V30 50344 H 4746.47 6.34682 -5.16837 0
M  V30 50345 N 4749.14 0.499451 1.49477 0
M  V30 50346 C 4750.08 -0.293523 2.30741 0
M  V30 50347 C 4751.08 -0.964221 1.39281 0
M  V30 50348 O 4752.28 -0.892087 1.56339 0
M  V30 50349 H 4748.66 -0.113515 0.743383 0
M  V30 50350 H 4750.63 0.411876 2.95544 0
M  V30 50351 C 4749.38 -1.34609 3.20586 0
M  V30 50352 H 4748.7 -0.839403 3.90889 0
M  V30 50353 H 4750.14 -1.87295 3.8039 0
M  V30 50354 C 4748.6 -2.36342 2.40091 0
M  V30 50355 O 4749.13 -3.42193 2.10397 0
M  V30 50356 N 4747.34 -2.08773 2.02144 0
M  V30 50357 H 4746.88 -1.22715 2.26492 0
M  V30 50358 H 4746.84 -2.77069 1.48593 0
M  V30 50359 N 4750.61 -1.55865 0.233218 0
M  V30 50360 C 4751.58 -2.19533 -0.658638 0
M  V30 50361 C 4752.58 -1.16057 -1.11299 0
M  V30 50362 O 4753.77 -1.41222 -1.01991 0
M  V30 50363 C 4750.9 -2.82798 -1.90364 0
M  V30 50364 H 4752.09 -2.99722 -0.103365 0
M  V30 50365 H 4749.64 -1.56291 -0.0163695 0
M  V30 50366 H 4750.38 -2.0651 -2.50048 0
M  V30 50367 H 4750.16 -3.58584 -1.58619 0
M  V30 50368 H 4751.65 -3.31565 -2.53879 0
M  V30 50369 N 4752.09 0.0400529 -1.57549 0
M  V30 50370 C 4753.33 0.738031 -1.90611 0
M  V30 50371 C 4753.7 1.73104 -0.8306 0
M  V30 50372 O 4754.9 2.47646 -1.04522 0
M  V30 50373 C 4753.17 1.39973 -3.2885 0
M  V30 50374 S 4754.73 2.12839 -3.83725 0
M  V30 50375 H 4751.54 0.244747 -0.667548 0
M  V30 50376 H 4754.15 -0.00700472 -1.95499 0
M  V30 50377 H 4752.85 0.663633 -4.04999 0
M  V30 50378 H 4752.38 2.18355 -3.27238 0
M  V30 50379 H 4754.4 3.3983 -3.61567 0
M  V30 50380 N 4753.57 1.54478 0.312115 0
M  V30 50381 C 4754.79 1.77529 1.07229 0
M  V30 50382 C 4755.22 0.527838 1.80542 0
M  V30 50383 O 4754.58 -0.521149 1.73648 0
M  V30 50384 C 4754.63 2.97543 2.03717 0
M  V30 50385 O 4753.73 2.69889 3.11823 0
M  V30 50386 H 4753.07 0.587931 0.308599 0
M  V30 50387 H 4755.6 2.01533 0.352922 0
M  V30 50388 H 4755.61 3.25207 2.46383 0
M  V30 50389 H 4754.29 3.88001 1.4976 0
M  V30 50390 H 4752.86 2.53209 2.73751 0
M  V30 50391 N 4755.05 -0.574758 1.46746 0
M  V30 50392 C 4756.29 -1.33464 1.52693 0
M  V30 50393 C 4756.63 -1.93352 0.181297 0
M  V30 50394 O 4755.9 -1.76915 -0.808175 0
M  V30 50395 C 4756.18 -2.45802 2.63161 0
M  V30 50396 C 4756.04 -1.90897 4.07282 0
M  V30 50397 C 4757.36 -3.47813 2.69656 0
M  V30 50398 H 4754.48 -0.483916 0.555873 0
M  V30 50399 H 4757.12 -0.644905 1.7872 0
M  V30 50400 H 4755.27 -3.04637 2.41098 0
M  V30 50401 H 4756.94 -1.36458 4.40655 0
M  V30 50402 H 4755.18 -1.21676 4.16386 0
M  V30 50403 H 4755.85 -2.72025 4.80319 0
M  V30 50404 H 4758.33 -2.9887 2.8951 0
M  V30 50405 H 4757.21 -4.23863 3.48756 0
M  V30 50406 H 4757.47 -4.05549 1.76019 0
M  V30 50407 N 4756.53 -1.34584 -0.820054 0
M  V30 50408 C 4757.76 -1.29997 -1.60575 0
M  V30 50409 C 4758.16 0.127522 -1.8877 0
M  V30 50410 O 4757.51 1.08589 -1.48169 0
M  V30 50411 C 4757.57 -2.02558 -2.97003 0
M  V30 50412 C 4757.23 -3.51805 -2.91689 0
M  V30 50413 C 4758.23 -4.46657 -2.66071 0
M  V30 50414 C 4755.91 -3.94259 -3.11231 0
M  V30 50415 C 4757.91 -5.81938 -2.60051 0
M  V30 50416 C 4755.6 -5.2964 -3.04835 0
M  V30 50417 C 4756.59 -6.23292 -2.79278 0
M  V30 50418 O 4756.28 -7.56191 -2.7282 0
M  V30 50419 H 4756.01 -0.448557 -0.50574 0
M  V30 50420 H 4758.57 -1.77815 -1.02815 0
M  V30 50421 H 4756.8 -1.49358 -3.56692 0
M  V30 50422 H 4758.49 -1.91223 -3.58034 0
M  V30 50423 H 4759.25 -4.15177 -2.50706 0
M  V30 50424 H 4755.13 -3.21761 -3.30138 0
M  V30 50425 H 4758.68 -6.55007 -2.40023 0
M  V30 50426 H 4754.57 -5.60738 -3.19754 0
M  V30 50427 H 4755.34 -7.6596 -2.88526 0
M  V30 50428 N 4758 1.0406 -1.18361 0
M  V30 50429 C 4759.23 1.80913 -1.0039 0
M  V30 50430 C 4759.65 1.83416 0.447674 0
M  V30 50431 O 4759 1.26966 1.31095 0
M  V30 50432 C 4759.05 3.26511 -1.55155 0
M  V30 50433 O 4758.78 3.2423 -2.9463 0
M  V30 50434 C 4760.28 4.20008 -1.41804 0
M  V30 50435 H 4757.5 0.569715 -0.354494 0
M  V30 50436 H 4760.04 1.31146 -1.56911 0
M  V30 50437 H 4758.2 3.73509 -1.02811 0
M  V30 50438 H 4758.61 4.1544 -3.20171 0
M  V30 50439 H 4760.08 5.20105 -1.8492 0
M  V30 50440 H 4760.56 4.37666 -0.366764 0
M  V30 50441 H 4761.17 3.78874 -1.93221 0
M  V30 50442 N 4759.48 0.985651 1.22974 0
M  V30 50443 C 4760.71 0.675651 1.95557 0
M  V30 50444 C 4761.12 -0.758352 1.729 0
M  V30 50445 O 4760.48 -1.5109 1.02362 0
M  V30 50446 C 4760.53 0.963053 3.48436 0
M  V30 50447 O 4760.25 2.3407 3.70328 0
M  V30 50448 C 4761.75 0.669739 4.38212 0
M  V30 50449 H 4758.97 0.250545 0.622469 0
M  V30 50450 H 4761.52 1.31846 1.56323 0
M  V30 50451 H 4759.67 0.366169 3.85666 0
M  V30 50452 H 4760.09 2.4344 4.64583 0
M  V30 50453 H 4761.56 0.921159 5.4426 0
M  V30 50454 H 4762.04 -0.39623 4.37409 0
M  V30 50455 H 4762.64 1.24734 4.06597 0
M  V30 50456 N 4760.96 -1.38177 0.757949 0
M  V30 50457 C 4761.91 -2.30416 0.133138 0
M  V30 50458 C 4762.88 -1.50401 -0.704904 0
M  V30 50459 O 4764.06 -1.79017 -0.660129 0
M  V30 50460 C 4761.2 -3.36836 -0.750695 0
M  V30 50461 C 4760.32 -4.31879 0.102449 0
M  V30 50462 C 4759.45 -5.25371 -0.784794 0
M  V30 50463 C 4758.49 -6.12058 0.0717198 0
M  V30 50464 N 4757.63 -6.97835 -0.772726 0
M  V30 50465 H 4762.47 -2.83271 0.925285 0
M  V30 50466 H 4760 -1.3946 0.467915 0
M  V30 50467 H 4761.96 -3.9715 -1.2778 0
M  V30 50468 H 4760.59 -2.8538 -1.50858 0
M  V30 50469 H 4759.64 -3.72989 0.747226 0
M  V30 50470 H 4760.96 -4.92919 0.763726 0
M  V30 50471 H 4760.11 -5.90822 -1.3789 0
M  V30 50472 H 4758.85 -4.64708 -1.47979 0
M  V30 50473 H 4757.85 -5.45598 0.678464 0
M  V30 50474 H 4759.08 -6.74791 0.763843 0
M  V30 50475 H 4757.02 -6.39715 -1.45259 0
M  V30 50476 H 4756.94 -7.55812 -0.168443 0
M  V30 50477 H 4758.21 -7.67691 -1.35167 0
M  V30 50478 N 4762.44 -0.507371 -1.4921 0
M  V30 50479 C 4763.66 0.0336521 -2.07373 0
M  V30 50480 C 4764.09 1.29481 -1.36442 0
M  V30 50481 O 4763.45 1.76293 -0.423149 0
M  V30 50482 C 4763.49 0.263818 -3.59634 0
M  V30 50483 O 4762.6 1.33724 -3.90118 0
M  V30 50484 H 4761.94 -0.0290564 -0.663364 0
M  V30 50485 H 4764.47 -0.708817 -1.9193 0
M  V30 50486 H 4764.48 0.493393 -4.05006 0
M  V30 50487 H 4763.15 -0.657568 -4.10669 0
M  V30 50488 H 4761.73 1.09211 -3.56549 0
M  V30 50489 N 4763.92 1.55739 -0.241481 0
M  V30 50490 C 4765.33 1.84843 0.26269 0
M  V30 50491 C 4765.68 1.16322 1.57999 0
M  V30 50492 O 4764.8 0.439727 2.11885 0
M  V30 50493 C 4765.4 3.35334 0.483405 0
M  V30 50494 C 4763.96 3.64683 0.931849 0
M  V30 50495 C 4763.1 2.77299 0.00601761 0
M  V30 50496 H 4766.06 1.5176 -0.464182 0
M  V30 50497 H 4766.08 3.56619 1.32675 0
M  V30 50498 H 4765.59 3.85176 -0.475505 0
M  V30 50499 H 4763.69 3.20314 1.90342 0
M  V30 50500 H 4763.8 4.72501 0.792462 0
M  V30 50501 H 4762.17 2.4941 0.516416 0
M  V30 50502 H 4762.95 3.29946 -0.948168 0
M  V30 50503 N 4765.39 -0.0316971 1.57568 0
M  V30 50504 C 4766.81 -0.387296 1.5483 0
M  V30 50505 C 4767.01 -1.76767 0.967249 0
M  V30 50506 O 4766.07 -2.45579 0.587149 0
M  V30 50507 C 4767.38 -0.291562 2.99283 0
M  V30 50508 C 4768.93 -0.368837 3.10819 0
M  V30 50509 C 4769.4 -0.30258 4.56999 0
M  V30 50510 N 4770.89 -0.361455 4.61788 0
M  V30 50511 C 4771.63 -0.333037 5.72432 0
M  V30 50512 N 4771.12 -0.257065 6.92323 0
M  V30 50513 N 4772.92 -0.382571 5.60797 0
M  V30 50514 H 4765.07 0.871677 1.93689 0
M  V30 50515 H 4767.33 0.331192 0.888266 0
M  V30 50516 H 4767.04 0.656915 3.45511 0
M  V30 50517 H 4766.91 -1.08625 3.61221 0
M  V30 50518 H 4769.3 -1.30775 2.64541 0
M  V30 50519 H 4769.38 0.455154 2.51718 0
M  V30 50520 H 4769.02 0.63265 5.03944 0
M  V30 50521 H 4768.95 -1.14464 5.14009 0
M  V30 50522 H 4771.44 -0.422791 3.75527 0
M  V30 50523 H 4771.76 -0.240408 7.72426 0
M  V30 50524 H 4770.1 -0.223152 6.94642 0
M  V30 50525 H 4773.29 -0.439896 4.66028 0
M  V30 50526 H 4773.47 -0.356956 6.47016 0
M  V30 50527 N 4766.87 -1.54642 -0.303919 0
M  V30 50528 C 4767.78 -1.88443 -1.39736 0
M  V30 50529 C 4768.8 -0.778294 -1.55623 0
M  V30 50530 O 4769.97 -1.07448 -1.70344 0
M  V30 50531 C 4767.04 -2.12222 -2.74158 0
M  V30 50532 C 4766.1 -3.35945 -2.67281 0
M  V30 50533 C 4765.33 -3.5858 -3.95292 0
M  V30 50534 O 4765.56 -2.84281 -4.9451 0
M  V30 50535 O 4764.49 -4.52092 -3.97362 0
M  V30 50536 H 4768.32 -2.81462 -1.14073 0
M  V30 50537 H 4765.9 -1.40795 -0.499719 0
M  V30 50538 H 4767.78 -2.2908 -3.53695 0
M  V30 50539 H 4766.46 -1.2239 -2.99671 0
M  V30 50540 H 4765.37 -3.24454 -1.86226 0
M  V30 50541 H 4766.7 -4.25898 -2.46721 0
M  V30 50542 N 4768.35 0.566968 -1.47048 0
M  V30 50543 C 4769.77 0.891928 -1.32351 0
M  V30 50544 C 4769.97 1.99152 -0.306686 0
M  V30 50545 O 4769.02 2.50884 0.285232 0
M  V30 50546 C 4770.34 1.29439 -2.71415 0
M  V30 50547 C 4771.88 1.40636 -2.79625 0
M  V30 50548 C 4772.36 1.84242 -4.19308 0
M  V30 50549 N 4773.85 1.91409 -4.21802 0
M  V30 50550 C 4774.58 2.26458 -5.26787 0
M  V30 50551 N 4774.08 2.60188 -6.42086 0
M  V30 50552 N 4775.87 2.27148 -5.1416 0
M  V30 50553 H 4768.02 -0.159148 -2.11803 0
M  V30 50554 H 4770.29 -0.00853085 -0.947962 0
M  V30 50555 H 4769.99 0.560326 -3.47208 0
M  V30 50556 H 4769.87 2.25262 -3.0255 0
M  V30 50557 H 4772.25 2.13126 -2.04111 0
M  V30 50558 H 4772.34 0.43025 -2.52156 0
M  V30 50559 H 4771.98 1.12326 -4.95323 0
M  V30 50560 H 4771.91 2.82839 -4.44195 0
M  V30 50561 H 4774.4 1.67768 -3.38618 0
M  V30 50562 H 4774.71 2.8593 -7.17958 0
M  V30 50563 H 4773.06 2.5779 -6.45422 0
M  V30 50564 H 4776.25 2.00229 -4.23114 0
M  V30 50565 H 4776.42 2.54133 -5.96088 0
M  V30 50566 N 4769.83 1.35017 0.812906 0
M  V30 50567 C 4770.79 1.27299 1.90598 0
M  V30 50568 C 4771.79 0.185873 1.59722 0
M  V30 50569 O 4772.98 0.439161 1.68573 0
M  V30 50570 C 4770.11 0.967791 3.26874 0
M  V30 50571 H 4771.31 2.24486 1.98862 0
M  V30 50572 H 4768.86 1.1945 1.00804 0
M  V30 50573 H 4769.59 -0.000481393 3.243 0
M  V30 50574 H 4769.38 1.75424 3.50669 0
M  V30 50575 H 4770.87 0.939228 4.06901 0
M  V30 50576 N 4771.31 -1.03431 1.18911 0
M  V30 50577 C 4772.56 -1.7614 0.98273 0
M  V30 50578 C 4772.87 -1.89418 -0.487886 0
M  V30 50579 O 4774.07 -2.59043 -0.812944 0
M  V30 50580 C 4772.53 -3.16716 1.70935 0
M  V30 50581 C 4772.14 -3.11511 3.2197 0
M  V30 50582 C 4773.88 -3.93759 1.58601 0
M  V30 50583 C 4771.79 -4.46985 3.87244 0
M  V30 50584 H 4770.72 -0.66028 0.36407 0
M  V30 50585 H 4773.37 -1.15795 1.42351 0
M  V30 50586 H 4771.75 -3.77496 1.19637 0
M  V30 50587 H 4772.93 -2.60145 3.80344 0
M  V30 50588 H 4771.24 -2.47966 3.34517 0
M  V30 50589 H 4773.84 -4.93956 2.04724 0
M  V30 50590 H 4774.18 -4.12792 0.539287 0
M  V30 50591 H 4774.71 -3.39569 2.07215 0
M  V30 50592 H 4771.45 -4.33157 4.91992 0
M  V30 50593 H 4770.97 -4.98429 3.33659 0
M  V30 50594 H 4772.65 -5.15884 3.90477 0
M  V30 50595 N 4772.78 -0.992159 -1.2245 0
M  V30 50596 C 4773.71 -0.561756 -2.26642 0
M  V30 50597 C 4774.7 0.410997 -1.6506 0
M  V30 50598 O 4775.88 0.301793 -1.91841 0
M  V30 50599 C 4773.01 0.125125 -3.47075 0
M  V30 50600 C 4771.96 -0.766096 -4.21088 0
M  V30 50601 C 4771.29 0.0536605 -5.34673 0
M  V30 50602 C 4772.59 -2.06259 -4.79849 0
M  V30 50603 H 4774.28 -1.43268 -2.62897 0
M  V30 50604 H 4771.83 -0.690328 -1.26374 0
M  V30 50605 H 4773.78 0.437616 -4.19122 0
M  V30 50606 H 4772.51 1.03058 -3.09914 0
M  V30 50607 H 4771.17 -1.06222 -3.50874 0
M  V30 50608 H 4770.81 0.960014 -4.93754 0
M  V30 50609 H 4770.51 -0.53962 -5.85117 0
M  V30 50610 H 4772.04 0.360263 -6.09536 0
M  V30 50611 H 4773.45 -1.8141 -5.43841 0
M  V30 50612 H 4771.85 -2.60463 -5.40628 0
M  V30 50613 H 4772.92 -2.74181 -3.99941 0
M  V30 50614 N 4774.26 1.37773 -0.765266 0
M  V30 50615 C 4775.51 1.99453 -0.326013 0
M  V30 50616 C 4775.83 1.61053 1.09941 0
M  V30 50617 O 4775.1 0.872882 1.75378 0
M  V30 50618 H 4773.68 0.737693 -0.117551 0
M  V30 50619 H 4776.34 1.68356 -0.981954 0
M  V30 50620 H 4775.44 3.09546 -0.398462 0
M  V30 50621 N 4775.74 0.515277 1.48938 0
M  V30 50622 C 4776.67 -0.244546 2.32216 0
M  V30 50623 C 4777.65 -0.949087 1.41161 0
M  V30 50624 O 4778.84 -0.937723 1.7006 0
M  V30 50625 C 4775.97 -1.30085 3.22017 0
M  V30 50626 C 4774.92 -0.715338 4.2198 0
M  V30 50627 C 4774.25 -1.87321 5.00814 0
M  V30 50628 C 4775.55 0.303165 5.21419 0
M  V30 50629 H 4777.24 0.450605 2.9599 0
M  V30 50630 H 4774.79 0.218148 1.42338 0
M  V30 50631 H 4776.74 -1.84024 3.79095 0
M  V30 50632 H 4775.46 -2.02538 2.56214 0
M  V30 50633 H 4774.12 -0.197586 3.66067 0
M  V30 50634 H 4773.77 -2.58577 4.31447 0
M  V30 50635 H 4773.47 -1.48744 5.68462 0
M  V30 50636 H 4775 -2.41667 5.6074 0
M  V30 50637 H 4776.41 -0.148601 5.73107 0
M  V30 50638 H 4774.81 0.60553 5.97037 0
M  V30 50639 H 4775.88 1.21411 4.69454 0
M  V30 50640 N 4777.22 -1.55609 0.249737 0
M  V30 50641 C 4778.63 -1.84979 -0.252884 0
M  V30 50642 C 4778.98 -1.17159 -1.57379 0
M  V30 50643 O 4778.11 -0.450958 -2.11649 0
M  V30 50644 C 4778.7 -3.35585 -0.465614 0
M  V30 50645 C 4777.26 -3.65172 -0.912496 0
M  V30 50646 C 4776.41 -2.77299 0.00868833 0
M  V30 50647 H 4779.36 -1.51512 0.472224 0
M  V30 50648 H 4779.38 -3.57318 -1.30782 0
M  V30 50649 H 4778.89 -3.84918 0.495925 0
M  V30 50650 H 4776.99 -3.21319 -1.8864 0
M  V30 50651 H 4777.11 -4.72914 -0.767393 0
M  V30 50652 H 4775.47 -2.4968 -0.503182 0
M  V30 50653 H 4776.25 -3.29439 0.965652 0
M  V30 50654 N 4778.7 0.0233405 -1.57583 0
M  V30 50655 C 4779.65 1.04056 -2.08027 0
M  V30 50656 C 4780.64 1.37081 -0.995252 0
M  V30 50657 O 4781.85 1.35918 -1.18009 0
M  V30 50658 H 4778.22 0.353121 -0.663935 0
M  V30 50659 H 4780.19 0.58935 -2.92522 0
M  V30 50660 C 4778.94 2.33114 -2.57979 0
M  V30 50661 H 4778.26 2.08565 -3.41088 0
M  V30 50662 H 4779.7 3.02622 -2.96978 0
M  V30 50663 C 4778.16 3.02478 -1.48353 0
M  V30 50664 O 4778.69 3.92538 -0.853036 0
M  V30 50665 N 4776.9 2.63904 -1.21667 0
M  V30 50666 H 4776.45 1.90752 -1.73122 0
M  V30 50667 H 4776.4 3.10632 -0.485327 0
M  V30 50668 N 4780.18 1.54801 0.295713 0
M  V30 50669 C 4781.4 1.78657 1.0534 0
M  V30 50670 C 4781.83 0.546958 1.79972 0
M  V30 50671 O 4781.18 -0.502701 1.74191 0
M  V30 50672 C 4781.23 2.99687 2.0055 0
M  V30 50673 O 4780.34 2.73181 3.08943 0
M  V30 50674 H 4779.68 0.591171 0.302346 0
M  V30 50675 H 4782.21 2.01896 0.331527 0
M  V30 50676 H 4782.22 3.27801 2.4292 0
M  V30 50677 H 4780.89 3.89568 1.45636 0
M  V30 50678 H 4779.47 2.56098 2.7105 0
M  V30 50679 N 4781.65 -0.559161 1.47347 0
M  V30 50680 C 4782.9 -1.31837 1.541 0
M  V30 50681 C 4783.23 -1.93149 0.201794 0
M  V30 50682 O 4782.51 -1.77762 -0.789365 0
M  V30 50683 C 4782.79 -2.42997 2.65753 0
M  V30 50684 C 4782.64 -1.86567 4.09283 0
M  V30 50685 C 4783.96 -3.44933 2.7333 0
M  V30 50686 H 4781.08 -0.477993 0.560974 0
M  V30 50687 H 4783.72 -0.625913 1.79394 0
M  V30 50688 H 4781.87 -3.02063 2.44316 0
M  V30 50689 H 4783.55 -1.31776 4.42078 0
M  V30 50690 H 4781.79 -1.17253 4.17653 0
M  V30 50691 H 4782.46 -2.66916 4.83177 0
M  V30 50692 H 4784.94 -2.95782 2.92664 0
M  V30 50693 H 4783.81 -4.2014 3.53232 0
M  V30 50694 H 4784.07 -4.03659 1.80311 0
M  V30 50695 N 4783.13 -1.35446 -0.805734 0
M  V30 50696 C 4784.04 -1.30552 -1.94918 0
M  V30 50697 C 4785.06 -0.210294 -1.72725 0
M  V30 50698 O 4786.23 -0.439819 -1.96539 0
M  V30 50699 C 4783.3 -1.07794 -3.29517 0
M  V30 50700 C 4782.36 -2.26638 -3.64601 0
M  V30 50701 C 4781.59 -2.04956 -4.92777 0
M  V30 50702 O 4781.82 -1.01644 -5.61271 0
M  V30 50703 O 4780.75 -2.92338 -5.26139 0
M  V30 50704 H 4784.58 -2.26786 -2.01994 0
M  V30 50705 H 4782.16 -1.15827 -0.943641 0
M  V30 50706 H 4784.04 -0.969536 -4.10095 0
M  V30 50707 H 4782.72 -0.146117 -3.2337 0
M  V30 50708 H 4781.62 -2.43043 -2.84396 0
M  V30 50709 H 4782.96 -3.1827 -3.75453 0
M  V30 50710 N 4784.61 1.02799 -1.19458 0
M  V30 50711 C 4785.52 2.14572 -0.948483 0
M  V30 50712 C 4786.54 1.73758 0.0918099 0
M  V30 50713 O 4787.71 2.01185 -0.0930361 0
M  V30 50714 C 4784.78 3.432 -0.491386 0
M  V30 50715 C 4783.84 3.98323 -1.60117 0
M  V30 50716 C 4783.07 5.20812 -1.16579 0
M  V30 50717 O 4783.29 5.70392 -0.0297243 0
M  V30 50718 O 4782.23 5.68794 -1.96869 0
M  V30 50719 H 4786.05 2.38195 -1.88406 0
M  V30 50720 H 4783.64 1.12986 -0.977473 0
M  V30 50721 H 4785.52 4.20686 -0.245163 0
M  V30 50722 H 4784.2 3.21019 0.415738 0
M  V30 50723 H 4783.1 3.22167 -1.90156 0
M  V30 50724 H 4784.44 4.2487 -2.48488 0
M  V30 50725 N 4786.09 0.998639 1.21922 0
M  V30 50726 C 4787.02 0.498596 2.22686 0
M  V30 50727 C 4788 -0.444246 1.56414 0
M  V30 50728 O 4789.18 -0.368453 1.84864 0
M  V30 50729 C 4786.31 -0.27652 3.37569 0
M  V30 50730 C 4785.36 0.613169 4.22069 0
M  V30 50731 S 4786.19 2.07185 4.93796 0
M  V30 50732 C 4787.34 1.30639 6.12115 0
M  V30 50733 H 4787.58 1.35244 2.64757 0
M  V30 50734 H 4785.11 0.806065 1.31689 0
M  V30 50735 H 4787.07 -0.717675 4.04178 0
M  V30 50736 H 4785.73 -1.10571 2.93995 0
M  V30 50737 H 4784.92 0.0164681 5.03997 0
M  V30 50738 H 4784.52 0.991329 3.60623 0
M  V30 50739 H 4786.82 0.576987 6.75039 0
M  V30 50740 H 4787.76 2.10115 6.76208 0
M  V30 50741 H 4788.17 0.817154 5.58554 0
M  V30 50742 N 4787.57 -1.37365 0.772562 0
M  V30 50743 C 4788.81 -2.01511 0.342431 0
M  V30 50744 C 4789.17 -1.60001 -1.0613 0
M  V30 50745 O 4790.37 -2.16614 -1.59159 0
M  V30 50746 C 4788.64 -3.54133 0.482173 0
M  V30 50747 S 4790.2 -4.38585 0.137426 0
M  V30 50748 H 4787.02 -0.698694 0.131711 0
M  V30 50749 H 4789.62 -1.67549 1.00735 0
M  V30 50750 H 4788.32 -3.81832 1.50442 0
M  V30 50751 H 4787.86 -3.92895 -0.199275 0
M  V30 50752 H 4789.87 -4.84598 -1.06675 0
M  V30 50753 N 4789.04 -0.523168 -1.48663 0
M  V30 50754 C 4790.45 -0.0809653 -1.86524 0
M  V30 50755 C 4790.81 1.3397 -1.43341 0
M  V30 50756 O 4789.93 2.00218 -0.821079 0
M  V30 50757 C 4790.53 -0.140156 -3.3851 0
M  V30 50758 C 4789.08 0.246816 -3.7559 0
M  V30 50759 C 4788.23 -0.502941 -2.72701 0
M  V30 50760 H 4791.18 -0.734786 -1.40665 0
M  V30 50761 H 4791.2 0.649813 -3.7491 0
M  V30 50762 H 4790.72 -1.17425 -3.6991 0
M  V30 50763 H 4788.82 1.28331 -3.49803 0
M  V30 50764 H 4788.93 -0.0880543 -4.79019 0
M  V30 50765 H 4787.29 0.0499686 -2.54651 0
M  V30 50766 H 4788.08 -1.53753 -3.06944 0
M  V30 50767 N 4790.52 1.55474 -0.257986 0
M  V30 50768 C 4791.8 1.91156 0.414562 0
M  V30 50769 C 4792.18 1.18014 1.75031 0
M  V30 50770 O 4791.53 0.301272 2.26505 0
M  V30 50771 C 4791.74 3.44285 0.571738 0
M  V30 50772 C 4793.09 4.15747 0.862532 0
M  V30 50773 O 4794.11 3.50085 0.657191 0
M  V30 50774 O 4792.97 5.31913 1.25422 0
M  V30 50775 H 4790.06 0.796024 0.224222 0
M  V30 50776 H 4792.61 1.66975 -0.302872 0
M  V30 50777 H 4791.38 3.89556 -0.368981 0
M  V30 50778 H 4791 3.74364 1.33929 0
M  V30 50779 N 4792 -0.0149831 1.57593 0
M  V30 50780 C 4793.25 -0.702049 1.89088 0
M  V30 50781 C 4793.56 -1.75761 0.858339 0
M  V30 50782 O 4794.77 -2.49825 1.06299 0
M  V30 50783 C 4793.22 -1.2998 3.35609 0
M  V30 50784 C 4792.83 -0.27985 4.47125 0
M  V30 50785 C 4794.58 -1.96593 3.76233 0
M  V30 50786 C 4792.48 -0.886743 5.84714 0
M  V30 50787 H 4791.41 -0.265973 0.705531 0
M  V30 50788 H 4794.06 0.0431053 1.83449 0
M  V30 50789 H 4792.45 -2.09513 3.36036 0
M  V30 50790 H 4793.62 0.489792 4.5819 0
M  V30 50791 H 4791.94 0.284981 4.15424 0
M  V30 50792 H 4794.53 -2.42877 4.76356 0
M  V30 50793 H 4794.88 -2.79013 3.08962 0
M  V30 50794 H 4795.41 -1.23815 3.78041 0
M  V30 50795 H 4792.15 -0.101646 6.55421 0
M  V30 50796 H 4791.67 -1.62589 5.77343 0
M  V30 50797 H 4793.35 -1.38988 6.31895 0
M  V30 50798 N 4793.48 -1.54955 -0.2875 0
M  V30 50799 C 4794.89 -1.65735 -0.859575 0
M  V30 50800 C 4795.24 -0.574833 -1.8759 0
M  V30 50801 O 4794.37 0.286223 -2.14499 0
M  V30 50802 C 4794.96 -3.00443 -1.56586 0
M  V30 50803 C 4793.52 -3.13299 -2.08616 0
M  V30 50804 C 4792.67 -2.61477 -0.923324 0
M  V30 50805 H 4795.62 -1.5857 -0.064178 0
M  V30 50806 H 4795.64 -2.92622 -2.43214 0
M  V30 50807 H 4795.15 -3.7921 -0.825919 0
M  V30 50808 H 4793.25 -2.39278 -2.85616 0
M  V30 50809 H 4793.36 -4.19655 -2.31142 0
M  V30 50810 H 4791.73 -2.18268 -1.31267 0
M  V30 50811 H 4792.51 -3.42734 -0.19712 0
M  V30 50812 N 4794.96 0.551339 -1.47641 0
M  V30 50813 C 4796.2 1.31018 -1.54797 0
M  V30 50814 C 4796.54 1.93039 -0.212035 0
M  V30 50815 O 4795.81 1.78178 0.779927 0
M  V30 50816 C 4796.09 2.41584 -2.67038 0
M  V30 50817 C 4795.95 1.84394 -4.10267 0
M  V30 50818 C 4797.27 3.43479 -2.75155 0
M  V30 50819 H 4794.38 0.475011 -0.563501 0
M  V30 50820 H 4797.03 0.616391 -1.79724 0
M  V30 50821 H 4795.18 3.00763 -2.45914 0
M  V30 50822 H 4796.85 1.2943 -4.4277 0
M  V30 50823 H 4795.09 1.15037 -4.18269 0
M  V30 50824 H 4795.76 2.6435 -4.84586 0
M  V30 50825 H 4798.24 2.94226 -2.94228 0
M  V30 50826 H 4797.11 4.18261 -3.55456 0
M  V30 50827 H 4797.38 4.02697 -1.82449 0
M  V30 50828 N 4796.43 1.35872 0.79854 0
M  V30 50829 C 4797.36 1.32125 1.92523 0
M  V30 50830 C 4798.35 0.194268 1.68987 0
M  V30 50831 O 4799.53 0.390493 1.90234 0
M  V30 50832 C 4796.66 1.10059 3.294 0
M  V30 50833 C 4795.61 2.19484 3.67438 0
M  V30 50834 C 4794.94 1.82573 5.02565 0
M  V30 50835 C 4796.24 3.61508 3.76974 0
M  V30 50836 H 4797.93 2.26401 1.95916 0
M  V30 50837 H 4795.48 1.08984 0.941192 0
M  V30 50838 H 4797.43 1.06075 4.07831 0
M  V30 50839 H 4796.16 0.12231 3.26371 0
M  V30 50840 H 4794.82 2.22578 2.91298 0
M  V30 50841 H 4794.46 0.833423 4.96047 0
M  V30 50842 H 4794.16 2.55828 5.28986 0
M  V30 50843 H 4795.69 1.80129 5.83426 0
M  V30 50844 H 4797.1 3.60691 4.45617 0
M  V30 50845 H 4795.5 4.33592 4.14871 0
M  V30 50846 H 4796.57 3.97075 2.78315 0
M  V30 50847 N 4797.91 -1.02164 1.20001 0
M  V30 50848 C 4798.82 -2.14066 0.959849 0
M  V30 50849 C 4799.84 -1.73804 -0.0825939 0
M  V30 50850 O 4801.01 -2.01133 0.103704 0
M  V30 50851 C 4798.08 -3.42935 0.50958 0
M  V30 50852 C 4797.14 -3.97468 1.62227 0
M  V30 50853 C 4796.37 -5.20186 1.19339 0
M  V30 50854 O 4796.6 -5.70368 0.0599732 0
M  V30 50855 O 4795.53 -5.67742 1.99883 0
M  V30 50856 H 4799.36 -2.37193 1.89666 0
M  V30 50857 H 4796.94 -1.12466 0.983451 0
M  V30 50858 H 4798.82 -4.2055 0.26747 0
M  V30 50859 H 4797.5 -3.21235 -0.398708 0
M  V30 50860 H 4796.41 -3.21154 1.91861 0
M  V30 50861 H 4797.74 -4.23546 2.50738 0
M  V30 50862 N 4799.39 -1.00509 -1.21391 0
M  V30 50863 C 4800.81 -0.717923 -1.42541 0
M  V30 50864 C 4801.01 0.70687 -1.88694 0
M  V30 50865 O 4800.06 1.4762 -2.04852 0
M  V30 50866 C 4801.38 -1.73386 -2.45678 0
M  V30 50867 C 4802.92 -1.75069 -2.59461 0
M  V30 50868 C 4803.4 -2.75558 -3.6583 0
M  V30 50869 N 4804.89 -2.74227 -3.73302 0
M  V30 50870 C 4805.62 -3.48642 -4.55232 0
M  V30 50871 N 4805.12 -4.32697 -5.4106 0
M  V30 50872 N 4806.91 -3.37291 -4.49657 0
M  V30 50873 H 4799.06 -1.92509 -0.897436 0
M  V30 50874 H 4801.33 -0.830935 -0.456346 0
M  V30 50875 H 4801.03 -2.75402 -2.18738 0
M  V30 50876 H 4800.91 -1.53659 -3.44483 0
M  V30 50877 H 4803.29 -0.737437 -2.85737 0
M  V30 50878 H 4803.38 -1.98867 -1.6089 0
M  V30 50879 H 4803.02 -3.77039 -3.40299 0
M  V30 50880 H 4802.95 -2.49025 -4.63998 0
M  V30 50881 H 4805.44 -2.13244 -3.11986 0
M  V30 50882 H 4805.75 -4.86274 -6.00631 0
M  V30 50883 H 4804.1 -4.36779 -5.40601 0
M  V30 50884 H 4807.29 -2.71056 -3.81636 0
M  V30 50885 H 4807.46 -3.95542 -5.13274 0
M  V30 50886 N 4800.87 1.36954 -0.779835 0
M  V30 50887 C 4801.8 2.3276 -0.185733 0
M  V30 50888 C 4802.78 1.5618 0.673934 0
M  V30 50889 O 4803.96 1.8438 0.609732 0
M  V30 50890 C 4801.09 3.4042 0.687844 0
M  V30 50891 C 4800.05 4.27941 -0.0711606 0
M  V30 50892 C 4799.37 5.26684 0.922388 0
M  V30 50893 C 4800.67 5.07002 -1.25484 0
M  V30 50894 H 4802.37 2.82695 -0.986108 0
M  V30 50895 H 4799.91 1.35918 -0.47564 0
M  V30 50896 H 4801.87 4.06427 1.11333 0
M  V30 50897 H 4800.59 2.8903 1.52082 0
M  V30 50898 H 4799.25 3.63477 -0.477518 0
M  V30 50899 H 4798.9 4.71571 1.75014 0
M  V30 50900 H 4798.6 5.86104 0.419031 0
M  V30 50901 H 4800.12 5.95565 1.34665 0
M  V30 50902 H 4801.54 5.66102 -0.9056 0
M  V30 50903 H 4799.93 5.75787 -1.69084 0
M  V30 50904 H 4801 4.39203 -2.05496 0
M  V30 50905 N 4802.35 0.531045 1.48384 0
M  V30 50906 C 4803.28 -0.278431 2.26495 0
M  V30 50907 C 4804.26 -0.943859 1.32401 0
M  V30 50908 O 4805.44 -0.968041 1.61744 0
M  V30 50909 C 4802.57 -1.39442 3.08664 0
M  V30 50910 C 4801.61 -0.840287 4.1814 0
M  V30 50911 S 4802.45 0.292684 5.347 0
M  V30 50912 C 4803.6 -0.825755 6.20429 0
M  V30 50913 H 4803.84 0.384469 2.94804 0
M  V30 50914 H 4801.37 0.316852 1.51114 0
M  V30 50915 H 4803.33 -2.03369 3.56583 0
M  V30 50916 H 4801.99 -2.02905 2.39768 0
M  V30 50917 H 4801.18 -1.67753 4.75263 0
M  V30 50918 H 4800.78 -0.277688 3.72968 0
M  V30 50919 H 4803.08 -1.72415 6.55194 0
M  V30 50920 H 4804.02 -0.29248 7.07496 0
M  V30 50921 H 4804.43 -1.10664 5.53547 0
M  V30 50922 N 4803.82 -1.55335 0.266227 0
M  V30 50923 C 4804.79 -2.2088 -0.611923 0
M  V30 50924 C 4805.79 -1.18392 -1.08812 0
M  V30 50925 O 4806.98 -1.43353 -0.989723 0
M  V30 50926 C 4804.11 -2.86772 -1.84322 0
M  V30 50927 H 4805.3 -2.99874 -0.0397664 0
M  V30 50928 H 4802.86 -1.56291 0.0167859 0
M  V30 50929 H 4803.59 -2.11767 -2.45612 0
M  V30 50930 H 4803.38 -3.61868 -1.50977 0
M  V30 50931 H 4804.87 -3.36875 -2.46789 0
M  V30 50932 N 4805.3 0.0066254 -1.57599 0
M  V30 50933 C 4806.58 0.729522 -1.81486 0
M  V30 50934 C 4806.96 1.92356 -0.869625 0
M  V30 50935 O 4806.31 2.28349 0.083173 0
M  V30 50936 C 4806.52 1.14148 -3.29805 0
M  V30 50937 C 4807.87 1.54809 -3.95372 0
M  V30 50938 O 4808.89 1.23546 -3.34088 0
M  V30 50939 O 4807.75 2.1292 -5.03316 0
M  V30 50940 H 4804.84 0.354647 -0.747097 0
M  V30 50941 H 4807.39 -0.0183206 -1.6969 0
M  V30 50942 H 4806.16 0.290094 -3.90223 0
M  V30 50943 H 4805.78 1.94864 -3.46575 0
M  V30 50944 N 4806.78 1.55106 0.279278 0
M  V30 50945 C 4808.03 1.74622 1.00946 0
M  V30 50946 C 4808.34 0.551162 1.87674 0
M  V30 50947 O 4809.55 0.6286 2.64123 0
M  V30 50948 C 4808.01 3.09032 1.84465 0
M  V30 50949 C 4807.61 4.36085 1.02634 0
M  V30 50950 C 4809.36 3.379 2.56952 0
M  V30 50951 C 4807.26 5.61536 1.85556 0
M  V30 50952 H 4806.19 0.650881 0.380617 0
M  V30 50953 H 4808.85 1.8157 0.265412 0
M  V30 50954 H 4807.23 2.96104 2.62942 0
M  V30 50955 H 4808.4 4.5991 0.286192 0
M  V30 50956 H 4806.72 4.14314 0.416318 0
M  V30 50957 H 4809.31 4.28833 3.19384 0
M  V30 50958 H 4809.66 2.57749 3.26912 0
M  V30 50959 H 4810.19 3.51896 1.8551 0
M  V30 50960 H 4806.93 6.44417 1.20028 0
M  V30 50961 H 4806.45 5.41863 2.57185 0
M  V30 50962 H 4808.13 5.99603 2.43075 0
M  V30 50963 N 4808.26 -0.543502 1.47932 0
M  V30 50964 C 4809.51 -1.29746 1.54953 0
M  V30 50965 C 4809.83 -1.93763 0.21931 0
M  V30 50966 O 4809.1 -1.80642 -0.757987 0
M  V30 50967 H 4807.68 -0.481854 0.570812 0
M  V30 50968 H 4810.34 -0.633572 1.84315 0
M  V30 50969 H 4809.44 -2.08384 2.32342 0
M  V30 50970 N 4809.74 -1.36293 -0.791323 0
M  V30 50971 C 4810.99 -1.3016 -1.54606 0
M  V30 50972 C 4811.31 0.119341 -1.94634 0
M  V30 50973 O 4810.58 1.05918 -1.64797 0
M  V30 50974 H 4809.16 -0.478805 -0.573372 0
M  V30 50975 H 4811.82 -1.70568 -0.943 0
M  V30 50976 H 4810.91 -1.92771 -2.4545 0
M  V30 50977 N 4811.22 1.01526 -1.20541 0
M  V30 50978 C 4812.15 2.11968 -0.97937 0
M  V30 50979 C 4813.13 1.6985 0.092119 0
M  V30 50980 O 4814.31 1.94089 -0.0656614 0
M  V30 50981 C 4811.44 3.432 -0.532105 0
M  V30 50982 C 4810.4 3.99064 -1.54699 0
M  V30 50983 C 4809.72 5.26079 -0.956312 0
M  V30 50984 C 4811.02 4.32302 -2.93107 0
M  V30 50985 H 4812.72 2.31136 -1.90306 0
M  V30 50986 H 4810.26 1.11076 -0.916411 0
M  V30 50987 H 4812.21 4.19849 -0.361192 0
M  V30 50988 H 4810.94 3.23794 0.427214 0
M  V30 50989 H 4809.6 3.24524 -1.70528 0
M  V30 50990 H 4809.25 5.02999 0.010977 0
M  V30 50991 H 4808.95 5.6442 -1.63413 0
M  V30 50992 H 4810.47 6.05383 -0.796496 0
M  V30 50993 H 4811.88 4.99835 -2.80781 0
M  V30 50994 H 4810.28 4.81761 -3.57808 0
M  V30 50995 H 4811.35 3.41013 -3.44729 0
M  V30 50996 N 4812.69 1.01151 1.20856 0
M  V30 50997 C 4813.66 0.582302 2.2168 0
M  V30 50998 C 4814.66 -0.344831 1.57059 0
M  V30 50999 O 4815.85 -0.13422 1.73682 0
M  V30 51000 C 4812.98 -0.150377 3.40568 0
M  V30 51001 H 4814.17 1.47417 2.61167 0
M  V30 51002 H 4811.72 0.800743 1.3423 0
M  V30 51003 H 4812.46 -1.05739 3.06577 0
M  V30 51004 H 4812.24 0.515581 3.88695 0
M  V30 51005 H 4813.73 -0.438198 4.15295 0
M  V30 51006 N 4814.17 -1.36538 0.787088 0
M  V30 51007 C 4815.08 -2.3387 0.184978 0
M  V30 51008 C 4816.1 -1.6093 -0.66164 0
M  V30 51009 O 4817.27 -1.92929 -0.577972 0
M  V30 51010 C 4814.34 -3.40125 -0.672025 0
M  V30 51011 C 4813.4 -4.28867 0.192821 0
M  V30 51012 C 4812.63 -5.30047 -0.623375 0
M  V30 51013 O 4812.86 -5.39239 -1.85951 0
M  V30 51014 O 4811.79 -6.01895 -0.0244952 0
M  V30 51015 H 4815.62 -2.87123 0.989663 0
M  V30 51016 H 4813.2 -1.38967 0.548504 0
M  V30 51017 H 4815.08 -4.05097 -1.16079 0
M  V30 51018 H 4813.76 -2.89175 -1.45464 0
M  V30 51019 H 4812.66 -3.66942 0.728295 0
M  V30 51020 H 4814 -4.83162 0.938892 0
M  V30 51021 N 4815.65 -0.538906 -1.481 0
M  V30 51022 C 4816.87 -0.0103423 -2.07397 0
M  V30 51023 C 4817.3 1.26557 -1.39158 0
M  V30 51024 O 4816.66 1.75356 -0.460448 0
M  V30 51025 C 4816.71 0.187476 -3.60112 0
M  V30 51026 O 4815.81 1.25419 -3.92866 0
M  V30 51027 H 4815.15 -0.0431208 -0.662598 0
M  V30 51028 H 4817.68 -0.749368 -1.90383 0
M  V30 51029 H 4817.69 0.407374 -4.05961 0
M  V30 51030 H 4816.37 -0.744529 -4.09182 0
M  V30 51031 H 4814.94 1.01623 -3.58786 0
M  V30 51032 N 4817.13 1.55192 -0.274461 0
M  V30 51033 C 4818.38 1.99188 0.341832 0
M  V30 51034 C 4818.7 1.16428 1.56427 0
M  V30 51035 O 4817.97 0.253641 1.94251 0
M  V30 51036 H 4816.55 0.735726 0.129291 0
M  V30 51037 H 4819.21 1.91167 -0.379645 0
M  V30 51038 H 4818.3 3.05631 0.632146 0
M  V30 51039 N 4818.61 0.00173253 1.576 0
M  V30 51040 C 4819.57 -0.973973 2.07476 0
M  V30 51041 C 4820.57 -1.2714 0.984488 0
M  V30 51042 O 4821.76 -1.21629 1.24708 0
M  V30 51043 C 4818.89 -2.2984 2.51767 0
M  V30 51044 H 4820.08 -0.542517 2.94952 0
M  V30 51045 H 4817.64 -0.245774 1.54356 0
M  V30 51046 H 4818.37 -2.77671 1.67539 0
M  V30 51047 H 4818.16 -2.09572 3.31394 0
M  V30 51048 H 4819.65 -2.9983 2.90675 0
M  V30 51049 N 4820.08 -1.55252 -0.271048 0
M  V30 51050 C 4821.5 -1.47135 -0.618341 0
M  V30 51051 C 4821.7 -0.687061 -1.89425 0
M  V30 51052 O 4820.76 -0.206697 -2.51653 0
M  V30 51053 C 4822.07 -2.91364 -0.74349 0
M  V30 51054 C 4823.62 -3.0159 -0.837416 0
M  V30 51055 C 4824.09 -4.47076 -0.994326 0
M  V30 51056 N 4825.58 -4.50913 -1.0598 0
M  V30 51057 C 4826.32 -5.60702 -1.20004 0
M  V30 51058 N 4825.81 -6.80353 -1.30736 0
M  V30 51059 N 4827.61 -5.48448 -1.2313 0
M  V30 51060 H 4819.76 -2.04696 0.566856 0
M  V30 51061 H 4822.02 -0.928312 0.192198 0
M  V30 51062 H 4821.73 -3.51483 0.123617 0
M  V30 51063 H 4821.6 -3.4049 -1.62316 0
M  V30 51064 H 4823.99 -2.41566 -1.69499 0
M  V30 51065 H 4824.07 -2.55713 0.0668985 0
M  V30 51066 H 4823.71 -5.07703 -0.141403 0
M  V30 51067 H 4823.64 -4.90612 -1.91332 0
M  V30 51068 H 4826.13 -3.64724 -0.989187 0
M  V30 51069 H 4826.45 -7.59777 -1.41276 0
M  V30 51070 H 4824.79 -6.83161 -1.27737 0
M  V30 51071 H 4827.98 -4.53911 -1.14378 0
M  V30 51072 H 4828.16 -6.34054 -1.33716 0
M  V30 51073 N 4821.56 0.535649 -1.48218 0
M  V30 51074 C 4822.79 1.31475 -1.59367 0
M  V30 51075 C 4823.2 1.87529 -0.25091 0
M  V30 51076 O 4822.54 1.66824 0.769116 0
M  V30 51077 C 4822.61 2.50722 -2.57641 0
M  V30 51078 C 4822.27 2.15797 -4.02841 0
M  V30 51079 C 4823.27 1.71805 -4.90693 0
M  V30 51080 C 4820.95 2.26494 -4.48337 0
M  V30 51081 C 4822.95 1.38968 -6.22067 0
M  V30 51082 C 4820.63 1.93269 -5.79733 0
M  V30 51083 C 4821.63 1.49576 -6.6642 0
M  V30 51084 O 4821.32 1.16784 -7.95372 0
M  V30 51085 H 4821.05 0.406296 -0.540278 0
M  V30 51086 H 4823.6 0.653501 -1.94727 0
M  V30 51087 H 4821.83 3.19809 -2.17391 0
M  V30 51088 H 4823.52 3.12788 -2.58686 0
M  V30 51089 H 4824.29 1.63015 -4.56783 0
M  V30 51090 H 4820.17 2.59458 -3.81055 0
M  V30 51091 H 4823.71 1.04792 -6.89684 0
M  V30 51092 H 4819.61 2.01697 -6.13179 0
M  V30 51093 H 4820.38 1.30231 -8.08073 0
M  V30 51094 N 4823.04 1.36711 0.784084 0
M  V30 51095 C 4824.27 1.34403 1.573 0
M  V30 51096 C 4824.68 -0.0734914 1.88657 0
M  V30 51097 O 4824.04 -1.03188 1.50527 0
M  V30 51098 C 4824.09 2.17063 2.89078 0
M  V30 51099 O 4823.81 3.5329 2.5907 0
M  V30 51100 C 4825.31 2.22596 3.83361 0
M  V30 51101 H 4822.53 0.460837 0.48772 0
M  V30 51102 H 4825.08 1.79882 0.972756 0
M  V30 51103 H 4823.23 1.75125 3.45558 0
M  V30 51104 H 4823.65 3.96482 3.43369 0
M  V30 51105 H 4825.12 2.8478 4.72868 0
M  V30 51106 H 4825.6 1.2309 4.21599 0
M  V30 51107 H 4826.2 2.64793 3.32813 0
M  V30 51108 N 4824.52 -1.00885 1.21078 0
M  V30 51109 C 4825.43 -2.13035 0.9825 0
M  V30 51110 C 4826.44 -1.73882 -0.064155 0
M  V30 51111 O 4827.62 -2.01012 0.125031 0
M  V30 51112 C 4824.69 -3.42375 0.545924 0
M  V30 51113 C 4823.75 -3.95725 1.66434 0
M  V30 51114 C 4822.98 -5.18891 1.2485 0
M  V30 51115 O 4823.2 -5.70273 0.120465 0
M  V30 51116 O 4822.14 -5.6559 2.05893 0
M  V30 51117 H 4825.96 -2.35168 1.92171 0
M  V30 51118 H 4823.55 -1.11417 0.995324 0
M  V30 51119 H 4825.43 -4.20243 0.31206 0
M  V30 51120 H 4824.1 -3.2164 -0.364614 0
M  V30 51121 H 4823.01 -3.19101 1.95257 0
M  V30 51122 H 4824.34 -4.20863 2.55216 0
M  V30 51123 N 4826 -1.01791 -1.20318 0
M  V30 51124 C 4826.93 -0.53396 -2.21865 0
M  V30 51125 C 4827.91 0.419306 -1.57101 0
M  V30 51126 O 4829.09 0.338996 -1.85427 0
M  V30 51127 C 4826.22 0.222781 -3.37967 0
M  V30 51128 C 4825.26 -0.680239 -4.2104 0
M  V30 51129 S 4826.1 -2.15015 -4.90438 0
M  V30 51130 C 4827.25 -1.4036 -6.09959 0
M  V30 51131 H 4827.49 -1.39439 -2.62572 0
M  V30 51132 H 4825.02 -0.826913 -1.3039 0
M  V30 51133 H 4826.98 0.653283 -4.05268 0
M  V30 51134 H 4825.64 1.0588 -2.95717 0
M  V30 51135 H 4824.83 -0.0966476 -5.03907 0
M  V30 51136 H 4824.43 -1.04858 -3.59 0
M  V30 51137 H 4826.73 -0.684307 -6.74035 0
M  V30 51138 H 4827.67 -2.20846 -6.7278 0
M  V30 51139 H 4828.08 -0.905912 -5.57184 0
M  V30 51140 N 4827.47 1.36119 -0.794317 0
M  V30 51141 C 4828.89 1.81645 -0.43151 0
M  V30 51142 C 4829.24 1.66047 1.04512 0
M  V30 51143 O 4828.36 1.18417 1.81125 0
M  V30 51144 C 4828.96 3.29783 -0.776457 0
M  V30 51145 C 4827.52 3.73499 -0.466413 0
M  V30 51146 C 4826.66 2.5831 -1.00853 0
M  V30 51147 H 4829.61 1.24271 -0.987039 0
M  V30 51148 H 4829.63 3.80437 -0.069375 0
M  V30 51149 H 4829.15 3.41103 -1.85122 0
M  V30 51150 H 4827.25 3.67735 0.600116 0
M  V30 51151 H 4827.36 4.6875 -0.990453 0
M  V30 51152 H 4825.72 2.51018 -0.431494 0
M  V30 51153 H 4826.51 2.72414 -2.08916 0
M  V30 51154 N 4828.95 0.546753 1.47812 0
M  V30 51155 C 4829.9 -0.226962 2.26868 0
M  V30 51156 C 4830.89 -0.894797 1.33724 0
M  V30 51157 O 4832.08 -0.794832 1.5815 0
M  V30 51158 C 4829.21 -1.26287 3.19228 0
M  V30 51159 C 4828.29 -0.598983 4.19849 0
M  V30 51160 N 4828.68 0.324955 5.04755 0
M  V30 51161 C 4826.98 -0.854177 4.37744 0
M  V30 51162 C 4827.68 0.709589 5.77356 0
M  V30 51163 N 4826.66 0.0668064 5.43559 0
M  V30 51164 H 4830.46 0.483578 2.89894 0
M  V30 51165 H 4827.98 0.365949 1.58223 0
M  V30 51166 H 4829.97 -1.83103 3.74538 0
M  V30 51167 H 4828.63 -1.97462 2.57758 0
M  V30 51168 H 4829.64 0.698531 5.13168 0
M  V30 51169 H 4826.32 -1.55522 3.87452 0
M  V30 51170 H 4827.71 1.46819 6.55663 0
M  V30 51171 N 4830.43 -1.55044 0.282687 0
M  V30 51172 C 4831.68 -2.00057 -0.332411 0
M  V30 51173 C 4832.01 -1.17085 -1.54935 0
M  V30 51174 O 4831.28 -0.242768 -1.92979 0
M  V30 51175 C 4831.57 -3.53089 -0.707126 0
M  V30 51176 C 4831.42 -4.46811 0.517678 0
M  V30 51177 C 4832.74 -4.12251 -1.54069 0
M  V30 51178 H 4829.86 -0.727272 -0.119348 0
M  V30 51179 H 4832.5 -1.8593 0.391141 0
M  V30 51180 H 4830.65 -3.65258 -1.32359 0
M  V30 51181 H 4832.32 -4.46575 1.15622 0
M  V30 51182 H 4830.57 -4.18159 1.15435 0
M  V30 51183 H 4831.24 -5.51594 0.21162 0
M  V30 51184 H 4833.71 -4.03405 -1.01999 0
M  V30 51185 H 4832.59 -5.19522 -1.77168 0
M  V30 51186 H 4832.85 -3.6296 -2.52414 0
M  V30 51187 N 4831.91 -0.0100904 -1.57597 0
M  V30 51188 C 4833.16 0.671878 -1.90181 0
M  V30 51189 C 4833.47 1.74373 -0.886192 0
M  V30 51190 O 4834.68 2.48103 -1.1026 0
M  V30 51191 C 4833.13 1.24624 -3.37634 0
M  V30 51192 C 4832.74 0.208681 -4.47514 0
M  V30 51193 C 4834.48 1.90582 -3.79313 0
M  V30 51194 C 4832.39 0.793608 -5.86051 0
M  V30 51195 H 4831.32 0.254715 -0.709673 0
M  V30 51196 H 4833.97 -0.072285 -1.83358 0
M  V30 51197 H 4832.35 2.0414 -3.39327 0
M  V30 51198 H 4833.53 -0.562624 -4.57352 0
M  V30 51199 H 4831.84 -0.351035 -4.14918 0
M  V30 51200 H 4834.44 2.35267 -4.8016 0
M  V30 51201 H 4834.78 2.74063 -3.13361 0
M  V30 51202 H 4835.32 1.17785 -3.79963 0
M  V30 51203 H 4832.06 -0.00263899 -6.555 0
M  V30 51204 H 4831.58 1.53384 -5.79856 0
M  V30 51205 H 4833.25 1.28918 -6.34026 0
M  V30 51206 N 4833.39 1.55393 0.262811 0
M  V30 51207 C 4834.3 1.92082 1.34691 0
M  V30 51208 C 4835.31 0.819281 1.53505 0
M  V30 51209 O 4836.49 1.11926 1.67435 0
M  V30 51210 C 4833.55 2.19416 2.68435 0
M  V30 51211 C 4832.61 3.42914 2.5828 0
M  V30 51212 C 4831.85 3.68935 3.85646 0
M  V30 51213 O 4832.07 2.97292 4.86799 0
M  V30 51214 O 4831 4.62468 3.85236 0
M  V30 51215 H 4834.83 2.84388 1.06571 0
M  V30 51216 H 4832.42 1.4207 0.462214 0
M  V30 51217 H 4834.3 2.38377 3.47497 0
M  V30 51218 H 4832.97 1.30292 2.9632 0
M  V30 51219 H 4831.88 3.29278 1.77558 0
M  V30 51220 H 4833.21 4.3229 2.35343 0
M  V30 51221 N 4834.87 -0.527781 1.485 0
M  V30 51222 C 4836.11 -1.27998 1.55883 0
M  V30 51223 C 4836.43 -1.94139 0.238645 0
M  V30 51224 O 4837.63 -2.70829 0.190739 0
M  V30 51225 C 4836.09 -2.32262 2.74922 0
M  V30 51226 C 4835.7 -1.72181 4.13591 0
M  V30 51227 C 4837.44 -3.08478 2.91619 0
M  V30 51228 C 4835.35 -2.74399 5.23889 0
M  V30 51229 H 4834.28 -0.481392 0.580325 0
M  V30 51230 H 4836.93 -0.557134 1.74838 0
M  V30 51231 H 4835.31 -3.07592 2.49406 0
M  V30 51232 H 4836.49 -1.03025 4.49135 0
M  V30 51233 H 4834.8 -1.0845 4.02029 0
M  V30 51234 H 4837.4 -3.84866 3.7119 0
M  V30 51235 H 4837.74 -3.64474 2.01158 0
M  V30 51236 H 4838.27 -2.40263 3.17047 0
M  V30 51237 H 4835.01 -2.2322 6.16322 0
M  V30 51238 H 4834.53 -3.41876 4.9283 0
M  V30 51239 H 4836.21 -3.37342 5.52095 0
M  V30 51240 N 4836.34 -1.37125 -0.776822 0
M  V30 51241 C 4837.57 -1.35236 -1.56585 0
M  V30 51242 C 4837.99 0.0634854 -1.88693 0
M  V30 51243 O 4837.34 1.02388 -1.51072 0
M  V30 51244 C 4837.39 -2.18593 -2.87923 0
M  V30 51245 O 4837.12 -3.54659 -2.57193 0
M  V30 51246 C 4838.62 -2.24626 -3.82175 0
M  V30 51247 H 4835.84 -0.463417 -0.485269 0
M  V30 51248 H 4838.38 -1.80396 -0.963203 0
M  V30 51249 H 4836.54 -1.76955 -3.44624 0
M  V30 51250 H 4836.95 -3.98298 -3.41261 0
M  V30 51251 H 4838.42 -2.87284 -4.71351 0
M  V30 51252 H 4838.9 -1.25324 -4.2094 0
M  V30 51253 H 4839.51 -2.66554 -3.31404 0
M  V30 51254 N 4837.82 1.00242 -1.21611 0
M  V30 51255 C 4838.75 2.10918 -1.0018 0
M  V30 51256 C 4839.73 1.69939 0.0740989 0
M  V30 51257 O 4840.92 1.94008 -0.0862435 0
M  V30 51258 C 4838.05 3.42616 -0.568476 0
M  V30 51259 C 4837 3.97401 -1.58923 0
M  V30 51260 C 4836.33 5.25035 -1.01206 0
M  V30 51261 C 4837.63 4.29169 -2.97676 0
M  V30 51262 H 4839.32 2.29105 -1.92747 0
M  V30 51263 H 4836.87 1.10098 -0.928141 0
M  V30 51264 H 4838.82 4.19443 -0.405702 0
M  V30 51265 H 4837.54 3.24229 0.392847 0
M  V30 51266 H 4836.2 3.22697 -1.73961 0
M  V30 51267 H 4835.85 5.02982 -0.0423734 0
M  V30 51268 H 4835.55 5.62655 -1.6939 0
M  V30 51269 H 4837.08 6.04504 -0.860661 0
M  V30 51270 H 4838.49 4.96829 -2.86067 0
M  V30 51271 H 4836.89 4.77939 -3.62897 0
M  V30 51272 H 4837.96 3.37337 -3.48327 0
M  V30 51273 N 4839.3 1.02428 1.19776 0
M  V30 51274 C 4840.71 0.748449 1.71041 0
M  V30 51275 C 4841.06 -0.732334 1.8202 0
M  V30 51276 O 4840.19 -1.57111 1.48812 0
M  V30 51277 C 4840.78 1.35198 3.10656 0
M  V30 51278 C 4839.34 1.12485 3.59199 0
M  V30 51279 C 4838.49 1.45291 2.3619 0
M  V30 51280 H 4841.44 1.19279 1.04682 0
M  V30 51281 H 4841.46 0.746539 3.73105 0
M  V30 51282 H 4840.97 2.42971 3.02633 0
M  V30 51283 H 4839.07 0.0651292 3.72543 0
M  V30 51284 H 4839.19 1.81031 4.43581 0
M  V30 51285 H 4837.55 0.872118 2.39304 0
M  V30 51286 H 4838.33 2.54137 2.30802 0
M  V30 51287 N 4840.78 -1.35696 0.801525 0
M  V30 51288 C 4841.71 -2.2768 0.154002 0
M  V30 51289 C 4842.69 -1.47834 -0.677038 0
M  V30 51290 O 4843.87 -1.77106 -0.645412 0
M  V30 51291 C 4841 -3.29433 -0.786871 0
M  V30 51292 C 4840.05 -4.26485 -0.0360948 0
M  V30 51293 S 4840.88 -5.19569 1.29648 0
M  V30 51294 C 4842.03 -6.24864 0.359925 0
M  V30 51295 H 4842.27 -2.82251 0.933899 0
M  V30 51296 H 4839.8 -1.42419 0.596333 0
M  V30 51297 H 4841.76 -3.88554 -1.32423 0
M  V30 51298 H 4840.42 -2.73751 -1.54011 0
M  V30 51299 H 4839.61 -4.98381 -0.750493 0
M  V30 51300 H 4839.21 -3.71507 0.431147 0
M  V30 51301 H 4841.51 -6.75959 -0.456716 0
M  V30 51302 H 4842.45 -7.00303 1.04793 0
M  V30 51303 H 4842.86 -5.64484 -0.0421289 0
M  V30 51304 N 4842.26 -0.554584 -1.4752 0
M  V30 51305 C 4843.19 0.182892 -2.32783 0
M  V30 51306 C 4844.17 0.911327 -1.43627 0
M  V30 51307 O 4845.35 0.892305 -1.72486 0
M  V30 51308 C 4842.48 1.21502 -3.25353 0
M  V30 51309 C 4841.44 0.603206 -4.23728 0
M  V30 51310 C 4840.76 1.73977 -5.05605 0
M  V30 51311 C 4842.06 -0.441304 -5.20432 0
M  V30 51312 H 4843.76 -0.528923 -2.94691 0
M  V30 51313 H 4841.3 -0.255809 -1.4171 0
M  V30 51314 H 4843.25 1.73908 -3.83841 0
M  V30 51315 H 4841.98 1.95674 -2.61494 0
M  V30 51316 H 4840.64 0.100461 -3.66462 0
M  V30 51317 H 4840.29 2.47047 -4.38151 0
M  V30 51318 H 4839.99 1.3362 -5.72206 0
M  V30 51319 H 4841.51 2.26715 -5.6695 0
M  V30 51320 H 4842.92 -0.00340085 -5.733 0
M  V30 51321 H 4841.32 -0.763611 -5.95222 0
M  V30 51322 H 4842.39 -1.33815 -4.6607 0
M  V30 51323 N 4843.73 1.54892 -0.290906 0
M  V30 51324 C 4844.97 2.01843 0.322317 0
M  V30 51325 C 4845.34 1.17483 1.51861 0
M  V30 51326 O 4846.54 1.54085 2.20253 0
M  V30 51327 C 4844.81 3.50877 0.679721 0
M  V30 51328 S 4846.37 4.198 1.27724 0
M  V30 51329 H 4843.19 0.704009 0.0994619 0
M  V30 51330 H 4845.79 1.91013 -0.416425 0
M  V30 51331 H 4844.49 4.09914 -0.199579 0
M  V30 51332 H 4844.02 3.65722 1.44952 0
M  V30 51333 H 4846.04 4.24738 2.56539 0
M  V30 51334 N 4845.21 0.018448 1.57589 0
M  V30 51335 C 4846.44 -0.676565 1.96054 0
M  V30 51336 C 4846.86 -1.65477 0.894366 0
M  V30 51337 O 4846.22 -1.80713 -0.145785 0
M  V30 51338 C 4846.27 -1.3686 3.33619 0
M  V30 51339 O 4845.37 -2.48361 3.29228 0
M  V30 51340 H 4844.71 -0.178577 0.639536 0
M  V30 51341 H 4847.24 0.0771279 2.04455 0
M  V30 51342 H 4847.25 -1.72784 3.69608 0
M  V30 51343 H 4845.93 -0.651492 4.10766 0
M  V30 51344 H 4844.5 -2.14628 3.04941 0
M  V30 51345 N 4846.69 -1.5553 -0.254567 0
M  V30 51346 C 4847.92 -1.80787 -0.999976 0
M  V30 51347 C 4848.33 -0.590773 -1.7974 0
M  V30 51348 O 4847.67 0.449926 -1.78105 0
M  V30 51349 C 4847.73 -2.99275 -1.99186 0
M  V30 51350 C 4847.4 -4.356 -1.38209 0
M  V30 51351 C 4848.39 -5.13887 -0.788431 0
M  V30 51352 C 4846.08 -4.82286 -1.40376 0
M  V30 51353 C 4848.07 -6.37004 -0.224559 0
M  V30 51354 C 4845.76 -6.05354 -0.83603 0
M  V30 51355 C 4846.76 -6.82552 -0.24745 0
M  V30 51356 O 4846.45 -8.03296 0.311531 0
M  V30 51357 H 4846.18 -0.60566 -0.300253 0
M  V30 51358 H 4848.73 -2.03412 -0.285071 0
M  V30 51359 H 4846.96 -2.72386 -2.74486 0
M  V30 51360 H 4848.65 -3.11691 -2.60007 0
M  V30 51361 H 4849.42 -4.78941 -0.764255 0
M  V30 51362 H 4845.3 -4.22196 -1.85127 0
M  V30 51363 H 4848.84 -6.97202 0.23548 0
M  V30 51364 H 4844.74 -6.39779 -0.857508 0
M  V30 51365 H 4845.5 -8.18249 0.202658 0
M  V30 51366 N 4848.17 0.519898 -1.48778 0
M  V30 51367 C 4849.1 1.63247 -1.66951 0
M  V30 51368 C 4850.08 1.62012 -0.518281 0
M  V30 51369 O 4851.26 1.7905 -0.751982 0
M  V30 51370 C 4848.39 3.01804 -1.71847 0
M  V30 51371 C 4847.35 3.17901 -2.86571 0
M  V30 51372 C 4846.67 4.5762 -2.76565 0
M  V30 51373 C 4847.97 2.99714 -4.27748 0
M  V30 51374 H 4849.67 1.48293 -2.60095 0
M  V30 51375 H 4847.21 0.711982 -1.25167 0
M  V30 51376 H 4849.17 3.79519 -1.83148 0
M  V30 51377 H 4847.89 3.17804 -0.752887 0
M  V30 51378 H 4846.55 2.42606 -2.74842 0
M  V30 51379 H 4846.2 4.70469 -1.77954 0
M  V30 51380 H 4845.9 4.69334 -3.53553 0
M  V30 51381 H 4847.42 5.37421 -2.89847 0
M  V30 51382 H 4848.84 3.67213 -4.40259 0
M  V30 51383 H 4847.23 3.22914 -5.05813 0
M  V30 51384 H 4848.3 1.96031 -4.43509 0
M  V30 51385 N 4849.65 1.37535 0.769539 0
M  V30 51386 C 4851.06 1.29387 1.34595 0
M  V30 51387 C 4851.41 -0.0575349 1.96116 0
M  V30 51388 O 4850.53 -0.959402 1.9397 0
M  V30 51389 C 4851.13 2.34307 2.44716 0
M  V30 51390 C 4849.69 2.29786 2.9812 0
M  V30 51391 C 4848.83 2.18019 1.71356 0
M  V30 51392 H 4851.79 1.48125 0.569628 0
M  V30 51393 H 4851.81 1.991 3.24252 0
M  V30 51394 H 4851.32 3.32652 1.99911 0
M  V30 51395 H 4849.42 1.34971 3.47295 0
M  V30 51396 H 4849.53 3.23289 3.53583 0
M  V30 51397 H 4847.9 1.64602 1.94366 0
M  V30 51398 H 4848.68 3.18283 1.28651 0
M  V30 51399 N 4851.12 -0.995956 1.22141 0
M  V30 51400 C 4852.54 -1.25914 0.980711 0
M  V30 51401 C 4852.74 -1.9882 -0.327534 0
M  V30 51402 O 4851.8 -2.2959 -1.05093 0
M  V30 51403 C 4853.11 -2.07392 2.17737 0
M  V30 51404 C 4854.66 -2.20586 2.2206 0
M  V30 51405 C 4855.13 -3.0545 3.41269 0
M  V30 51406 N 4856.62 -3.13037 3.41412 0
M  V30 51407 C 4857.36 -3.78982 4.30302 0
M  V30 51408 N 4856.85 -4.4688 5.29405 0
M  V30 51409 N 4858.65 -3.75713 4.18086 0
M  V30 51410 H 4850.8 -0.507085 2.06258 0
M  V30 51411 H 4853.06 -0.286548 0.903656 0
M  V30 51412 H 4852.77 -1.6118 3.12592 0
M  V30 51413 H 4852.64 -3.08146 2.17545 0
M  V30 51414 H 4855.03 -2.66013 1.27754 0
M  V30 51415 H 4855.11 -1.19272 2.26292 0
M  V30 51416 H 4854.75 -2.60724 4.35873 0
M  V30 51417 H 4854.68 -4.06899 3.34277 0
M  V30 51418 H 4857.17 -2.64711 2.69697 0
M  V30 51419 H 4857.49 -4.94931 5.93518 0
M  V30 51420 H 4855.83 -4.45638 5.33321 0
M  V30 51421 H 4859.02 -3.21828 3.39918 0
M  V30 51422 H 4859.2 -4.26827 4.87568 0
M  V30 51423 N 4852.6 -1.03061 -1.19231 0
M  V30 51424 C 4853.85 -0.738907 -1.89504 0
M  V30 51425 C 4854.2 0.724744 -1.78228 0
M  V30 51426 O 4853.5 1.52114 -1.16499 0
M  V30 51427 C 4853.69 -1.12692 -3.39169 0
M  V30 51428 C 4853.52 -2.62675 -3.6501 0
M  V30 51429 C 4852.29 -3.29672 -3.82942 0
M  V30 51430 C 4854.49 -3.60885 -3.66424 0
M  V30 51431 N 4852.47 -4.6874 -3.96429 0
M  V30 51432 C 4853.84 -4.85579 -3.85503 0
M  V30 51433 C 4855.9 -3.54659 -3.49459 0
M  V30 51434 C 4854.6 -6.04797 -3.89375 0
M  V30 51435 C 4856.62 -4.73293 -3.54609 0
M  V30 51436 C 4855.99 -5.96802 -3.74175 0
M  V30 51437 H 4852.09 -0.322281 -0.712502 0
M  V30 51438 H 4854.67 -1.31827 -1.43282 0
M  V30 51439 H 4852.84 -0.575747 -3.84109 0
M  V30 51440 H 4854.57 -0.787285 -3.96968 0
M  V30 51441 H 4851.33 -2.80083 -3.81904 0
M  V30 51442 H 4851.75 -5.40985 -4.07018 0
M  V30 51443 H 4856.39 -2.60155 -3.33286 0
M  V30 51444 H 4854.11 -6.99668 -4.0434 0
M  V30 51445 H 4857.7 -4.70106 -3.4277 0
M  V30 51446 H 4856.58 -6.87065 -3.78037 0
M  V30 51447 N 4854.08 1.35269 -0.80871 0
M  V30 51448 C 4855.33 1.99432 -0.399787 0
M  V30 51449 C 4855.68 1.62996 1.02226 0
M  V30 51450 O 4854.97 0.884151 1.6998 0
M  V30 51451 C 4855.17 3.53554 -0.522923 0
M  V30 51452 C 4855 4.04962 -1.95539 0
M  V30 51453 C 4853.77 4.34219 -2.58422 0
M  V30 51454 C 4855.97 4.23352 -2.92024 0
M  V30 51455 N 4853.95 4.71571 -3.93057 0
M  V30 51456 C 4855.32 4.63724 -4.11534 0
M  V30 51457 C 4857.37 4.05565 -2.88827 0
M  V30 51458 C 4856.08 4.8817 -5.28282 0
M  V30 51459 C 4858.1 4.3117 -4.0478 0
M  V30 51460 C 4857.46 4.71816 -5.23038 0
M  V30 51461 H 4853.56 0.757527 -0.194106 0
M  V30 51462 H 4856.15 1.63935 -1.0504 0
M  V30 51463 H 4854.32 3.88277 0.0977106 0
M  V30 51464 H 4856.05 4.04603 -0.0883801 0
M  V30 51465 H 4852.81 4.24614 -2.09761 0
M  V30 51466 H 4853.23 4.94503 -4.6238 0
M  V30 51467 H 4857.87 3.73281 -1.98548 0
M  V30 51468 H 4855.59 5.19328 -6.19132 0
M  V30 51469 H 4859.18 4.18958 -4.0369 0
M  V30 51470 H 4858.06 4.91241 -6.11271 0
M  V30 51471 N 4855.56 0.5624 1.47224 0
M  V30 51472 C 4856.47 -0.185383 2.33866 0
M  V30 51473 C 4857.48 -0.906661 1.48511 0
M  V30 51474 O 4858.66 -0.874394 1.81429 0
M  V30 51475 C 4855.73 -1.19893 3.2531 0
M  V30 51476 C 4854.79 -0.484519 4.26557 0
M  V30 51477 C 4854.02 -1.44978 5.13631 0
M  V30 51478 O 4854.24 -2.68497 5.03255 0
M  V30 51479 O 4853.18 -0.971434 5.94009 0
M  V30 51480 H 4857 0.525466 2.9912 0
M  V30 51481 H 4854.59 0.322967 1.45867 0
M  V30 51482 H 4856.47 -1.78386 3.81781 0
M  V30 51483 H 4855.14 -1.89161 2.62678 0
M  V30 51484 H 4854.05 0.141737 3.73831 0
M  V30 51485 H 4855.38 0.166806 4.91917 0
M  V30 51486 N 4857.04 -1.54735 0.299116 0
M  V30 51487 C 4858.45 -1.59508 -0.0543288 0
M  V30 51488 C 4858.65 -1.31612 -1.5258 0
M  V30 51489 O 4857.71 -1.08861 -2.27828 0
M  V30 51490 C 4859.02 -2.9875 0.341915 0
M  V30 51491 C 4860.57 -3.11649 0.290523 0
M  V30 51492 C 4861.04 -4.53197 0.661561 0
M  V30 51493 N 4862.54 -4.59112 0.614025 0
M  V30 51494 C 4863.27 -5.66706 0.873616 0
M  V30 51495 N 4862.77 -6.82344 1.19908 0
M  V30 51496 N 4864.56 -5.56366 0.800804 0
M  V30 51497 H 4856.71 -1.71129 1.25812 0
M  V30 51498 H 4858.97 -0.799168 0.509936 0
M  V30 51499 H 4858.68 -3.2408 1.36619 0
M  V30 51500 H 4858.55 -3.75962 -0.305375 0
M  V30 51501 H 4860.94 -2.86068 -0.724504 0
M  V30 51502 H 4861.02 -2.36596 0.97241 0
M  V30 51503 H 4860.67 -4.79507 1.67439 0
M  V30 51504 H 4860.6 -5.26583 -0.0423761 0
M  V30 51505 H 4863.09 -3.76051 0.373333 0
M  V30 51506 H 4863.4 -7.60321 1.38318 0
M  V30 51507 H 4861.74 -6.83901 1.23709 0
M  V30 51508 H 4864.94 -4.64902 0.546209 0
M  V30 51509 H 4865.11 -6.40136 1.00648 0
M  V30 51510 N 4858.51 -0.0268051 -1.57577 0
M  V30 51511 C 4859.76 0.651048 -1.91326 0
M  V30 51512 C 4860.08 1.72801 -0.903591 0
M  V30 51513 O 4859.35 1.95822 0.0552258 0
M  V30 51514 H 4857.93 0.243467 -0.70621 0
M  V30 51515 H 4860.6 -0.074062 -1.94759 0
M  V30 51516 H 4859.69 1.10526 -2.91874 0
M  V30 51517 N 4859.99 1.55663 0.246315 0
M  V30 51518 C 4861.4 1.67956 0.815331 0
M  V30 51519 C 4861.75 0.624367 1.86 0
M  V30 51520 O 4860.88 -0.229252 2.15182 0
M  V30 51521 C 4861.47 3.04489 1.48565 0
M  V30 51522 C 4860.03 3.1872 2.00236 0
M  V30 51523 C 4859.18 2.63833 0.853674 0
M  V30 51524 H 4862.13 1.58685 0.0221134 0
M  V30 51525 H 4862.15 2.98967 2.3537 0
M  V30 51526 H 4861.66 3.81266 0.725088 0
M  V30 51527 H 4859.77 2.46767 2.79172 0
M  V30 51528 H 4859.88 4.25635 2.19935 0
M  V30 51529 H 4858.24 2.21672 1.25434 0
M  V30 51530 H 4859.03 3.43136 0.106181 0
M  V30 51531 N 4861.47 -0.512001 1.49051 0
M  V30 51532 C 4862.38 -1.64133 1.67623 0
M  V30 51533 C 4863.4 -1.64784 0.558759 0
M  V30 51534 O 4864.57 -1.83407 0.832098 0
M  V30 51535 C 4861.64 -3.00542 1.72845 0
M  V30 51536 C 4860.7 -3.10604 2.9635 0
M  V30 51537 C 4859.93 -4.40506 3.01314 0
M  V30 51538 O 4860.15 -5.28663 2.14176 0
M  V30 51539 O 4859.09 -4.55311 3.93669 0
M  V30 51540 H 4862.91 -1.51397 2.63273 0
M  V30 51541 H 4860.5 -0.687085 1.32663 0
M  V30 51542 H 4862.38 -3.81635 1.78697 0
M  V30 51543 H 4861.06 -3.13563 0.803726 0
M  V30 51544 H 4859.96 -2.28739 2.96022 0
M  V30 51545 H 4861.3 -3.02506 3.88267 0
M  V30 51546 N 4862.95 -1.37941 -0.762235 0
M  V30 51547 C 4863.91 -1.34285 -1.85742 0
M  V30 51548 C 4864.91 -0.245025 -1.58922 0
M  V30 51549 O 4866.1 -0.501424 -1.66827 0
M  V30 51550 C 4863.23 -1.08844 -3.23057 0
M  V30 51551 H 4864.43 -2.31712 -1.90393 0
M  V30 51552 H 4861.98 -1.23109 -0.963014 0
M  V30 51553 H 4862.71 -0.119881 -3.24078 0
M  V30 51554 H 4862.5 -1.88318 -3.43917 0
M  V30 51555 H 4863.99 -1.0896 -4.03135 0
M  V30 51556 N 4864.43 0.989464 -1.22668 0
M  V30 51557 C 4865.84 1.54402 -1.04961 0
M  V30 51558 C 4866.19 1.92368 0.385883 0
M  V30 51559 O 4865.31 1.75116 1.27136 0
M  V30 51560 C 4865.91 2.80571 -1.89909 0
M  V30 51561 C 4864.47 3.32458 -1.76489 0
M  V30 51562 C 4863.62 2.05518 -1.86166 0
M  V30 51563 H 4866.57 0.810163 -1.36463 0
M  V30 51564 H 4866.59 3.5307 -1.41853 0
M  V30 51565 H 4866.1 2.52908 -2.9438 0
M  V30 51566 H 4864.2 3.65022 -0.747656 0
M  V30 51567 H 4864.31 4.02829 -2.59356 0
M  V30 51568 H 4862.68 2.19236 -1.29644 0
M  V30 51569 H 4863.46 1.80247 -2.92174 0
M  V30 51570 N 4865.91 1.03692 1.18683 0
M  V30 51571 C 4867.32 0.766548 1.70238 0
M  V30 51572 C 4867.67 -0.712987 1.82787 0
M  V30 51573 O 4866.79 -1.55524 1.5047 0
M  V30 51574 C 4867.39 1.38485 3.09204 0
M  V30 51575 C 4865.95 1.16288 3.57986 0
M  V30 51576 C 4865.09 1.47788 2.34636 0
M  V30 51577 H 4868.04 1.20382 1.03411 0
M  V30 51578 H 4868.07 0.78607 3.72292 0
M  V30 51579 H 4867.58 2.46167 3.00039 0
M  V30 51580 H 4865.68 0.104639 3.72453 0
M  V30 51581 H 4865.79 1.85726 4.41636 0
M  V30 51582 H 4864.16 0.89745 2.38365 0
M  V30 51583 H 4864.94 2.5657 2.28093 0
M  V30 51584 N 4867.38 -1.34838 0.815872 0
M  V30 51585 C 4868.61 -2.0326 0.412332 0
M  V30 51586 C 4869.03 -1.61058 -0.971695 0
M  V30 51587 O 4868.39 -0.791758 -1.63098 0
M  V30 51588 C 4868.44 -3.56912 0.514414 0
M  V30 51589 O 4867.54 -4.0973 -0.468531 0
M  V30 51590 H 4866.88 -0.641658 0.170794 0
M  V30 51591 H 4869.41 -1.72237 1.10433 0
M  V30 51592 H 4869.42 -4.06155 0.3876 0
M  V30 51593 H 4868.1 -3.86976 1.52388 0
M  V30 51594 H 4866.68 -3.71682 -0.301186 0
M  V30 51595 N 4868.86 -0.570199 -1.46923 0
M  V30 51596 C 4869.82 0.159852 -2.28642 0
M  V30 51597 C 4870.82 0.83059 -1.37688 0
M  V30 51598 O 4872.01 0.684459 -1.6019 0
M  V30 51599 C 4869.15 1.23529 -3.17732 0
M  V30 51600 H 4870.34 -0.558139 -2.94661 0
M  V30 51601 H 4867.89 -0.327657 -1.52827 0
M  V30 51602 H 4868.63 1.98526 -2.56433 0
M  V30 51603 H 4868.41 0.75899 -3.84684 0
M  V30 51604 H 4869.9 1.74768 -3.7927 0
M  V30 51605 N 4870.34 1.54575 -0.307318 0
M  V30 51606 C 4871.27 2.2671 0.55899 0
M  V30 51607 C 4872.25 1.26897 1.13275 0
M  V30 51608 O 4873.44 1.55681 1.16091 0
M  V30 51609 C 4870.57 3.01265 1.72791 0
M  V30 51610 C 4869.52 4.08279 1.28421 0
M  V30 51611 C 4868.85 4.70584 2.53879 0
M  V30 51612 C 4870.15 5.20682 0.410855 0
M  V30 51613 H 4871.84 2.9937 -0.0426812 0
M  V30 51614 H 4869.39 1.43983 -0.0219679 0
M  V30 51615 H 4871.34 3.50453 2.34011 0
M  V30 51616 H 4870.06 2.26195 2.35592 0
M  V30 51617 H 4868.72 3.59951 0.695035 0
M  V30 51618 H 4868.37 3.92147 3.15008 0
M  V30 51619 H 4868.07 5.42862 2.24889 0
M  V30 51620 H 4869.59 5.22538 3.1589 0
M  V30 51621 H 4871.01 5.65725 0.928898 0
M  V30 51622 H 4869.4 5.99717 0.214454 0
M  V30 51623 H 4870.47 4.81627 -0.562457 0
M  V30 51624 N 4871.82 0.0351614 1.57561 0
M  V30 51625 C 4873.23 -0.502822 1.79802 0
M  V30 51626 C 4873.58 -1.71888 0.945981 0
M  V30 51627 O 4872.7 -2.15822 0.158066 0
M  V30 51628 C 4873.3 -0.918982 3.26098 0
M  V30 51629 C 4871.86 -1.40204 3.49313 0
M  V30 51630 C 4871.01 -0.369612 2.74826 0
M  V30 51631 H 4873.96 0.261157 1.56536 0
M  V30 51632 H 4873.98 -1.78296 3.36141 0
M  V30 51633 H 4873.49 -0.0337162 3.88085 0
M  V30 51634 H 4871.59 -2.30703 2.92586 0
M  V30 51635 H 4871.7 -1.40525 4.58028 0
M  V30 51636 H 4870.07 -0.839029 2.40484 0
M  V30 51637 H 4870.85 0.507292 3.39531 0
M  V30 51638 N 4873.3 -1.55792 -0.238056 0
M  V30 51639 C 4874.26 -1.90243 -1.27828 0
M  V30 51640 C 4875.26 -0.779601 -1.40637 0
M  V30 51641 O 4876.45 -1.04752 -1.39186 0
M  V30 51642 C 4873.58 -2.13869 -2.65467 0
M  V30 51643 H 4874.77 -2.83265 -0.984934 0
M  V30 51644 H 4872.33 -1.4882 -0.477746 0
M  V30 51645 H 4873.06 -1.23345 -2.99928 0
M  V30 51646 H 4872.85 -2.95652 -2.5755 0
M  V30 51647 H 4874.34 -2.41676 -3.40562 0
M  V30 51648 N 4874.77 0.504089 -1.49321 0
M  V30 51649 C 4876.02 1.25592 -1.58338 0
M  V30 51650 C 4876.34 1.93113 -0.270606 0
M  V30 51651 O 4875.61 1.82588 0.709827 0
M  V30 51652 H 4874.19 0.46655 -0.583386 0
M  V30 51653 H 4876.85 0.584481 -1.8593 0
M  V30 51654 H 4875.95 2.0215 -2.37785 0
M  V30 51655 N 4876.25 1.38343 0.754909 0
M  V30 51656 C 4877.21 1.35268 1.85027 0
M  V30 51657 C 4878.21 0.253449 1.5879 0
M  V30 51658 O 4879.4 0.510264 1.66559 0
M  V30 51659 C 4876.54 1.10556 3.22475 0
M  V30 51660 H 4877.73 2.32718 1.89162 0
M  V30 51661 H 4875.28 1.23618 0.956471 0
M  V30 51662 H 4876.02 0.137066 3.2401 0
M  V30 51663 H 4875.8 1.90139 3.42913 0
M  V30 51664 H 4877.29 1.11096 4.02551 0
M  V30 51665 N 4877.73 -0.982945 1.23191 0
M  V30 51666 C 4879.14 -1.53844 1.05778 0
M  V30 51667 C 4879.49 -1.9257 -0.375676 0
M  V30 51668 O 4878.62 -1.75787 -1.26205 0
M  V30 51669 C 4879.21 -2.7956 1.91394 0
M  V30 51670 C 4877.77 -3.31518 1.7825 0
M  V30 51671 C 4876.92 -2.04528 1.87253 0
M  V30 51672 H 4879.87 -0.802914 1.3689 0
M  V30 51673 H 4879.89 -3.52312 1.43723 0
M  V30 51674 H 4879.4 -2.51343 2.95717 0
M  V30 51675 H 4877.5 -3.6462 0.767004 0
M  V30 51676 H 4877.62 -4.01448 2.61489 0
M  V30 51677 H 4875.98 -2.18546 1.30805 0
M  V30 51678 H 4876.76 -1.78695 2.93126 0
M  V30 51679 N 4879.21 -1.0432 -1.18132 0
M  V30 51680 C 4880.62 -0.775565 -1.69829 0
M  V30 51681 C 4880.97 0.703284 -1.83162 0
M  V30 51682 O 4880.1 1.54724 -1.51293 0
M  V30 51683 C 4880.69 -1.40123 -3.08465 0
M  V30 51684 C 4879.25 -1.18185 -3.57364 0
M  V30 51685 C 4878.4 -1.4903 -2.33849 0
M  V30 51686 H 4881.35 -1.20929 -1.02771 0
M  V30 51687 H 4881.37 -0.805802 -3.7187 0
M  V30 51688 H 4880.88 -2.47755 -2.98729 0
M  V30 51689 H 4878.98 -0.124389 -3.72392 0
M  V30 51690 H 4879.09 -1.88065 -4.40645 0
M  V30 51691 H 4877.46 -0.910079 -2.37886 0
M  V30 51692 H 4878.24 -2.57776 -2.26729 0
M  V30 51693 N 4880.69 1.34403 -0.823012 0
M  V30 51694 C 4882.1 1.80689 -0.469942 0
M  V30 51695 C 4882.45 1.68227 1.00967 0
M  V30 51696 O 4881.57 1.22232 1.78573 0
M  V30 51697 C 4882.17 3.28061 -0.846234 0
M  V30 51698 C 4880.73 3.72426 -0.545533 0
M  V30 51699 C 4879.87 2.56112 -1.0631 0
M  V30 51700 H 4882.83 1.22149 -1.01318 0
M  V30 51701 H 4882.85 3.80204 -0.150056 0
M  V30 51702 H 4882.36 3.371 -1.92316 0
M  V30 51703 H 4880.46 3.68926 0.521979 0
M  V30 51704 H 4880.57 4.66544 -1.08966 0
M  V30 51705 H 4878.94 2.50047 -0.484641 0
M  V30 51706 H 4879.72 2.67921 -2.14647 0
M  V30 51707 N 4882.16 0.577983 1.46619 0
M  V30 51708 C 4883.4 0.0643815 2.04299 0
M  V30 51709 C 4883.77 -1.26962 1.4403 0
M  V30 51710 O 4884.97 -1.87217 1.92881 0
M  V30 51711 C 4883.24 -0.00535024 3.574 0
M  V30 51712 S 4884.8 -0.462063 4.3636 0
M  V30 51713 H 4881.62 0.0351823 0.710129 0
M  V30 51714 H 4884.22 0.769414 1.79723 0
M  V30 51715 H 4882.92 0.969563 3.98783 0
M  V30 51716 H 4882.45 -0.733299 3.86505 0
M  V30 51717 H 4884.47 -1.71775 4.65519 0
M  V30 51718 N 4883.64 -1.54409 0.315511 0
M  V30 51719 C 4884.87 -2.04834 -0.291666 0
M  V30 51720 C 4885.29 -1.19208 -1.46407 0
M  V30 51721 O 4884.64 -0.220931 -1.81158 0
M  V30 51722 C 4884.69 -3.53972 -0.733916 0
M  V30 51723 O 4884.41 -4.36344 0.391835 0
M  V30 51724 C 4885.92 -4.20454 -1.40474 0
M  V30 51725 H 4883.14 -0.668197 -0.0612712 0
M  V30 51726 H 4885.68 -1.99274 0.45936 0
M  V30 51727 H 4883.83 -3.59845 -1.43493 0
M  V30 51728 H 4884.25 -5.24481 0.0448932 0
M  V30 51729 H 4885.72 -5.26284 -1.6652 0
M  V30 51730 H 4886.2 -3.71075 -2.34947 0
M  V30 51731 H 4886.81 -4.18697 -0.746515 0
M  V30 51732 N 4885.12 -0.0435168 -1.5754 0
M  V30 51733 C 4886.08 0.918622 -2.09986 0
M  V30 51734 C 4887.08 1.24485 -1.01785 0
M  V30 51735 O 4888.27 1.1828 -1.27889 0
M  V30 51736 C 4885.41 2.23084 -2.57772 0
M  V30 51737 H 4886.6 0.464125 -2.96287 0
M  V30 51738 H 4884.15 0.204763 -1.54953 0
M  V30 51739 H 4884.89 2.73131 -1.74842 0
M  V30 51740 H 4884.67 2.00712 -3.36834 0
M  V30 51741 H 4886.16 2.92018 -2.98522 0
M  V30 51742 N 4886.6 1.55916 0.229791 0
M  V30 51743 C 4887.84 1.7881 0.956805 0
M  V30 51744 C 4888.18 0.611751 1.84313 0
M  V30 51745 O 4887.45 -0.389331 1.90564 0
M  V30 51746 C 4887.74 3.11724 1.80277 0
M  V30 51747 C 4887.59 4.39793 0.943494 0
M  V30 51748 C 4888.91 3.41009 2.7821 0
M  V30 51749 H 4886.03 0.650512 0.346414 0
M  V30 51750 H 4888.67 1.88649 0.226186 0
M  V30 51751 H 4886.82 3.03468 2.42569 0
M  V30 51752 H 4888.49 4.6006 0.337959 0
M  V30 51753 H 4886.73 4.33087 0.248553 0
M  V30 51754 H 4887.4 5.29214 1.56961 0
M  V30 51755 H 4889.88 3.4934 2.26055 0
M  V30 51756 H 4888.76 4.35194 3.3451 0
M  V30 51757 H 4889.02 2.62766 3.55537 0
M  V30 51758 N 4888.08 -0.496163 1.49586 0
M  V30 51759 C 4889.3 -1.27388 1.63033 0
M  V30 51760 C 4889.72 -1.86342 0.303634 0
M  V30 51761 O 4889.08 -1.6806 -0.711487 0
M  V30 51762 C 4889.13 -2.40067 2.70277 0
M  V30 51763 O 4888.85 -1.83535 3.97802 0
M  V30 51764 C 4890.35 -3.31361 2.94473 0
M  V30 51765 H 4887.57 -0.386191 0.548723 0
M  V30 51766 H 4890.11 -0.595095 1.9565 0
M  V30 51767 H 4888.27 -3.03767 2.40426 0
M  V30 51768 H 4888.68 -2.57545 4.56914 0
M  V30 51769 H 4890.16 -4.06694 3.73235 0
M  V30 51770 H 4890.63 -3.88647 2.04574 0
M  V30 51771 H 4891.24 -2.73423 3.2576 0
M  V30 51772 N 4889.55 -1.38742 -0.747561 0
M  V30 51773 C 4890.78 -1.38707 -1.54192 0
M  V30 51774 C 4891.2 0.0195978 -1.8809 0
M  V30 51775 O 4890.56 1.00328 -1.5101 0
M  V30 51776 C 4890.61 -2.25501 -2.81392 0
M  V30 51777 O 4889.71 -1.67626 -3.76796 0
M  V30 51778 H 4889.06 -0.472879 -0.466134 0
M  V30 51779 H 4891.59 -1.8258 -0.923348 0
M  V30 51780 H 4891.6 -2.39573 -3.30256 0
M  V30 51781 H 4890.27 -3.27736 -2.5605 0
M  V30 51782 H 4888.85 -1.62729 -3.3552 0
M  V30 51783 N 4891.03 0.976398 -1.2371 0
M  V30 51784 C 4892.31 1.69293 -0.979759 0
M  V30 51785 C 4892.69 2.05081 0.500483 0
M  V30 51786 O 4892.04 1.74713 1.47267 0
M  V30 51787 C 4892.25 2.93136 -1.89399 0
M  V30 51788 C 4893.6 3.65565 -2.15981 0
M  V30 51789 O 4894.62 3.03177 -1.86981 0
M  V30 51790 O 4893.48 4.77849 -2.65184 0
M  V30 51791 H 4890.57 0.739695 -0.369838 0
M  V30 51792 H 4893.12 1.03126 -1.3477 0
M  V30 51793 H 4891.89 2.63316 -2.89448 0
M  V30 51794 H 4891.51 3.67039 -1.52867 0
M  V30 51795 N 4892.51 1.04945 1.17577 0
M  V30 51796 C 4893.46 0.618455 2.19452 0
M  V30 51797 C 4894.44 -0.343758 1.57185 0
M  V30 51798 O 4895.64 -0.161388 1.76263 0
M  V30 51799 C 4892.77 -0.00791778 3.43299 0
M  V30 51800 C 4891.85 0.977972 4.1267 0
M  V30 51801 N 4892.24 2.14842 4.57904 0
M  V30 51802 C 4890.54 0.805902 4.38658 0
M  V30 51803 C 4891.24 2.77192 5.11409 0
M  V30 51804 N 4890.22 2.05007 5.03461 0
M  V30 51805 H 4894.02 1.51027 2.52127 0
M  V30 51806 H 4891.53 0.919248 1.33879 0
M  V30 51807 H 4893.53 -0.334438 4.15556 0
M  V30 51808 H 4892.19 -0.895162 3.12117 0
M  V30 51809 H 4893.2 2.52689 4.52072 0
M  V30 51810 H 4889.88 -0.0305038 4.17489 0
M  V30 51811 H 4891.27 3.76435 5.56548 0
M  V30 51812 N 4893.99 -1.33965 0.830128 0
M  V30 51813 C 4894.92 -2.3191 0.271992 0
M  V30 51814 C 4895.9 -1.58573 -0.615504 0
M  V30 51815 O 4897.09 -1.86516 -0.540881 0
M  V30 51816 C 4894.22 -3.42739 -0.561025 0
M  V30 51817 C 4893.17 -4.27382 0.229939 0
M  V30 51818 C 4892.5 -5.29745 -0.726277 0
M  V30 51819 C 4893.8 -5.01995 1.44215 0
M  V30 51820 H 4895.49 -2.7884 1.09035 0
M  V30 51821 H 4893.04 -1.34059 0.525757 0
M  V30 51822 H 4894.99 -4.10279 -0.961723 0
M  V30 51823 H 4893.71 -2.94476 -1.4125 0
M  V30 51824 H 4892.37 -3.61454 0.612091 0
M  V30 51825 H 4892.02 -4.77742 -1.57391 0
M  V30 51826 H 4891.72 -5.87255 -0.201214 0
M  V30 51827 H 4893.24 -6.00153 -1.12468 0
M  V30 51828 H 4894.66 -5.62351 1.11508 0
M  V30 51829 H 4893.05 -5.69115 1.90337 0
M  V30 51830 H 4894.12 -4.31273 2.21656 0
M  V30 51831 N 4895.47 -0.585751 -1.4631 0
M  V30 51832 C 4896.42 0.158496 -2.32059 0
M  V30 51833 C 4897.41 0.881376 -1.44666 0
M  V30 51834 O 4898.62 0.799419 -1.61274 0
M  V30 51835 H 4894.99 0.0699803 -0.748737 0
M  V30 51836 H 4896.96 -0.583486 -2.9264 0
M  V30 51837 C 4895.71 1.15689 -3.27889 0
M  V30 51838 H 4895.03 0.610076 -3.95118 0
M  V30 51839 H 4896.47 1.64798 -3.90663 0
M  V30 51840 C 4894.93 2.21942 -2.53462 0
M  V30 51841 O 4895.46 3.29344 -2.2999 0
M  V30 51842 N 4893.67 1.96632 -2.13972 0
M  V30 51843 H 4893.22 1.09301 -2.33262 0
M  V30 51844 H 4893.17 2.67935 -1.64494 0
M  V30 51845 N 4896.95 1.5424 -0.323695 0
M  V30 51846 C 4898.17 2.05453 0.283532 0
M  V30 51847 C 4898.6 1.19828 1.44992 0
M  V30 51848 O 4897.95 0.207421 1.8011 0
M  V30 51849 C 4898 3.53826 0.69567 0
M  V30 51850 O 4897.11 3.7114 1.79802 0
M  V30 51851 H 4896.45 0.662026 0.0511685 0
M  V30 51852 H 4898.98 1.99078 -0.472143 0
M  V30 51853 H 4898.99 3.96098 0.978295 0
M  V30 51854 H 4897.66 4.15602 -0.157433 0
M  V30 51855 H 4896.24 3.40773 1.51419 0
M  V30 51856 N 4898.42 0.0518709 1.57515 0
M  V30 51857 C 4899.35 -0.920208 2.14603 0
M  V30 51858 C 4900.33 -1.32402 1.06788 0
M  V30 51859 O 4901.52 -1.39862 1.34731 0
M  V30 51860 C 4898.65 -2.1948 2.69158 0
M  V30 51861 C 4897.6 -1.93103 3.81962 0
M  V30 51862 C 4896.93 -3.27022 4.23037 0
M  V30 51863 C 4898.23 -1.25208 5.0707 0
M  V30 51864 H 4899.92 -0.444697 2.96079 0
M  V30 51865 H 4897.47 -0.212458 1.42424 0
M  V30 51866 H 4899.42 -2.87884 3.07735 0
M  V30 51867 H 4898.15 -2.69238 1.84874 0
M  V30 51868 H 4896.81 -1.27111 3.43858 0
M  V30 51869 H 4896.45 -3.74583 3.35703 0
M  V30 51870 H 4896.15 -3.10172 4.99066 0
M  V30 51871 H 4897.68 -3.96656 4.64216 0
M  V30 51872 H 4899.09 -1.83647 5.4309 0
M  V30 51873 H 4897.49 -1.18681 5.88247 0
M  V30 51874 H 4898.56 -0.228212 4.84363 0
M  V30 51875 N 4899.9 -1.56035 -0.221519 0
M  V30 51876 C 4900.83 -1.95439 -1.27773 0
M  V30 51877 C 4901.81 -0.822616 -1.48886 0
M  V30 51878 O 4903 -1.08492 -1.61069 0
M  V30 51879 C 4900.13 -2.27111 -2.62751 0
M  V30 51880 C 4899.08 -3.42779 -2.56294 0
M  V30 51881 C 4898.41 -3.60056 -3.95302 0
M  V30 51882 C 4899.71 -4.77749 -2.11076 0
M  V30 51883 H 4901.4 -2.83915 -0.950404 0
M  V30 51884 H 4898.95 -1.36598 -0.455743 0
M  V30 51885 H 4900.9 -2.53268 -3.36799 0
M  V30 51886 H 4899.62 -1.35488 -2.97171 0
M  V30 51887 H 4898.28 -3.16671 -1.84703 0
M  V30 51888 H 4897.93 -2.65809 -4.2703 0
M  V30 51889 H 4897.63 -4.37855 -3.91863 0
M  V30 51890 H 4899.16 -3.88562 -4.71012 0
M  V30 51891 H 4900.57 -5.03111 -2.74867 0
M  V30 51892 H 4898.97 -5.58831 -2.18697 0
M  V30 51893 H 4900.04 -4.73104 -1.06304 0
M  V30 51894 N 4901.38 0.488223 -1.49847 0
M  V30 51895 C 4902.63 1.23906 -1.59661 0
M  V30 51896 C 4902.95 1.92815 -0.291073 0
M  V30 51897 O 4902.22 1.8333 0.690421 0
M  V30 51898 H 4900.8 0.460337 -0.588302 0
M  V30 51899 H 4903.46 0.564728 -1.86539 0
M  V30 51900 H 4902.56 1.99617 -2.39916 0
M  V30 51901 N 4902.86 1.39136 0.740193 0
M  V30 51902 C 4903.81 1.37577 1.87551 0
M  V30 51903 C 4904.8 0.259652 1.67398 0
M  V30 51904 O 4906.01 0.429411 1.74803 0
M  V30 51905 H 4902.38 0.429491 0.617285 0
M  V30 51906 H 4904.35 2.33352 1.85983 0
M  V30 51907 C 4903.1 1.23099 3.2518 0
M  V30 51908 H 4902.42 2.08249 3.41281 0
M  V30 51909 H 4903.86 1.26064 4.04826 0
M  V30 51910 C 4902.32 -0.0610287 3.36845 0
M  V30 51911 O 4902.85 -1.03314 3.88187 0
M  V30 51912 N 4901.06 -0.122352 2.90342 0
M  V30 51913 H 4900.61 0.669417 2.4875 0
M  V30 51914 H 4900.56 -0.986358 2.98527 0
M  V30 51915 N 4904.34 -0.969824 1.24226 0
M  V30 51916 C 4905.58 -1.70683 1.07472 0
M  V30 51917 C 4905.9 -1.91737 -0.386794 0
M  V30 51918 O 4907.1 -2.62988 -0.674488 0
M  V30 51919 C 4905.56 -3.0721 1.87483 0
M  V30 51920 C 4905.17 -2.94006 3.3803 0
M  V30 51921 C 4906.91 -3.84798 1.79251 0
M  V30 51922 C 4904.82 -4.2583 4.10394 0
M  V30 51923 H 4903.75 -0.640053 0.398558 0
M  V30 51924 H 4906.4 -1.08087 1.48289 0
M  V30 51925 H 4904.78 -3.70623 1.39479 0
M  V30 51926 H 4905.96 -2.39618 3.93599 0
M  V30 51927 H 4904.27 -2.29886 3.47191 0
M  V30 51928 H 4906.87 -4.82409 2.3062 0
M  V30 51929 H 4907.21 -4.09353 0.757341 0
M  V30 51930 H 4907.74 -3.28107 2.24923 0
M  V30 51931 H 4904.48 -4.06468 5.14261 0
M  V30 51932 H 4904 -4.80042 3.59611 0
M  V30 51933 H 4905.68 -4.94461 4.17274 0
M  V30 51934 N 4905.81 -1.05567 -1.17018 0
M  V30 51935 C 4906.74 -0.681104 -2.23346 0
M  V30 51936 C 4907.72 0.322924 -1.67007 0
M  V30 51937 O 4908.91 0.199679 -1.93171 0
M  V30 51938 C 4906.04 -0.0590274 -3.4725 0
M  V30 51939 C 4904.99 -0.988228 -4.16435 0
M  V30 51940 C 4904.32 -0.229834 -5.34206 0
M  V30 51941 C 4905.62 -2.31405 -4.68241 0
M  V30 51942 H 4907.31 -1.57002 -2.54933 0
M  V30 51943 H 4904.86 -0.756345 -1.22537 0
M  V30 51944 H 4906.81 0.214834 -4.20852 0
M  V30 51945 H 4905.54 0.864858 -3.14941 0
M  V30 51946 H 4904.2 -1.24672 -3.4475 0
M  V30 51947 H 4903.84 0.696936 -4.98148 0
M  V30 51948 H 4903.54 -0.849019 -5.81434 0
M  V30 51949 H 4905.07 0.0366548 -6.10589 0
M  V30 51950 H 4906.48 -2.09982 -5.33461 0
M  V30 51951 H 4904.88 -2.88754 -5.26062 0
M  V30 51952 H 4905.95 -2.94995 -3.84845 0
M  V30 51953 N 4907.29 1.33523 -0.837221 0
M  V30 51954 C 4908.71 1.50725 -0.524796 0
M  V30 51955 C 4908.91 1.77795 0.948217 0
M  V30 51956 O 4907.96 1.83725 1.73209 0
M  V30 51957 C 4909.28 2.66294 -1.39671 0
M  V30 51958 C 4910.82 2.80179 -1.39531 0
M  V30 51959 C 4911.3 3.98807 -2.25203 0
M  V30 51960 N 4912.79 4.06039 -2.22904 0
M  V30 51961 C 4913.53 4.97021 -2.85932 0
M  V30 51962 N 4913.02 5.9313 -3.58006 0
M  V30 51963 N 4914.81 4.90005 -2.75411 0
M  V30 51964 H 4906.97 1.14214 -1.79078 0
M  V30 51965 H 4909.23 0.561373 -0.763914 0
M  V30 51966 H 4908.93 2.52965 -2.44339 0
M  V30 51967 H 4908.81 3.61659 -1.07157 0
M  V30 51968 H 4911.2 2.9294 -0.356356 0
M  V30 51969 H 4911.28 1.8558 -1.7605 0
M  V30 51970 H 4910.92 3.86805 -3.29157 0
M  V30 51971 H 4910.85 4.92648 -1.86027 0
M  V30 51972 H 4913.34 3.37256 -1.70489 0
M  V30 51973 H 4913.65 6.59213 -4.03309 0
M  V30 51974 H 4912 5.93211 -3.62113 0
M  V30 51975 H 4915.19 4.13886 -2.18668 0
M  V30 51976 H 4915.36 5.60713 -3.24816 0
M  V30 51977 N 4908.77 0.593501 1.45998 0
M  V30 51978 C 4910.02 0.0808793 2.01538 0
M  V30 51979 C 4910.33 -1.29107 1.46938 0
M  V30 51980 O 4911.54 -1.89563 1.94366 0
M  V30 51981 C 4909.99 0.0939576 3.59777 0
M  V30 51982 C 4909.6 1.46488 4.23374 0
M  V30 51983 C 4911.35 -0.364157 4.22935 0
M  V30 51984 C 4909.25 1.43511 5.73723 0
M  V30 51985 H 4908.18 0.0264672 0.753535 0
M  V30 51986 H 4910.83 0.746748 1.67618 0
M  V30 51987 H 4909.22 -0.63829 3.90822 0
M  V30 51988 H 4910.39 2.21772 4.03923 0
M  V30 51989 H 4908.71 1.86392 3.72353 0
M  V30 51990 H 4911.3 -0.405397 5.33161 0
M  V30 51991 H 4911.65 -1.38395 3.92623 0
M  V30 51992 H 4912.18 0.31437 3.96556 0
M  V30 51993 H 4908.92 2.43205 6.08713 0
M  V30 51994 H 4908.44 0.724641 5.95407 0
M  V30 51995 H 4910.12 1.15265 6.3665 0
M  V30 51996 N 4910.25 -1.54066 0.33187 0
M  V30 51997 C 4911.5 -1.99896 -0.269138 0
M  V30 51998 C 4911.81 -1.22377 -1.52589 0
M  V30 51999 O 4913.02 -1.58625 -2.20341 0
M  V30 52000 C 4911.47 -3.55974 -0.530119 0
M  V30 52001 C 4911.08 -4.42337 0.710056 0
M  V30 52002 C 4912.82 -4.10251 -1.09063 0
M  V30 52003 C 4910.73 -5.89903 0.42052 0
M  V30 52004 H 4909.66 -0.746745 -0.104345 0
M  V30 52005 H 4912.31 -1.78013 0.445386 0
M  V30 52006 H 4910.69 -3.73878 -1.30504 0
M  V30 52007 H 4911.87 -4.36209 1.48519 0
M  V30 52008 H 4910.18 -3.98993 1.19137 0
M  V30 52009 H 4912.78 -5.18099 -1.32201 0
M  V30 52010 H 4913.12 -3.62746 -2.04257 0
M  V30 52011 H 4913.66 -3.96013 -0.376685 0
M  V30 52012 H 4910.4 -6.41618 1.34186 0
M  V30 52013 H 4909.92 -5.98963 -0.316752 0
M  V30 52014 H 4911.59 -6.46991 0.033423 0
M  V30 52015 N 4911.73 -0.0602235 -1.57485 0
M  V30 52016 C 4912.97 0.612433 -1.93332 0
M  V30 52017 C 4913.31 1.69957 -0.939586 0
M  V30 52018 O 4912.58 1.94472 0.0330274 0
M  V30 52019 C 4912.86 1.20013 -3.39513 0
M  V30 52020 C 4912.72 0.120432 -4.49639 0
M  V30 52021 C 4914.04 2.10909 -3.86271 0
M  V30 52022 H 4911.15 0.22116 -0.703034 0
M  V30 52023 H 4913.8 -0.123834 -1.89596 0
M  V30 52024 H 4911.95 1.82762 -3.42827 0
M  V30 52025 H 4913.62 -0.512011 -4.5845 0
M  V30 52026 H 4911.86 -0.550402 -4.30294 0
M  V30 52027 H 4912.53 0.571826 -5.4903 0
M  V30 52028 H 4915.01 1.58111 -3.8489 0
M  V30 52029 H 4913.88 2.4897 -4.89188 0
M  V30 52030 H 4914.15 3.01281 -3.23547 0
M  V30 52031 N 4913.2 1.56151 0.213241 0
M  V30 52032 C 4914.15 1.93957 1.28388 0
M  V30 52033 C 4915.15 0.822644 1.48084 0
M  V30 52034 O 4916.35 1.00754 1.4916 0
M  V30 52035 H 4912.73 0.616495 0.430625 0
M  V30 52036 H 4914.7 2.83278 0.937878 0
M  V30 52037 C 4913.45 2.27978 2.62529 0
M  V30 52038 H 4912.77 3.13441 2.48183 0
M  V30 52039 H 4914.21 2.58309 3.36233 0
M  V30 52040 C 4912.67 1.10786 3.18164 0
M  V30 52041 O 4913.2 0.373342 3.99961 0
M  V30 52042 N 4911.41 0.889475 2.76653 0
M  V30 52043 H 4910.95 1.48851 2.10241 0
M  V30 52044 H 4910.91 0.107111 3.14217 0
M  V30 52045 N 4914.68 -0.48027 1.50104 0
M  V30 52046 C 4915.63 -1.60018 1.68811 0
M  V30 52047 C 4916.62 -1.60087 0.553944 0
M  V30 52048 O 4917.83 -1.64346 0.734184 0
M  V30 52049 H 4914.21 -0.530822 0.532665 0
M  V30 52050 H 4916.18 -1.41399 2.62772 0
M  V30 52051 C 4914.93 -2.98023 1.79102 0
M  V30 52052 H 4914.25 -2.98684 2.65759 0
M  V30 52053 H 4915.69 -3.75864 1.9622 0
M  V30 52054 C 4914.15 -3.32536 0.540505 0
M  V30 52055 O 4914.68 -4.00387 -0.324496 0
M  V30 52056 N 4912.88 -2.87872 0.397255 0
M  V30 52057 H 4912.43 -2.3283 1.10218 0
M  V30 52058 H 4912.39 -3.1133 -0.438315 0
M  V30 52059 N 4916.16 -1.39527 -0.732804 0
M  V30 52060 C 4917.09 -1.4116 -1.86 0
M  V30 52061 C 4918.07 -0.274673 -1.67868 0
M  V30 52062 O 4919.26 -0.480811 -1.88154 0
M  V30 52063 C 4916.39 -1.2565 -3.23774 0
M  V30 52064 C 4915.34 -2.36765 -3.56548 0
M  V30 52065 C 4914.67 -2.06343 -4.93282 0
M  V30 52066 C 4915.97 -3.79082 -3.59297 0
M  V30 52067 H 4917.66 -2.3549 -1.84891 0
M  V30 52068 H 4915.21 -1.13351 -0.888122 0
M  V30 52069 H 4917.16 -1.25413 -4.02305 0
M  V30 52070 H 4915.88 -0.277886 -3.25416 0
M  V30 52071 H 4914.54 -2.36223 -2.80347 0
M  V30 52072 H 4914.19 -1.06914 -4.91506 0
M  V30 52073 H 4913.89 -2.80775 -5.16177 0
M  V30 52074 H 4915.41 -2.07759 -5.74168 0
M  V30 52075 H 4916.83 -3.81541 -4.27901 0
M  V30 52076 H 4915.23 -4.52892 -3.93712 0
M  V30 52077 H 4916.3 -4.09902 -2.59053 0
M  V30 52078 N 4917.64 0.963222 -1.24739 0
M  V30 52079 C 4918.89 1.70339 -1.08761 0
M  V30 52080 C 4919.21 1.91389 0.373551 0
M  V30 52081 O 4918.48 1.49484 1.26615 0
M  V30 52082 H 4917.06 0.63121 -0.399478 0
M  V30 52083 H 4919.72 1.15854 -1.56729 0
M  V30 52084 H 4918.82 2.6861 -1.58918 0
M  V30 52085 N 4919.12 1.06186 1.16457 0
M  V30 52086 C 4920.37 0.772992 1.863 0
M  V30 52087 C 4920.68 -0.703123 1.82525 0
M  V30 52088 O 4921.88 -1.10633 2.47937 0
M  V30 52089 C 4920.34 1.3326 3.3432 0
M  V30 52090 C 4919.95 2.83888 3.46571 0
M  V30 52091 C 4921.69 1.12123 4.09425 0
M  V30 52092 C 4919.6 3.33099 4.8867 0
M  V30 52093 H 4918.53 0.285476 0.697868 0
M  V30 52094 H 4921.18 1.28043 1.31442 0
M  V30 52095 H 4919.56 0.752937 3.88776 0
M  V30 52096 H 4920.74 3.47797 3.02281 0
M  V30 52097 H 4919.05 3.03681 2.84898 0
M  V30 52098 H 4921.65 1.46379 5.14273 0
M  V30 52099 H 4921.99 0.0595295 4.16257 0
M  V30 52100 H 4922.52 1.66662 3.61204 0
M  V30 52101 H 4919.26 4.38743 4.87017 0
M  V30 52102 H 4918.78 2.73938 5.3359 0
M  V30 52103 H 4920.46 3.28363 5.57482 0
M  V30 52104 N 4920.59 -1.33077 0.84429 0
M  V30 52105 C 4921.87 -1.92177 0.364329 0
M  V30 52106 C 4922.25 -1.76965 -1.15095 0
M  V30 52107 O 4921.6 -1.16135 -1.96786 0
M  V30 52108 C 4921.81 -3.39297 0.817225 0
M  V30 52109 C 4923.16 -4.16441 0.828382 0
M  V30 52110 O 4924.18 -3.47972 0.761184 0
M  V30 52111 O 4923.04 -5.38681 0.921115 0
M  V30 52112 H 4920.13 -0.820407 0.104219 0
M  V30 52113 H 4922.68 -1.41915 0.930503 0
M  V30 52114 H 4921.45 -3.44265 1.86003 0
M  V30 52115 H 4921.08 -3.96946 0.227924 0
M  V30 52116 N 4922.07 -0.601236 -1.45681 0
M  V30 52117 C 4922.98 0.123313 -2.34276 0
M  V30 52118 C 4924 0.866967 -1.50863 0
M  V30 52119 O 4925.17 0.825985 -1.83683 0
M  V30 52120 C 4922.24 1.11226 -3.28374 0
M  V30 52121 C 4921.3 0.371254 -4.27692 0
M  V30 52122 C 4920.53 1.31309 -5.17295 0
M  V30 52123 O 4920.76 2.5506 -5.10197 0
M  V30 52124 O 4919.69 0.813601 -5.96376 0
M  V30 52125 H 4923.52 -0.604587 -2.97621 0
M  V30 52126 H 4921.1 -0.361528 -1.4496 0
M  V30 52127 H 4922.98 1.68201 -3.86376 0
M  V30 52128 H 4921.66 1.8213 -2.67601 0
M  V30 52129 H 4920.57 -0.240802 -3.73324 0
M  V30 52130 H 4921.9 -0.297171 -4.91302 0
M  V30 52131 N 4923.55 1.53888 -0.340036 0
M  V30 52132 C 4924.51 2.23548 0.505842 0
M  V30 52133 C 4925.51 1.23448 1.0304 0
M  V30 52134 O 4926.7 1.47912 0.920201 0
M  V30 52135 C 4923.84 2.9524 1.7043 0
M  V30 52136 H 4925.03 2.99722 -0.103352 0
M  V30 52137 H 4922.58 1.56033 -0.0913352 0
M  V30 52138 H 4923.32 2.23245 2.35228 0
M  V30 52139 H 4923.1 3.68659 1.3354 0
M  V30 52140 H 4924.59 3.48266 2.30435 0
M  V30 52141 N 4925.03 0.0685745 1.57451 0
M  V30 52142 C 4926.25 -0.613849 1.98108 0
M  V30 52143 C 4926.68 -1.62548 0.946558 0
M  V30 52144 O 4926.04 -1.81085 -0.0882187 0
M  V30 52145 C 4926.09 -1.26177 3.37804 0
M  V30 52146 O 4925.19 -2.37761 3.36962 0
M  V30 52147 H 4924.53 -0.158141 0.644893 0
M  V30 52148 H 4927.06 0.142135 2.04106 0
M  V30 52149 H 4927.07 -1.60938 3.74917 0
M  V30 52150 H 4925.75 -0.52048 4.1263 0
M  V30 52151 H 4924.32 -2.04818 3.11615 0
M  V30 52152 N 4926.51 -1.56262 -0.204957 0
M  V30 52153 C 4927.75 -1.81214 -0.923742 0
M  V30 52154 C 4928.11 -0.644128 -1.81297 0
M  V30 52155 O 4927.4 0.361142 -1.88166 0
M  V30 52156 C 4927.6 -3.09728 -1.78334 0
M  V30 52157 C 4927.42 -4.38918 -0.978825 0
M  V30 52158 C 4926.19 -5.00876 -0.667155 0
M  V30 52159 C 4928.39 -5.132 -0.336206 0
M  V30 52160 N 4926.37 -6.13699 0.15703 0
M  V30 52161 C 4927.75 -6.19008 0.35062 0
M  V30 52162 C 4929.8 -4.97267 -0.250926 0
M  V30 52163 C 4928.5 -7.10612 1.11459 0
M  V30 52164 C 4930.53 -5.89286 0.499621 0
M  V30 52165 C 4929.89 -6.94532 1.17493 0
M  V30 52166 H 4925.99 -0.714539 -0.317739 0
M  V30 52167 H 4928.57 -1.93739 -0.193249 0
M  V30 52168 H 4926.75 -2.98457 -2.48552 0
M  V30 52169 H 4928.48 -3.22806 -2.44086 0
M  V30 52170 H 4925.23 -4.63154 -0.989203 0
M  V30 52171 H 4925.66 -6.74693 0.558444 0
M  V30 52172 H 4930.3 -4.15937 -0.758677 0
M  V30 52173 H 4928.02 -7.91412 1.6338 0
M  V30 52174 H 4931.6 -5.79032 0.56683 0
M  V30 52175 H 4930.48 -7.64507 1.7464 0
M  V30 52176 N 4927.99 0.472303 -1.50356 0
M  V30 52177 C 4928.92 1.58917 -1.6377 0
M  V30 52178 C 4929.9 1.55172 -0.485848 0
M  V30 52179 O 4931.08 1.74812 -0.705193 0
M  V30 52180 C 4928.21 2.97491 -1.61916 0
M  V30 52181 C 4927.25 3.19395 -2.82647 0
M  V30 52182 S 4928.09 2.99426 -4.43965 0
M  V30 52183 C 4929.24 4.40344 -4.44801 0
M  V30 52184 H 4929.48 1.473 -2.58244 0
M  V30 52185 H 4927.01 0.659552 -1.39604 0
M  V30 52186 H 4928.97 3.77383 -1.61531 0
M  V30 52187 H 4927.63 3.065 -0.686791 0
M  V30 52188 H 4926.82 4.20626 -2.7765 0
M  V30 52189 H 4926.42 2.47273 -2.80592 0
M  V30 52190 H 4928.71 5.32954 -4.18289 0
M  V30 52191 H 4929.66 4.50383 -5.46407 0
M  V30 52192 H 4930.07 4.22365 -3.74523 0
M  V30 52193 N 4929.46 1.39914 0.725394 0
M  V30 52194 C 4930.41 1.394 1.83947 0
M  V30 52195 C 4931.38 0.252307 1.64173 0
M  V30 52196 O 4932.57 0.448885 1.85445 0
M  V30 52197 C 4929.71 1.25273 3.2156 0
M  V30 52198 C 4928.82 2.49066 3.52973 0
M  V30 52199 C 4927.95 2.27455 4.80039 0
M  V30 52200 C 4926.99 3.46875 5.04326 0
M  V30 52201 N 4926.13 3.24521 6.226 0
M  V30 52202 H 4930.97 2.34629 1.83721 0
M  V30 52203 H 4928.51 1.1654 0.897596 0
M  V30 52204 H 4930.46 1.15091 4.01011 0
M  V30 52205 H 4929.09 0.336683 3.21039 0
M  V30 52206 H 4928.15 2.69814 2.6815 0
M  V30 52207 H 4929.46 3.37986 3.66834 0
M  V30 52208 H 4928.61 2.14571 5.67489 0
M  V30 52209 H 4927.35 1.35946 4.6837 0
M  V30 52210 H 4926.36 3.60247 4.15334 0
M  V30 52211 H 4927.58 4.39299 5.17874 0
M  V30 52212 H 4925.53 2.35684 6.122 0
M  V30 52213 H 4925.44 4.07001 6.37092 0
M  V30 52214 H 4926.71 3.1535 7.12864 0
M  V30 52215 N 4930.94 -0.956593 1.25248 0
M  V30 52216 C 4932.36 -1.2273 1.02027 0
M  V30 52217 C 4932.56 -1.99762 -0.264115 0
M  V30 52218 O 4931.61 -2.32818 -0.977354 0
M  V30 52219 C 4932.93 -2.00359 2.24224 0
M  V30 52220 C 4934.47 -2.1341 2.28965 0
M  V30 52221 C 4934.95 -2.94438 3.50814 0
M  V30 52222 N 4936.44 -3.02017 3.51198 0
M  V30 52223 C 4937.18 -3.65101 4.42141 0
M  V30 52224 N 4936.67 -4.29811 5.43354 0
M  V30 52225 N 4938.46 -3.62222 4.29828 0
M  V30 52226 H 4930.62 -0.441209 2.07767 0
M  V30 52227 H 4932.88 -0.257654 0.912315 0
M  V30 52228 H 4932.58 -1.51154 3.17562 0
M  V30 52229 H 4932.46 -3.01069 2.27238 0
M  V30 52230 H 4934.85 -2.61814 1.36152 0
M  V30 52231 H 4934.93 -1.12012 2.29972 0
M  V30 52232 H 4934.57 -2.46725 4.43947 0
M  V30 52233 H 4934.5 -3.96058 3.47053 0
M  V30 52234 H 4936.99 -2.55997 2.77982 0
M  V30 52235 H 4937.3 -4.75798 6.08963 0
M  V30 52236 H 4935.65 -4.28445 5.47229 0
M  V30 52237 H 4938.84 -3.10851 3.49985 0
M  V30 52238 H 4939.01 -4.111 5.009 0
M  V30 52239 N 4932.42 -1.06802 -1.15892 0
M  V30 52240 C 4933.35 -0.704755 -2.22611 0
M  V30 52241 C 4934.33 0.305193 -1.6734 0
M  V30 52242 O 4935.52 0.179179 -1.93372 0
M  V30 52243 C 4932.65 -0.0958545 -3.47168 0
M  V30 52244 C 4931.6 -1.03234 -4.15363 0
M  V30 52245 C 4930.93 -0.28648 -5.33932 0
M  V30 52246 C 4932.23 -2.36358 -4.6576 0
M  V30 52247 H 4933.92 -1.59697 -2.53253 0
M  V30 52248 H 4931.47 -0.7693 -1.21728 0
M  V30 52249 H 4933.42 0.170185 -4.21056 0
M  V30 52250 H 4932.14 0.831405 -3.1584 0
M  V30 52251 H 4930.8 -1.28321 -3.43408 0
M  V30 52252 H 4930.45 0.644062 -4.9886 0
M  V30 52253 H 4930.15 -0.910641 -5.80501 0
M  V30 52254 H 4931.67 -0.0281084 -6.10594 0
M  V30 52255 H 4933.09 -2.15629 -5.31204 0
M  V30 52256 H 4931.48 -2.94318 -5.2297 0
M  V30 52257 H 4932.55 -2.99061 -3.81695 0
M  V30 52258 N 4933.9 1.32627 -0.851335 0
M  V30 52259 C 4934.86 2.27246 -0.298621 0
M  V30 52260 C 4935.86 1.51469 0.539793 0
M  V30 52261 O 4937.05 1.70611 0.351783 0
M  V30 52262 C 4934.18 3.35966 0.577886 0
M  V30 52263 H 4935.38 2.77646 -1.13369 0
M  V30 52264 H 4932.93 1.43242 -0.625405 0
M  V30 52265 H 4933.66 2.90828 1.4349 0
M  V30 52266 H 4933.45 3.92094 -0.0221918 0
M  V30 52267 H 4934.94 4.06475 0.957483 0
M  V30 52268 N 4935.38 0.608953 1.4536 0
M  V30 52269 C 4936.62 0.104833 2.02529 0
M  V30 52270 C 4936.95 -1.26186 1.47617 0
M  V30 52271 O 4936.23 -1.83267 0.651405 0
M  V30 52272 C 4936.51 0.0673927 3.60037 0
M  V30 52273 C 4936.37 1.46485 4.25279 0
M  V30 52274 C 4937.68 -0.619724 4.35715 0
M  V30 52275 H 4934.8 0.0395697 0.735937 0
M  V30 52276 H 4937.45 0.781186 1.73198 0
M  V30 52277 H 4935.6 -0.508574 3.85157 0
M  V30 52278 H 4937.27 2.088 4.1134 0
M  V30 52279 H 4935.51 2.02516 3.83627 0
M  V30 52280 H 4936.18 1.39088 5.3419 0
M  V30 52281 H 4938.66 -0.130151 4.15896 0
M  V30 52282 H 4937.53 -0.615032 5.45443 0
M  V30 52283 H 4937.79 -1.68606 4.08686 0
M  V30 52284 N 4936.85 -1.53705 0.348193 0
M  V30 52285 C 4938.1 -2.00989 -0.246895 0
M  V30 52286 C 4938.43 -1.23592 -1.50184 0
M  V30 52287 O 4937.68 -0.312884 -1.93183 0
M  V30 52288 C 4937.98 -3.52295 -0.601937 0
M  V30 52289 C 4937.65 -4.47451 0.556666 0
M  V30 52290 C 4936.31 -4.73185 0.874612 0
M  V30 52291 C 4938.66 -5.03847 1.33372 0
M  V30 52292 C 4935.99 -5.5257 1.9719 0
M  V30 52293 C 4938.34 -5.84428 2.42128 0
M  V30 52294 C 4937.01 -6.08456 2.74477 0
M  V30 52295 H 4936.28 -0.735472 -0.0903453 0
M  V30 52296 H 4938.92 -1.85462 0.477066 0
M  V30 52297 H 4937.23 -3.65677 -1.40668 0
M  V30 52298 H 4938.93 -3.86341 -1.07434 0
M  V30 52299 H 4935.52 -4.27557 0.298802 0
M  V30 52300 H 4939.7 -4.83926 1.10134 0
M  V30 52301 H 4934.96 -5.6941 2.22671 0
M  V30 52302 H 4939.13 -6.2714 3.02767 0
M  V30 52303 H 4936.76 -6.69755 3.59628 0
M  V30 52304 N 4938.33 -0.0769235 -1.57412 0
M  V30 52305 C 4939.3 0.873874 -2.11887 0
M  V30 52306 C 4940.3 1.22298 -1.04403 0
M  V30 52307 O 4941.49 1.15541 -1.30369 0
M  V30 52308 C 4938.62 2.17566 -2.62446 0
M  V30 52309 H 4939.81 0.401173 -2.97205 0
M  V30 52310 H 4937.36 0.17185 -1.55352 0
M  V30 52311 H 4938.1 2.69361 -1.80596 0
M  V30 52312 H 4937.88 1.93522 -3.41015 0
M  V30 52313 H 4939.37 2.8562 -3.04649 0
M  V30 52314 N 4939.81 1.56368 0.196667 0
M  V30 52315 C 4940.74 1.90946 1.26777 0
M  V30 52316 C 4941.76 0.799978 1.41789 0
M  V30 52317 O 4942.94 1.07838 1.42243 0
M  V30 52318 C 4940.04 2.12486 2.64013 0
M  V30 52319 C 4939.22 3.43626 2.70629 0
M  V30 52320 C 4938.28 3.54298 3.8905 0
M  V30 52321 O 4937.3 4.27133 3.76226 0
M  V30 52322 N 4938.5 2.8727 5.04436 0
M  V30 52323 H 4941.27 2.8342 0.974318 0
M  V30 52324 H 4938.83 1.57217 0.386594 0
M  V30 52325 H 4940.82 2.16916 3.41657 0
M  V30 52326 H 4939.39 1.26518 2.85853 0
M  V30 52327 H 4938.61 3.51078 1.79271 0
M  V30 52328 H 4939.9 4.29968 2.72039 0
M  V30 52329 H 4939.3 2.2792 5.17754 0
M  V30 52330 H 4937.86 2.97329 5.80034 0
M  V30 52331 N 4941.29 -0.464322 1.50605 0
M  V30 52332 C 4942.7 -1.04501 1.54714 0
M  V30 52333 C 4943.05 -1.92969 0.35461 0
M  V30 52334 O 4942.18 -2.09765 -0.531738 0
M  V30 52335 C 4942.77 -1.90197 2.80376 0
M  V30 52336 C 4941.33 -2.43363 2.87144 0
M  V30 52337 C 4940.48 -1.21877 2.49081 0
M  V30 52338 H 4943.43 -0.246661 1.56771 0
M  V30 52339 H 4943.45 -2.75344 2.62613 0
M  V30 52340 H 4942.96 -1.25783 3.67152 0
M  V30 52341 H 4941.06 -3.11311 2.04735 0
M  V30 52342 H 4941.17 -2.78007 3.90191 0
M  V30 52343 H 4939.54 -1.55568 2.01669 0
M  V30 52344 H 4940.32 -0.591149 3.38172 0
M  V30 52345 N 4942.77 -1.40296 -0.717964 0
M  V30 52346 C 4944.02 -1.37751 -1.47335 0
M  V30 52347 C 4944.33 0.0180066 -1.95592 0
M  V30 52348 O 4945.53 0.16607 -2.70992 0
M  V30 52349 C 4943.99 -2.42089 -2.6631 0
M  V30 52350 C 4943.6 -3.8744 -2.24932 0
M  V30 52351 C 4945.34 -2.48647 -3.44057 0
M  V30 52352 C 4943.25 -4.8338 -3.40731 0
M  V30 52353 H 4942.18 -0.512184 -0.553338 0
M  V30 52354 H 4944.83 -1.66022 -0.781603 0
M  V30 52355 H 4943.21 -2.06915 -3.37642 0
M  V30 52356 H 4944.39 -4.31746 -1.61034 0
M  V30 52357 H 4942.7 -3.84335 -1.60235 0
M  V30 52358 H 4945.3 -3.17514 -4.3022 0
M  V30 52359 H 4945.64 -1.51624 -3.87706 0
M  V30 52360 H 4946.17 -2.82801 -2.79765 0
M  V30 52361 H 4942.91 -5.81727 -3.02116 0
M  V30 52362 H 4942.43 -4.43741 -4.03552 0
M  V30 52363 H 4944.11 -5.03089 -4.0683 0
M  V30 52364 N 4944.24 0.949938 -1.25754 0
M  V30 52365 C 4945.49 1.69762 -1.10944 0
M  V30 52366 C 4945.82 1.91057 0.347961 0
M  V30 52367 O 4945.1 1.48492 1.2562 0
M  V30 52368 C 4945.38 3.07772 -1.86944 0
M  V30 52369 C 4945.23 2.93858 -3.4054 0
M  V30 52370 C 4946.55 4.07743 -1.6563 0
M  V30 52371 H 4943.67 0.616129 -0.404418 0
M  V30 52372 H 4946.31 1.10388 -1.54643 0
M  V30 52373 H 4944.46 3.58457 -1.49803 0
M  V30 52374 H 4946.14 2.50463 -3.87384 0
M  V30 52375 H 4944.38 2.29673 -3.68012 0
M  V30 52376 H 4945.05 3.91705 -3.88936 0
M  V30 52377 H 4947.53 3.65987 -1.97972 0
M  V30 52378 H 4946.4 5.0234 -2.21236 0
M  V30 52379 H 4946.66 4.38027 -0.598749 0
M  V30 52380 N 4945.72 1.07416 1.15324 0
M  V30 52381 C 4946.95 0.818923 1.90548 0
M  V30 52382 C 4947.37 -0.622132 1.77514 0
M  V30 52383 O 4946.73 -1.43481 1.10829 0
M  V30 52384 C 4946.78 1.23279 3.38873 0
M  V30 52385 O 4945.88 0.37849 4.10659 0
M  V30 52386 H 4945.22 0.298291 0.593227 0
M  V30 52387 H 4947.75 1.43294 1.46041 0
M  V30 52388 H 4947.76 1.20926 3.89668 0
M  V30 52389 H 4946.44 2.28238 3.47678 0
M  V30 52390 H 4945.02 0.464567 3.69995 0
M  V30 52391 N 4947.2 -1.32174 0.858357 0
M  V30 52392 C 4948.62 -1.49871 0.548708 0
M  V30 52393 C 4948.82 -1.79281 -0.919811 0
M  V30 52394 O 4947.87 -1.86457 -1.70265 0
M  V30 52395 C 4949.19 -2.64038 1.4389 0
M  V30 52396 C 4950.73 -2.77923 1.43971 0
M  V30 52397 C 4951.21 -3.95174 2.3152 0
M  V30 52398 N 4952.7 -4.02442 2.29336 0
M  V30 52399 C 4953.43 -4.9241 2.93803 0
M  V30 52400 N 4952.93 -5.8736 3.67397 0
M  V30 52401 N 4954.72 -4.85562 2.83172 0
M  V30 52402 H 4946.87 -1.11351 1.80872 0
M  V30 52403 H 4949.14 -0.549148 0.772748 0
M  V30 52404 H 4948.84 -2.49046 2.48332 0
M  V30 52405 H 4948.72 -3.59908 1.12897 0
M  V30 52406 H 4951.1 -2.92336 0.402915 0
M  V30 52407 H 4951.19 -1.82756 1.78981 0
M  V30 52408 H 4950.83 -3.81519 3.35269 0
M  V30 52409 H 4950.76 -4.89626 1.93841 0
M  V30 52410 H 4953.25 -3.34501 1.75833 0
M  V30 52411 H 4953.56 -6.52713 4.13745 0
M  V30 52412 H 4951.91 -5.87375 3.71505 0
M  V30 52413 H 4955.1 -4.10355 2.25225 0
M  V30 52414 H 4955.27 -5.55474 3.33695 0
M  V30 52415 N 4948.68 -0.616653 -1.45035 0
M  V30 52416 C 4949.64 0.0870307 -2.29035 0
M  V30 52417 C 4950.64 0.786365 -1.4026 0
M  V30 52418 O 4951.83 0.63315 -1.62286 0
M  V30 52419 C 4948.96 1.13358 -3.21501 0
M  V30 52420 H 4950.16 -0.6516 -2.92736 0
M  V30 52421 H 4947.71 -0.376111 -1.51707 0
M  V30 52422 H 4948.44 1.90268 -2.62619 0
M  V30 52423 H 4948.23 0.636222 -3.86904 0
M  V30 52424 H 4949.72 1.62614 -3.84638 0
M  V30 52425 N 4950.16 1.53519 -0.356339 0
M  V30 52426 C 4951.57 1.59599 -0.00490877 0
M  V30 52427 C 4951.77 1.37184 1.4759 0
M  V30 52428 O 4950.83 1.17242 2.2363 0
M  V30 52429 C 4952.14 2.97275 -0.452558 0
M  V30 52430 C 4953.69 3.10356 -0.40599 0
M  V30 52431 C 4954.16 4.50429 -0.829307 0
M  V30 52432 N 4955.66 4.56517 -0.783998 0
M  V30 52433 C 4956.39 5.63073 -1.08334 0
M  V30 52434 N 4955.89 6.77424 -1.4515 0
M  V30 52435 N 4957.68 5.53011 -1.00674 0
M  V30 52436 H 4949.83 1.66342 -1.32076 0
M  V30 52437 H 4952.09 0.779691 -0.539245 0
M  V30 52438 H 4951.8 3.18787 -1.48553 0
M  V30 52439 H 4951.67 3.76836 0.165629 0
M  V30 52440 H 4954.06 2.8856 0.617833 0
M  V30 52441 H 4954.14 2.32824 -1.05955 0
M  V30 52442 H 4953.79 4.72962 -1.8512 0
M  V30 52443 H 4953.72 5.26377 -0.153091 0
M  V30 52444 H 4956.21 3.74407 -0.512644 0
M  V30 52445 H 4956.52 7.54664 -1.66442 0
M  V30 52446 H 4954.86 6.78839 -1.49007 0
M  V30 52447 H 4958.06 4.62555 -0.718378 0
M  V30 52448 H 4958.23 6.35959 -1.24337 0
M  V30 52449 N 4951.63 0.0852704 1.57369 0
M  V30 52450 C 4953.05 -0.445365 1.8131 0
M  V30 52451 C 4953.4 -1.68792 1.00019 0
M  V30 52452 O 4952.52 -2.1521 0.226648 0
M  V30 52453 C 4953.12 -0.814771 3.28857 0
M  V30 52454 C 4951.68 -1.2902 3.53597 0
M  V30 52455 C 4950.82 -0.281992 2.75862 0
M  V30 52456 H 4953.77 0.310826 1.55626 0
M  V30 52457 H 4953.79 -1.67512 3.41643 0
M  V30 52458 H 4953.31 0.0897673 3.87996 0
M  V30 52459 H 4951.41 -2.21278 2.99778 0
M  V30 52460 H 4951.52 -1.25882 4.62267 0
M  V30 52461 H 4949.88 -0.762096 2.43031 0
M  V30 52462 H 4950.67 0.615054 3.37745 0
M  V30 52463 N 4953.11 -1.5647 -0.188372 0
M  V30 52464 C 4954.02 -1.9829 -1.25373 0
M  V30 52465 C 4955.04 -0.891587 -1.49421 0
M  V30 52466 O 4956.22 -1.19788 -1.61904 0
M  V30 52467 C 4953.28 -2.31974 -2.57661 0
M  V30 52468 C 4952.34 -3.54846 -2.41625 0
M  V30 52469 C 4951.57 -3.86914 -3.67605 0
M  V30 52470 O 4951.8 -3.20179 -4.72061 0
M  V30 52471 O 4950.73 -4.80322 -3.62732 0
M  V30 52472 H 4954.56 -2.89148 -0.92881 0
M  V30 52473 H 4952.14 -1.44114 -0.393904 0
M  V30 52474 H 4954.02 -2.54685 -3.35728 0
M  V30 52475 H 4952.7 -1.44281 -2.89766 0
M  V30 52476 H 4951.61 -3.37374 -1.61646 0
M  V30 52477 H 4952.94 -4.43026 -2.1445 0
M  V30 52478 N 4954.59 0.456329 -1.50849 0
M  V30 52479 C 4955.52 1.56019 -1.73725 0
M  V30 52480 C 4956.5 1.59668 -0.586529 0
M  V30 52481 O 4957.69 1.75699 -0.827246 0
M  V30 52482 C 4954.82 2.94244 -1.84493 0
M  V30 52483 C 4953.77 3.0546 -2.99797 0
M  V30 52484 C 4953.1 4.45478 -2.95725 0
M  V30 52485 C 4954.4 2.81302 -4.40075 0
M  V30 52486 H 4956.09 1.37128 -2.66151 0
M  V30 52487 H 4953.64 0.658254 -1.28074 0
M  V30 52488 H 4955.59 3.7141 -1.9908 0
M  V30 52489 H 4954.31 3.14324 -0.887001 0
M  V30 52490 H 4952.97 2.30731 -2.84884 0
M  V30 52491 H 4952.62 4.62498 -1.97748 0
M  V30 52492 H 4952.32 4.53916 -3.73141 0
M  V30 52493 H 4953.85 5.24644 -3.1238 0
M  V30 52494 H 4955.26 3.4821 -4.55437 0
M  V30 52495 H 4953.66 3.0117 -5.19054 0
M  V30 52496 H 4954.73 1.77044 -4.51424 0
M  V30 52497 N 4956.07 1.40675 0.710514 0
M  V30 52498 C 4957 1.44101 1.83731 0
M  V30 52499 C 4957.98 0.301345 1.67409 0
M  V30 52500 O 4959.17 0.510684 1.87365 0
M  V30 52501 C 4956.3 1.30785 3.21734 0
M  V30 52502 C 4955.25 2.42407 3.52736 0
M  V30 52503 C 4954.58 2.14164 4.89936 0
M  V30 52504 C 4955.88 3.8475 3.5322 0
M  V30 52505 H 4957.57 2.38402 1.81121 0
M  V30 52506 H 4955.12 1.14749 0.869976 0
M  V30 52507 H 4957.07 1.31797 4.00259 0
M  V30 52508 H 4955.79 0.329622 3.24932 0
M  V30 52509 H 4954.45 2.40653 2.76553 0
M  V30 52510 H 4954.1 1.1472 4.89743 0
M  V30 52511 H 4953.8 2.88952 5.11645 0
M  V30 52512 H 4955.32 2.16868 5.7079 0
M  V30 52513 H 4956.74 3.88301 4.21777 0
M  V30 52514 H 4955.13 4.59098 3.86457 0
M  V30 52515 H 4956.2 4.13971 2.52499 0
M  V30 52516 N 4957.55 -0.943255 1.26256 0
M  V30 52517 C 4958.48 -2.04539 1.03424 0
M  V30 52518 C 4959.49 -1.62799 -0.00463387 0
M  V30 52519 O 4960.68 -1.76944 0.235208 0
M  V30 52520 C 4957.78 -3.34509 0.543789 0
M  V30 52521 C 4956.95 -4.05027 1.65142 0
M  V30 52522 C 4956.01 -5.13269 1.15938 0
M  V30 52523 O 4955.04 -5.38089 1.85605 0
M  V30 52524 N 4956.24 -5.805 0.00669686 0
M  V30 52525 H 4959.01 -2.24692 1.98327 0
M  V30 52526 H 4956.57 -1.11259 1.17614 0
M  V30 52527 H 4958.56 -4.04211 0.198845 0
M  V30 52528 H 4957.13 -3.11043 -0.311601 0
M  V30 52529 H 4956.35 -3.29268 2.16741 0
M  V30 52530 H 4957.64 -4.48894 2.39523 0
M  V30 52531 H 4957.04 -5.62769 -0.575149 0
M  V30 52532 H 4955.59 -6.51202 -0.279187 0
M  V30 52533 N 4959.03 -1.08026 -1.14753 0
M  V30 52534 C 4960.25 -0.829017 -1.90111 0
M  V30 52535 C 4960.68 0.612709 -1.77841 0
M  V30 52536 O 4960.03 1.42891 -1.11588 0
M  V30 52537 C 4960.08 -1.25074 -3.38214 0
M  V30 52538 O 4959.19 -0.400263 -4.10453 0
M  V30 52539 H 4958.53 -0.301433 -0.591637 0
M  V30 52540 H 4961.06 -1.44067 -1.45279 0
M  V30 52541 H 4961.07 -1.2299 -3.89021 0
M  V30 52542 H 4959.74 -2.30079 -3.46463 0
M  V30 52543 H 4958.32 -0.484182 -3.69743 0
M  V30 52544 N 4960.5 1.31717 -0.865354 0
M  V30 52545 C 4961.45 2.26156 -0.289384 0
M  V30 52546 C 4962.44 1.5043 0.570924 0
M  V30 52547 O 4963.63 1.7198 0.418556 0
M  V30 52548 C 4960.76 3.39459 0.512117 0
M  V30 52549 C 4959.84 4.22559 -0.361176 0
M  V30 52550 N 4960.24 4.84496 -1.45248 0
M  V30 52551 C 4958.53 4.45738 -0.152798 0
M  V30 52552 C 4959.23 5.46579 -1.99063 0
M  V30 52553 N 4958.21 5.28114 -1.28828 0
M  V30 52554 H 4962.01 2.71577 -1.12353 0
M  V30 52555 H 4959.53 1.4593 -0.712616 0
M  V30 52556 H 4961.52 4.06136 0.941236 0
M  V30 52557 H 4960.18 2.95582 1.34393 0
M  V30 52558 H 4961.19 4.84286 -1.83541 0
M  V30 52559 H 4957.87 4.12512 0.643438 0
M  V30 52560 H 4959.26 6.05807 -2.90598 0
M  V30 52561 N 4961.98 0.624336 1.44706 0
M  V30 52562 C 4963.23 0.126122 2.02107 0
M  V30 52563 C 4963.56 -1.24954 1.49052 0
M  V30 52564 O 4962.81 -1.84161 0.66207 0
M  V30 52565 C 4963.11 0.0547609 3.57358 0
M  V30 52566 C 4962.78 1.3683 4.29637 0
M  V30 52567 C 4961.44 1.72808 4.491 0
M  V30 52568 C 4963.79 2.23565 4.70816 0
M  V30 52569 C 4961.12 2.9524 5.07001 0
M  V30 52570 C 4963.47 3.45262 5.30073 0
M  V30 52571 C 4962.13 3.81471 5.47756 0
M  V30 52572 H 4961.4 0.0461512 0.739561 0
M  V30 52573 H 4964.05 0.809297 1.73559 0
M  V30 52574 H 4962.36 -0.711756 3.85281 0
M  V30 52575 H 4964.05 -0.347141 3.99495 0
M  V30 52576 H 4960.64 1.07831 4.14814 0
M  V30 52577 H 4964.83 1.97066 4.55498 0
M  V30 52578 H 4960.08 3.23379 5.18879 0
M  V30 52579 H 4964.26 4.12709 5.60932 0
M  V30 52580 H 4961.88 4.76424 5.92388 0
M  V30 52581 N 4963.46 -1.53328 0.364476 0
M  V30 52582 C 4964.71 -2.00422 -0.226677 0
M  V30 52583 C 4965.02 -1.25586 -1.49958 0
M  V30 52584 O 4966.23 -1.63263 -2.16927 0
M  V30 52585 C 4964.68 -3.57019 -0.454492 0
M  V30 52586 C 4964.29 -4.40732 0.803723 0
M  V30 52587 C 4966.04 -4.12472 -1.00336 0
M  V30 52588 C 4963.94 -5.88878 0.545552 0
M  V30 52589 H 4962.87 -0.74879 -0.0884819 0
M  V30 52590 H 4965.52 -1.77028 0.483045 0
M  V30 52591 H 4963.91 -3.76562 -1.22545 0
M  V30 52592 H 4965.08 -4.32961 1.57738 0
M  V30 52593 H 4963.39 -3.96376 1.27573 0
M  V30 52594 H 4965.99 -5.20787 -1.21182 0
M  V30 52595 H 4966.33 -3.66997 -1.96517 0
M  V30 52596 H 4966.87 -3.96722 -0.2926 0
M  V30 52597 H 4963.61 -6.38628 1.47766 0
M  V30 52598 H 4963.13 -5.995 -0.189631 0
M  V30 52599 H 4964.81 -6.46775 0.170652 0
M  V30 52600 N 4964.94 -0.0936148 -1.57322 0
M  V30 52601 C 4966.35 0.435743 -1.81544 0
M  V30 52602 C 4966.7 1.68259 -1.00912 0
M  V30 52603 O 4965.82 2.15087 -0.238058 0
M  V30 52604 C 4966.42 0.79732 -3.29284 0
M  V30 52605 C 4964.98 1.27143 -3.54276 0
M  V30 52606 C 4964.13 0.267358 -2.76008 0
M  V30 52607 H 4967.08 -0.319075 -1.55459 0
M  V30 52608 H 4967.1 1.65698 -3.42527 0
M  V30 52609 H 4966.61 -0.110342 -3.87943 0
M  V30 52610 H 4964.71 2.19685 -3.00947 0
M  V30 52611 H 4964.82 1.23429 -4.62928 0
M  V30 52612 H 4963.19 0.749197 -2.43432 0
M  V30 52613 H 4963.97 -0.632957 -3.37414 0
M  V30 52614 N 4966.42 1.56568 0.180071 0
M  V30 52615 C 4967.64 1.85622 0.913907 0
M  V30 52616 C 4968.06 0.677954 1.76208 0
M  V30 52617 O 4967.42 -0.353108 1.79051 0
M  V30 52618 C 4967.47 3.13625 1.79782 0
M  V30 52619 O 4967.19 4.26909 0.98387 0
M  V30 52620 C 4968.69 3.55964 2.64206 0
M  V30 52621 H 4965.91 0.616053 0.265933 0
M  V30 52622 H 4968.45 2.03681 0.1828 0
M  V30 52623 H 4966.61 2.97418 2.48237 0
M  V30 52624 H 4967.02 4.99896 1.58758 0
M  V30 52625 H 4968.5 4.48455 3.21857 0
M  V30 52626 H 4968.97 2.79665 3.38651 0
M  V30 52627 H 4969.58 3.74753 2.01098 0
M  V30 52628 N 4967.89 -0.448323 1.51089 0
M  V30 52629 C 4969.14 -1.19555 1.62448 0
M  V30 52630 C 4969.46 -1.92601 0.341219 0
M  V30 52631 O 4970.66 -2.69437 0.334031 0
M  V30 52632 C 4969.12 -2.17363 2.86847 0
M  V30 52633 C 4968.73 -1.50015 4.22137 0
M  V30 52634 C 4970.47 -2.92586 3.07561 0
M  V30 52635 C 4968.38 -2.46243 5.37697 0
M  V30 52636 H 4967.31 -0.449954 0.605027 0
M  V30 52637 H 4969.96 -0.463673 1.77545 0
M  V30 52638 H 4968.34 -2.93939 2.6536 0
M  V30 52639 H 4969.51 -0.790726 4.53965 0
M  V30 52640 H 4967.83 -0.869868 4.07213 0
M  V30 52641 H 4970.43 -3.64649 3.91069 0
M  V30 52642 H 4970.77 -3.53298 2.20195 0
M  V30 52643 H 4971.3 -2.23119 3.29337 0
M  V30 52644 H 4968.04 -1.90236 6.27288 0
M  V30 52645 H 4967.56 -3.15271 5.10259 0
M  V30 52646 H 4969.24 -3.07603 5.69201 0
M  V30 52647 N 4969.37 -1.4105 -0.703043 0
M  V30 52648 C 4970.62 -1.39728 -1.46015 0
M  V30 52649 C 4970.94 -0.00468112 -1.94999 0
M  V30 52650 O 4970.21 0.952232 -1.712 0
M  V30 52651 H 4968.79 -0.5143 -0.541761 0
M  V30 52652 H 4971.45 -1.7622 -0.832616 0
M  V30 52653 H 4970.55 -2.07991 -2.32694 0
M  V30 52654 N 4970.85 0.936546 -1.26754 0
M  V30 52655 C 4972.27 1.21091 -1.03967 0
M  V30 52656 C 4972.47 2.00156 0.232302 0
M  V30 52657 O 4971.52 2.34343 0.940191 0
M  V30 52658 C 4972.84 1.96767 -2.27384 0
M  V30 52659 C 4974.38 2.0974 -2.32332 0
M  V30 52660 C 4974.86 2.8882 -3.55454 0
M  V30 52661 N 4976.35 2.96391 -3.55958 0
M  V30 52662 C 4977.08 3.5802 -4.47894 0
M  V30 52663 N 4976.58 4.21113 -5.50124 0
M  V30 52664 N 4978.37 3.55338 -4.35536 0
M  V30 52665 H 4970.52 0.408099 -2.08443 0
M  V30 52666 H 4972.79 0.243107 -0.916298 0
M  V30 52667 H 4972.49 1.46082 -3.19926 0
M  V30 52668 H 4972.37 2.97416 -2.31999 0
M  V30 52669 H 4974.75 2.59615 -1.403 0
M  V30 52670 H 4974.84 1.08339 -2.31725 0
M  V30 52671 H 4974.48 2.39631 -4.47816 0
M  V30 52672 H 4974.41 3.90487 -3.5331 0
M  V30 52673 H 4976.9 2.51542 -2.8202 0
M  V30 52674 H 4977.21 4.6605 -6.16456 0
M  V30 52675 H 4975.56 4.19685 -5.53976 0
M  V30 52676 H 4978.75 3.05244 -3.54886 0
M  V30 52677 H 4978.92 4.03079 -5.07377 0
M  V30 52678 N 4972.33 1.08633 1.14178 0
M  V30 52679 C 4973.26 0.740081 2.21461 0
M  V30 52680 C 4974.24 -0.278532 1.67804 0
M  V30 52681 O 4975.42 -0.148393 1.93632 0
M  V30 52682 C 4972.55 0.151074 3.46971 0
M  V30 52683 C 4971.51 1.09829 4.13668 0
M  V30 52684 C 4970.83 0.371388 5.33409 0
M  V30 52685 C 4972.13 2.43738 4.61941 0
M  V30 52686 H 4973.83 1.63706 2.50681 0
M  V30 52687 H 4971.37 0.788568 1.20489 0
M  V30 52688 H 4973.33 -0.103177 4.21274 0
M  V30 52689 H 4972.05 -0.781053 3.17123 0
M  V30 52690 H 4970.71 1.33768 3.41323 0
M  V30 52691 H 4970.36 -0.564616 4.99821 0
M  V30 52692 H 4970.06 1.00288 5.78979 0
M  V30 52693 H 4971.58 0.125245 6.10472 0
M  V30 52694 H 4973 2.24052 5.27706 0
M  V30 52695 H 4971.39 3.026 5.18221 0
M  V30 52696 H 4972.46 3.05095 3.76888 0
M  V30 52697 N 4973.81 -1.31256 0.872327 0
M  V30 52698 C 4975.22 -1.49281 0.564573 0
M  V30 52699 C 4975.42 -1.80247 -0.900744 0
M  V30 52700 O 4974.48 -1.88252 -1.68277 0
M  V30 52701 C 4975.79 -2.62497 1.46682 0
M  V30 52702 C 4977.34 -2.76381 1.46911 0
M  V30 52703 C 4977.81 -3.92696 2.35698 0
M  V30 52704 N 4979.31 -3.99987 2.33591 0
M  V30 52705 C 4980.04 -4.89266 2.99009 0
M  V30 52706 N 4979.54 -5.8343 3.73606 0
M  V30 52707 N 4981.33 -4.82531 2.88306 0
M  V30 52708 H 4973.48 -1.09426 1.82043 0
M  V30 52709 H 4975.74 -0.540921 0.778529 0
M  V30 52710 H 4975.45 -2.46398 2.5096 0
M  V30 52711 H 4975.32 -3.58691 1.16708 0
M  V30 52712 H 4977.71 -2.91893 0.433899 0
M  V30 52713 H 4977.79 -1.80847 1.80909 0
M  V30 52714 H 4977.44 -3.77942 3.39297 0
M  V30 52715 H 4977.37 -4.87542 1.99023 0
M  V30 52716 H 4979.86 -3.32617 1.79371 0
M  V30 52717 H 4980.17 -6.48288 4.20645 0
M  V30 52718 H 4978.51 -5.83401 3.77714 0
M  V30 52719 H 4981.71 -4.07943 2.29565 0
M  V30 52720 H 4981.88 -5.51904 3.39568 0
M  V30 52721 N 4975.28 -0.632002 -1.44373 0
M  V30 52722 C 4976.23 0.0723996 -2.30686 0
M  V30 52723 C 4977.2 0.835925 -1.43532 0
M  V30 52724 O 4978.39 0.816789 -1.72433 0
M  V30 52725 C 4975.53 1.04741 -3.28821 0
M  V30 52726 C 4974.64 0.282215 -4.31077 0
M  V30 52727 C 4973.77 1.24912 -5.16305 0
M  V30 52728 C 4972.81 0.473135 -6.10269 0
M  V30 52729 N 4971.95 1.39055 -6.88192 0
M  V30 52730 H 4976.79 -0.669579 -2.9038 0
M  V30 52731 H 4974.33 -0.341977 -1.4307 0
M  V30 52732 H 4976.29 1.62609 -3.84206 0
M  V30 52733 H 4974.92 1.75651 -2.70826 0
M  V30 52734 H 4973.97 -0.412401 -3.78158 0
M  V30 52735 H 4975.28 -0.32213 -4.97759 0
M  V30 52736 H 4974.43 1.89911 -5.76211 0
M  V30 52737 H 4973.17 1.88739 -4.49699 0
M  V30 52738 H 4972.18 -0.190335 -5.4947 0
M  V30 52739 H 4973.4 -0.160428 -6.7891 0
M  V30 52740 H 4971.35 2.01601 -6.24254 0
M  V30 52741 H 4971.27 0.840249 -7.51316 0
M  V30 52742 H 4972.53 2.02935 -7.52621 0
M  V30 52743 N 4976.76 1.53132 -0.372602 0
M  V30 52744 C 4978.18 1.59585 -0.0218361 0
M  V30 52745 C 4978.38 1.38741 1.46127 0
M  V30 52746 O 4977.43 1.19607 2.22374 0
M  V30 52747 C 4978.75 2.96778 -0.484063 0
M  V30 52748 C 4980.3 3.09908 -0.438884 0
M  V30 52749 C 4980.77 4.49524 -0.877034 0
M  V30 52750 N 4982.26 4.5566 -0.832374 0
M  V30 52751 C 4983 5.61892 -1.143 0
M  V30 52752 N 4982.49 6.75846 -1.52327 0
M  V30 52753 N 4984.29 5.51912 -1.06534 0
M  V30 52754 H 4976.44 1.64932 -1.33833 0
M  V30 52755 H 4978.7 0.773928 -0.547485 0
M  V30 52756 H 4978.41 3.17193 -1.51926 0
M  V30 52757 H 4978.28 3.76991 0.125651 0
M  V30 52758 H 4980.67 2.89199 0.587192 0
M  V30 52759 H 4980.75 2.31687 -1.08419 0
M  V30 52760 H 4980.39 4.70972 -1.90126 0
M  V30 52761 H 4980.32 5.26185 -0.208912 0
M  V30 52762 H 4982.81 3.73842 -0.552326 0
M  V30 52763 H 4983.13 7.52856 -1.74437 0
M  V30 52764 H 4981.47 6.7722 -1.56198 0
M  V30 52765 H 4984.66 4.61767 -0.767398 0
M  V30 52766 H 4984.83 6.34605 -1.31075 0
M  V30 52767 N 4978.24 0.101957 1.5727 0
M  V30 52768 C 4979.2 -0.840054 2.1325 0
M  V30 52769 C 4980.2 -1.20621 1.06335 0
M  V30 52770 O 4981.39 -1.13452 1.3219 0
M  V30 52771 C 4978.53 -2.13363 2.65874 0
M  V30 52772 H 4979.72 -0.35384 2.97805 0
M  V30 52773 H 4977.27 -0.147113 1.55606 0
M  V30 52774 H 4978.01 -2.66454 1.84859 0
M  V30 52775 H 4977.79 -1.88073 3.44051 0
M  V30 52776 H 4979.28 -2.80737 3.09154 0
M  V30 52777 N 4979.72 -1.56661 -0.171765 0
M  V30 52778 C 4980.97 -1.81609 -0.88671 0
M  V30 52779 C 4981.29 -0.678882 -1.82801 0
M  V30 52780 O 4980.56 0.301286 -1.93569 0
M  V30 52781 H 4979.14 -0.669945 -0.330427 0
M  V30 52782 H 4981.8 -1.94142 -0.171689 0
M  V30 52783 H 4980.9 -2.75639 -1.46388 0
M  V30 52784 N 4981.2 0.440304 -1.51324 0
M  V30 52785 C 4982.14 1.53423 -1.72424 0
M  V30 52786 C 4983.11 1.56163 -0.565881 0
M  V30 52787 O 4984.3 1.73219 -0.799978 0
M  V30 52788 C 4981.44 2.91163 -1.85252 0
M  V30 52789 C 4980.55 2.97974 -3.12787 0
M  V30 52790 C 4979.69 4.26818 -3.16227 0
M  V30 52791 C 4978.73 4.27486 -4.38089 0
M  V30 52792 N 4977.86 5.4785 -4.39095 0
M  V30 52793 H 4982.7 1.34734 -2.65802 0
M  V30 52794 H 4980.24 0.654561 -1.31734 0
M  V30 52795 H 4982.2 3.7108 -1.90671 0
M  V30 52796 H 4980.83 3.08416 -0.952852 0
M  V30 52797 H 4979.88 2.10738 -3.16692 0
M  V30 52798 H 4981.19 2.94328 -4.02706 0
M  V30 52799 H 4980.35 5.15107 -3.20546 0
M  V30 52800 H 4979.08 4.33116 -2.24191 0
M  V30 52801 H 4978.09 3.3759 -4.3395 0
M  V30 52802 H 4979.31 4.22854 -5.31386 0
M  V30 52803 H 4977.26 5.54875 -3.49928 0
M  V30 52804 H 4977.18 5.46073 -5.2282 0
M  V30 52805 H 4978.45 6.38179 -4.47602 0
M  V30 52806 N 4982.68 1.41421 0.695553 0
M  V30 52807 C 4983.92 1.40987 1.45775 0
M  V30 52808 C 4984.25 0.0188446 1.94191 0
M  V30 52809 O 4983.53 -0.9534 1.6953 0
M  V30 52810 C 4983.81 2.41666 2.66963 0
M  V30 52811 C 4983.67 3.89877 2.24313 0
M  V30 52812 C 4984.98 2.39602 3.6916 0
M  V30 52813 H 4982.1 0.513424 0.528739 0
M  V30 52814 H 4984.75 1.72696 0.792214 0
M  V30 52815 H 4982.9 2.14757 3.23746 0
M  V30 52816 H 4984.57 4.27689 1.72857 0
M  V30 52817 H 4982.81 4.04742 1.56097 0
M  V30 52818 H 4983.48 4.55868 3.11269 0
M  V30 52819 H 4985.96 2.63482 3.2205 0
M  V30 52820 H 4984.83 3.1206 4.51564 0
M  V30 52821 H 4985.09 1.41461 4.18857 0
M  V30 52822 N 4984.15 -0.929811 1.27249 0
M  V30 52823 C 4985.4 -1.67976 1.13631 0
M  V30 52824 C 4985.73 -1.91587 -0.317522 0
M  V30 52825 O 4985.01 -1.50472 -1.23242 0
M  V30 52826 C 4985.29 -3.04759 1.91817 0
M  V30 52827 C 4985.14 -2.88403 3.45172 0
M  V30 52828 C 4986.46 -4.05057 1.72096 0
M  V30 52829 H 4983.58 -0.609617 0.414169 0
M  V30 52830 H 4986.22 -1.07914 1.56379 0
M  V30 52831 H 4984.37 -3.56028 1.55487 0
M  V30 52832 H 4986.05 -2.44268 3.91319 0
M  V30 52833 H 4984.29 -2.23789 3.71619 0
M  V30 52834 H 4984.96 -3.85468 3.95118 0
M  V30 52835 H 4987.44 -3.62791 2.03769 0
M  V30 52836 H 4986.31 -4.98757 2.292 0
M  V30 52837 H 4986.57 -4.37019 0.668359 0
M  V30 52838 N 4985.63 -1.09237 -1.13601 0
M  V30 52839 C 4986.86 -0.849134 -1.89221 0
M  V30 52840 C 4987.28 0.593812 -1.78481 0
M  V30 52841 O 4986.64 1.41699 -1.13097 0
M  V30 52842 C 4986.69 -1.28654 -3.36869 0
M  V30 52843 O 4985.79 -0.443774 -4.10005 0
M  V30 52844 H 4985.13 -0.307691 -0.588407 0
M  V30 52845 H 4987.66 -1.456 -1.43743 0
M  V30 52846 H 4987.67 -1.2711 -3.87695 0
M  V30 52847 H 4986.35 -2.33741 -3.44003 0
M  V30 52848 H 4984.92 -0.523371 -3.69209 0
M  V30 52849 N 4987.11 1.30792 -0.879276 0
M  V30 52850 C 4988.02 2.3204 -0.345647 0
M  V30 52851 C 4989.04 1.65105 0.549207 0
M  V30 52852 O 4990.21 1.96452 0.443694 0
M  V30 52853 C 4987.28 3.43946 0.436124 0
M  V30 52854 C 4986.34 4.2652 -0.4878 0
M  V30 52855 C 4985.57 5.33082 0.256756 0
M  V30 52856 O 4985.79 5.50768 1.48362 0
M  V30 52857 O 4984.73 6.00634 -0.390196 0
M  V30 52858 H 4988.55 2.79623 -1.1851 0
M  V30 52859 H 4986.14 1.34858 -0.642933 0
M  V30 52860 H 4988.02 4.12131 0.878974 0
M  V30 52861 H 4986.7 2.98508 1.25198 0
M  V30 52862 H 4985.6 3.61054 -0.979343 0
M  V30 52863 H 4986.94 4.75547 -1.2695 0
M  V30 52864 N 4988.59 0.639649 1.44036 0
M  V30 52865 C 4989.5 -0.0611553 2.3452 0
M  V30 52866 C 4990.51 -0.826664 1.53109 0
M  V30 52867 O 4991.69 -0.776994 1.85808 0
M  V30 52868 C 4988.75 -1.0248 3.31208 0
M  V30 52869 C 4987.82 -0.257729 4.28526 0
M  V30 52870 C 4987.05 -1.17547 5.20594 0
M  V30 52871 O 4987.27 -2.41443 5.1678 0
M  V30 52872 O 4986.21 -0.655197 5.98323 0
M  V30 52873 H 4990.03 0.683284 2.95914 0
M  V30 52874 H 4987.62 0.399834 1.4395 0
M  V30 52875 H 4989.5 -1.57898 3.907 0
M  V30 52876 H 4988.17 -1.74971 2.72336 0
M  V30 52877 H 4987.08 0.339697 3.72555 0
M  V30 52878 H 4988.41 0.427327 4.90341 0
M  V30 52879 N 4990.07 -1.52932 0.380717 0
M  V30 52880 C 4990.98 -2.29923 -0.466112 0
M  V30 52881 C 4991.99 -1.36491 -1.07917 0
M  V30 52882 O 4993.17 -1.69557 -1.08684 0
M  V30 52883 C 4990.23 -3.08474 -1.58255 0
M  V30 52884 C 4989.29 -4.17599 -0.99548 0
M  V30 52885 C 4988.53 -4.92395 -2.05872 0
M  V30 52886 O 4988.75 -4.67195 -3.27238 0
M  V30 52887 O 4987.68 -5.77955 -1.68081 0
M  V30 52888 H 4991.51 -3.03274 0.160842 0
M  V30 52889 H 4989.09 -1.48698 0.144669 0
M  V30 52890 H 4990.98 -3.57477 -2.23133 0
M  V30 52891 H 4989.65 -2.37945 -2.19463 0
M  V30 52892 H 4988.56 -3.72812 -0.310201 0
M  V30 52893 H 4989.89 -4.90338 -0.427745 0
M  V30 52894 N 4991.54 -0.110296 -1.57214 0
M  V30 52895 C 4992.48 0.873423 -2.11906 0
M  V30 52896 C 4993.49 1.23585 -1.05975 0
M  V30 52897 O 4994.68 1.18631 -1.33375 0
M  V30 52898 C 4991.78 2.17796 -2.5965 0
M  V30 52899 C 4990.95 1.98856 -3.89583 0
M  V30 52900 C 4990.01 3.12959 -4.23017 0
M  V30 52901 O 4989.04 2.86254 -4.91983 0
M  V30 52902 N 4990.24 4.39153 -3.79637 0
M  V30 52903 H 4993 0.406213 -2.96934 0
M  V30 52904 H 4990.56 0.0743801 -1.61729 0
M  V30 52905 H 4992.56 2.93107 -2.79052 0
M  V30 52906 H 4991.13 2.55892 -1.79549 0
M  V30 52907 H 4990.35 1.07787 -3.79178 0
M  V30 52908 H 4991.63 1.83496 -4.7456 0
M  V30 52909 H 4991.03 4.63727 -3.23996 0
M  V30 52910 H 4989.59 5.11365 -4.04165 0
M  V30 52911 N 4993.02 1.5675 0.163455 0
M  V30 52912 C 4993.95 2.00046 1.20431 0
M  V30 52913 C 4994.93 0.877308 1.4573 0
M  V30 52914 O 4996.12 1.14395 1.56931 0
M  V30 52915 C 4993.25 2.36706 2.54141 0
M  V30 52916 C 4992.2 3.52055 2.43396 0
M  V30 52917 C 4991.53 3.7448 3.81666 0
M  V30 52918 C 4992.83 4.85254 1.93199 0
M  V30 52919 H 4994.52 2.87247 0.844376 0
M  V30 52920 H 4992.07 1.38195 0.404731 0
M  V30 52921 H 4994.02 2.65594 3.27167 0
M  V30 52922 H 4992.74 1.46424 2.91938 0
M  V30 52923 H 4991.4 3.23307 1.72823 0
M  V30 52924 H 4991.05 2.81475 4.1687 0
M  V30 52925 H 4990.75 4.52097 3.75343 0
M  V30 52926 H 4992.28 4.05776 4.56266 0
M  V30 52927 H 4993.69 5.12966 2.56005 0
M  V30 52928 H 4992.09 5.66562 1.97805 0
M  V30 52929 H 4993.16 4.76723 0.886722 0
M  V30 52930 N 4994.5 -0.432272 1.51556 0
M  V30 52931 C 4995.92 -0.769146 1.39844 0
M  V30 52932 C 4996.12 -1.95582 0.484744 0
M  V30 52933 O 4995.17 -2.52433 -0.0581941 0
M  V30 52934 C 4996.48 -1.04477 2.81966 0
M  V30 52935 C 4998.03 -1.1489 2.91152 0
M  V30 52936 C 4998.51 -1.45742 4.34193 0
M  V30 52937 N 5000 -1.52656 4.37322 0
M  V30 52938 C 5000.73 -1.7811 5.45036 0
M  V30 52939 N 5000.23 -2.01322 6.62904 0
M  V30 52940 N 5002.02 -1.79934 5.32523 0
M  V30 52941 H 4994.17 0.349196 2.0951 0
M  V30 52942 H 4996.44 0.0938445 0.943344 0
M  V30 52943 H 4996.14 -0.245447 3.50842 0
M  V30 52944 H 4996.02 -1.97108 3.21603 0
M  V30 52945 H 4998.4 -1.93884 2.22471 0
M  V30 52946 H 4998.48 -0.201478 2.55005 0
M  V30 52947 H 4998.13 -0.67274 5.03425 0
M  V30 52948 H 4998.06 -2.41698 4.67856 0
M  V30 52949 H 5000.55 -1.366 3.52348 0
M  V30 52950 H 5000.86 -2.20129 7.40785 0
M  V30 52951 H 4999.21 -1.98634 6.6601 0
M  V30 52952 H 5002.4 -1.61322 4.39423 0
M  V30 52953 H 5002.57 -1.99433 6.16547 0
M  V30 52954 N 4995.98 -1.41788 -0.688044 0
M  V30 52955 C 4996.91 -1.47006 -1.81415 0
M  V30 52956 C 4997.89 -0.32794 -1.66909 0
M  V30 52957 O 4999.07 -0.540428 -1.86529 0
M  V30 52958 C 4996.2 -1.35887 -3.19612 0
M  V30 52959 C 4995.16 -2.47988 -3.48835 0
M  V30 52960 C 4994.48 -2.21932 -4.86467 0
M  V30 52961 C 4995.78 -3.90321 -3.47055 0
M  V30 52962 H 4997.48 -2.41253 -1.77305 0
M  V30 52963 H 4995.02 -1.16119 -0.851611 0
M  V30 52964 H 4996.98 -1.38148 -3.98112 0
M  V30 52965 H 4995.7 -0.381274 -3.24367 0
M  V30 52966 H 4994.36 -2.45022 -2.7269 0
M  V30 52967 H 4994.01 -1.22497 -4.87856 0
M  V30 52968 H 4993.71 -2.97055 -5.06983 0
M  V30 52969 H 4995.23 -2.25921 -5.67267 0
M  V30 52970 H 4996.65 -3.94962 -4.15546 0
M  V30 52971 H 4995.04 -4.65188 -3.79104 0
M  V30 52972 H 4996.11 -4.17936 -2.45881 0
M  V30 52973 N 4997.46 0.92305 -1.2774 0
M  V30 52974 C 4998.37 2.05761 -1.12692 0
M  V30 52975 C 4999.38 1.73911 -0.0557808 0
M  V30 52976 O 5000.56 1.99673 -0.263207 0
M  V30 52977 C 4997.62 3.37801 -0.780482 0
M  V30 52978 C 4996.68 3.8332 -1.93299 0
M  V30 52979 C 4995.92 5.09058 -1.60299 0
M  V30 52980 O 4996.14 5.68088 -0.513028 0
M  V30 52981 O 4995.07 5.50062 -2.44366 0
M  V30 52982 H 4998.9 2.21371 -2.07915 0
M  V30 52983 H 4996.49 1.04295 -1.06971 0
M  V30 52984 H 4998.37 4.17095 -0.600815 0
M  V30 52985 H 4997.04 3.23388 0.142177 0
M  V30 52986 H 4995.95 3.04892 -2.16775 0
M  V30 52987 H 4997.28 4.02282 -2.83602 0
M  V30 52988 N 4998.93 1.09838 1.1302 0
M  V30 52989 C 4999.9 0.745134 2.1675 0
M  V30 52990 C 5000.9 -0.227379 1.59184 0
M  V30 52991 O 5002.09 -0.00501736 1.74199 0
M  V30 52992 C 4999.22 0.102663 3.40745 0
M  V30 52993 H 5000.41 1.66384 2.49512 0
M  V30 52994 H 4997.97 0.898105 1.27921 0
M  V30 52995 H 4998.7 -0.827067 3.13576 0
M  V30 52996 H 4998.49 0.802485 3.838 0
M  V30 52997 H 4999.98 -0.128935 4.17401 0
M  V30 52998 N 5000.41 -1.30324 0.8862 0
M  V30 52999 C 5001.36 -2.28098 0.35215 0
M  V30 53000 C 5002.33 -1.56435 -0.558342 0
M  V30 53001 O 5003.51 -1.84494 -0.486496 0
M  V30 53002 C 5000.65 -3.42458 -0.426225 0
M  V30 53003 C 4999.77 -4.28936 0.513623 0
M  V30 53004 C 4998.9 -5.30459 -0.28047 0
M  V30 53005 C 4997.94 -6.08588 0.65477 0
M  V30 53006 N 4997.08 -7.02023 -0.104075 0
M  V30 53007 H 5001.92 -2.73162 1.19107 0
M  V30 53008 H 4999.46 -1.34365 0.598709 0
M  V30 53009 H 5001.41 -4.07521 -0.893443 0
M  V30 53010 H 5000.04 -2.98459 -1.22971 0
M  V30 53011 H 4999.1 -3.64169 1.09933 0
M  V30 53012 H 5000.41 -4.83395 1.23007 0
M  V30 53013 H 4999.56 -6.01275 -0.809488 0
M  V30 53014 H 4998.3 -4.76697 -1.03012 0
M  V30 53015 H 4997.31 -5.36647 1.19541 0
M  V30 53016 H 4998.53 -6.64438 1.40353 0
M  V30 53017 H 4996.48 -6.50648 -0.836243 0
M  V30 53018 H 4996.39 -7.53977 0.552718 0
M  V30 53019 H 4997.66 -7.7708 -0.613796 0
M  V30 53020 N 5001.89 -0.647279 -1.43694 0
M  V30 53021 C 5002.85 0.0384295 -2.29168 0
M  V30 53022 C 5003.85 0.756437 -1.41897 0
M  V30 53023 O 5005.04 0.598584 -1.63593 0
M  V30 53024 C 5002.18 1.06513 -3.23833 0
M  V30 53025 H 5003.37 -0.713547 -2.91288 0
M  V30 53026 H 5000.92 -0.408206 -1.50875 0
M  V30 53027 H 5001.66 1.84654 -2.66596 0
M  V30 53028 H 5001.44 0.554011 -3.88166 0
M  V30 53029 H 5002.93 1.54418 -3.88001 0
M  V30 53030 N 5003.37 1.52728 -0.388822 0
M  V30 53031 C 5004.28 2.30167 0.453912 0
M  V30 53032 C 5005.29 1.37062 1.07192 0
M  V30 53033 O 5006.47 1.70131 1.07784 0
M  V30 53034 C 5003.54 3.09309 1.56617 0
M  V30 53035 C 5002.6 4.18121 0.97332 0
M  V30 53036 C 5001.83 4.9348 2.03258 0
M  V30 53037 O 5002.05 4.68924 3.24755 0
M  V30 53038 O 5000.99 5.78838 1.65014 0
M  V30 53039 H 5004.81 3.03184 -0.176923 0
M  V30 53040 H 5002.4 1.48619 -0.152553 0
M  V30 53041 H 5004.28 3.58655 2.21234 0
M  V30 53042 H 5002.95 2.39105 2.18198 0
M  V30 53043 H 5001.86 3.72971 0.290425 0
M  V30 53044 H 5003.19 4.90558 0.401735 0
M  V30 53045 N 5004.85 0.118632 1.57153 0
M  V30 53046 C 5005.81 -0.817389 2.14129 0
M  V30 53047 C 5006.81 -1.19487 1.07609 0
M  V30 53048 O 5008 -1.12043 1.33386 0
M  V30 53049 C 5005.13 -2.10531 2.68122 0
M  V30 53050 H 5006.32 -0.322234 2.98164 0
M  V30 53051 H 5003.88 -0.1306 1.55753 0
M  V30 53052 H 5004.61 -2.64478 1.87674 0
M  V30 53053 H 5004.4 -1.84413 3.46026 0
M  V30 53054 H 5005.89 -2.77442 3.12115 0
M  V30 53055 N 5006.32 -1.56835 -0.15514 0
M  V30 53056 C 5007.26 -1.9424 -1.2167 0
M  V30 53057 C 5008.27 -0.837289 -1.39618 0
M  V30 53058 O 5009.46 -1.11572 -1.39334 0
M  V30 53059 C 5006.56 -2.19412 -2.58286 0
M  V30 53060 C 5005.73 -3.5068 -2.61423 0
M  V30 53061 C 5004.79 -3.64488 -3.79519 0
M  V30 53062 O 5003.82 -4.36958 -3.64769 0
M  V30 53063 N 5005.02 -3.00543 -4.96643 0
M  V30 53064 H 5007.78 -2.85904 -0.898831 0
M  V30 53065 H 5005.34 -1.58186 -0.344775 0
M  V30 53066 H 5007.34 -2.25898 -3.35786 0
M  V30 53067 H 5005.91 -1.34052 -2.82398 0
M  V30 53068 H 5005.13 -3.55707 -1.69899 0
M  V30 53069 H 5006.41 -4.37029 -2.60544 0
M  V30 53070 H 5005.81 -2.41567 -5.11529 0
M  V30 53071 H 5004.37 -3.12603 -5.71947 0
M  V30 53072 N 5007.8 0.424229 -1.51783 0
M  V30 53073 C 5008.71 1.54081 -1.76907 0
M  V30 53074 C 5009.73 1.61246 -0.653883 0
M  V30 53075 O 5010.9 1.78244 -0.937614 0
M  V30 53076 C 5007.97 2.89953 -1.90074 0
M  V30 53077 C 5007.03 2.92798 -3.13955 0
M  V30 53078 C 5006.26 4.2219 -3.26484 0
M  V30 53079 O 5006.49 5.15277 -2.44634 0
M  V30 53080 O 5005.42 4.31585 -4.19545 0
M  V30 53081 H 5009.25 1.3579 -2.71652 0
M  V30 53082 H 5006.83 0.60857 -1.36443 0
M  V30 53083 H 5008.71 3.70567 -2.00643 0
M  V30 53084 H 5007.39 3.08344 -0.985175 0
M  V30 53085 H 5006.3 2.11091 -3.08855 0
M  V30 53086 H 5007.63 2.79354 -4.05243 0
M  V30 53087 N 5009.28 1.4215 0.680515 0
M  V30 53088 C 5010.53 1.42034 1.43774 0
M  V30 53089 C 5010.85 0.0357033 1.94967 0
M  V30 53090 O 5010.12 -0.924875 1.72693 0
M  V30 53091 H 5008.7 0.522854 0.53351 0
M  V30 53092 H 5011.36 1.77522 0.804476 0
M  V30 53093 H 5010.46 2.11666 2.29355 0
M  V30 53094 N 5010.76 -0.916262 1.28228 0
M  V30 53095 C 5011.67 -2.05161 1.13782 0
M  V30 53096 C 5012.68 -1.73879 0.0650029 0
M  V30 53097 O 5013.86 -1.9953 0.273792 0
M  V30 53098 C 5010.93 -3.37382 0.798385 0
M  V30 53099 C 5009.99 -3.82289 1.95329 0
M  V30 53100 C 5009.22 -5.08201 1.62996 0
M  V30 53101 O 5009.44 -5.67808 0.543148 0
M  V30 53102 O 5008.38 -5.48759 2.4728 0
M  V30 53103 H 5012.2 -2.20265 2.09086 0
M  V30 53104 H 5009.79 -1.03727 1.07523 0
M  V30 53105 H 5011.67 -4.1677 0.622926 0
M  V30 53106 H 5010.34 -3.23458 -0.125025 0
M  V30 53107 H 5009.25 -3.03738 2.18389 0
M  V30 53108 H 5010.58 -4.00772 2.85732 0
M  V30 53109 N 5012.24 -1.10435 -1.12436 0
M  V30 53110 C 5013.17 -0.77522 -2.20256 0
M  V30 53111 C 5014.15 0.251801 -1.68226 0
M  V30 53112 O 5015.33 0.117569 -1.93844 0
M  V30 53113 C 5012.46 -0.206255 -3.46687 0
M  V30 53114 C 5011.42 -1.16396 -4.11869 0
M  V30 53115 C 5010.74 -0.456202 -5.3275 0
M  V30 53116 C 5012.04 -2.51056 -4.58005 0
M  V30 53117 H 5013.74 -1.67673 -2.48044 0
M  V30 53118 H 5011.28 -0.807637 -1.19219 0
M  V30 53119 H 5013.24 0.0361429 -4.21385 0
M  V30 53120 H 5011.96 0.730502 -3.18326 0
M  V30 53121 H 5010.62 -1.39181 -3.39152 0
M  V30 53122 H 5010.27 0.485027 -5.00656 0
M  V30 53123 H 5009.97 -1.09486 -5.7731 0
M  V30 53124 H 5011.49 -0.22235 -6.10195 0
M  V30 53125 H 5012.91 -2.32419 -5.24075 0
M  V30 53126 H 5011.3 -3.10807 -5.13341 0
M  V30 53127 H 5012.37 -3.11053 -3.71987 0
M  V30 53128 N 5013.72 1.29852 -0.893099 0
M  V30 53129 C 5014.65 2.30349 -0.38233 0
M  V30 53130 C 5015.63 1.6133 0.539146 0
M  V30 53131 O 5016.81 1.88884 0.451276 0
M  V30 53132 C 5013.94 3.45025 0.396861 0
M  V30 53133 C 5012.9 4.25798 -0.433587 0
M  V30 53134 C 5012.22 5.32606 0.472702 0
M  V30 53135 C 5013.52 4.94543 -1.68002 0
M  V30 53136 H 5015.22 2.7332 -1.22215 0
M  V30 53137 H 5012.76 1.31398 -0.58912 0
M  V30 53138 H 5014.71 4.144 0.764879 0
M  V30 53139 H 5013.44 3.00879 1.2704 0
M  V30 53140 H 5012.1 3.58122 -0.783848 0
M  V30 53141 H 5011.75 4.84707 1.34418 0
M  V30 53142 H 5011.45 5.87547 -0.0792023 0
M  V30 53143 H 5012.97 6.04835 0.837057 0
M  V30 53144 H 5014.38 5.56391 -1.38212 0
M  V30 53145 H 5012.78 5.59386 -2.17274 0
M  V30 53146 H 5013.85 4.20207 -2.4198 0
M  V30 53147 N 5015.19 0.65489 1.43349 0
M  V30 53148 C 5016.44 0.169213 2.02093 0
M  V30 53149 C 5016.77 -1.21425 1.51557 0
M  V30 53150 O 5016.05 -1.81102 0.70938 0
M  V30 53151 C 5016.33 0.181902 3.5964 0
M  V30 53152 C 5016.18 1.5994 4.20404 0
M  V30 53153 C 5017.5 -0.480791 4.37466 0
M  V30 53154 H 5014.62 0.062963 0.734306 0
M  V30 53155 H 5017.26 0.835893 1.70625 0
M  V30 53156 H 5015.41 -0.385782 3.8658 0
M  V30 53157 H 5017.09 2.2178 4.04489 0
M  V30 53158 H 5015.33 2.14618 3.7699 0
M  V30 53159 H 5016 1.56012 5.29494 0
M  V30 53160 H 5018.48 0.002229 4.161 0
M  V30 53161 H 5017.35 -0.441192 5.47124 0
M  V30 53162 H 5017.61 -1.55519 4.13843 0
M  V30 53163 N 5016.67 -1.5252 0.396917 0
M  V30 53164 C 5018.09 -1.5953 0.047222 0
M  V30 53165 C 5018.29 -1.41049 -1.43901 0
M  V30 53166 O 5017.34 -1.2313 -2.20443 0
M  V30 53167 C 5018.66 -2.95971 0.531217 0
M  V30 53168 C 5020.2 -3.0917 0.488132 0
M  V30 53169 C 5020.68 -4.48072 0.948439 0
M  V30 53170 N 5022.17 -4.54278 0.90476 0
M  V30 53171 C 5022.91 -5.60003 1.23225 0
M  V30 53172 N 5022.4 -6.73338 1.63059 0
M  V30 53173 N 5024.19 -5.50147 1.15301 0
M  V30 53174 H 5016.35 -1.62781 1.3644 0
M  V30 53175 H 5018.61 -0.76512 0.559728 0
M  V30 53176 H 5018.31 -3.14736 1.56953 0
M  V30 53177 H 5018.19 -3.77143 -0.0656596 0
M  V30 53178 H 5020.58 -2.90097 -0.541109 0
M  V30 53179 H 5020.66 -2.29933 1.12091 0
M  V30 53180 H 5020.3 -4.67888 1.97595 0
M  V30 53181 H 5020.23 -5.25786 0.292597 0
M  V30 53182 H 5022.72 -3.72916 0.611732 0
M  V30 53183 H 5023.03 -7.49985 1.86392 0
M  V30 53184 H 5021.38 -6.74649 1.66953 0
M  V30 53185 H 5024.57 -4.60488 0.840764 0
M  V30 53186 H 5024.74 -6.32439 1.41155 0
M  V30 53187 N 5018.15 -0.126964 -1.57088 0
M  V30 53188 C 5019.43 0.573087 -1.87016 0
M  V30 53189 C 5019.81 1.84294 -1.02952 0
M  V30 53190 O 5019.15 2.28232 -0.110653 0
M  V30 53191 C 5019.36 0.857865 -3.38292 0
M  V30 53192 C 5020.71 1.20744 -4.0707 0
M  V30 53193 O 5021.74 0.947871 -3.43357 0
M  V30 53194 O 5020.6 1.69497 -5.19551 0
M  V30 53195 H 5017.69 0.290055 -0.774466 0
M  V30 53196 H 5020.24 -0.162068 -1.68924 0
M  V30 53197 H 5019.01 -0.0416662 -3.91278 0
M  V30 53198 H 5018.63 1.6479 -3.61842 0
M  V30 53199 N 5019.63 1.56915 0.14682 0
M  V30 53200 C 5020.54 2.01544 1.20072 0
M  V30 53201 C 5021.55 0.93089 1.47005 0
M  V30 53202 O 5022.73 1.24038 1.58671 0
M  V30 53203 C 5019.79 2.38724 2.5142 0
M  V30 53204 C 5018.86 3.61128 2.32132 0
M  V30 53205 C 5018.09 3.96525 3.57217 0
M  V30 53206 O 5018.31 3.32582 4.63406 0
M  V30 53207 O 5017.25 4.8977 3.4987 0
M  V30 53208 H 5021.07 2.91509 0.851821 0
M  V30 53209 H 5018.66 1.45107 0.355556 0
M  V30 53210 H 5020.54 2.63497 3.28858 0
M  V30 53211 H 5019.21 1.51913 2.85839 0
M  V30 53212 H 5018.12 3.41542 1.52644 0
M  V30 53213 H 5019.45 4.48556 2.02628 0
M  V30 53214 N 5021.11 -0.416173 1.52006 0
M  V30 53215 C 5022.35 -1.16377 1.65719 0
M  V30 53216 C 5022.68 -1.90678 0.383661 0
M  V30 53217 O 5021.94 -1.85176 -0.63312 0
M  V30 53218 C 5022.23 -2.18913 2.8251 0
M  V30 53219 C 5021.9 -1.6147 4.20997 0
M  V30 53220 C 5020.56 -1.45528 4.58666 0
M  V30 53221 C 5022.91 -1.19451 5.07327 0
M  V30 53222 C 5020.24 -0.860733 5.80352 0
M  V30 53223 C 5022.59 -0.614165 6.29612 0
M  V30 53224 C 5021.26 -0.441822 6.66036 0
M  V30 53225 H 5020.53 -0.425854 0.606407 0
M  V30 53226 H 5023.18 -0.451924 1.86091 0
M  V30 53227 H 5021.48 -2.96216 2.56444 0
M  V30 53228 H 5023.18 -2.76617 2.90317 0
M  V30 53229 H 5019.77 -1.7486 3.91308 0
M  V30 53230 H 5023.95 -1.30579 4.78814 0
M  V30 53231 H 5019.21 -0.715158 6.07203 0
M  V30 53232 H 5023.38 -0.280149 6.95836 0
M  V30 53233 H 5021.01 0.0209891 7.60197 0
M  V30 53234 N 5022.58 -1.42509 -0.672966 0
M  V30 53235 C 5023.81 -1.46686 -1.46622 0
M  V30 53236 C 5024.23 -0.080132 -1.87929 0
M  V30 53237 O 5023.59 0.921824 -1.56116 0
M  V30 53238 C 5023.64 -2.401 -2.69043 0
M  V30 53239 O 5022.74 -1.87363 -3.67381 0
M  V30 53240 H 5022.08 -0.496923 -0.440413 0
M  V30 53241 H 5024.61 -1.87218 -0.825269 0
M  V30 53242 H 5024.62 -2.56742 -3.17092 0
M  V30 53243 H 5023.3 -3.40848 -2.38318 0
M  V30 53244 H 5021.88 -1.80286 -3.26422 0
M  V30 53245 N 5024.06 0.909449 -1.28712 0
M  V30 53246 C 5025.31 1.66147 -1.16289 0
M  V30 53247 C 5025.64 1.92068 0.287002 0
M  V30 53248 O 5024.92 1.52413 1.20832 0
M  V30 53249 C 5025.2 3.01669 -1.96641 0
M  V30 53250 C 5025.05 2.82875 -3.49716 0
M  V30 53251 C 5026.37 4.02267 -1.78519 0
M  V30 53252 H 5023.49 0.602951 -0.423815 0
M  V30 53253 H 5026.13 1.05413 -1.58077 0
M  V30 53254 H 5024.28 3.5351 -1.61131 0
M  V30 53255 H 5025.95 2.38012 -3.95156 0
M  V30 53256 H 5024.2 2.17849 -3.75132 0
M  V30 53257 H 5024.87 3.79133 -4.01201 0
M  V30 53258 H 5027.34 3.59503 -2.09515 0
M  V30 53259 H 5026.22 4.95048 -2.37105 0
M  V30 53260 H 5026.48 4.359 -0.737801 0
M  V30 53261 N 5025.54 1.1103 1.11848 0
M  V30 53262 C 5026.47 0.78689 2.19842 0
M  V30 53263 C 5027.45 -0.242876 1.68357 0
M  V30 53264 O 5028.64 -0.107287 1.93903 0
M  V30 53265 C 5025.77 0.224638 3.46573 0
M  V30 53266 C 5024.72 1.18579 4.11246 0
M  V30 53267 C 5024.05 0.484448 5.32501 0
M  V30 53268 C 5025.35 2.53481 4.56667 0
M  V30 53269 H 5027.04 1.68986 2.47152 0
M  V30 53270 H 5024.59 0.813948 1.18789 0
M  V30 53271 H 5026.54 -0.0137953 4.21398 0
M  V30 53272 H 5025.26 -0.71361 3.18709 0
M  V30 53273 H 5023.92 1.40978 3.38409 0
M  V30 53274 H 5023.57 -0.458469 5.00906 0
M  V30 53275 H 5023.27 1.12546 5.76721 0
M  V30 53276 H 5024.79 0.254707 6.10069 0
M  V30 53277 H 5026.21 2.35195 5.22835 0
M  V30 53278 H 5024.6 3.13525 5.11686 0
M  V30 53279 H 5025.67 3.13021 3.70332 0
M  V30 53280 N 5027.02 -1.29376 0.899973 0
M  V30 53281 C 5028.26 -1.9733 0.532941 0
M  V30 53282 C 5028.62 -1.69388 -0.90397 0
M  V30 53283 O 5029.82 -2.30798 -1.37789 0
M  V30 53284 C 5028.09 -3.47924 0.817515 0
M  V30 53285 S 5029.65 -4.35278 0.554833 0
M  V30 53286 H 5026.47 -0.682959 0.197707 0
M  V30 53287 H 5029.07 -1.57185 1.16247 0
M  V30 53288 H 5027.78 -3.65754 1.86151 0
M  V30 53289 H 5027.31 -3.93006 0.176116 0
M  V30 53290 H 5029.32 -4.92559 -0.600009 0
M  V30 53291 N 5028.5 -0.662483 -1.43 0
M  V30 53292 C 5029.91 -0.330889 -1.56132 0
M  V30 53293 C 5030.11 1.16448 -1.64445 0
M  V30 53294 O 5029.17 1.94959 -1.6046 0
M  V30 53295 C 5030.48 -1.05039 -2.81758 0
M  V30 53296 C 5032.03 -1.03153 -2.95514 0
M  V30 53297 C 5032.5 -1.7321 -4.23984 0
M  V30 53298 N 5034 -1.70019 -4.30869 0
M  V30 53299 C 5034.73 -2.21093 -5.29061 0
M  V30 53300 N 5034.23 -2.80495 -6.33478 0
M  V30 53301 N 5036.02 -2.11539 -5.20776 0
M  V30 53302 H 5028.17 -1.63276 -1.35848 0
M  V30 53303 H 5030.43 -0.687172 -0.653068 0
M  V30 53304 H 5030.14 -2.10552 -2.8171 0
M  V30 53305 H 5030.01 -0.607795 -3.72271 0
M  V30 53306 H 5032.4 0.0152302 -2.95096 0
M  V30 53307 H 5032.48 -1.51289 -2.06265 0
M  V30 53308 H 5032.13 -2.77848 -4.25162 0
M  V30 53309 H 5032.06 -1.22533 -5.12146 0
M  V30 53310 H 5034.55 -1.2668 -3.56035 0
M  V30 53311 H 5034.86 -3.17119 -7.04738 0
M  V30 53312 H 5033.2 -2.8456 -6.34075 0
M  V30 53313 H 5036.4 -1.64829 -4.3812 0
M  V30 53314 H 5036.57 -2.5165 -5.9714 0
M  V30 53315 N 5029.97 1.52307 -0.404999 0
M  V30 53316 C 5031.25 1.94237 0.230476 0
M  V30 53317 C 5031.63 1.3416 1.62986 0
M  V30 53318 O 5030.98 0.515791 2.22602 0
M  V30 53319 C 5031.19 3.48167 0.240984 0
M  V30 53320 C 5032.54 4.22075 0.46234 0
M  V30 53321 O 5033.56 3.54755 0.320519 0
M  V30 53322 O 5032.42 5.41446 0.741518 0
M  V30 53323 H 5029.51 0.813771 0.147329 0
M  V30 53324 H 5032.06 1.63328 -0.460644 0
M  V30 53325 H 5030.83 3.84266 -0.738602 0
M  V30 53326 H 5030.46 3.85425 0.976375 0
M  V30 53327 N 5031.45 0.135293 1.57018 0
M  V30 53328 C 5032.38 -0.805158 2.19179 0
M  V30 53329 C 5033.36 -1.26556 1.13656 0
M  V30 53330 O 5034.55 -1.32523 1.41955 0
M  V30 53331 C 5031.68 -2.04904 2.80413 0
M  V30 53332 C 5030.63 -1.72584 3.91661 0
M  V30 53333 C 5029.96 -3.04138 4.39777 0
M  V30 53334 C 5031.26 -0.981529 5.12994 0
M  V30 53335 H 5032.95 -0.287127 2.9802 0
M  V30 53336 H 5030.5 -0.136664 1.4335 0
M  V30 53337 H 5032.45 -2.71167 3.22563 0
M  V30 53338 H 5031.18 -2.5906 1.98886 0
M  V30 53339 H 5029.83 -1.08705 3.50113 0
M  V30 53340 H 5029.48 -3.56261 3.55087 0
M  V30 53341 H 5029.18 -2.83281 5.14806 0
M  V30 53342 H 5030.71 -3.71492 4.84589 0
M  V30 53343 H 5032.12 -1.54601 5.52061 0
M  V30 53344 H 5030.52 -0.873324 5.93711 0
M  V30 53345 H 5031.59 0.0288592 4.84891 0
M  V30 53346 N 5032.93 -1.5699 -0.138497 0
M  V30 53347 C 5034.16 -1.87707 -0.863118 0
M  V30 53348 C 5034.57 -0.722473 -1.74863 0
M  V30 53349 O 5033.91 0.316572 -1.80952 0
M  V30 53350 C 5033.97 -3.13225 -1.76438 0
M  V30 53351 C 5033.64 -4.44652 -1.05517 0
M  V30 53352 C 5034.63 -5.1832 -0.40507 0
M  V30 53353 C 5032.32 -4.9137 -1.04214 0
M  V30 53354 C 5034.31 -6.36915 0.248574 0
M  V30 53355 C 5032 -6.09888 -0.38469 0
M  V30 53356 C 5033 -6.82507 0.259532 0
M  V30 53357 O 5032.69 -7.98772 0.906538 0
M  V30 53358 H 5032.42 -0.626264 -0.254499 0
M  V30 53359 H 5034.97 -2.04966 -0.1334 0
M  V30 53360 H 5033.2 -2.91997 -2.53525 0
M  V30 53361 H 5034.89 -3.30119 -2.3617 0
M  V30 53362 H 5035.66 -4.8329 -0.406883 0
M  V30 53363 H 5031.54 -4.34765 -1.53299 0
M  V30 53364 H 5035.08 -6.93535 0.751999 0
M  V30 53365 H 5030.98 -6.44377 -0.380573 0
M  V30 53366 H 5031.75 -8.14492 0.809057 0
M  V30 53367 N 5034.41 0.408106 -1.52224 0
M  V30 53368 C 5035.37 1.47994 -1.75016 0
M  V30 53369 C 5036.37 1.48365 -0.620049 0
M  V30 53370 O 5037.56 1.49871 -0.887934 0
M  V30 53371 C 5034.69 2.87397 -1.83346 0
M  V30 53372 H 5035.89 1.29077 -2.70701 0
M  V30 53373 H 5033.44 0.638665 -1.42656 0
M  V30 53374 H 5034.17 3.11683 -0.895787 0
M  V30 53375 H 5033.96 2.88531 -2.65504 0
M  V30 53376 H 5035.45 3.65096 -2.02718 0
M  V30 53377 N 5035.89 1.42864 0.665399 0
M  V30 53378 C 5036.82 1.49874 1.79054 0
M  V30 53379 C 5037.8 0.354452 1.66366 0
M  V30 53380 O 5038.98 0.570034 1.85645 0
M  V30 53381 C 5036.11 1.40954 3.1741 0
M  V30 53382 C 5035.07 2.53507 3.44845 0
M  V30 53383 C 5034.39 2.29643 4.82875 0
M  V30 53384 C 5035.69 3.95793 3.40801 0
M  V30 53385 H 5037.39 2.44044 1.73445 0
M  V30 53386 H 5034.93 1.17459 0.833029 0
M  V30 53387 H 5036.89 1.44464 3.95864 0
M  V30 53388 H 5035.61 0.43283 3.23719 0
M  V30 53389 H 5034.27 2.49329 2.68757 0
M  V30 53390 H 5033.92 1.30243 4.85845 0
M  V30 53391 H 5033.62 3.05083 5.02193 0
M  V30 53392 H 5035.14 2.34917 5.63601 0
M  V30 53393 H 5036.55 4.01523 4.0921 0
M  V30 53394 H 5034.95 4.71161 3.71655 0
M  V30 53395 H 5036.02 4.21795 2.39201 0
M  V30 53396 N 5037.36 -0.902611 1.29192 0
M  V30 53397 C 5038.59 -1.6839 1.19701 0
M  V30 53398 C 5039 -1.87603 -0.245318 0
M  V30 53399 O 5038.35 -1.41088 -1.17643 0
M  V30 53400 C 5038.41 -3.09088 1.83589 0
M  V30 53401 C 5038.07 -3.13118 3.32875 0
M  V30 53402 C 5039.07 -2.93482 4.29144 0
M  V30 53403 C 5036.75 -3.35277 3.74025 0
M  V30 53404 C 5038.75 -2.95933 5.64537 0
M  V30 53405 C 5036.43 -3.37359 5.09541 0
M  V30 53406 C 5037.43 -3.17709 6.04607 0
M  V30 53407 O 5037.12 -3.19574 7.3765 0
M  V30 53408 H 5036.85 -0.5328 0.416053 0
M  V30 53409 H 5039.41 -1.13734 1.71037 0
M  V30 53410 H 5037.64 -3.65334 1.2676 0
M  V30 53411 H 5039.33 -3.69291 1.6846 0
M  V30 53412 H 5040.09 -2.76178 3.98686 0
M  V30 53413 H 5035.97 -3.49613 3.00486 0
M  V30 53414 H 5039.51 -2.80514 6.38716 0
M  V30 53415 H 5035.41 -3.54194 5.39645 0
M  V30 53416 H 5036.18 -3.3586 7.46418 0
M  V30 53417 N 5038.84 -1.11622 -1.11258 0
M  V30 53418 C 5040.25 -0.882 -1.64553 0
M  V30 53419 C 5040.6 0.585376 -1.87264 0
M  V30 53420 O 5039.73 1.44789 -1.60826 0
M  V30 53421 C 5040.32 -1.59457 -2.9893 0
M  V30 53422 C 5038.88 -1.40673 -3.49125 0
M  V30 53423 C 5038.03 -1.636 -2.23898 0
M  V30 53424 H 5040.98 -1.2722 -0.948725 0
M  V30 53425 H 5041 -1.04067 -3.65992 0
M  V30 53426 H 5040.51 -2.66251 -2.82368 0
M  V30 53427 H 5038.62 -0.360965 -3.70847 0
M  V30 53428 H 5038.73 -2.15708 -4.27793 0
M  V30 53429 H 5037.09 -1.05952 -2.31617 0
M  V30 53430 H 5037.88 -2.71674 -2.09877 0
M  V30 53431 N 5040.32 1.28897 -0.906821 0
M  V30 53432 C 5041.25 2.2993 -0.40674 0
M  V30 53433 C 5042.23 1.61892 0.522004 0
M  V30 53434 O 5043.42 1.89352 0.431217 0
M  V30 53435 C 5040.55 3.45427 0.360245 0
M  V30 53436 C 5039.5 4.25314 -0.478724 0
M  V30 53437 C 5038.83 5.33078 0.416185 0
M  V30 53438 C 5040.13 4.92733 -1.73237 0
M  V30 53439 H 5041.82 2.72009 -1.25107 0
M  V30 53440 H 5039.37 1.30766 -0.603023 0
M  V30 53441 H 5041.32 4.15188 0.720883 0
M  V30 53442 H 5040.04 3.0221 1.23841 0
M  V30 53443 H 5038.7 3.5727 -0.821788 0
M  V30 53444 H 5038.35 4.86105 1.2927 0
M  V30 53445 H 5038.05 5.8743 -0.141515 0
M  V30 53446 H 5039.57 6.05689 0.772859 0
M  V30 53447 H 5040.99 5.54893 -1.44105 0
M  V30 53448 H 5039.39 5.5705 -2.23194 0
M  V30 53449 H 5040.46 4.17617 -2.46423 0
M  V30 53450 N 5041.8 0.670057 1.42646 0
M  V30 53451 C 5042.73 0.0026671 2.335 0
M  V30 53452 C 5043.71 -0.794311 1.50415 0
M  V30 53453 O 5044.9 -0.752417 1.79032 0
M  V30 53454 C 5042.03 -0.952631 3.33979 0
M  V30 53455 C 5040.98 -0.264582 4.27181 0
M  V30 53456 C 5040.31 -1.33249 5.17831 0
M  V30 53457 C 5041.61 0.85347 5.1528 0
M  V30 53458 H 5043.3 0.761427 2.89556 0
M  V30 53459 H 5040.85 0.36761 1.39229 0
M  V30 53460 H 5042.8 -1.42856 3.96447 0
M  V30 53461 H 5041.52 -1.74275 2.76217 0
M  V30 53462 H 5040.18 0.191067 3.66102 0
M  V30 53463 H 5039.83 -2.11448 4.56397 0
M  V30 53464 H 5039.53 -0.877272 5.81014 0
M  V30 53465 H 5041.05 -1.80945 5.83173 0
M  V30 53466 H 5042.47 0.458964 5.7146 0
M  V30 53467 H 5040.86 1.23419 5.87271 0
M  V30 53468 H 5041.93 1.70428 4.53963 0
M  V30 53469 N 5043.28 -1.5209 0.413071 0
M  V30 53470 C 5044.53 -2.01042 -0.162799 0
M  V30 53471 C 5044.84 -1.30293 -1.45887 0
M  V30 53472 O 5046.05 -1.70082 -2.11623 0
M  V30 53473 C 5044.5 -3.58284 -0.34068 0
M  V30 53474 C 5044.11 -4.37951 0.943531 0
M  V30 53475 C 5045.85 -4.15455 -0.871628 0
M  V30 53476 C 5043.76 -5.86845 0.732623 0
M  V30 53477 H 5042.69 -0.751226 -0.0646149 0
M  V30 53478 H 5045.34 -1.75402 0.539121 0
M  V30 53479 H 5043.72 -3.8027 -1.10503 0
M  V30 53480 H 5044.9 -4.27723 1.71433 0
M  V30 53481 H 5043.21 -3.92117 1.40119 0
M  V30 53482 H 5045.81 -5.24379 -1.04552 0
M  V30 53483 H 5046.15 -3.73063 -1.84742 0
M  V30 53484 H 5046.69 -3.97453 -0.166238 0
M  V30 53485 H 5043.42 -6.33603 1.68009 0
M  V30 53486 H 5042.94 -5.998 0.00119092 0
M  V30 53487 H 5044.62 -6.45905 0.376332 0
M  V30 53488 N 5044.76 -0.143618 -1.56944 0
M  V30 53489 C 5046.17 0.212821 -1.58175 0
M  V30 53490 C 5046.37 1.64922 -1.15771 0
M  V30 53491 O 5045.43 2.37532 -0.856444 0
M  V30 53492 C 5046.74 -0.042863 -3.00669 0
M  V30 53493 C 5048.29 0.0211121 -3.12993 0
M  V30 53494 C 5048.76 -0.207197 -4.57531 0
M  V30 53495 N 5050.25 -0.154008 -4.62944 0
M  V30 53496 C 5050.99 -0.305219 -5.72587 0
M  V30 53497 N 5050.49 -0.513965 -6.90891 0
M  V30 53498 N 5052.28 -0.24306 -5.61574 0
M  V30 53499 H 5044.43 -1.08154 -1.82802 0
M  V30 53500 H 5046.69 -0.427861 -0.845955 0
M  V30 53501 H 5046.4 -1.03684 -3.36069 0
M  V30 53502 H 5046.27 0.678065 -3.71055 0
M  V30 53503 H 5048.66 1.00564 -2.77436 0
M  V30 53504 H 5048.74 -0.732091 -2.451 0
M  V30 53505 H 5048.38 -1.18881 -4.93791 0
M  V30 53506 H 5048.31 0.566289 -5.23546 0
M  V30 53507 H 5050.81 0.00281581 -3.779 0
M  V30 53508 H 5051.12 -0.619544 -7.70313 0
M  V30 53509 H 5049.46 -0.550245 -6.92818 0
M  V30 53510 H 5052.65 -0.0807661 -4.6803 0
M  V30 53511 H 5052.83 -0.364339 -6.46975 0
M  V30 53512 N 5046.23 1.57062 0.130169 0
M  V30 53513 C 5047.46 1.88162 0.853151 0
M  V30 53514 C 5047.87 0.731736 1.74477 0
M  V30 53515 O 5047.21 -0.306972 1.81117 0
M  V30 53516 C 5047.28 3.14156 1.74774 0
M  V30 53517 C 5046.94 4.45205 1.03157 0
M  V30 53518 C 5047.94 5.18527 0.377576 0
M  V30 53519 C 5045.62 4.91916 1.01607 0
M  V30 53520 C 5047.62 6.36774 -0.282347 0
M  V30 53521 C 5045.3 6.10083 0.352341 0
M  V30 53522 C 5046.3 6.82359 -0.295723 0
M  V30 53523 O 5045.99 7.9828 -0.948886 0
M  V30 53524 H 5045.72 0.627604 0.251175 0
M  V30 53525 H 5048.28 2.05034 0.122528 0
M  V30 53526 H 5046.51 2.93337 2.51973 0
M  V30 53527 H 5048.19 3.31367 2.34416 0
M  V30 53528 H 5048.96 4.83499 0.381247 0
M  V30 53529 H 5044.84 4.35572 1.50992 0
M  V30 53530 H 5048.38 6.93126 -0.788769 0
M  V30 53531 H 5044.28 6.4457 0.346395 0
M  V30 53532 H 5045.05 8.14051 -0.85224 0
M  V30 53533 N 5047.71 -0.400028 1.52439 0
M  V30 53534 C 5048.96 -1.14783 1.67191 0
M  V30 53535 C 5049.29 -1.89927 0.40514 0
M  V30 53536 O 5048.57 -1.8512 -0.596739 0
M  V30 53537 C 5048.85 -2.13497 2.89985 0
M  V30 53538 C 5048.7 -1.42189 4.26735 0
M  V30 53539 C 5050.02 -3.14058 3.08311 0
M  V30 53540 H 5047.14 -0.415918 0.608425 0
M  V30 53541 H 5049.78 -0.432477 1.85013 0
M  V30 53542 H 5047.93 -2.74501 2.74921 0
M  V30 53543 H 5049.6 -0.842344 4.53544 0
M  V30 53544 H 5047.85 -0.723789 4.27719 0
M  V30 53545 H 5048.52 -2.14263 5.08719 0
M  V30 53546 H 5050.99 -2.63137 3.22332 0
M  V30 53547 H 5049.87 -3.80384 3.95726 0
M  V30 53548 H 5050.13 -3.82302 2.22031 0
M  V30 53549 N 5049.19 -1.43215 -0.657814 0
M  V30 53550 C 5050.47 -1.35067 -1.41478 0
M  V30 53551 C 5050.85 0.00375718 -2.111 0
M  V30 53552 O 5050.19 1.02011 -2.04465 0
M  V30 53553 C 5050.4 -2.5307 -2.40326 0
M  V30 53554 C 5051.75 -2.95951 -3.04464 0
M  V30 53555 O 5052.78 -2.53083 -2.50654 0
M  V30 53556 O 5051.64 -3.70198 -4.02014 0
M  V30 53557 H 5048.73 -0.533539 -0.631874 0
M  V30 53558 H 5051.28 -1.55256 -0.685108 0
M  V30 53559 H 5050.05 -3.4329 -1.87797 0
M  V30 53560 H 5049.67 -2.34957 -3.20751 0
M  V30 53561 N 5050.67 0.895746 -1.29669 0
M  V30 53562 C 5051.62 2.02169 -1.15024 0
M  V30 53563 C 5052.61 1.69276 -0.0648246 0
M  V30 53564 O 5053.82 1.78589 -0.224908 0
M  V30 53565 H 5050.19 0.662707 -0.35542 0
M  V30 53566 H 5052.16 2.11658 -2.10341 0
M  V30 53567 C 5050.91 3.37209 -0.847674 0
M  V30 53568 H 5050.23 3.63024 -1.67492 0
M  V30 53569 H 5051.67 4.16665 -0.785253 0
M  V30 53570 C 5050.13 3.33892 0.449173 0
M  V30 53571 O 5050.66 3.73678 1.47402 0
M  V30 53572 N 5048.87 2.86993 0.456446 0
M  V30 53573 H 5048.42 2.54811 -0.378014 0
M  V30 53574 H 5048.37 2.85157 1.32413 0
M  V30 53575 N 5052.15 1.1221 1.10665 0
M  V30 53576 C 5053.09 0.782995 2.19025 0
M  V30 53577 C 5054.09 -0.229116 1.67843 0
M  V30 53578 O 5055.29 -0.0875663 1.79787 0
M  V30 53579 H 5051.67 0.235364 0.714218 0
M  V30 53580 H 5053.64 1.70536 2.44868 0
M  V30 53581 C 5052.39 0.251282 3.46791 0
M  V30 53582 H 5051.71 1.02137 3.86534 0
M  V30 53583 H 5053.15 0.0522899 4.23968 0
M  V30 53584 C 5051.61 -1.02026 3.2108 0
M  V30 53585 O 5052.14 -2.09849 3.42529 0
M  V30 53586 N 5050.35 -0.946251 2.74763 0
M  V30 53587 H 5049.89 -0.0686865 2.57508 0
M  V30 53588 H 5049.85 -1.79766 2.57937 0
M  V30 53589 N 5053.62 -1.28415 0.913644 0
M  V30 53590 C 5055.04 -1.47409 0.61178 0
M  V30 53591 C 5055.24 -1.83021 -0.842944 0
M  V30 53592 O 5054.3 -1.93511 -1.62203 0
M  V30 53593 C 5055.61 -2.57698 1.54959 0
M  V30 53594 C 5057.16 -2.71567 1.55629 0
M  V30 53595 C 5057.63 -3.84999 2.48072 0
M  V30 53596 N 5059.12 -3.92353 2.46198 0
M  V30 53597 C 5059.86 -4.79505 3.14424 0
M  V30 53598 N 5059.35 -5.71249 3.91978 0
M  V30 53599 N 5061.15 -4.73114 3.03511 0
M  V30 53600 H 5053.3 -1.03579 1.85432 0
M  V30 53601 H 5055.56 -0.515879 0.795344 0
M  V30 53602 H 5055.27 -2.38289 2.58672 0
M  V30 53603 H 5055.14 -3.54796 1.28061 0
M  V30 53604 H 5057.53 -2.90364 0.526543 0
M  V30 53605 H 5057.61 -1.75 1.86571 0
M  V30 53606 H 5057.25 -3.66956 3.51149 0
M  V30 53607 H 5057.18 -4.80964 2.14433 0
M  V30 53608 H 5059.67 -3.26742 1.89862 0
M  V30 53609 H 5059.99 -6.34578 4.41057 0
M  V30 53610 H 5058.33 -5.71089 3.96083 0
M  V30 53611 H 5061.52 -4.00433 2.42427 0
M  V30 53612 H 5061.7 -5.40821 3.56954 0
M  V30 53613 N 5055.1 -0.677613 -1.42289 0
M  V30 53614 C 5056.06 -0.010189 -2.29198 0
M  V30 53615 C 5057.06 0.726168 -1.43469 0
M  V30 53616 O 5058.25 0.563749 -1.64826 0
M  V30 53617 C 5055.39 0.996201 -3.26019 0
M  V30 53618 H 5056.58 -0.775173 -2.89709 0
M  V30 53619 H 5054.13 -0.440117 -1.49976 0
M  V30 53620 H 5054.87 1.78958 -2.70453 0
M  V30 53621 H 5054.65 0.47155 -3.89254 0
M  V30 53622 H 5056.14 1.46154 -3.91189 0
M  V30 53623 N 5056.58 1.51869 -0.421131 0
M  V30 53624 C 5057.51 2.25054 0.433986 0
M  V30 53625 C 5058.53 1.28461 1.00008 0
M  V30 53626 O 5059.71 1.54326 0.896978 0
M  V30 53627 C 5056.81 2.97818 1.61733 0
M  V30 53628 C 5055.99 4.21378 1.173 0
M  V30 53629 C 5055.05 4.76862 2.22461 0
M  V30 53630 O 5054.07 5.3913 1.82558 0
M  V30 53631 N 5055.27 4.59479 3.54766 0
M  V30 53632 H 5058.04 2.99077 -0.193178 0
M  V30 53633 H 5055.6 1.59971 -0.249144 0
M  V30 53634 H 5057.59 3.31828 2.31673 0
M  V30 53635 H 5056.16 2.26907 2.15016 0
M  V30 53636 H 5055.38 3.93047 0.301262 0
M  V30 53637 H 5056.67 5.01594 0.853268 0
M  V30 53638 H 5056.07 4.09846 3.89927 0
M  V30 53639 H 5054.63 4.97894 4.20647 0
M  V30 53640 N 5058.06 0.151939 1.56866 0
M  V30 53641 C 5059.3 -0.492258 1.97353 0
M  V30 53642 C 5059.66 -1.62152 1.03559 0
M  V30 53643 O 5058.95 -1.91466 0.0715545 0
M  V30 53644 C 5059.15 -1.04062 3.41915 0
M  V30 53645 C 5058.98 0.0339887 4.49687 0
M  V30 53646 C 5057.75 0.477091 5.03043 0
M  V30 53647 C 5059.94 0.827284 5.07603 0
M  V30 53648 N 5057.93 1.53402 5.94425 0
M  V30 53649 C 5059.3 1.7346 5.95241 0
M  V30 53650 C 5061.35 0.874523 4.9016 0
M  V30 53651 C 5060.05 2.68511 6.67304 0
M  V30 53652 C 5062.08 1.81289 5.62928 0
M  V30 53653 C 5061.44 2.70772 6.50278 0
M  V30 53654 H 5057.54 -0.148795 0.767714 0
M  V30 53655 H 5060.13 0.247683 1.93118 0
M  V30 53656 H 5058.3 -1.75015 3.46734 0
M  V30 53657 H 5060.03 -1.65184 3.69454 0
M  V30 53658 H 5056.78 0.0784158 4.73535 0
M  V30 53659 H 5057.21 2.0624 6.44821 0
M  V30 53660 H 5061.85 0.196777 4.22342 0
M  V30 53661 H 5059.57 3.37283 7.34347 0
M  V30 53662 H 5063.15 1.8553 5.51425 0
M  V30 53663 H 5062.03 3.422 7.05598 0
M  V30 53664 N 5059.54 -1.57128 -0.121838 0
M  V30 53665 C 5060.47 -2.03169 -1.15085 0
M  V30 53666 C 5061.45 -0.915637 -1.43353 0
M  V30 53667 O 5062.63 -1.18516 -1.53843 0
M  V30 53668 C 5059.76 -2.43361 -2.47775 0
M  V30 53669 C 5058.72 -3.58384 -2.33976 0
M  V30 53670 C 5058.04 -3.84467 -3.71603 0
M  V30 53671 C 5059.34 -4.90206 -1.80265 0
M  V30 53672 H 5061.04 -2.89384 -0.767921 0
M  V30 53673 H 5058.58 -1.3922 -0.367949 0
M  V30 53674 H 5060.54 -2.74175 -3.2001 0
M  V30 53675 H 5059.26 -1.54113 -2.87953 0
M  V30 53676 H 5057.92 -3.27776 -1.6419 0
M  V30 53677 H 5057.57 -2.92429 -4.09261 0
M  V30 53678 H 5057.27 -4.61889 -3.63224 0
M  V30 53679 H 5058.79 -4.1773 -4.45347 0
M  V30 53680 H 5060.2 -5.19573 -2.42315 0
M  V30 53681 H 5058.6 -5.71608 -1.82714 0
M  V30 53682 H 5059.67 -4.78907 -0.760016 0
M  V30 53683 N 5061.01 0.391938 -1.52649 0
M  V30 53684 C 5062.24 1.15854 -1.71422 0
M  V30 53685 C 5062.66 1.83808 -0.43128 0
M  V30 53686 O 5062.01 1.72562 0.594024 0
M  V30 53687 C 5062.07 2.20878 -2.86173 0
M  V30 53688 O 5061.79 1.55696 -4.095 0
M  V30 53689 C 5063.29 3.10288 -3.16601 0
M  V30 53690 H 5060.51 0.347474 -0.574024 0
M  V30 53691 H 5063.05 0.458902 -1.99285 0
M  V30 53692 H 5061.21 2.86483 -2.6078 0
M  V30 53693 H 5061.62 2.25458 -4.73571 0
M  V30 53694 H 5063.09 3.80016 -4.00364 0
M  V30 53695 H 5063.57 3.73631 -2.30861 0
M  V30 53696 H 5064.18 2.50333 -3.43822 0
M  V30 53697 N 5062.49 1.43562 0.650209 0
M  V30 53698 C 5063.4 1.51407 1.79202 0
M  V30 53699 C 5064.42 0.400955 1.69317 0
M  V30 53700 O 5065.59 0.655525 1.90433 0
M  V30 53701 C 5062.66 1.43748 3.15495 0
M  V30 53702 C 5061.72 2.65755 3.37154 0
M  V30 53703 C 5060.95 2.58452 4.66945 0
M  V30 53704 O 5061.18 1.63393 5.46497 0
M  V30 53705 O 5060.11 3.49001 4.90389 0
M  V30 53706 H 5063.94 2.47831 1.75538 0
M  V30 53707 H 5061.52 1.25596 0.809067 0
M  V30 53708 H 5063.4 1.4193 3.96779 0
M  V30 53709 H 5062.08 0.5046 3.19743 0
M  V30 53710 H 5060.99 2.73145 2.55623 0
M  V30 53711 H 5062.32 3.58026 3.37755 0
M  V30 53712 N 5063.97 -0.888857 1.30143 0
M  V30 53713 C 5065.38 -1.45573 1.16898 0
M  V30 53714 C 5065.73 -1.94826 -0.231798 0
M  V30 53715 O 5064.86 -1.84665 -1.12818 0
M  V30 53716 C 5065.45 -2.64592 2.11604 0
M  V30 53717 C 5064.01 -3.17382 2.0235 0
M  V30 53718 C 5063.16 -1.90074 2.01909 0
M  V30 53719 H 5066.11 -0.69916 1.42469 0
M  V30 53720 H 5066.13 -3.40681 1.69461 0
M  V30 53721 H 5065.64 -2.28715 3.13546 0
M  V30 53722 H 5063.74 -3.57926 1.03536 0
M  V30 53723 H 5063.86 -3.80945 2.90547 0
M  V30 53724 H 5062.22 -2.08241 1.46656 0
M  V30 53725 H 5063 -1.5646 3.05574 0
M  V30 53726 N 5065.45 -1.12795 -1.10068 0
M  V30 53727 C 5066.4 -0.794599 -2.18607 0
M  V30 53728 C 5067.39 0.220211 -1.67963 0
M  V30 53729 O 5068.6 0.0780305 -1.79831 0
M  V30 53730 H 5064.97 -0.239148 -0.71296 0
M  V30 53731 H 5066.94 -1.71832 -2.4396 0
M  V30 53732 C 5065.69 -0.26967 -3.46653 0
M  V30 53733 H 5065.01 -1.04185 -3.85986 0
M  V30 53734 H 5066.45 -0.0747732 -4.23934 0
M  V30 53735 C 5064.91 1.00321 -3.21617 0
M  V30 53736 O 5065.44 2.0803 -3.43637 0
M  V30 53737 N 5063.65 0.931666 -2.7526 0
M  V30 53738 H 5063.2 0.0550292 -2.57541 0
M  V30 53739 H 5063.15 1.78395 -2.58887 0
M  V30 53740 N 5066.93 1.27928 -0.920441 0
M  V30 53741 C 5068.34 1.76705 -0.602678 0
M  V30 53742 C 5068.69 1.75253 0.882098 0
M  V30 53743 O 5067.81 1.35141 1.69014 0
M  V30 53744 C 5068.41 3.20881 -1.08725 0
M  V30 53745 C 5066.97 3.67353 -0.820286 0
M  V30 53746 C 5066.11 2.47521 -1.25015 0
M  V30 53747 H 5069.07 1.14297 -1.10099 0
M  V30 53748 H 5069.09 3.78043 -0.431668 0
M  V30 53749 H 5068.6 3.21906 -2.16791 0
M  V30 53750 H 5066.7 3.71781 0.246881 0
M  V30 53751 H 5066.81 4.57176 -1.43273 0
M  V30 53752 H 5065.18 2.45763 -0.668785 0
M  V30 53753 H 5065.96 2.51261 -2.33929 0
M  V30 53754 N 5068.4 0.685149 1.41928 0
M  V30 53755 C 5069.63 0.218914 2.06241 0
M  V30 53756 C 5070.05 -1.11917 1.51182 0
M  V30 53757 O 5069.41 -1.69834 0.634506 0
M  V30 53758 C 5069.46 0.175718 3.60172 0
M  V30 53759 O 5068.56 -0.852634 4.0349 0
M  V30 53760 H 5067.91 0.109554 0.6549 0
M  V30 53761 H 5070.44 0.937077 1.81879 0
M  V30 53762 H 5070.45 0.00305495 4.08 0
M  V30 53763 H 5069.12 1.15236 3.99617 0
M  V30 53764 H 5067.7 -0.650172 3.67188 0
M  V30 53765 N 5069.88 -1.51644 0.429179 0
M  V30 53766 C 5070.85 -2.26117 -0.374646 0
M  V30 53767 C 5071.85 -1.29246 -0.956669 0
M  V30 53768 O 5073.04 -1.53025 -0.832398 0
M  V30 53769 C 5070.17 -3.04674 -1.52927 0
M  V30 53770 H 5071.36 -2.98609 0.277923 0
M  V30 53771 H 5068.91 -1.55235 0.182151 0
M  V30 53772 H 5069.65 -2.36579 -2.21812 0
M  V30 53773 H 5069.43 -3.75818 -1.11819 0
M  V30 53774 H 5070.92 -3.61109 -2.09738 0
M  V30 53775 N 5071.36 -0.160256 -1.56783 0
M  V30 53776 C 5072.27 0.787089 -2.21002 0
M  V30 53777 C 5073.29 1.26162 -1.19829 0
M  V30 53778 O 5074.46 1.31606 -1.52453 0
M  V30 53779 C 5071.53 2.00354 -2.82947 0
M  V30 53780 C 5070.59 1.57696 -3.99288 0
M  V30 53781 C 5069.82 2.73542 -4.58269 0
M  V30 53782 O 5070.05 3.90115 -4.16133 0
M  V30 53783 O 5068.98 2.48252 -5.4832 0
M  V30 53784 H 5072.81 0.270356 -3.02494 0
M  V30 53785 H 5070.39 0.0674141 -1.49248 0
M  V30 53786 H 5072.27 2.71518 -3.22267 0
M  V30 53787 H 5070.95 2.50954 -2.0446 0
M  V30 53788 H 5069.85 0.835146 -3.64659 0
M  V30 53789 H 5071.19 1.11798 -4.79335 0
M  V30 53790 N 5072.84 1.57191 0.113503 0
M  V30 53791 C 5073.75 2.04045 1.1577 0
M  V30 53792 C 5074.77 0.961863 1.44997 0
M  V30 53793 O 5075.94 1.27376 1.56004 0
M  V30 53794 C 5073.01 2.44003 2.463 0
M  V30 53795 C 5072.07 3.6597 2.2442 0
M  V30 53796 C 5071.3 4.04012 3.48726 0
M  V30 53797 O 5071.52 3.42337 4.56247 0
M  V30 53798 O 5070.46 4.97081 3.39402 0
M  V30 53799 H 5074.28 2.93251 0.789796 0
M  V30 53800 H 5071.87 1.45829 0.324697 0
M  V30 53801 H 5073.75 2.70413 3.23195 0
M  V30 53802 H 5072.43 1.57942 2.82553 0
M  V30 53803 H 5071.33 3.44702 1.45365 0
M  V30 53804 H 5072.67 4.52753 1.93068 0
M  V30 53805 N 5074.32 -0.383837 1.52854 0
M  V30 53806 C 5075.25 -1.47553 1.80971 0
M  V30 53807 C 5076.23 -1.56688 0.662041 0
M  V30 53808 O 5077.41 -1.71552 0.910133 0
M  V30 53809 C 5074.54 -2.85107 1.98322 0
M  V30 53810 C 5073.5 -2.90809 3.14029 0
M  V30 53811 C 5072.82 -4.30862 3.16642 0
M  V30 53812 C 5074.12 -2.59985 4.52995 0
M  V30 53813 H 5075.82 -1.24274 2.7239 0
M  V30 53814 H 5073.36 -0.596399 1.31069 0
M  V30 53815 H 5075.32 -3.61488 2.16574 0
M  V30 53816 H 5074.04 -3.09734 1.03596 0
M  V30 53817 H 5072.7 -2.16876 2.95568 0
M  V30 53818 H 5072.35 -4.52537 2.19589 0
M  V30 53819 H 5072.05 -4.35596 3.94373 0
M  V30 53820 H 5073.57 -5.09142 3.37056 0
M  V30 53821 H 5074.99 -3.26084 4.71532 0
M  V30 53822 H 5073.38 -2.76062 5.32832 0
M  V30 53823 H 5074.45 -1.55304 4.59357 0
M  V30 53824 N 5075.8 -1.43905 -0.642587 0
M  V30 53825 C 5077.04 -1.46084 -1.40234 0
M  V30 53826 C 5077.37 -0.0891018 -1.94296 0
M  V30 53827 O 5076.63 0.907472 -1.73388 0
M  V30 53828 C 5076.92 -2.45916 -2.59345 0
M  V30 53829 C 5076.59 -3.9153 -2.2364 0
M  V30 53830 C 5075.25 -4.31187 -2.13615 0
M  V30 53831 C 5077.6 -4.83249 -1.95244 0
M  V30 53832 C 5074.93 -5.60501 -1.73365 0
M  V30 53833 C 5077.28 -6.12939 -1.56489 0
M  V30 53834 C 5075.95 -6.51561 -1.44997 0
M  V30 53835 H 5075.22 -0.53456 -0.513154 0
M  V30 53836 H 5077.87 -1.77049 -0.729778 0
M  V30 53837 H 5076.17 -2.08393 -3.31782 0
M  V30 53838 H 5077.87 -2.44853 -3.17565 0
M  V30 53839 H 5074.46 -3.6015 -2.32357 0
M  V30 53840 H 5078.64 -4.53374 -2.01904 0
M  V30 53841 H 5073.9 -5.89254 -1.63062 0
M  V30 53842 H 5078.07 -6.83474 -1.33552 0
M  V30 53843 H 5075.7 -7.51667 -1.1358 0
M  V30 53844 N 5077.27 0.881943 -1.30612 0
M  V30 53845 C 5078.69 1.16572 -1.09009 0
M  V30 53846 C 5078.89 2.00962 0.147199 0
M  V30 53847 O 5077.95 2.3812 0.839953 0
M  V30 53848 C 5079.26 1.86946 -2.35525 0
M  V30 53849 C 5080.81 1.99698 -2.41018 0
M  V30 53850 C 5081.28 2.73484 -3.67384 0
M  V30 53851 N 5082.77 2.81027 -3.68209 0
M  V30 53852 C 5083.51 3.38701 -4.62676 0
M  V30 53853 N 5083 3.97401 -5.67489 0
M  V30 53854 N 5084.8 3.36546 -4.50215 0
M  V30 53855 H 5076.95 0.319324 -2.09986 0
M  V30 53856 H 5079.21 0.204025 -0.925785 0
M  V30 53857 H 5078.92 1.32382 -3.25834 0
M  V30 53858 H 5078.79 2.87308 -2.44405 0
M  V30 53859 H 5081.18 2.5343 -1.51185 0
M  V30 53860 H 5081.26 0.984135 -2.36111 0
M  V30 53861 H 5080.9 2.20422 -4.57577 0
M  V30 53862 H 5080.83 3.7515 -3.69554 0
M  V30 53863 H 5083.32 2.39354 -2.92434 0
M  V30 53864 H 5083.64 4.39484 -6.35668 0
M  V30 53865 H 5081.98 3.95812 -5.71278 0
M  V30 53866 H 5085.17 2.89917 -3.67513 0
M  V30 53867 H 5085.35 3.81197 -5.24016 0
M  V30 53868 N 5078.75 1.13378 1.09468 0
M  V30 53869 C 5079.68 0.754429 2.15369 0
M  V30 53870 C 5080.66 -0.259149 1.60522 0
M  V30 53871 O 5081.85 -0.150753 1.87896 0
M  V30 53872 C 5078.97 0.118316 3.38493 0
M  V30 53873 C 5078.02 1.10032 4.12062 0
M  V30 53874 S 5078.85 2.63258 4.66321 0
M  V30 53875 C 5080.01 2.01005 5.92746 0
M  V30 53876 H 5080.24 1.65144 2.47214 0
M  V30 53877 H 5077.77 0.95388 1.2141 0
M  V30 53878 H 5079.73 -0.242303 4.09784 0
M  V30 53879 H 5078.39 -0.755958 3.04867 0
M  V30 53880 H 5077.59 0.603046 5.00379 0
M  V30 53881 H 5077.19 1.40438 3.46631 0
M  V30 53882 H 5079.48 1.35886 6.63733 0
M  V30 53883 H 5080.42 2.87402 6.47152 0
M  V30 53884 H 5080.83 1.4618 5.45245 0
M  V30 53885 N 5080.23 -1.27438 0.927213 0
M  V30 53886 C 5081.48 -1.94677 0.568232 0
M  V30 53887 C 5081.81 -1.727 -0.888159 0
M  V30 53888 O 5081.08 -1.05579 -1.63351 0
M  V30 53889 C 5081.37 -3.48816 0.894375 0
M  V30 53890 C 5081.22 -3.80138 2.40448 0
M  V30 53891 C 5082.54 -4.38279 0.39992 0
M  V30 53892 H 5079.66 -0.707064 0.207917 0
M  V30 53893 H 5082.3 -1.50564 1.1589 0
M  V30 53894 H 5080.45 -3.8652 0.391702 0
M  V30 53895 H 5082.12 -3.52228 2.97881 0
M  V30 53896 H 5080.36 -3.26706 2.85387 0
M  V30 53897 H 5081.04 -4.87826 2.58321 0
M  V30 53898 H 5083.51 -4.07723 0.830723 0
M  V30 53899 H 5082.39 -5.44953 0.657077 0
M  V30 53900 H 5082.65 -4.36523 -0.7 0
M  V30 53901 N 5081.71 -0.692666 -1.41562 0
M  V30 53902 C 5082.96 -0.221966 -2.00877 0
M  V30 53903 C 5083.28 1.18158 -1.55124 0
M  V30 53904 O 5082.55 1.79676 -0.780603 0
M  V30 53905 H 5081.13 -0.0790724 -0.742803 0
M  V30 53906 H 5083.79 -0.893176 -1.73229 0
M  V30 53907 H 5082.88 -0.23713 -3.11198 0
M  V30 53908 N 5083.19 1.51414 -0.437215 0
M  V30 53909 C 5084.1 2.31494 0.380456 0
M  V30 53910 C 5085.11 1.40403 1.02777 0
M  V30 53911 O 5086.29 1.73474 1.02316 0
M  V30 53912 C 5083.35 3.14135 1.46697 0
M  V30 53913 C 5082.41 4.21006 0.839805 0
M  V30 53914 C 5081.65 4.99696 1.87455 0
M  V30 53915 O 5081.87 4.79019 3.09673 0
M  V30 53916 O 5080.8 5.83795 1.46515 0
M  V30 53917 H 5084.63 3.02468 -0.273289 0
M  V30 53918 H 5082.21 1.48059 -0.199758 0
M  V30 53919 H 5084.1 3.65512 2.09711 0
M  V30 53920 H 5082.77 2.45926 2.10481 0
M  V30 53921 H 5081.68 3.73706 0.17162 0
M  V30 53922 H 5083.01 4.91588 0.245465 0
M  V30 53923 N 5084.66 0.168568 1.56696 0
M  V30 53924 C 5085.91 -0.477164 1.95975 0
M  V30 53925 C 5086.23 -1.64574 1.0571 0
M  V30 53926 O 5087.43 -2.35753 1.34658 0
M  V30 53927 C 5085.89 -0.90029 3.48458 0
M  V30 53928 C 5085.5 0.242539 4.47343 0
M  V30 53929 C 5087.24 -1.5146 3.9656 0
M  V30 53930 C 5085.15 -0.200064 5.91062 0
M  V30 53931 H 5084.08 -0.182035 0.731696 0
M  V30 53932 H 5086.73 0.256361 1.817 0
M  V30 53933 H 5085.11 -1.68971 3.58141 0
M  V30 53934 H 5086.28 1.01983 4.49373 0
M  V30 53935 H 5084.6 0.766627 4.09282 0
M  V30 53936 H 5087.2 -1.85774 5.0139 0
M  V30 53937 H 5087.54 -2.41151 3.3934 0
M  V30 53938 H 5088.07 -0.789665 3.89883 0
M  V30 53939 H 5084.81 0.662004 6.52149 0
M  V30 53940 H 5084.33 -0.94277 5.92344 0
M  V30 53941 H 5086.01 -0.644862 6.43778 0
M  V30 53942 N 5086.14 -1.57249 -0.105165 0
M  V30 53943 C 5087.39 -1.85573 -0.810486 0
M  V30 53944 C 5087.72 -0.755658 -1.79221 0
M  V30 53945 O 5086.97 0.25172 -1.94074 0
M  V30 53946 C 5087.27 -3.20443 -1.58276 0
M  V30 53947 C 5086.94 -4.44718 -0.744078 0
M  V30 53948 C 5085.6 -4.78459 -0.512845 0
M  V30 53949 C 5087.95 -5.20953 -0.160395 0
M  V30 53950 C 5085.28 -5.85869 0.3121 0
M  V30 53951 C 5087.63 -6.29233 0.651817 0
M  V30 53952 C 5086.3 -6.61496 0.893238 0
M  V30 53953 H 5085.57 -0.67906 -0.296578 0
M  V30 53954 H 5088.21 -1.91363 -0.0723296 0
M  V30 53955 H 5086.52 -3.10291 -2.39221 0
M  V30 53956 H 5088.21 -3.39583 -2.1327 0
M  V30 53957 H 5084.8 -4.1829 -0.934408 0
M  V30 53958 H 5088.99 -4.95227 -0.326226 0
M  V30 53959 H 5084.24 -6.09284 0.508226 0
M  V30 53960 H 5088.42 -6.87481 1.11101 0
M  V30 53961 H 5086.05 -7.44556 1.53427 0
M  V30 53962 N 5087.62 0.375726 -1.53056 0
M  V30 53963 C 5088.87 1.11668 -1.67968 0
M  V30 53964 C 5089.18 1.90753 -0.432722 0
M  V30 53965 O 5090.39 2.67537 -0.462203 0
M  V30 53966 C 5088.84 2.03429 -2.96891 0
M  V30 53967 C 5088.45 1.29704 -4.28813 0
M  V30 53968 C 5090.2 2.77579 -3.2117 0
M  V30 53969 C 5088.1 2.20308 -5.48834 0
M  V30 53970 H 5087.03 0.420575 -0.625806 0
M  V30 53971 H 5089.68 0.378436 -1.79555 0
M  V30 53972 H 5088.07 2.80944 -2.79082 0
M  V30 53973 H 5089.24 0.573233 -4.57221 0
M  V30 53974 H 5087.56 0.674591 -4.10899 0
M  V30 53975 H 5090.15 3.45575 -4.08022 0
M  V30 53976 H 5090.5 3.4239 -2.36801 0
M  V30 53977 H 5091.03 2.07152 -3.39607 0
M  V30 53978 H 5087.77 1.60091 -6.3565 0
M  V30 53979 H 5087.29 2.90567 -5.2472 0
M  V30 53980 H 5088.97 2.80095 -5.83229 0
M  V30 53981 N 5089.1 1.44244 0.634946 0
M  V30 53982 C 5090.33 1.50083 1.41981 0
M  V30 53983 C 5090.74 0.123139 1.88799 0
M  V30 53984 O 5090.08 -0.880495 1.61223 0
M  V30 53985 C 5090.14 2.40042 2.67619 0
M  V30 53986 C 5089.81 3.87277 2.42623 0
M  V30 53987 C 5090.8 4.7791 2.04691 0
M  V30 53988 C 5088.49 4.31942 2.56381 0
M  V30 53989 C 5090.48 6.11208 1.8084 0
M  V30 53990 C 5088.17 5.65289 2.32145 0
M  V30 53991 C 5089.17 6.5474 1.94432 0
M  V30 53992 O 5088.85 7.85619 1.70462 0
M  V30 53993 H 5088.59 0.511476 0.442005 0
M  V30 53994 H 5091.14 1.89846 0.784072 0
M  V30 53995 H 5089.37 1.95199 3.33817 0
M  V30 53996 H 5091.06 2.36875 3.29613 0
M  V30 53997 H 5091.83 4.44675 1.93622 0
M  V30 53998 H 5087.7 3.62579 2.84706 0
M  V30 53999 H 5091.25 6.80988 1.51329 0
M  V30 54000 H 5087.15 5.98087 2.42822 0
M  V30 54001 H 5087.91 7.97379 1.84739 0
M  V30 54002 N 5090.58 -0.875004 1.31078 0
M  V30 54003 C 5091.82 -1.63002 1.21663 0
M  V30 54004 C 5092.18 -1.91089 -0.224239 0
M  V30 54005 O 5091.47 -1.52783 -1.1562 0
M  V30 54006 C 5091.66 -2.96941 1.98899 0
M  V30 54007 C 5091.49 -2.81932 3.50349 0
M  V30 54008 C 5090.26 -2.81385 4.19703 0
M  V30 54009 C 5092.46 -2.57155 4.45394 0
M  V30 54010 N 5090.44 -2.57373 5.57344 0
M  V30 54011 C 5091.81 -2.42358 5.70668 0
M  V30 54012 C 5093.87 -2.42459 4.34877 0
M  V30 54013 C 5092.57 -2.1436 6.86616 0
M  V30 54014 C 5094.6 -2.15848 5.50603 0
M  V30 54015 C 5093.96 -2.01836 6.74864 0
M  V30 54016 H 5090.06 -0.601025 0.500293 0
M  V30 54017 H 5092.64 -1.03027 1.65207 0
M  V30 54018 H 5090.81 -3.5493 1.57731 0
M  V30 54019 H 5092.55 -3.61696 1.81544 0
M  V30 54020 H 5089.3 -2.93583 3.71626 0
M  V30 54021 H 5089.73 -2.48351 6.29802 0
M  V30 54022 H 5094.37 -2.52023 3.39477 0
M  V30 54023 H 5092.09 -2.03535 7.82048 0
M  V30 54024 H 5095.67 -2.05285 5.4438 0
M  V30 54025 H 5094.55 -1.81535 7.62899 0
M  V30 54026 N 5092.05 -1.13957 -1.08865 0
M  V30 54027 C 5093.28 -0.928625 -1.85449 0
M  V30 54028 C 5093.7 0.517578 -1.80839 0
M  V30 54029 O 5093.06 1.36775 -1.19006 0
M  V30 54030 C 5093.11 -1.42826 -3.31109 0
M  V30 54031 O 5092.21 -0.617272 -4.07754 0
M  V30 54032 H 5091.56 -0.33237 -0.574827 0
M  V30 54033 H 5094.09 -1.51565 -1.37438 0
M  V30 54034 H 5094.1 -1.43439 -3.81955 0
M  V30 54035 H 5092.77 -2.48121 -3.3378 0
M  V30 54036 H 5091.35 -0.679494 -3.66657 0
M  V30 54037 N 5093.53 1.26945 -0.933958 0
M  V30 54038 C 5094.48 2.26634 -0.436564 0
M  V30 54039 C 5095.45 1.58399 0.499898 0
M  V30 54040 O 5096.63 1.86172 0.417687 0
M  V30 54041 C 5093.77 3.43804 0.298831 0
M  V30 54042 C 5092.89 4.26734 -0.672466 0
M  V30 54043 C 5092.02 5.31135 0.0834004 0
M  V30 54044 C 5091.06 6.05738 -0.880192 0
M  V30 54045 N 5090.2 7.01925 -0.156548 0
M  V30 54046 H 5095.04 2.68553 -1.29163 0
M  V30 54047 H 5092.58 1.3205 -0.648165 0
M  V30 54048 H 5094.53 4.10556 0.741579 0
M  V30 54049 H 5093.16 3.02818 1.11809 0
M  V30 54050 H 5092.22 3.59838 -1.23374 0
M  V30 54051 H 5093.53 4.78497 -1.40863 0
M  V30 54052 H 5092.68 6.03866 0.585771 0
M  V30 54053 H 5091.42 4.80191 0.852492 0
M  V30 54054 H 5090.43 5.31841 -1.39375 0
M  V30 54055 H 5091.65 6.58771 -1.64917 0
M  V30 54056 H 5089.6 6.53303 0.594183 0
M  V30 54057 H 5089.51 7.51406 -0.83217 0
M  V30 54058 H 5090.78 7.78822 0.324965 0
M  V30 54059 N 5095.01 0.700164 1.41193 0
M  V30 54060 C 5096.24 0.240777 2.05998 0
M  V30 54061 C 5096.66 -1.10308 1.52361 0
M  V30 54062 O 5096.02 -1.69152 0.652483 0
M  V30 54063 C 5096.07 0.21391 3.59965 0
M  V30 54064 O 5095.17 -0.80979 4.04371 0
M  V30 54065 H 5094.51 0.116494 0.653701 0
M  V30 54066 H 5097.04 0.956315 1.80875 0
M  V30 54067 H 5097.05 0.0463286 4.07974 0
M  V30 54068 H 5095.73 1.19468 3.98372 0
M  V30 54069 H 5094.3 -0.61119 3.67857 0
M  V30 54070 N 5096.49 -1.5118 0.445239 0
M  V30 54071 C 5097.44 -2.24806 -0.380315 0
M  V30 54072 C 5098.42 -1.27347 -0.983437 0
M  V30 54073 O 5099.61 -1.52395 -0.900268 0
M  V30 54074 C 5096.74 -3.09927 -1.47649 0
M  V30 54075 C 5095.83 -4.14819 -0.882371 0
M  V30 54076 N 5096.22 -5.05797 -0.01815 0
M  V30 54077 C 5094.52 -4.30942 -1.14912 0
M  V30 54078 C 5095.22 -5.80839 0.316356 0
M  V30 54079 N 5094.2 -5.4276 -0.302023 0
M  V30 54080 H 5098 -2.92507 0.28584 0
M  V30 54081 H 5095.51 -1.60341 0.257789 0
M  V30 54082 H 5097.51 -3.61256 -2.08085 0
M  V30 54083 H 5096.17 -2.43771 -2.1449 0
M  V30 54084 H 5097.18 -5.16724 0.34886 0
M  V30 54085 H 5093.86 -3.76011 -1.81443 0
M  V30 54086 H 5095.25 -6.64111 1.02009 0
M  V30 54087 N 5097.97 -0.176876 -1.56604 0
M  V30 54088 C 5098.91 0.768082 -2.19552 0
M  V30 54089 C 5099.91 1.23339 -1.16121 0
M  V30 54090 O 5101.11 1.1984 -1.34307 0
M  V30 54091 H 5097.49 0.265988 -0.703388 0
M  V30 54092 H 5099.46 0.21327 -2.97637 0
M  V30 54093 C 5098.21 1.98482 -2.85482 0
M  V30 54094 H 5097.53 1.63582 -3.64803 0
M  V30 54095 H 5098.97 2.62477 -3.32989 0
M  V30 54096 C 5097.43 2.812 -1.85548 0
M  V30 54097 O 5097.96 3.78535 -1.3444 0
M  V30 54098 N 5096.17 2.46326 -1.54182 0
M  V30 54099 H 5095.71 1.67234 -1.95935 0
M  V30 54100 H 5095.67 3.01958 -0.875702 0
M  V30 54101 N 5099.44 1.57302 0.0968247 0
M  V30 54102 C 5100.69 1.86 0.800634 0
M  V30 54103 C 5101.02 0.765152 1.78817 0
M  V30 54104 O 5100.27 -0.241424 1.94205 0
M  V30 54105 C 5100.57 3.21278 1.56574 0
M  V30 54106 C 5100.24 4.45107 0.720483 0
M  V30 54107 C 5098.9 4.78725 0.487464 0
M  V30 54108 C 5101.25 5.21031 0.132765 0
M  V30 54109 C 5098.58 5.85696 -0.343166 0
M  V30 54110 C 5100.93 6.28878 -0.685178 0
M  V30 54111 C 5099.6 6.61013 -0.928306 0
M  V30 54112 H 5098.87 0.680623 0.292973 0
M  V30 54113 H 5101.51 1.91399 0.0621801 0
M  V30 54114 H 5099.82 3.11555 2.37572 0
M  V30 54115 H 5101.52 3.4071 2.11466 0
M  V30 54116 H 5098.11 4.1878 0.912212 0
M  V30 54117 H 5102.29 4.95393 0.299958 0
M  V30 54118 H 5097.55 6.09006 -0.540531 0
M  V30 54119 H 5101.72 6.86882 -1.14745 0
M  V30 54120 H 5099.35 7.43732 -1.57374 0
M  V30 54121 N 5100.92 -0.367603 1.53253 0
M  V30 54122 C 5101.87 -1.45021 1.79548 0
M  V30 54123 C 5102.84 -1.53286 0.639744 0
M  V30 54124 O 5104.03 -1.69205 0.881713 0
M  V30 54125 C 5101.17 -2.81993 1.98933 0
M  V30 54126 C 5100.28 -2.82711 3.26648 0
M  V30 54127 C 5099.41 -4.11245 3.36231 0
M  V30 54128 C 5098.45 -4.06097 4.57986 0
M  V30 54129 N 5097.59 -5.26276 4.64734 0
M  V30 54130 H 5102.43 -1.21899 2.71928 0
M  V30 54131 H 5099.97 -0.590964 1.34707 0
M  V30 54132 H 5101.92 -3.6156 2.08158 0
M  V30 54133 H 5100.55 -3.03519 1.09892 0
M  V30 54134 H 5099.61 -1.95388 3.26386 0
M  V30 54135 H 5100.92 -2.74779 4.1629 0
M  V30 54136 H 5100.07 -4.99227 3.44757 0
M  V30 54137 H 5098.81 -4.21926 2.44601 0
M  V30 54138 H 5097.82 -3.16502 4.49563 0
M  V30 54139 H 5099.04 -3.9702 5.50956 0
M  V30 54140 H 5096.99 -5.37547 3.76004 0
M  V30 54141 H 5096.9 -5.20506 5.48278 0
M  V30 54142 H 5098.17 -6.16097 4.77541 0
M  V30 54143 N 5102.4 -1.44578 -0.627288 0
M  V30 54144 C 5103.82 -1.2855 -0.945893 0
M  V30 54145 C 5104.02 -0.224074 -2.0025 0
M  V30 54146 O 5103.07 0.388729 -2.4949 0
M  V30 54147 C 5104.39 -2.6583 -1.40551 0
M  V30 54148 C 5105.93 -2.73571 -1.52079 0
M  V30 54149 C 5106.41 -4.1133 -2.01423 0
M  V30 54150 N 5107.9 -4.13526 -2.08687 0
M  V30 54151 C 5108.64 -5.16972 -2.48047 0
M  V30 54152 N 5108.13 -6.30778 -2.86516 0
M  V30 54153 N 5109.92 -5.04327 -2.48214 0
M  V30 54154 H 5102.08 -2.1228 0.0714314 0
M  V30 54155 H 5104.34 -0.947504 -0.0306748 0
M  V30 54156 H 5104.04 -3.44594 -0.703418 0
M  V30 54157 H 5103.92 -2.92977 -2.3758 0
M  V30 54158 H 5106.31 -1.95124 -2.21384 0
M  V30 54159 H 5106.39 -2.50161 -0.534149 0
M  V30 54160 H 5106.03 -4.90255 -1.32711 0
M  V30 54161 H 5105.96 -4.3212 -3.00965 0
M  V30 54162 H 5108.45 -3.31391 -1.81627 0
M  V30 54163 H 5108.76 -7.05521 -3.15373 0
M  V30 54164 H 5107.11 -6.3421 -2.84258 0
M  V30 54165 H 5110.3 -4.14473 -2.17554 0
M  V30 54166 H 5110.47 -5.85069 -2.78564 0
M  V30 54167 N 5103.88 0.86804 -1.3154 0
M  V30 54168 C 5104.79 2.00796 -1.21318 0
M  V30 54169 C 5105.81 1.73517 -0.129492 0
M  V30 54170 O 5106.98 1.98377 -0.347658 0
M  V30 54171 C 5104.05 3.34187 -0.923052 0
M  V30 54172 C 5103.11 3.74776 -2.09383 0
M  V30 54173 C 5102.34 5.01801 -1.81745 0
M  V30 54174 O 5102.56 5.65401 -0.753512 0
M  V30 54175 O 5101.5 5.39203 -2.67476 0
M  V30 54176 H 5105.32 2.12353 -2.17117 0
M  V30 54177 H 5102.91 0.996645 -1.11298 0
M  V30 54178 H 5104.79 4.14171 -0.777179 0
M  V30 54179 H 5103.47 3.237 0.00488921 0
M  V30 54180 H 5102.37 2.95424 -2.29512 0
M  V30 54181 H 5103.71 3.89891 -3.00409 0
M  V30 54182 N 5105.36 1.14532 1.0826 0
M  V30 54183 C 5106.27 0.847357 2.18762 0
M  V30 54184 C 5107.28 -0.172765 1.7314 0
M  V30 54185 O 5108.46 -0.000914534 2.014 0
M  V30 54186 C 5105.52 0.330754 3.45119 0
M  V30 54187 C 5104.59 1.41362 4.05358 0
M  V30 54188 C 5103.82 0.921572 5.25683 0
M  V30 54189 O 5104.04 -0.236386 5.6991 0
M  V30 54190 O 5102.98 1.70121 5.77358 0
M  V30 54191 H 5106.8 1.77089 2.46725 0
M  V30 54192 H 5104.39 0.923703 1.17423 0
M  V30 54193 H 5106.27 0.0486534 4.21372 0
M  V30 54194 H 5104.94 -0.565035 3.1873 0
M  V30 54195 H 5103.85 1.7492 3.30687 0
M  V30 54196 H 5105.18 2.28398 4.35999 0
M  V30 54197 N 5106.84 -1.26448 0.940677 0
M  V30 54198 C 5107.77 -2.25554 0.407183 0
M  V30 54199 C 5108.78 -1.5589 -0.469269 0
M  V30 54200 O 5109.97 -1.76293 -0.279796 0
M  V30 54201 C 5107.07 -3.3611 -0.433945 0
M  V30 54202 C 5106.24 -4.35318 0.426235 0
M  V30 54203 C 5105.3 -5.25005 -0.354379 0
M  V30 54204 O 5104.33 -5.68684 0.242419 0
M  V30 54205 N 5105.53 -5.56526 -1.65104 0
M  V30 54206 H 5108.29 -2.71965 1.25917 0
M  V30 54207 H 5105.86 -1.40209 0.809505 0
M  V30 54208 H 5107.85 -3.93062 -0.963546 0
M  V30 54209 H 5106.42 -2.89198 -1.18673 0
M  V30 54210 H 5105.64 -3.77445 1.13705 0
M  V30 54211 H 5106.93 -4.98597 1.01383 0
M  V30 54212 H 5106.32 -5.2292 -2.15804 0
M  V30 54213 H 5104.88 -6.16122 -2.12689 0
M  V30 54214 N 5108.31 -0.707642 -1.4082 0
M  V30 54215 C 5109.26 -0.038746 -2.32568 0
M  V30 54216 C 5110.26 0.7556 -1.51615 0
M  V30 54217 O 5111.46 0.659862 -1.67469 0
M  V30 54218 H 5107.84 0.00627269 -0.751974 0
M  V30 54219 H 5109.81 -0.829401 -2.86642 0
M  V30 54220 C 5108.56 0.874841 -3.36514 0
M  V30 54221 H 5107.88 0.273016 -3.98867 0
M  V30 54222 H 5109.32 1.31097 -4.03224 0
M  V30 54223 C 5107.78 1.99663 -2.7136 0
M  V30 54224 O 5108.31 3.08667 -2.57075 0
M  V30 54225 N 5106.51 1.77791 -2.29867 0
M  V30 54226 H 5106.06 0.891385 -2.41686 0
M  V30 54227 H 5106.02 2.5303 -1.8661 0
M  V30 54228 N 5109.79 1.50942 -0.45325 0
M  V30 54229 C 5111.04 2.02213 0.107851 0
M  V30 54230 C 5111.37 1.33644 1.41314 0
M  V30 54231 O 5110.62 0.445221 1.90568 0
M  V30 54232 C 5110.92 3.55604 0.357819 0
M  V30 54233 C 5110.59 4.42553 -0.863583 0
M  V30 54234 C 5109.25 4.66036 -1.1985 0
M  V30 54235 C 5111.6 4.93462 -1.67764 0
M  V30 54236 C 5108.93 5.37673 -2.34786 0
M  V30 54237 C 5111.28 5.6636 -2.81813 0
M  V30 54238 C 5109.94 5.88102 -3.15741 0
M  V30 54239 H 5109.21 0.739948 0.0394656 0
M  V30 54240 H 5111.86 1.81735 -0.603694 0
M  V30 54241 H 5110.17 3.74499 1.15143 0
M  V30 54242 H 5111.86 3.92824 0.805643 0
M  V30 54243 H 5108.45 4.24483 -0.592627 0
M  V30 54244 H 5112.64 4.75189 -1.43209 0
M  V30 54245 H 5107.89 5.52718 -2.61368 0
M  V30 54246 H 5112.07 6.04793 -3.4525 0
M  V30 54247 H 5109.69 6.4339 -4.04912 0
M  V30 54248 N 5111.27 0.185179 1.56508 0
M  V30 54249 C 5112.52 -0.456865 1.97587 0
M  V30 54250 C 5112.85 -1.61953 1.07167 0
M  V30 54251 O 5112.12 -1.94119 0.121614 0
M  V30 54252 C 5112.41 -0.926543 3.47976 0
M  V30 54253 C 5112.26 0.237255 4.49174 0
M  V30 54254 C 5113.58 -1.79547 4.01809 0
M  V30 54255 H 5110.7 -0.164594 0.718386 0
M  V30 54256 H 5113.34 0.274105 1.88012 0
M  V30 54257 H 5111.49 -1.54941 3.56266 0
M  V30 54258 H 5113.16 0.874699 4.52931 0
M  V30 54259 H 5111.4 0.890596 4.2456 0
M  V30 54260 H 5112.08 -0.13373 5.51838 0
M  V30 54261 H 5114.55 -1.27026 3.96237 0
M  V30 54262 H 5113.43 -2.09309 5.07426 0
M  V30 54263 H 5113.69 -2.74617 3.46465 0
M  V30 54264 N 5112.75 -1.57351 -0.0884812 0
M  V30 54265 C 5113.99 -1.86698 -0.79193 0
M  V30 54266 C 5114.33 -0.77521 -1.78057 0
M  V30 54267 O 5113.6 0.216179 -1.93295 0
M  V30 54268 C 5113.88 -3.26689 -1.5148 0
M  V30 54269 C 5113.74 -4.46502 -0.543701 0
M  V30 54270 C 5115.06 -3.64672 -2.46378 0
M  V30 54271 H 5112.18 -0.679059 -0.286439 0
M  V30 54272 H 5114.82 -1.89919 -0.0554198 0
M  V30 54273 H 5112.97 -3.24075 -2.14261 0
M  V30 54274 H 5114.64 -4.61235 0.0776218 0
M  V30 54275 H 5112.88 -4.33566 0.14238 0
M  V30 54276 H 5113.55 -5.41196 -1.08677 0
M  V30 54277 H 5116.03 -3.68274 -1.93685 0
M  V30 54278 H 5114.91 -4.63544 -2.9397 0
M  V30 54279 H 5115.17 -2.93709 -3.30435 0
M  V30 54280 N 5114.23 0.359471 -1.53446 0
M  V30 54281 C 5115.16 1.46092 -1.76607 0
M  V30 54282 C 5116.17 1.49393 -0.646965 0
M  V30 54283 O 5117.36 1.52762 -0.923361 0
M  V30 54284 C 5114.46 2.84829 -1.83645 0
M  V30 54285 C 5113.63 3.05153 -3.13369 0
M  V30 54286 C 5112.69 4.2404 -3.11571 0
M  V30 54287 O 5111.72 4.18921 -3.85349 0
M  V30 54288 N 5112.92 5.31767 -2.32819 0
M  V30 54289 H 5115.68 1.266 -2.71648 0
M  V30 54290 H 5113.25 0.549241 -1.52299 0
M  V30 54291 H 5115.24 3.6251 -1.79912 0
M  V30 54292 H 5113.81 2.97539 -0.958614 0
M  V30 54293 H 5113.03 2.15079 -3.30355 0
M  V30 54294 H 5114.32 3.15605 -3.99088 0
M  V30 54295 H 5113.71 5.3879 -1.72399 0
M  V30 54296 H 5112.27 6.08002 -2.34899 0
M  V30 54297 N 5115.7 1.44909 0.619611 0
M  V30 54298 C 5116.65 1.52977 1.75217 0
M  V30 54299 C 5117.65 0.400589 1.64595 0
M  V30 54300 O 5118.85 0.576012 1.70535 0
M  V30 54301 H 5115.23 0.480261 0.578665 0
M  V30 54302 H 5117.2 2.48274 1.65537 0
M  V30 54303 C 5115.95 1.50215 3.13577 0
M  V30 54304 H 5115.27 2.36423 3.22404 0
M  V30 54305 H 5116.71 1.59919 3.92685 0
M  V30 54306 C 5115.17 0.224668 3.3615 0
M  V30 54307 O 5115.7 -0.700435 3.95546 0
M  V30 54308 N 5113.91 0.124155 2.90335 0
M  V30 54309 H 5113.45 0.877825 2.42182 0
M  V30 54310 H 5113.41 -0.729806 3.05812 0
M  V30 54311 N 5117.18 -0.861052 1.31999 0
M  V30 54312 C 5118.09 -2.0015 1.22381 0
M  V30 54313 C 5119.11 -1.73446 0.138692 0
M  V30 54314 O 5120.28 -1.9819 0.358173 0
M  V30 54315 C 5117.35 -3.33692 0.940762 0
M  V30 54316 C 5116.41 -3.7366 2.11368 0
M  V30 54317 C 5115.64 -5.0083 1.84404 0
M  V30 54318 O 5115.87 -5.64994 0.783486 0
M  V30 54319 O 5114.8 -5.37777 2.70332 0
M  V30 54320 H 5118.63 -2.11199 2.1824 0
M  V30 54321 H 5116.21 -0.990728 1.11825 0
M  V30 54322 H 5118.09 -4.13753 0.799132 0
M  V30 54323 H 5116.77 -3.23698 0.0122774 0
M  V30 54324 H 5115.68 -2.94202 2.31075 0
M  V30 54325 H 5117.01 -3.88293 3.02473 0
M  V30 54326 N 5118.66 -1.15105 -1.07651 0
M  V30 54327 C 5119.91 -0.918592 -1.79568 0
M  V30 54328 C 5120.22 0.555856 -1.87536 0
M  V30 54329 O 5121.43 0.905803 -2.55944 0
M  V30 54330 C 5119.88 -1.59406 -3.22673 0
M  V30 54331 C 5119.49 -3.10531 -3.22916 0
M  V30 54332 C 5121.24 -1.44303 -3.9922 0
M  V30 54333 C 5119.14 -3.70878 -4.60655 0
M  V30 54334 H 5118.07 -0.34003 -0.672975 0
M  V30 54335 H 5120.72 -1.38084 -1.20852 0
M  V30 54336 H 5119.11 -1.0595 -3.81563 0
M  V30 54337 H 5120.28 -3.70718 -2.73687 0
M  V30 54338 H 5118.6 -3.2536 -2.59865 0
M  V30 54339 H 5121.19 -1.86783 -5.01015 0
M  V30 54340 H 5121.54 -0.390121 -4.14468 0
M  V30 54341 H 5122.07 -1.94839 -3.46818 0
M  V30 54342 H 5118.81 -4.76056 -4.50612 0
M  V30 54343 H 5118.33 -3.15474 -5.10134 0
M  V30 54344 H 5120.01 -3.71625 -5.29626 0
M  V30 54345 N 5120.14 1.25947 -0.94737 0
M  V30 54346 C 5121.09 2.28151 -0.452767 0
M  V30 54347 C 5122.08 1.62657 0.473182 0
M  V30 54348 O 5123.29 1.7655 0.350712 0
M  V30 54349 H 5119.66 0.741044 -0.127896 0
M  V30 54350 H 5121.63 2.67262 -1.32716 0
M  V30 54351 C 5120.38 3.4672 0.260858 0
M  V30 54352 H 5119.7 3.97344 -0.442492 0
M  V30 54353 H 5121.14 4.20137 0.57106 0
M  V30 54354 C 5119.6 3.0261 1.48083 0
M  V30 54355 O 5120.13 3.07988 2.57888 0
M  V30 54356 N 5118.34 2.57882 1.3396 0
M  V30 54357 H 5117.89 2.53706 0.446205 0
M  V30 54358 H 5117.84 2.28733 2.15705 0
M  V30 54359 N 5121.62 0.7151 1.40442 0
M  V30 54360 C 5122.56 0.0510791 2.32544 0
M  V30 54361 C 5123.56 -0.747549 1.52013 0
M  V30 54362 O 5124.76 -0.650972 1.67816 0
M  V30 54363 H 5121.14 -0.0022847 0.751997 0
M  V30 54364 H 5123.11 0.84459 2.86198 0
M  V30 54365 C 5121.86 -0.856983 3.36973 0
M  V30 54366 H 5121.18 -0.25186 3.99006 0
M  V30 54367 H 5122.62 -1.28956 4.03914 0
M  V30 54368 C 5121.08 -1.98221 2.72415 0
M  V30 54369 O 5121.61 -3.073 2.58708 0
M  V30 54370 N 5119.82 -1.76569 2.30807 0
M  V30 54371 H 5119.36 -0.878556 2.42155 0
M  V30 54372 H 5119.32 -2.52036 1.87949 0
M  V30 54373 N 5123.09 -1.50699 0.461248 0
M  V30 54374 C 5124.03 -2.2495 -0.383784 0
M  V30 54375 C 5125.01 -1.27854 -1.00459 0
M  V30 54376 O 5126.19 -1.57052 -1.04244 0
M  V30 54377 C 5123.32 -3.01823 -1.53689 0
M  V30 54378 C 5122.36 -4.13765 -1.03443 0
M  V30 54379 S 5123.2 -5.35483 0.0429368 0
M  V30 54380 C 5124.35 -6.15902 -1.11428 0
M  V30 54381 H 5124.58 -2.96276 0.24653 0
M  V30 54382 H 5122.12 -1.52427 0.246015 0
M  V30 54383 H 5124.08 -3.46708 -2.19782 0
M  V30 54384 H 5122.74 -2.30041 -2.13869 0
M  V30 54385 H 5121.93 -4.6692 -1.8974 0
M  V30 54386 H 5121.53 -3.71266 -0.451369 0
M  V30 54387 H 5123.82 -6.46438 -2.02791 0
M  V30 54388 H 5124.77 -7.05361 -0.622196 0
M  V30 54389 H 5125.17 -5.47782 -1.36365 0
M  V30 54390 N 5124.57 -0.193476 -1.56408 0
M  V30 54391 C 5125.8 0.454481 -2.02359 0
M  V30 54392 C 5126.22 1.54512 -1.07273 0
M  V30 54393 O 5125.58 1.81214 -0.0559599 0
M  V30 54394 C 5125.63 0.989347 -3.46763 0
M  V30 54395 O 5124.73 2.10232 -3.5479 0
M  V30 54396 H 5124.07 0.106394 -0.655421 0
M  V30 54397 H 5126.6 -0.303878 -2.02331 0
M  V30 54398 H 5126.61 1.30636 -3.86521 0
M  V30 54399 H 5125.29 0.190937 -4.15461 0
M  V30 54400 H 5123.87 1.79408 -3.26906 0
M  V30 54401 N 5126.05 1.57396 0.0801353 0
M  V30 54402 C 5127.3 1.86839 0.780861 0
M  V30 54403 C 5127.63 0.784075 1.77996 0
M  V30 54404 O 5126.88 -0.220812 1.9445 0
M  V30 54405 C 5127.18 3.2292 1.53158 0
M  V30 54406 C 5126.85 4.45846 0.673233 0
M  V30 54407 C 5125.51 4.79215 0.436661 0
M  V30 54408 C 5127.86 5.21142 0.0774953 0
M  V30 54409 C 5125.19 5.85299 -0.405268 0
M  V30 54410 C 5127.54 6.28116 -0.75184 0
M  V30 54411 C 5126.2 6.59992 -0.998363 0
M  V30 54412 H 5125.47 0.683692 0.285737 0
M  V30 54413 H 5128.12 1.91454 0.0418762 0
M  V30 54414 H 5126.43 3.14058 2.34254 0
M  V30 54415 H 5128.12 3.42933 2.07841 0
M  V30 54416 H 5124.71 4.19724 0.867743 0
M  V30 54417 H 5128.9 4.95683 0.247398 0
M  V30 54418 H 5124.15 6.08398 -0.605094 0
M  V30 54419 H 5128.33 6.85626 -1.22024 0
M  V30 54420 H 5125.95 7.42021 -1.65253 0
M  V30 54421 N 5127.53 -0.351328 1.53634 0
M  V30 54422 C 5128.46 -1.43681 1.8406 0
M  V30 54423 C 5129.44 -1.55248 0.695128 0
M  V30 54424 O 5130.62 -1.69583 0.946317 0
M  V30 54425 C 5127.75 -2.80836 2.04325 0
M  V30 54426 C 5126.71 -2.84082 3.20127 0
M  V30 54427 C 5126.03 -4.24048 3.2571 0
M  V30 54428 C 5127.33 -2.50318 4.58408 0
M  V30 54429 H 5129.03 -1.18468 2.74965 0
M  V30 54430 H 5126.57 -0.568463 1.32305 0
M  V30 54431 H 5128.53 -3.56813 2.24193 0
M  V30 54432 H 5127.25 -3.07467 1.10143 0
M  V30 54433 H 5125.91 -2.10558 3.00102 0
M  V30 54434 H 5125.56 -4.47777 2.29139 0
M  V30 54435 H 5125.26 -4.27133 4.03524 0
M  V30 54436 H 5126.78 -5.01878 3.4778 0
M  V30 54437 H 5128.2 -3.16008 4.78343 0
M  V30 54438 H 5126.59 -2.64698 5.38567 0
M  V30 54439 H 5127.66 -1.45526 4.62548 0
M  V30 54440 N 5129.01 -1.45235 -0.611918 0
M  V30 54441 C 5130.23 -1.52544 -1.39778 0
M  V30 54442 C 5130.65 -0.156599 -1.88149 0
M  V30 54443 O 5130.01 0.841063 -1.61964 0
M  V30 54444 C 5130.06 -2.50623 -2.60519 0
M  V30 54445 O 5129.78 -3.82187 -2.1416 0
M  V30 54446 C 5131.28 -2.67587 -3.53429 0
M  V30 54447 H 5128.5 -0.516755 -0.428025 0
M  V30 54448 H 5131.04 -1.90382 -0.746661 0
M  V30 54449 H 5129.2 -2.15869 -3.21682 0
M  V30 54450 H 5129.61 -4.35315 -2.92576 0
M  V30 54451 H 5131.09 -3.40199 -4.34705 0
M  V30 54452 H 5131.56 -1.73473 -4.0349 0
M  V30 54453 H 5132.17 -3.0332 -2.98122 0
M  V30 54454 N 5130.49 0.85404 -1.32453 0
M  V30 54455 C 5131.45 1.94422 -1.21378 0
M  V30 54456 C 5132.45 1.60218 -0.136669 0
M  V30 54457 O 5133.64 1.69844 -0.387116 0
M  V30 54458 C 5130.77 3.29695 -0.866817 0
M  V30 54459 H 5131.96 2.05671 -2.18265 0
M  V30 54460 H 5129.52 1.0443 -1.16293 0
M  V30 54461 H 5130.25 3.24145 0.100205 0
M  V30 54462 H 5130.04 3.55898 -1.64558 0
M  V30 54463 H 5131.53 4.09597 -0.813659 0
M  V30 54464 N 5131.96 1.15674 1.07039 0
M  V30 54465 C 5133.24 0.84401 1.76453 0
M  V30 54466 C 5133.62 -0.659735 2.00526 0
M  V30 54467 O 5132.97 -1.60512 1.62629 0
M  V30 54468 C 5133.18 1.65833 3.07084 0
M  V30 54469 C 5134.53 1.86654 3.81373 0
M  V30 54470 O 5135.55 1.62635 3.16904 0
M  V30 54471 O 5134.41 2.26902 4.9717 0
M  V30 54472 H 5131.5 0.310704 0.766415 0
M  V30 54473 H 5134.05 1.2627 1.13376 0
M  V30 54474 H 5132.82 2.67912 2.852 0
M  V30 54475 H 5132.44 1.23619 3.77894 0
M  V30 54476 N 5133.44 -1.25443 0.954036 0
M  V30 54477 C 5134.39 -2.27907 0.46486 0
M  V30 54478 C 5135.38 -1.62906 -0.464549 0
M  V30 54479 O 5136.59 -1.76734 -0.341344 0
M  V30 54480 H 5132.96 -0.740356 0.131824 0
M  V30 54481 H 5134.94 -2.66554 1.34132 0
M  V30 54482 C 5133.68 -3.46854 -0.242467 0
M  V30 54483 H 5133.01 -3.97103 0.463558 0
M  V30 54484 H 5134.45 -4.20434 -0.548771 0
M  V30 54485 C 5132.91 -3.03391 -1.46477 0
M  V30 54486 O 5133.44 -3.09351 -2.56252 0
M  V30 54487 N 5131.64 -2.58589 -1.3259 0
M  V30 54488 H 5131.19 -2.53939 -0.432744 0
M  V30 54489 H 5131.15 -2.29873 -2.14489 0
M  V30 54490 N 5134.92 -0.722538 -1.40061 0
M  V30 54491 C 5135.87 -0.0744549 -2.3068 0
M  V30 54492 C 5136.84 0.742951 -1.48558 0
M  V30 54493 O 5138.02 0.705474 -1.77279 0
M  V30 54494 C 5135.16 0.836174 -3.34817 0
M  V30 54495 C 5134.27 0.00749476 -4.31999 0
M  V30 54496 C 5133.41 0.918244 -5.23203 0
M  V30 54497 C 5132.45 0.0840687 -6.12042 0
M  V30 54498 N 5131.59 0.950071 -6.95642 0
M  V30 54499 H 5136.43 -0.852895 -2.85534 0
M  V30 54500 H 5133.96 -0.432272 -1.40605 0
M  V30 54501 H 5135.92 1.37846 -3.93769 0
M  V30 54502 H 5134.55 1.58072 -2.81448 0
M  V30 54503 H 5133.6 -0.65206 -3.7477 0
M  V30 54504 H 5134.91 -0.638033 -4.94703 0
M  V30 54505 H 5134.07 1.52882 -5.87122 0
M  V30 54506 H 5132.81 1.59758 -4.60791 0
M  V30 54507 H 5131.81 -0.539392 -5.47148 0
M  V30 54508 H 5133.04 -0.591865 -6.76516 0
M  V30 54509 H 5130.98 1.61493 -6.35811 0
M  V30 54510 H 5130.9 0.360739 -7.55139 0
M  V30 54511 H 5132.17 1.5466 -7.64003 0
M  V30 54512 N 5136.4 1.50453 -0.469234 0
M  V30 54513 C 5137.62 2.0722 0.0864163 0
M  V30 54514 C 5138.05 1.33102 1.32911 0
M  V30 54515 O 5137.41 0.378147 1.77313 0
M  V30 54516 C 5137.45 3.58846 0.355258 0
M  V30 54517 O 5136.56 3.86588 1.43609 0
M  V30 54518 H 5135.9 0.663889 -0.0121647 0
M  V30 54519 H 5138.43 1.93671 -0.659742 0
M  V30 54520 H 5138.44 4.03619 0.596305 0
M  V30 54521 H 5137.11 4.12209 -0.552843 0
M  V30 54522 H 5135.69 3.53654 1.1825 0
M  V30 54523 N 5137.88 0.201768 1.56303 0
M  V30 54524 C 5138.82 -0.716422 2.19399 0
M  V30 54525 C 5139.79 -1.2049 1.1433 0
M  V30 54526 O 5140.98 -1.26758 1.42608 0
M  V30 54527 C 5138.12 -1.92751 2.86253 0
M  V30 54528 C 5137.23 -1.47979 4.05865 0
M  V30 54529 C 5136.37 -2.6469 4.60557 0
M  V30 54530 C 5135.4 -2.16556 5.72512 0
M  V30 54531 N 5134.54 -3.26469 6.21581 0
M  V30 54532 H 5139.38 -0.171619 2.97505 0
M  V30 54533 H 5136.92 -0.0729644 1.46919 0
M  V30 54534 H 5138.88 -2.63829 3.23187 0
M  V30 54535 H 5137.51 -2.44552 2.10699 0
M  V30 54536 H 5136.56 -0.664638 3.74549 0
M  V30 54537 H 5137.87 -1.08669 4.86819 0
M  V30 54538 H 5137.02 -3.4388 4.99831 0
M  V30 54539 H 5135.76 -3.07277 3.78724 0
M  V30 54540 H 5134.77 -1.35821 5.32759 0
M  V30 54541 H 5135.99 -1.74992 6.56167 0
M  V30 54542 H 5133.94 -3.68575 5.42668 0
M  V30 54543 H 5133.86 -2.91349 6.97604 0
M  V30 54544 H 5135.12 -4.05853 6.6551 0
M  V30 54545 N 5139.35 -1.57436 -0.071787 0
M  V30 54546 C 5140.29 -1.98986 -1.11714 0
M  V30 54547 C 5141.26 -0.866779 -1.37571 0
M  V30 54548 O 5142.45 -1.12908 -1.50944 0
M  V30 54549 C 5139.58 -2.32657 -2.46147 0
M  V30 54550 C 5138.62 -3.54973 -2.36425 0
M  V30 54551 S 5139.45 -5.05808 -1.75836 0
M  V30 54552 C 5140.61 -5.4268 -3.11847 0
M  V30 54553 H 5140.84 -2.87341 -0.763053 0
M  V30 54554 H 5138.38 -1.51834 -0.280319 0
M  V30 54555 H 5140.33 -2.52731 -3.23477 0
M  V30 54556 H 5139 -1.4483 -2.78717 0
M  V30 54557 H 5138.19 -3.7605 -3.35563 0
M  V30 54558 H 5137.79 -3.34529 -1.67231 0
M  V30 54559 H 5140.08 -5.40752 -4.08159 0
M  V30 54560 H 5141.03 -6.43471 -2.9555 0
M  V30 54561 H 5141.43 -4.70142 -3.12453 0
M  V30 54562 N 5140.83 0.343176 -1.53818 0
M  V30 54563 C 5141.79 1.40438 -1.81135 0
M  V30 54564 C 5142.79 1.45601 -0.682417 0
M  V30 54565 O 5143.98 1.4597 -0.950701 0
M  V30 54566 C 5141.12 2.79362 -1.95371 0
M  V30 54567 H 5142.31 1.17479 -2.75932 0
M  V30 54568 H 5139.86 0.577585 -1.45237 0
M  V30 54569 H 5140.6 3.07603 -1.02718 0
M  V30 54570 H 5140.38 2.7701 -2.77503 0
M  V30 54571 H 5141.87 3.5617 -2.1802 0
M  V30 54572 N 5142.31 1.45558 0.604207 0
M  V30 54573 C 5143.26 1.54488 1.71471 0
M  V30 54574 C 5144.23 0.390536 1.61444 0
M  V30 54575 O 5145.41 0.604435 1.80973 0
M  V30 54576 C 5142.55 1.52075 3.09786 0
M  V30 54577 C 5141.66 2.78085 3.30595 0
M  V30 54578 C 5140.8 2.67321 4.59035 0
M  V30 54579 C 5139.84 3.88369 4.73113 0
M  V30 54580 N 5138.98 3.76119 5.92857 0
M  V30 54581 H 5143.82 2.49355 1.63175 0
M  V30 54582 H 5141.35 1.23728 0.795598 0
M  V30 54583 H 5143.31 1.48663 3.89814 0
M  V30 54584 H 5141.94 0.607554 3.17031 0
M  V30 54585 H 5140.99 2.91569 2.44319 0
M  V30 54586 H 5142.3 3.67859 3.3687 0
M  V30 54587 H 5141.46 2.61894 5.47263 0
M  V30 54588 H 5140.2 1.75151 4.55163 0
M  V30 54589 H 5139.2 3.94151 3.83308 0
M  V30 54590 H 5140.43 4.81608 4.7878 0
M  V30 54591 H 5138.37 2.86721 5.90023 0
M  V30 54592 H 5138.29 4.5953 6.00306 0
M  V30 54593 H 5139.56 3.74631 6.83573 0
M  V30 54594 N 5143.79 -0.847003 1.32905 0
M  V30 54595 C 5144.75 -1.93776 1.22407 0
M  V30 54596 C 5145.75 -1.60143 0.145164 0
M  V30 54597 O 5146.94 -1.69637 0.396118 0
M  V30 54598 C 5144.07 -3.29231 0.88429 0
M  V30 54599 H 5145.27 -2.04511 2.19352 0
M  V30 54600 H 5142.82 -1.03811 1.16846 0
M  V30 54601 H 5143.55 -3.24194 -0.0830137 0
M  V30 54602 H 5143.34 -3.5502 1.66443 0
M  V30 54603 H 5144.83 -4.09159 0.83537 0
M  V30 54604 N 5145.27 -1.1624 -1.06424 0
M  V30 54605 C 5146.51 -0.941234 -1.78844 0
M  V30 54606 C 5146.84 0.532414 -1.87591 0
M  V30 54607 O 5146.11 1.38681 -1.38363 0
M  V30 54608 H 5144.69 -0.345251 -0.662428 0
M  V30 54609 H 5147.35 -1.46483 -1.28564 0
M  V30 54610 H 5146.44 -1.35881 -2.80968 0
M  V30 54611 N 5146.74 1.24935 -0.960675 0
M  V30 54612 C 5148.02 1.88116 -0.535873 0
M  V30 54613 C 5148.4 1.86608 0.986944 0
M  V30 54614 O 5147.75 1.33381 1.85531 0
M  V30 54615 C 5147.96 3.30561 -1.11939 0
M  V30 54616 C 5149.31 4.07291 -1.19995 0
M  V30 54617 O 5150.33 3.39705 -1.07138 0
M  V30 54618 O 5149.19 5.28201 -1.40237 0
M  V30 54619 H 5146.28 0.807692 -0.17766 0
M  V30 54620 H 5148.83 1.32961 -1.05449 0
M  V30 54621 H 5147.6 3.26121 -2.16243 0
M  V30 54622 H 5147.23 3.93282 -0.584383 0
M  V30 54623 N 5148.22 0.729956 1.39676 0
M  V30 54624 C 5149.47 0.272605 1.99849 0
M  V30 54625 C 5149.78 -1.14513 1.58575 0
M  V30 54626 O 5150.99 -1.70175 2.11549 0
M  V30 54627 C 5149.45 0.436448 3.57244 0
M  V30 54628 C 5149.05 1.86175 4.07484 0
M  V30 54629 C 5150.8 0.0406171 4.24481 0
M  V30 54630 C 5148.71 1.97541 5.57433 0
M  V30 54631 H 5147.64 0.0981691 0.747582 0
M  V30 54632 H 5150.29 0.903112 1.59738 0
M  V30 54633 H 5148.67 -0.262876 3.95127 0
M  V30 54634 H 5149.84 2.59262 3.80946 0
M  V30 54635 H 5148.16 2.21034 3.52892 0
M  V30 54636 H 5150.75 0.104625 5.34598 0
M  V30 54637 H 5151.1 -1.00343 4.04026 0
M  V30 54638 H 5151.63 0.690911 3.91754 0
M  V30 54639 H 5148.37 3.00117 5.82761 0
M  V30 54640 H 5147.89 1.28885 5.85789 0
M  V30 54641 H 5149.57 1.75422 6.22765 0
M  V30 54642 N 5149.7 -1.50202 0.477206 0
M  V30 54643 C 5150.63 -2.26509 -0.35016 0
M  V30 54644 C 5151.65 -1.32084 -0.951713 0
M  V30 54645 O 5152.83 -1.57549 -0.839083 0
M  V30 54646 C 5149.93 -3.03616 -1.50568 0
M  V30 54647 C 5149.11 -4.25441 -1.0158 0
M  V30 54648 C 5148.17 -4.8479 -2.04609 0
M  V30 54649 O 5147.19 -5.45534 -1.62423 0
M  V30 54650 N 5148.39 -4.7233 -3.37468 0
M  V30 54651 H 5151.16 -2.98154 0.304045 0
M  V30 54652 H 5148.72 -1.58937 0.308345 0
M  V30 54653 H 5150.71 -3.40198 -2.19198 0
M  V30 54654 H 5149.28 -2.34731 -2.06447 0
M  V30 54655 H 5148.5 -3.93894 -0.155177 0
M  V30 54656 H 5149.79 -5.04416 -0.666516 0
M  V30 54657 H 5149.19 -4.24035 -3.74447 0
M  V30 54658 H 5147.75 -5.13164 -4.01879 0
M  V30 54659 N 5151.18 -0.210054 -1.56194 0
M  V30 54660 C 5152.4 0.432993 -2.0283 0
M  V30 54661 C 5152.83 1.53366 -1.08906 0
M  V30 54662 O 5152.19 1.81144 -0.0751769 0
M  V30 54663 C 5152.23 0.952513 -3.47792 0
M  V30 54664 O 5151.34 2.06457 -3.57 0
M  V30 54665 H 5150.68 0.0994363 -0.656512 0
M  V30 54666 H 5153.21 -0.325321 -2.01997 0
M  V30 54667 H 5153.22 1.26529 -3.87885 0
M  V30 54668 H 5151.89 0.146861 -4.15641 0
M  V30 54669 H 5150.47 1.7593 -3.2879 0
M  V30 54670 N 5152.66 1.57472 0.0634368 0
M  V30 54671 C 5153.9 1.87286 0.759497 0
M  V30 54672 C 5154.23 0.803197 1.7769 0
M  V30 54673 O 5153.5 -0.167225 1.95185 0
M  V30 54674 H 5152.08 0.691116 0.283491 0
M  V30 54675 H 5154.74 1.94864 0.0375406 0
M  V30 54676 H 5153.83 2.85069 1.27052 0
M  V30 54677 N 5154.13 -0.335013 1.53998 0
M  V30 54678 C 5155.38 -1.07217 1.71315 0
M  V30 54679 C 5155.7 -1.88909 0.483552 0
M  V30 54680 O 5154.97 -1.89345 -0.502504 0
M  V30 54681 H 5153.55 -0.398823 0.631624 0
M  V30 54682 H 5156.22 -0.374221 1.91274 0
M  V30 54683 H 5155.31 -1.74471 2.58779 0
M  V30 54684 N 5155.61 -1.45876 -0.596479 0
M  V30 54685 C 5156.84 -1.54251 -1.38641 0
M  V30 54686 C 5157.26 -0.179637 -1.8724 0
M  V30 54687 O 5156.62 0.837774 -1.60783 0
M  V30 54688 C 5156.67 -2.54024 -2.55938 0
M  V30 54689 O 5155.77 -2.06574 -3.56933 0
M  V30 54690 H 5155.11 -0.51957 -0.413453 0
M  V30 54691 H 5157.64 -1.91329 -0.724868 0
M  V30 54692 H 5157.65 -2.7319 -3.03037 0
M  V30 54693 H 5156.33 -3.53002 -2.19915 0
M  V30 54694 H 5154.91 -1.97335 -3.16407 0
M  V30 54695 N 5157.09 0.839943 -1.33352 0
M  V30 54696 C 5158.37 1.57969 -1.15348 0
M  V30 54697 C 5158.75 2.09227 0.280558 0
M  V30 54698 O 5158.1 1.89322 1.27943 0
M  V30 54699 C 5158.31 2.71438 -2.19368 0
M  V30 54700 C 5159.65 3.40645 -2.53468 0
M  V30 54701 O 5160.68 2.81678 -2.18027 0
M  V30 54702 O 5159.54 4.4709 -3.14282 0
M  V30 54703 H 5156.63 0.696385 -0.446069 0
M  V30 54704 H 5159.18 0.882792 -1.44931 0
M  V30 54705 H 5157.95 2.31194 -3.15698 0
M  V30 54706 H 5157.57 3.48793 -1.90865 0
M  V30 54707 N 5158.57 1.16803 1.05806 0
M  V30 54708 C 5159.5 0.836849 2.13376 0
M  V30 54709 C 5160.51 -0.158059 1.62031 0
M  V30 54710 O 5161.7 0.0673838 1.78373 0
M  V30 54711 C 5158.8 0.226078 3.38145 0
M  V30 54712 C 5157.98 1.26231 4.18789 0
M  V30 54713 C 5157.03 0.67044 5.21911 0
M  V30 54714 O 5156.06 1.34061 5.53187 0
M  V30 54715 N 5157.26 -0.54048 5.77978 0
M  V30 54716 H 5160.03 1.76266 2.42385 0
M  V30 54717 H 5157.59 1.06603 1.2185 0
M  V30 54718 H 5159.58 -0.183028 4.04286 0
M  V30 54719 H 5158.15 -0.603386 3.06721 0
M  V30 54720 H 5157.37 1.84741 3.4823 0
M  V30 54721 H 5158.66 1.96147 4.69472 0
M  V30 54722 H 5158.06 -1.10302 5.54842 0
M  V30 54723 H 5156.61 -0.891731 6.45671 0
M  V30 54724 N 5160.05 -1.24424 0.967287 0
M  V30 54725 C 5160.96 -2.29107 0.504673 0
M  V30 54726 C 5161.97 -1.68496 -0.434165 0
M  V30 54727 O 5163.15 -1.99042 -0.307309 0
M  V30 54728 C 5160.21 -3.46133 -0.198151 0
M  V30 54729 C 5159.28 -4.22146 0.780462 0
M  V30 54730 C 5158.51 -5.33584 0.111083 0
M  V30 54731 O 5158.73 -5.5968 -1.10068 0
M  V30 54732 O 5157.67 -5.96519 0.803033 0
M  V30 54733 H 5161.49 -2.70795 1.37492 0
M  V30 54734 H 5159.08 -1.30109 0.734306 0
M  V30 54735 H 5160.96 -4.17207 -0.592978 0
M  V30 54736 H 5159.63 -3.06424 -1.04337 0
M  V30 54737 H 5158.54 -3.53449 1.22574 0
M  V30 54738 H 5159.87 -4.65671 1.59408 0
M  V30 54739 N 5161.53 -0.737353 -1.39287 0
M  V30 54740 C 5162.94 -0.413187 -1.54159 0
M  V30 54741 C 5163.14 1.07568 -1.70386 0
M  V30 54742 O 5162.2 1.86179 -1.70568 0
M  V30 54743 C 5163.51 -1.19826 -2.75794 0
M  V30 54744 C 5165.06 -1.18672 -2.89631 0
M  V30 54745 C 5165.53 -1.95441 -4.14206 0
M  V30 54746 N 5167.02 -1.92619 -4.21251 0
M  V30 54747 C 5167.76 -2.48826 -5.16597 0
M  V30 54748 N 5167.26 -3.1368 -6.17719 0
M  V30 54749 N 5169.05 -2.38847 -5.08831 0
M  V30 54750 H 5161.2 -1.70248 -1.27002 0
M  V30 54751 H 5163.46 -0.720824 -0.615725 0
M  V30 54752 H 5163.17 -2.25189 -2.70153 0
M  V30 54753 H 5163.04 -0.804273 -3.68526 0
M  V30 54754 H 5165.43 -0.141215 -2.94762 0
M  V30 54755 H 5165.51 -1.6201 -1.97955 0
M  V30 54756 H 5165.15 -2.99994 -4.09836 0
M  V30 54757 H 5165.08 -1.49508 -5.04931 0
M  V30 54758 H 5167.58 -1.45374 -3.48819 0
M  V30 54759 H 5167.89 -3.5403 -6.86937 0
M  V30 54760 H 5166.23 -3.17771 -6.18099 0
M  V30 54761 H 5169.42 -1.87821 -4.28767 0
M  V30 54762 H 5169.6 -2.82949 -5.82961 0
M  V30 54763 N 5163 1.49946 -0.485165 0
M  V30 54764 C 5164.23 2.06806 0.0622097 0
M  V30 54765 C 5164.65 1.34741 1.32251 0
M  V30 54766 O 5164 0.420898 1.7758 0
M  V30 54767 C 5164.05 3.59935 0.33597 0
M  V30 54768 O 5163.78 4.29286 -0.874354 0
M  V30 54769 C 5165.28 4.33462 0.92875 0
M  V30 54770 H 5162.5 0.670867 -0.0133708 0
M  V30 54771 H 5165.04 1.92934 -0.677985 0
M  V30 54772 H 5163.2 3.73563 1.02612 0
M  V30 54773 H 5163.61 5.20733 -0.627515 0
M  V30 54774 H 5165.08 5.41531 1.06998 0
M  V30 54775 H 5165.56 3.94888 1.92251 0
M  V30 54776 H 5166.17 4.244 0.276556 0
M  V30 54777 N 5164.48 0.218335 1.5608 0
M  V30 54778 C 5165.43 -0.693111 2.20147 0
M  V30 54779 C 5166.4 -1.1927 1.15602 0
M  V30 54780 O 5167.58 -1.25238 1.43945 0
M  V30 54781 C 5164.72 -1.89705 2.88281 0
M  V30 54782 C 5163.84 -1.43665 4.07412 0
M  V30 54783 C 5162.97 -2.59791 4.63338 0
M  V30 54784 C 5162.01 -2.10472 5.74777 0
M  V30 54785 N 5161.15 -3.19858 6.25008 0
M  V30 54786 H 5165.99 -0.140055 2.97671 0
M  V30 54787 H 5163.52 -0.0573775 1.46988 0
M  V30 54788 H 5165.48 -2.60386 3.25967 0
M  V30 54789 H 5164.11 -2.42304 2.13281 0
M  V30 54790 H 5163.16 -0.624875 3.75233 0
M  V30 54791 H 5164.48 -1.035 4.87944 0
M  V30 54792 H 5163.63 -3.3856 5.0345 0
M  V30 54793 H 5162.37 -3.03243 3.81962 0
M  V30 54794 H 5161.37 -1.30163 5.3417 0
M  V30 54795 H 5162.6 -1.68022 6.57986 0
M  V30 54796 H 5160.55 -3.62798 5.46547 0
M  V30 54797 H 5160.46 -2.83934 7.00655 0
M  V30 54798 H 5161.73 -3.98772 6.69777 0
M  V30 54799 N 5165.96 -1.57504 -0.0550848 0
M  V30 54800 C 5166.91 -2.04829 -1.06366 0
M  V30 54801 C 5167.88 -0.932156 -1.37477 0
M  V30 54802 O 5169.06 -1.20098 -1.4826 0
M  V30 54803 C 5166.2 -2.511 -2.36734 0
M  V30 54804 C 5165.31 -3.764 -2.12007 0
M  V30 54805 C 5164.45 -4.11385 -3.36059 0
M  V30 54806 C 5163.49 -5.29677 -3.06771 0
M  V30 54807 N 5162.63 -5.6022 -4.232 0
M  V30 54808 H 5167.47 -2.90755 -0.653114 0
M  V30 54809 H 5165 -1.43777 -0.310901 0
M  V30 54810 H 5166.96 -2.75984 -3.12872 0
M  V30 54811 H 5165.59 -1.68128 -2.75559 0
M  V30 54812 H 5164.64 -3.58756 -1.26485 0
M  V30 54813 H 5165.95 -4.62668 -1.86385 0
M  V30 54814 H 5165.11 -4.37259 -4.20582 0
M  V30 54815 H 5163.85 -3.23717 -3.64772 0
M  V30 54816 H 5162.85 -5.03582 -2.20647 0
M  V30 54817 H 5164.08 -6.18977 -2.79363 0
M  V30 54818 H 5162.02 -4.75511 -4.51913 0
M  V30 54819 H 5161.94 -6.40942 -4.0091 0
M  V30 54820 H 5163.21 -5.90655 -5.08671 0
M  V30 54821 N 5167.44 0.326842 -1.54174 0
M  V30 54822 C 5168.38 1.4021 -1.8333 0
M  V30 54823 C 5169.35 1.51536 -0.68016 0
M  V30 54824 O 5170.54 1.66808 -0.926264 0
M  V30 54825 C 5167.68 2.76619 -2.06339 0
M  V30 54826 C 5166.79 2.73951 -3.34028 0
M  V30 54827 C 5165.93 4.02186 -3.47016 0
M  V30 54828 C 5164.97 3.93812 -4.68592 0
M  V30 54829 N 5164.1 5.1377 -4.78524 0
M  V30 54830 H 5168.94 1.14646 -2.75064 0
M  V30 54831 H 5166.48 0.555041 -1.36227 0
M  V30 54832 H 5168.44 3.55914 -2.17671 0
M  V30 54833 H 5167.07 3.00499 -1.179 0
M  V30 54834 H 5166.12 1.86666 -3.31452 0
M  V30 54835 H 5167.43 2.63646 -4.23429 0
M  V30 54836 H 5166.59 4.89911 -3.57872 0
M  V30 54837 H 5165.33 4.15293 -2.55701 0
M  V30 54838 H 5164.33 3.04471 -4.57796 0
M  V30 54839 H 5165.56 3.82273 -5.61288 0
M  V30 54840 H 5163.5 5.27389 -3.90124 0
M  V30 54841 H 5163.42 5.05787 -5.61886 0
M  V30 54842 H 5164.69 6.03219 -4.93708 0
M  V30 54843 N 5168.92 1.46191 0.588735 0
M  V30 54844 C 5170.33 1.31012 0.911478 0
M  V30 54845 C 5170.53 0.277088 1.99586 0
M  V30 54846 O 5169.59 -0.322444 2.50433 0
M  V30 54847 C 5170.9 2.69463 1.33454 0
M  V30 54848 C 5172.45 2.77507 1.44772 0
M  V30 54849 C 5172.92 4.16526 1.90447 0
M  V30 54850 N 5174.41 4.18914 1.9765 0
M  V30 54851 C 5175.15 5.23367 2.34253 0
M  V30 54852 N 5174.65 6.38152 2.69691 0
M  V30 54853 N 5176.44 5.10731 2.34756 0
M  V30 54854 H 5168.59 2.12016 -0.127689 0
M  V30 54855 H 5170.85 0.947984 0.00554267 0
M  V30 54856 H 5170.56 3.46338 0.611807 0
M  V30 54857 H 5170.43 2.99173 2.29729 0
M  V30 54858 H 5172.82 2.00925 2.16133 0
M  V30 54859 H 5172.9 2.51489 0.467635 0
M  V30 54860 H 5172.54 4.93601 1.19667 0
M  V30 54861 H 5172.47 4.39948 2.89402 0
M  V30 54862 H 5174.97 3.3609 1.72777 0
M  V30 54863 H 5175.28 7.13634 2.96557 0
M  V30 54864 H 5173.62 6.41524 2.67343 0
M  V30 54865 H 5176.81 4.20095 2.06488 0
M  V30 54866 H 5176.99 5.92249 2.62954 0
M  V30 54867 N 5170.39 -0.832859 1.33795 0
M  V30 54868 C 5171.81 -1.12446 1.13261 0
M  V30 54869 C 5172.01 -2.01369 -0.0725124 0
M  V30 54870 O 5171.07 -2.41073 -0.750997 0
M  V30 54871 C 5172.38 -1.78076 2.42301 0
M  V30 54872 C 5173.93 -1.90615 2.48264 0
M  V30 54873 C 5174.4 -2.5966 3.77281 0
M  V30 54874 N 5175.89 -2.67168 3.78385 0
M  V30 54875 C 5176.63 -3.21296 4.74928 0
M  V30 54876 N 5176.12 -3.76065 5.81848 0
M  V30 54877 N 5177.92 -3.19604 4.62395 0
M  V30 54878 H 5170.07 -0.24117 2.11026 0
M  V30 54879 H 5172.33 -0.169525 0.932719 0
M  V30 54880 H 5172.04 -1.20197 3.30523 0
M  V30 54881 H 5171.91 -2.7804 2.549 0
M  V30 54882 H 5174.3 -2.47645 1.60487 0
M  V30 54883 H 5174.38 -0.895825 2.39601 0
M  V30 54884 H 5174.02 -2.03287 4.65442 0
M  V30 54885 H 5173.95 -3.61176 3.83222 0
M  V30 54886 H 5176.44 -2.28336 3.01116 0
M  V30 54887 H 5176.76 -4.15589 6.51541 0
M  V30 54888 H 5175.1 -3.74336 5.85574 0
M  V30 54889 H 5178.29 -2.76078 3.7802 0
M  V30 54890 H 5178.47 -3.61485 5.37803 0
M  V30 54891 N 5171.87 -1.17362 -1.05185 0
M  V30 54892 C 5173.12 -0.96015 -1.77836 0
M  V30 54893 C 5173.44 0.512488 -1.88145 0
M  V30 54894 O 5172.71 1.37206 -1.39826 0
M  V30 54895 H 5171.29 -0.352257 -0.658729 0
M  V30 54896 H 5173.95 -1.47839 -1.27003 0
M  V30 54897 H 5173.05 -1.38853 -2.79511 0
M  V30 54898 N 5173.35 1.23909 -0.973872 0
M  V30 54899 C 5174.63 1.87537 -0.555795 0
M  V30 54900 C 5175.01 1.87645 0.967096 0
M  V30 54901 O 5174.35 1.35341 1.84106 0
M  V30 54902 C 5174.56 3.29355 -1.15438 0
M  V30 54903 C 5175.91 4.05996 -1.24309 0
M  V30 54904 O 5176.94 3.3855 -1.10735 0
M  V30 54905 O 5175.8 5.26684 -1.45831 0
M  V30 54906 H 5172.89 0.805762 -0.186216 0
M  V30 54907 H 5175.44 1.31835 -1.06854 0
M  V30 54908 H 5174.21 3.23809 -2.19689 0
M  V30 54909 H 5173.83 3.9264 -0.626063 0
M  V30 54910 N 5174.83 0.744729 1.38894 0
M  V30 54911 C 5176.24 0.421356 1.53937 0
M  V30 54912 C 5176.44 -1.06662 1.70954 0
M  V30 54913 O 5175.5 -1.85272 1.71553 0
M  V30 54914 C 5176.81 1.21287 2.75154 0
M  V30 54915 C 5178.36 1.20207 2.88997 0
M  V30 54916 C 5178.84 1.97635 4.13164 0
M  V30 54917 N 5180.33 1.94851 4.20223 0
M  V30 54918 C 5181.06 2.51563 5.15271 0
M  V30 54919 N 5180.56 3.16952 6.16047 0
M  V30 54920 N 5182.35 2.41542 5.07557 0
M  V30 54921 H 5174.5 1.70919 1.26097 0
M  V30 54922 H 5176.77 0.724079 0.611893 0
M  V30 54923 H 5176.47 2.26618 2.68955 0
M  V30 54924 H 5176.35 0.823806 3.68094 0
M  V30 54925 H 5178.73 0.156845 2.94683 0
M  V30 54926 H 5178.81 1.63058 1.97093 0
M  V30 54927 H 5178.46 3.02163 4.0824 0
M  V30 54928 H 5178.39 1.52184 5.04131 0
M  V30 54929 H 5180.88 1.47222 3.48043 0
M  V30 54930 H 5181.19 3.57668 6.8505 0
M  V30 54931 H 5179.54 3.21044 6.16405 0
M  V30 54932 H 5182.73 1.90092 4.27765 0
M  V30 54933 H 5182.9 2.86037 5.81452 0
M  V30 54934 N 5176.31 -1.49687 0.49311 0
M  V30 54935 C 5177.54 -2.06537 -0.051167 0
M  V30 54936 C 5177.94 -1.35464 -1.32084 0
M  V30 54937 O 5177.29 -0.424208 -1.78735 0
M  V30 54938 C 5177.35 -3.57453 -0.383105 0
M  V30 54939 C 5177.01 -4.5016 0.787713 0
M  V30 54940 C 5178.01 -4.92145 1.676 0
M  V30 54941 C 5175.7 -4.92562 0.984282 0
M  V30 54942 C 5177.69 -5.75261 2.74507 0
M  V30 54943 C 5175.38 -5.75456 2.05654 0
M  V30 54944 C 5176.37 -6.16709 2.93529 0
M  V30 54945 O 5176.06 -6.97947 3.98906 0
M  V30 54946 H 5175.79 -0.675862 0.0136754 0
M  V30 54947 H 5178.35 -1.93557 0.687366 0
M  V30 54948 H 5176.58 -3.68412 -1.17513 0
M  V30 54949 H 5178.27 -3.96575 -0.86506 0
M  V30 54950 H 5179.03 -4.60038 1.53592 0
M  V30 54951 H 5174.91 -4.59959 0.309703 0
M  V30 54952 H 5178.46 -6.0738 3.43125 0
M  V30 54953 H 5174.35 -6.06976 2.19661 0
M  V30 54954 H 5175.12 -7.16239 3.96162 0
M  V30 54955 N 5177.78 -0.226609 -1.55962 0
M  V30 54956 C 5179.01 0.411456 -2.03278 0
M  V30 54957 C 5179.43 1.52202 -1.10527 0
M  V30 54958 O 5178.79 1.81054 -0.0943854 0
M  V30 54959 C 5178.84 0.915571 -3.48783 0
M  V30 54960 O 5177.94 2.02659 -3.5917 0
M  V30 54961 H 5177.29 0.0924676 -0.65753 0
M  V30 54962 H 5179.82 -0.346727 -2.01641 0
M  V30 54963 H 5179.83 1.22408 -3.89205 0
M  V30 54964 H 5178.5 0.102769 -4.15773 0
M  V30 54965 H 5177.08 1.72433 -3.30638 0
M  V30 54966 N 5179.26 1.57531 0.0467312 0
M  V30 54967 C 5180.51 1.88732 0.742152 0
M  V30 54968 C 5180.84 0.822146 1.75939 0
M  V30 54969 O 5180.12 -0.164854 1.938 0
M  V30 54970 C 5180.4 3.30591 1.42765 0
M  V30 54971 C 5180.25 4.47786 0.425128 0
M  V30 54972 C 5181.57 3.71076 2.36623 0
M  V30 54973 H 5178.69 0.686415 0.268335 0
M  V30 54974 H 5181.33 1.89999 0.00504661 0
M  V30 54975 H 5179.48 3.29641 2.05594 0
M  V30 54976 H 5181.15 4.60867 -0.199883 0
M  V30 54977 H 5179.4 4.33036 -0.257283 0
M  V30 54978 H 5180.07 5.43887 0.942895 0
M  V30 54979 H 5182.54 3.73279 1.83852 0
M  V30 54980 H 5181.42 4.71175 2.81576 0
M  V30 54981 H 5181.68 3.02367 3.22532 0
M  V30 54982 N 5180.74 -0.318661 1.54345 0
M  V30 54983 C 5181.67 -1.41358 1.80418 0
M  V30 54984 C 5182.69 -1.47625 0.686346 0
M  V30 54985 O 5183.87 -1.5026 0.963539 0
M  V30 54986 C 5180.97 -2.7986 1.91133 0
M  V30 54987 C 5180.15 -2.96738 3.2135 0
M  V30 54988 C 5179.21 -4.1563 3.22704 0
M  V30 54989 O 5178.23 -4.08557 3.9632 0
M  V30 54990 N 5179.43 -5.25407 2.46836 0
M  V30 54991 H 5182.2 -1.19353 2.74909 0
M  V30 54992 H 5179.76 -0.508668 1.53702 0
M  V30 54993 H 5181.75 -3.57613 1.8946 0
M  V30 54994 H 5180.32 -2.94893 1.03716 0
M  V30 54995 H 5179.54 -2.06245 3.35942 0
M  V30 54996 H 5180.83 -3.04913 4.07315 0
M  V30 54997 H 5180.23 -5.3403 1.86624 0
M  V30 54998 H 5178.79 -6.0156 2.50936 0
M  V30 54999 N 5182.22 -1.46501 -0.580974 0
M  V30 55000 C 5183.45 -1.55474 -1.36511 0
M  V30 55001 C 5183.86 -0.196473 -1.87775 0
M  V30 55002 O 5183.22 0.806519 -1.63712 0
M  V30 55003 C 5183.27 -2.56093 -2.55145 0
M  V30 55004 O 5182.99 -3.86644 -2.06005 0
M  V30 55005 C 5184.49 -2.75023 -3.47674 0
M  V30 55006 H 5181.71 -0.525718 -0.416967 0
M  V30 55007 H 5184.26 -1.91923 -0.70611 0
M  V30 55008 H 5182.41 -2.22644 -3.17031 0
M  V30 55009 H 5182.82 -4.41423 -2.83277 0
M  V30 55010 H 5184.3 -3.49344 -4.27391 0
M  V30 55011 H 5184.78 -1.81992 -3.99719 0
M  V30 55012 H 5185.38 -3.09575 -2.91622 0
M  V30 55013 N 5183.7 0.825752 -1.34235 0
M  V30 55014 C 5184.92 1.61879 -1.29654 0
M  V30 55015 C 5185.35 1.87669 0.127229 0
M  V30 55016 O 5184.7 1.45019 1.08808 0
M  V30 55017 C 5184.75 2.93838 -2.09025 0
M  V30 55018 O 5183.86 3.85773 -1.45783 0
M  V30 55019 H 5183.2 0.492438 -0.445422 0
M  V30 55020 H 5185.73 1.02634 -1.76995 0
M  V30 55021 H 5185.74 3.43428 -2.20276 0
M  V30 55022 H 5184.41 2.7439 -3.12542 0
M  V30 55023 H 5182.99 3.44284 -1.43257 0
M  V30 55024 N 5185.17 1.17918 1.04561 0
M  V30 55025 C 5186.1 0.925108 2.14392 0
M  V30 55026 C 5187.09 -0.135315 1.69561 0
M  V30 55027 O 5188.27 0.0162456 1.94193 0
M  V30 55028 C 5185.4 0.44459 3.44443 0
M  V30 55029 C 5184.35 1.44493 4.02872 0
M  V30 55030 C 5183.68 0.822118 5.28342 0
M  V30 55031 C 5184.98 2.82011 4.39622 0
M  V30 55032 H 5186.67 1.84362 2.35905 0
M  V30 55033 H 5184.22 0.887846 1.13372 0
M  V30 55034 H 5186.17 0.254226 4.20632 0
M  V30 55035 H 5184.9 -0.509479 3.22602 0
M  V30 55036 H 5183.56 1.62214 3.28758 0
M  V30 55037 H 5183.2 -0.138984 5.02808 0
M  V30 55038 H 5182.9 1.48996 5.68396 0
M  V30 55039 H 5184.43 0.642172 6.07214 0
M  V30 55040 H 5185.84 2.6797 5.06819 0
M  V30 55041 H 5184.24 3.45431 4.90711 0
M  V30 55042 H 5185.31 3.35939 3.49676 0
M  V30 55043 N 5186.65 -1.23391 0.980429 0
M  V30 55044 C 5187.9 -1.91114 0.644852 0
M  V30 55045 C 5188.21 -1.77336 -0.825304 0
M  V30 55046 O 5189.42 -2.39862 -1.27194 0
M  V30 55047 C 5187.88 -3.42588 1.10278 0
M  V30 55048 C 5187.48 -3.65028 2.59728 0
M  V30 55049 C 5189.23 -4.16087 0.840946 0
M  V30 55050 C 5187.14 -5.10138 2.99188 0
M  V30 55051 H 5186.07 -0.715623 0.237485 0
M  V30 55052 H 5188.72 -1.39824 1.18833 0
M  V30 55053 H 5187.1 -3.92988 0.487511 0
M  V30 55054 H 5188.27 -3.25175 3.26494 0
M  V30 55055 H 5186.59 -3.04839 2.83658 0
M  V30 55056 H 5189.18 -5.23017 1.11161 0
M  V30 55057 H 5189.53 -4.15703 -0.222939 0
M  V30 55058 H 5190.06 -3.71676 1.4178 0
M  V30 55059 H 5186.8 -5.15653 4.047 0
M  V30 55060 H 5186.32 -5.50941 2.37116 0
M  V30 55061 H 5188 -5.7847 2.89795 0
M  V30 55062 N 5188.13 -0.752084 -1.38497 0
M  V30 55063 C 5189.38 -0.308029 -2.00447 0
M  V30 55064 C 5189.71 1.10697 -1.59562 0
M  V30 55065 O 5188.98 1.75785 -0.832453 0
M  V30 55066 C 5189.27 -0.429218 -3.57533 0
M  V30 55067 C 5189.12 -1.88521 -4.08387 0
M  V30 55068 C 5190.44 0.178288 -4.39739 0
M  V30 55069 H 5187.56 -0.113398 -0.728224 0
M  V30 55070 H 5190.2 -0.951447 -1.64461 0
M  V30 55071 H 5188.35 0.118559 -3.88319 0
M  V30 55072 H 5190.02 -2.49118 -3.8825 0
M  V30 55073 H 5188.27 -2.40078 -3.6131 0
M  V30 55074 H 5188.94 -1.92117 -5.17489 0
M  V30 55075 H 5191.41 -0.288866 -4.15096 0
M  V30 55076 H 5190.29 0.0632419 -5.48864 0
M  V30 55077 H 5190.55 1.26641 -4.23574 0
M  V30 55078 N 5189.61 1.49423 -0.501041 0
M  V30 55079 C 5190.57 2.27647 0.266336 0
M  V30 55080 C 5191.57 1.33663 0.893914 0
M  V30 55081 O 5192.76 1.56823 0.75844 0
M  V30 55082 C 5189.89 3.11623 1.38216 0
M  V30 55083 H 5191.09 2.96943 -0.420077 0
M  V30 55084 H 5188.64 1.54189 -0.256009 0
M  V30 55085 H 5189.38 2.46893 2.10272 0
M  V30 55086 H 5189.16 3.80725 0.937613 0
M  V30 55087 H 5190.65 3.70705 1.9227 0
M  V30 55088 N 5191.09 0.234877 1.5584 0
M  V30 55089 C 5192.32 -0.397673 2.03042 0
M  V30 55090 C 5192.73 -1.52401 1.11442 0
M  V30 55091 O 5192.09 -1.82061 0.12653 0
M  V30 55092 C 5192.14 -0.916796 3.49681 0
M  V30 55093 O 5191.86 0.164647 4.37791 0
M  V30 55094 C 5193.36 -1.62125 4.1259 0
M  V30 55095 H 5190.58 -0.0958981 0.664112 0
M  V30 55096 H 5193.12 0.355227 2.01391 0
M  V30 55097 H 5191.28 -1.61992 3.51905 0
M  V30 55098 H 5191.69 -0.22761 5.24006 0
M  V30 55099 H 5193.17 -1.93633 5.16924 0
M  V30 55100 H 5193.64 -2.53905 3.58369 0
M  V30 55101 H 5194.25 -0.963 4.14254 0
M  V30 55102 N 5192.57 -1.57553 -0.0383763 0
M  V30 55103 C 5193.5 -2.08984 -1.04154 0
M  V30 55104 C 5194.48 -0.990338 -1.38298 0
M  V30 55105 O 5195.66 -1.26504 -1.47344 0
M  V30 55106 C 5192.79 -2.56153 -2.34527 0
M  V30 55107 C 5191.75 -3.70283 -2.1465 0
M  V30 55108 C 5191.07 -4.03625 -3.50701 0
M  V30 55109 C 5192.37 -4.99072 -1.54027 0
M  V30 55110 H 5194.07 -2.93048 -0.613445 0
M  V30 55111 H 5191.61 -1.40974 -0.293634 0
M  V30 55112 H 5193.56 -2.90752 -3.05027 0
M  V30 55113 H 5192.29 -1.6916 -2.79379 0
M  V30 55114 H 5190.95 -3.36018 -1.46585 0
M  V30 55115 H 5190.6 -3.13712 -3.93184 0
M  V30 55116 H 5190.3 -4.80494 -3.3823 0
M  V30 55117 H 5191.82 -4.4075 -4.22578 0
M  V30 55118 H 5193.23 -5.31687 -2.14433 0
M  V30 55119 H 5191.63 -5.80489 -1.52158 0
M  V30 55120 H 5192.7 -4.82262 -0.505089 0
M  V30 55121 N 5194.04 0.310471 -1.54512 0
M  V30 55122 C 5194.99 1.38257 -1.84807 0
M  V30 55123 C 5195.96 1.50806 -0.696194 0
M  V30 55124 O 5197.15 1.65816 -0.943905 0
M  V30 55125 C 5194.29 2.74415 -2.09262 0
M  V30 55126 C 5193.4 2.70393 -3.36915 0
M  V30 55127 C 5192.53 3.98482 -3.51262 0
M  V30 55128 C 5191.57 3.8882 -4.72743 0
M  V30 55129 N 5190.71 5.08666 -4.83946 0
M  V30 55130 H 5195.55 1.11722 -2.76265 0
M  V30 55131 H 5193.09 0.540561 -1.36808 0
M  V30 55132 H 5195.04 3.53586 -2.21434 0
M  V30 55133 H 5193.67 2.99231 -1.21081 0
M  V30 55134 H 5192.73 1.8314 -3.33413 0
M  V30 55135 H 5194.04 2.5914 -4.26202 0
M  V30 55136 H 5193.19 4.86088 -3.63048 0
M  V30 55137 H 5191.93 4.12557 -2.60092 0
M  V30 55138 H 5190.94 2.99598 -4.61 0
M  V30 55139 H 5192.16 3.76298 -5.65311 0
M  V30 55140 H 5190.11 5.23222 -3.95695 0
M  V30 55141 H 5190.02 4.99799 -5.67219 0
M  V30 55142 H 5191.29 5.97949 -5.00078 0
M  V30 55143 N 5195.52 1.46807 0.573196 0
M  V30 55144 C 5196.47 1.5809 1.68155 0
M  V30 55145 C 5197.44 0.424693 1.60579 0
M  V30 55146 O 5198.62 0.642686 1.7965 0
M  V30 55147 C 5195.76 1.58611 3.0649 0
M  V30 55148 C 5194.88 2.85035 3.24622 0
M  V30 55149 C 5194.01 2.76997 4.53261 0
M  V30 55150 C 5193.05 3.98317 4.64769 0
M  V30 55151 N 5192.19 3.8861 5.84745 0
M  V30 55152 H 5197.03 2.5276 1.57849 0
M  V30 55153 H 5194.56 1.25388 0.769174 0
M  V30 55154 H 5196.52 1.56898 3.86573 0
M  V30 55155 H 5195.15 0.674664 3.15671 0
M  V30 55156 H 5194.2 2.96686 2.38079 0
M  V30 55157 H 5195.52 3.74922 3.28991 0
M  V30 55158 H 5194.67 2.73443 5.41584 0
M  V30 55159 H 5193.41 1.84766 4.51345 0
M  V30 55160 H 5192.41 4.02193 3.74862 0
M  V30 55161 H 5193.64 4.91656 4.68457 0
M  V30 55162 H 5191.59 2.99171 5.83809 0
M  V30 55163 H 5191.5 4.7216 5.90424 0
M  V30 55164 H 5192.77 3.89046 6.75473 0
M  V30 55165 N 5197 -0.818622 1.34671 0
M  V30 55166 C 5197.93 -1.93512 1.20948 0
M  V30 55167 C 5198.91 -1.62291 0.100118 0
M  V30 55168 O 5200.09 -1.86613 0.266048 0
M  V30 55169 C 5197.22 -3.27609 0.859639 0
M  V30 55170 C 5196.27 -3.77788 1.97936 0
M  V30 55171 S 5197.1 -3.9703 3.59343 0
M  V30 55172 C 5198.26 -5.34049 3.26409 0
M  V30 55173 H 5198.49 -2.04856 2.15456 0
M  V30 55174 H 5196.02 -0.974674 1.19748 0
M  V30 55175 H 5197.98 -4.05085 0.664586 0
M  V30 55176 H 5196.64 -3.14028 -0.0671731 0
M  V30 55177 H 5195.83 -4.74877 1.68843 0
M  V30 55178 H 5195.44 -3.07272 2.13213 0
M  V30 55179 H 5197.73 -6.17616 2.78491 0
M  V30 55180 H 5198.67 -5.68128 4.22654 0
M  V30 55181 H 5199.08 -4.99764 2.62481 0
M  V30 55182 N 5198.48 -1.18471 -1.03934 0
M  V30 55183 C 5199.41 -0.936465 -2.13899 0
M  V30 55184 C 5200.39 0.126321 -1.6963 0
M  V30 55185 O 5201.57 -0.026544 -1.94182 0
M  V30 55186 C 5198.7 -0.462851 -3.44202 0
M  V30 55187 C 5197.66 -1.46627 -4.021 0
M  V30 55188 C 5196.98 -0.850126 -5.27899 0
M  V30 55189 C 5198.28 -2.84338 -4.3812 0
M  V30 55190 H 5199.98 -1.85611 -2.34924 0
M  V30 55191 H 5197.52 -0.893846 -1.129 0
M  V30 55192 H 5199.48 -0.276529 -4.20492 0
M  V30 55193 H 5198.2 0.492363 -3.22867 0
M  V30 55194 H 5196.86 -1.63955 -3.27894 0
M  V30 55195 H 5196.51 0.112317 -5.02875 0
M  V30 55196 H 5196.21 -1.52008 -5.67598 0
M  V30 55197 H 5197.73 -0.674365 -6.06865 0
M  V30 55198 H 5199.15 -2.70654 -5.0539 0
M  V30 55199 H 5197.54 -3.48029 -4.88872 0
M  V30 55200 H 5198.61 -3.37789 -3.47889 0
M  V30 55201 N 5199.96 1.22869 -0.986959 0
M  V30 55202 C 5201.37 1.73262 -0.695499 0
M  V30 55203 C 5201.72 1.79682 0.78796 0
M  V30 55204 O 5200.84 1.4391 1.61613 0
M  V30 55205 C 5201.44 3.14666 -1.25581 0
M  V30 55206 C 5200 3.62488 -1.01386 0
M  V30 55207 C 5199.14 2.40546 -1.37959 0
M  V30 55208 H 5202.09 1.083 -1.16003 0
M  V30 55209 H 5202.12 3.75224 -0.631454 0
M  V30 55210 H 5201.63 3.09961 -2.3355 0
M  V30 55211 H 5199.73 3.72567 0.0494608 0
M  V30 55212 H 5199.84 4.48938 -1.67305 0
M  V30 55213 H 5198.21 2.41872 -0.798118 0
M  V30 55214 H 5198.99 2.38507 -2.46919 0
M  V30 55215 N 5201.43 0.759419 1.38096 0
M  V30 55216 C 5202.68 0.314934 1.99226 0
M  V30 55217 C 5203 -1.11124 1.60968 0
M  V30 55218 O 5204.2 -1.65649 2.15111 0
M  V30 55219 C 5202.66 0.512126 3.56238 0
M  V30 55220 C 5202.27 1.94776 4.03443 0
M  V30 55221 C 5204.01 0.130647 4.24299 0
M  V30 55222 C 5201.92 2.09321 5.53117 0
M  V30 55223 H 5200.85 0.114004 0.745331 0
M  V30 55224 H 5203.5 0.936792 1.57786 0
M  V30 55225 H 5201.88 -0.179004 3.95595 0
M  V30 55226 H 5203.05 2.67284 3.75361 0
M  V30 55227 H 5201.37 2.28469 3.48125 0
M  V30 55228 H 5203.97 0.217998 5.34255 0
M  V30 55229 H 5204.31 -0.917501 4.06064 0
M  V30 55230 H 5204.84 0.773853 3.902 0
M  V30 55231 H 5201.58 3.1241 5.76264 0
M  V30 55232 H 5201.1 1.41281 5.82923 0
M  V30 55233 H 5202.78 1.88592 6.18904 0
M  V30 55234 N 5202.91 -1.49156 0.508959 0
M  V30 55235 C 5204.16 -2.02074 -0.0326624 0
M  V30 55236 C 5204.48 -1.39017 -1.36746 0
M  V30 55237 O 5203.75 -0.548219 -1.88073 0
M  V30 55238 H 5202.33 -0.746848 -0.0150602 0
M  V30 55239 H 5204.99 -1.83095 0.668011 0
M  V30 55240 H 5204.09 -3.11707 -0.156491 0
M  V30 55241 N 5204.39 -0.243138 -1.55713 0
M  V30 55242 C 5205.32 0.652257 -2.24205 0
M  V30 55243 C 5206.3 1.18426 -1.22104 0
M  V30 55244 O 5207.49 1.22429 -1.50747 0
M  V30 55245 C 5204.62 1.851 -2.93863 0
M  V30 55246 C 5203.57 1.45194 -4.0262 0
M  V30 55247 C 5202.9 2.73121 -4.59684 0
M  V30 55248 C 5204.2 0.625806 -5.18537 0
M  V30 55249 H 5205.89 0.0811451 -2.9929 0
M  V30 55250 H 5203.44 0.0375882 -1.43951 0
M  V30 55251 H 5205.39 2.48302 -3.40476 0
M  V30 55252 H 5204.11 2.44743 -2.1626 0
M  V30 55253 H 5202.77 0.843281 -3.56769 0
M  V30 55254 H 5202.42 3.30954 -3.78786 0
M  V30 55255 H 5202.12 2.47144 -5.33098 0
M  V30 55256 H 5203.64 3.37227 -5.09029 0
M  V30 55257 H 5205.06 1.16203 -5.614 0
M  V30 55258 H 5203.46 0.462254 -5.98317 0
M  V30 55259 H 5204.53 -0.362822 -4.83541 0
M  V30 55260 N 5205.87 1.57571 0.0300203 0
M  V30 55261 C 5206.82 2.07584 1.04937 0
M  V30 55262 C 5207.81 0.989432 1.37501 0
M  V30 55263 O 5209.02 1.17432 1.36417 0
M  V30 55264 H 5205.39 0.662432 0.355932 0
M  V30 55265 H 5207.36 2.9227 0.601745 0
M  V30 55266 C 5206.11 2.56988 2.34206 0
M  V30 55267 H 5205.43 3.402 2.10009 0
M  V30 55268 H 5206.87 2.95693 3.03878 0
M  V30 55269 C 5205.33 1.4707 3.03104 0
M  V30 55270 O 5205.86 0.836388 3.92896 0
M  V30 55271 N 5204.07 1.20547 2.64418 0
M  V30 55272 H 5203.62 1.72312 1.91484 0
M  V30 55273 H 5203.57 0.472155 3.10834 0
M  V30 55274 N 5207.35 -0.302273 1.54674 0
M  V30 55275 C 5208.28 -1.39732 1.80417 0
M  V30 55276 C 5209.26 -1.48811 0.655294 0
M  V30 55277 O 5210.44 -1.65892 0.895108 0
M  V30 55278 C 5207.57 -2.77653 1.93976 0
M  V30 55279 C 5206.61 -2.86003 3.16393 0
M  V30 55280 S 5207.45 -2.48229 4.74492 0
M  V30 55281 C 5208.6 -3.88181 4.90985 0
M  V30 55282 H 5208.84 -1.17686 2.73015 0
M  V30 55283 H 5206.37 -0.500313 1.46069 0
M  V30 55284 H 5208.33 -3.57093 2.02472 0
M  V30 55285 H 5206.99 -2.96968 1.02318 0
M  V30 55286 H 5206.18 -3.87163 3.22678 0
M  V30 55287 H 5205.78 -2.14557 3.06335 0
M  V30 55288 H 5208.08 -4.83165 4.7493 0
M  V30 55289 H 5209.02 -3.86866 5.93077 0
M  V30 55290 H 5209.43 -3.78125 4.19144 0
M  V30 55291 N 5208.82 -1.47109 -0.565403 0
M  V30 55292 C 5210.06 -1.54884 -1.3338 0
M  V30 55293 C 5210.43 -0.202871 -1.90925 0
M  V30 55294 O 5211.63 -0.155439 -2.6835 0
M  V30 55295 C 5209.9 -2.62978 -2.42028 0
M  V30 55296 S 5211.46 -2.9028 -3.29064 0
M  V30 55297 H 5208.28 -0.547024 -0.454186 0
M  V30 55298 H 5210.88 -1.84443 -0.648163 0
M  V30 55299 H 5209.58 -3.59382 -1.98173 0
M  V30 55300 H 5209.11 -2.35208 -3.15342 0
M  V30 55301 H 5211.13 -2.26869 -4.41299 0
M  V30 55302 N 5210.3 0.811468 -1.35103 0
M  V30 55303 C 5211.27 1.90462 -1.27502 0
M  V30 55304 C 5212.27 1.59702 -0.187572 0
M  V30 55305 O 5213.46 1.68527 -0.440955 0
M  V30 55306 C 5210.59 3.26771 -0.971269 0
M  V30 55307 H 5211.78 1.98623 -2.24697 0
M  V30 55308 H 5209.33 1.00677 -1.19557 0
M  V30 55309 H 5210.07 3.243 -0.00296971 0
M  V30 55310 H 5209.85 3.50482 -1.75797 0
M  V30 55311 H 5211.34 4.06801 -0.943557 0
M  V30 55312 N 5211.78 1.19021 1.03304 0
M  V30 55313 C 5213.19 0.993262 1.58086 0
M  V30 55314 C 5213.54 -0.454983 1.90852 0
M  V30 55315 O 5212.67 -1.33366 1.70419 0
M  V30 55316 C 5213.26 1.79671 2.87235 0
M  V30 55317 C 5211.82 1.64389 3.38605 0
M  V30 55318 C 5210.97 1.78636 2.12096 0
M  V30 55319 H 5213.92 1.33453 0.858832 0
M  V30 55320 H 5213.94 1.29032 3.57954 0
M  V30 55321 H 5213.45 2.85071 2.63356 0
M  V30 55322 H 5211.55 0.615577 3.6748 0
M  V30 55323 H 5211.67 2.44665 4.11917 0
M  V30 55324 H 5210.03 1.21656 2.23767 0
M  V30 55325 H 5210.81 2.85486 1.90663 0
M  V30 55326 N 5213.26 -1.22344 0.993461 0
M  V30 55327 C 5214.49 -1.95123 0.688089 0
M  V30 55328 C 5214.9 -1.7338 -0.747327 0
M  V30 55329 O 5214.26 -1.03322 -1.50435 0
M  V30 55330 C 5214.31 -3.47816 0.98522 0
M  V30 55331 O 5214.03 -3.6883 2.36423 0
M  V30 55332 C 5215.53 -4.37776 0.697628 0
M  V30 55333 H 5212.75 -0.620862 0.254503 0
M  V30 55334 H 5215.3 -1.5548 1.32839 0
M  V30 55335 H 5213.45 -3.85425 0.390719 0
M  V30 55336 H 5213.86 -4.63023 2.46394 0
M  V30 55337 H 5215.34 -5.43662 0.955795 0
M  V30 55338 H 5215.82 -4.37652 -0.36837 0
M  V30 55339 H 5216.42 -4.05795 1.2732 0
M  V30 55340 N 5214.74 -0.766732 -1.37692 0
M  V30 55341 C 5216.01 -0.253729 -1.93947 0
M  V30 55342 C 5216.39 1.25035 -1.70086 0
M  V30 55343 O 5215.74 2.03111 -1.04681 0
M  V30 55344 C 5215.95 -0.62167 -3.43418 0
M  V30 55345 C 5217.3 -0.588652 -4.205 0
M  V30 55346 O 5218.32 -0.560755 -3.51758 0
M  V30 55347 O 5217.18 -0.611261 -5.43071 0
M  V30 55348 H 5214.28 -0.0570876 -0.825027 0
M  V30 55349 H 5216.82 -0.847744 -1.47008 0
M  V30 55350 H 5215.59 -1.65992 -3.54348 0
M  V30 55351 H 5215.22 -0.000336803 -3.976 0
M  V30 55352 N 5216.21 1.48884 -0.516862 0
M  V30 55353 C 5217.15 2.27358 0.289981 0
M  V30 55354 C 5218.16 1.34561 0.916359 0
M  V30 55355 O 5219.35 1.59718 0.797017 0
M  V30 55356 C 5216.45 3.07501 1.42465 0
M  V30 55357 C 5215.62 4.27985 0.902642 0
M  V30 55358 C 5214.68 4.90045 1.91684 0
M  V30 55359 O 5213.71 5.49649 1.47902 0
M  V30 55360 N 5214.91 4.81111 3.24827 0
M  V30 55361 H 5217.67 2.97243 -0.382989 0
M  V30 55362 H 5215.23 1.58063 -0.350376 0
M  V30 55363 H 5217.23 3.4589 2.10101 0
M  V30 55364 H 5215.8 2.40122 2.00151 0
M  V30 55365 H 5215.02 3.94167 0.0506886 0
M  V30 55366 H 5216.3 5.06005 0.532545 0
M  V30 55367 H 5215.7 4.33814 3.63073 0
M  V30 55368 H 5214.26 5.23638 3.88132 0
M  V30 55369 N 5217.69 0.251393 1.55582 0
M  V30 55370 C 5218.97 -0.422662 1.90979 0
M  V30 55371 C 5219.35 -1.7553 1.17271 0
M  V30 55372 O 5218.7 -2.26631 0.291668 0
M  V30 55373 C 5218.91 -0.586327 3.4404 0
M  V30 55374 C 5220.26 -0.880148 4.15378 0
M  V30 55375 O 5221.28 -0.672025 3.49803 0
M  V30 55376 O 5220.14 -1.27675 5.31377 0
M  V30 55377 H 5217.23 -0.227594 0.795066 0
M  V30 55378 H 5219.78 0.295791 1.67102 0
M  V30 55379 H 5218.55 0.352464 3.89709 0
M  V30 55380 H 5218.17 -1.35515 3.73793 0
M  V30 55381 N 5219.17 -1.57585 -0.0216635 0
M  V30 55382 C 5220.1 -2.10077 -1.01931 0
M  V30 55383 C 5221.08 -1.00495 -1.3724 0
M  V30 55384 O 5222.27 -1.2806 -1.45994 0
M  V30 55385 C 5219.4 -2.58626 -2.31797 0
M  V30 55386 C 5218.35 -3.72539 -2.1071 0
M  V30 55387 C 5217.68 -4.07322 -3.464 0
M  V30 55388 C 5218.98 -5.00678 -1.48725 0
M  V30 55389 H 5220.67 -2.93682 -0.582329 0
M  V30 55390 H 5218.22 -1.41278 -0.278665 0
M  V30 55391 H 5220.17 -2.93971 -3.01926 0
M  V30 55392 H 5218.89 -1.72114 -2.77569 0
M  V30 55393 H 5217.55 -3.37554 -1.43013 0
M  V30 55394 H 5217.2 -3.17864 -3.89835 0
M  V30 55395 H 5216.9 -4.84054 -3.33115 0
M  V30 55396 H 5218.43 -4.45207 -4.17879 0
M  V30 55397 H 5219.84 -5.33932 -2.08781 0
M  V30 55398 H 5218.24 -5.82071 -1.45992 0
M  V30 55399 H 5219.31 -4.82771 -0.45391 0
M  V30 55400 N 5220.65 0.294066 -1.54832 0
M  V30 55401 C 5221.9 1.02608 -1.73651 0
M  V30 55402 C 5222.21 1.88191 -0.533228 0
M  V30 55403 O 5223.42 2.64711 -0.603368 0
M  V30 55404 C 5221.87 1.87406 -3.07257 0
M  V30 55405 C 5221.48 1.06791 -4.35086 0
M  V30 55406 C 5223.23 2.60164 -3.35432 0
M  V30 55407 C 5221.13 1.90906 -5.5974 0
M  V30 55408 H 5220.06 0.386811 -0.64722 0
M  V30 55409 H 5222.71 0.282725 -1.81309 0
M  V30 55410 H 5221.1 2.65755 -2.93582 0
M  V30 55411 H 5222.27 0.330065 -4.59616 0
M  V30 55412 H 5220.58 0.455834 -4.13897 0
M  V30 55413 H 5223.18 3.23461 -4.25766 0
M  V30 55414 H 5223.52 3.29357 -2.54617 0
M  V30 55415 H 5224.06 1.88859 -3.5011 0
M  V30 55416 H 5220.8 1.26171 -6.43243 0
M  V30 55417 H 5220.32 2.62344 -5.39384 0
M  V30 55418 H 5222 2.48786 -5.97256 0
M  V30 55419 N 5222.13 1.47406 0.557593 0
M  V30 55420 C 5223.36 1.57627 1.3402 0
M  V30 55421 C 5223.77 0.226322 1.87439 0
M  V30 55422 O 5223.13 -0.780372 1.64974 0
M  V30 55423 C 5223.18 2.60119 2.51038 0
M  V30 55424 O 5222.9 3.89873 1.99827 0
M  V30 55425 C 5224.4 2.8052 3.43254 0
M  V30 55426 H 5221.62 0.532285 0.408551 0
M  V30 55427 H 5224.16 1.93022 0.675487 0
M  V30 55428 H 5222.32 2.27659 3.13449 0
M  V30 55429 H 5222.73 4.45874 2.76218 0
M  V30 55430 H 5224.21 3.56099 4.21779 0
M  V30 55431 H 5224.68 1.88328 3.96773 0
M  V30 55432 H 5225.29 3.14176 2.8666 0
M  V30 55433 N 5223.61 -0.804292 1.35532 0
M  V30 55434 C 5224.54 -1.93082 1.31308 0
M  V30 55435 C 5225.52 -1.69068 0.187103 0
M  V30 55436 O 5226.7 -1.90397 0.382425 0
M  V30 55437 C 5223.83 -3.29864 1.08662 0
M  V30 55438 C 5222.79 -3.68365 2.17924 0
M  V30 55439 C 5222.11 -5.03334 1.80441 0
M  V30 55440 C 5223.41 -3.78503 3.59907 0
M  V30 55441 H 5225.11 -1.96874 2.25568 0
M  V30 55442 H 5222.65 -0.945803 1.08584 0
M  V30 55443 H 5224.6 -4.08277 1.04345 0
M  V30 55444 H 5223.33 -3.2642 0.108473 0
M  V30 55445 H 5221.99 -2.92239 2.21341 0
M  V30 55446 H 5221.64 -4.96396 0.812388 0
M  V30 55447 H 5221.34 -5.30065 2.53583 0
M  V30 55448 H 5222.86 -5.84184 1.77654 0
M  V30 55449 H 5224.27 -4.47142 3.58799 0
M  V30 55450 H 5222.67 -4.16706 4.31829 0
M  V30 55451 H 5223.74 -2.79996 3.95892 0
M  V30 55452 N 5225.08 -1.19567 -1.02672 0
M  V30 55453 C 5226.05 -0.937255 -2.09161 0
M  V30 55454 C 5227.05 0.0831362 -1.60585 0
M  V30 55455 O 5228.24 -0.151841 -1.73537 0
M  V30 55456 C 5225.37 -0.409031 -3.38437 0
M  V30 55457 H 5226.56 -1.88173 -2.33519 0
M  V30 55458 H 5224.11 -1.00963 -1.19315 0
M  V30 55459 H 5224.85 0.541384 -3.19749 0
M  V30 55460 H 5224.63 -1.14477 -3.75016 0
M  V30 55461 H 5226.12 -0.247389 -4.16867 0
M  V30 55462 N 5226.56 1.21816 -0.999936 0
M  V30 55463 C 5227.51 2.24001 -0.556084 0
M  V30 55464 C 5228.48 1.60826 0.415231 0
M  V30 55465 O 5229.66 1.88124 0.318414 0
M  V30 55466 C 5226.8 3.44904 0.116168 0
M  V30 55467 C 5225.92 4.22569 -0.897723 0
M  V30 55468 C 5225.05 5.3083 -0.19826 0
M  V30 55469 C 5224.09 6.00221 -1.20004 0
M  V30 55470 N 5223.23 7.00109 -0.528403 0
M  V30 55471 H 5228.07 2.61329 -1.43217 0
M  V30 55472 H 5225.6 1.28429 -0.717251 0
M  V30 55473 H 5227.56 4.1391 0.522909 0
M  V30 55474 H 5226.19 3.08319 0.956 0
M  V30 55475 H 5225.24 3.52792 -1.42274 0
M  V30 55476 H 5226.56 4.70357 -1.66029 0
M  V30 55477 H 5225.71 6.06122 0.264852 0
M  V30 55478 H 5224.45 4.84035 0.596754 0
M  V30 55479 H 5223.45 5.23705 -1.67371 0
M  V30 55480 H 5224.68 6.49103 -1.99605 0
M  V30 55481 H 5222.63 6.55535 0.247046 0
M  V30 55482 H 5222.54 7.45938 -1.2293 0
M  V30 55483 H 5223.81 7.7945 -0.0883283 0
M  V30 55484 N 5228.04 0.774023 1.37283 0
M  V30 55485 C 5229.27 0.350829 2.03904 0
M  V30 55486 C 5229.68 -1.02773 1.58377 0
M  V30 55487 O 5229.04 -1.65643 0.766068 0
M  V30 55488 C 5229.09 0.387462 3.59418 0
M  V30 55489 O 5228.81 1.71164 4.0328 0
M  V30 55490 C 5230.31 -0.0470422 4.43275 0
M  V30 55491 H 5227.53 0.146686 0.65477 0
M  V30 55492 H 5230.08 1.04858 1.75571 0
M  V30 55493 H 5228.23 -0.261729 3.86515 0
M  V30 55494 H 5228.65 1.65183 4.9781 0
M  V30 55495 H 5230.12 0.0297415 5.51992 0
M  V30 55496 H 5230.6 -1.09771 4.25261 0
M  V30 55497 H 5231.2 0.574048 4.21408 0
M  V30 55498 N 5229.52 -1.48607 0.52475 0
M  V30 55499 C 5230.93 -1.58556 0.182255 0
M  V30 55500 C 5231.13 -1.52737 -1.31429 0
M  V30 55501 O 5230.19 -1.4137 -2.09215 0
M  V30 55502 C 5231.5 -2.90404 0.780142 0
M  V30 55503 C 5233.05 -3.03921 0.7484 0
M  V30 55504 C 5233.53 -4.38422 1.32477 0
M  V30 55505 N 5235.02 -4.44976 1.28651 0
M  V30 55506 C 5235.75 -5.47545 1.70242 0
M  V30 55507 N 5235.25 -6.57096 2.19539 0
M  V30 55508 N 5237.04 -5.38396 1.61512 0
M  V30 55509 H 5229.19 -1.50632 1.49745 0
M  V30 55510 H 5231.45 -0.71493 0.622559 0
M  V30 55511 H 5231.16 -3.00302 1.83062 0
M  V30 55512 H 5231.03 -3.76342 0.254207 0
M  V30 55513 H 5233.42 -2.93639 -0.293304 0
M  V30 55514 H 5233.5 -2.19606 1.31175 0
M  V30 55515 H 5233.15 -4.49458 2.36538 0
M  V30 55516 H 5233.08 -5.21415 0.737151 0
M  V30 55517 H 5235.57 -3.6639 0.925579 0
M  V30 55518 H 5235.88 -7.3149 2.49283 0
M  V30 55519 H 5234.23 -6.58073 2.23529 0
M  V30 55520 H 5237.42 -4.51705 1.228 0
M  V30 55521 H 5237.59 -6.18201 1.94246 0
M  V30 55522 N 5231 -0.25964 -1.55447 0
M  V30 55523 C 5232.23 0.364791 -2.03354 0
M  V30 55524 C 5232.63 1.51156 -1.13792 0
M  V30 55525 O 5231.98 1.83108 -0.147347 0
M  V30 55526 C 5232.04 0.922465 -3.47463 0
M  V30 55527 C 5231.7 -0.0936813 -4.56904 0
M  V30 55528 C 5232.7 -0.907751 -5.11914 0
M  V30 55529 C 5230.38 -0.223453 -5.01803 0
M  V30 55530 C 5232.38 -1.83793 -6.10327 0
M  V30 55531 C 5230.07 -1.15712 -6.00045 0
M  V30 55532 C 5231.06 -1.96287 -6.54187 0
M  V30 55533 O 5230.75 -2.88078 -7.50511 0
M  V30 55534 H 5230.48 0.0893077 -0.670075 0
M  V30 55535 H 5233.04 -0.384891 -2.01762 0
M  V30 55536 H 5231.27 1.72194 -3.46246 0
M  V30 55537 H 5232.96 1.45833 -3.78798 0
M  V30 55538 H 5233.72 -0.818147 -4.7805 0
M  V30 55539 H 5229.6 0.393672 -4.59316 0
M  V30 55540 H 5233.15 -2.46726 -6.52512 0
M  V30 55541 H 5229.04 -1.2476 -6.33329 0
M  V30 55542 H 5229.81 -2.82584 -7.68172 0
M  V30 55543 N 5232.47 1.57594 0.0133061 0
M  V30 55544 C 5233.44 2.06537 0.993727 0
M  V30 55545 C 5234.44 0.972312 1.28073 0
M  V30 55546 O 5235.63 1.23541 1.22813 0
M  V30 55547 C 5232.76 2.49562 2.32232 0
M  V30 55548 H 5233.95 2.94421 0.570637 0
M  V30 55549 H 5231.5 1.54114 0.260492 0
M  V30 55550 H 5232.24 1.64882 2.79257 0
M  V30 55551 H 5232.02 3.29379 2.12725 0
M  V30 55552 H 5233.51 2.87801 3.0259 0
M  V30 55553 N 5233.95 -0.28585 1.54986 0
M  V30 55554 C 5234.88 -1.35745 1.89988 0
M  V30 55555 C 5235.86 -1.5216 0.760348 0
M  V30 55556 O 5237.05 -1.65417 1.01739 0
M  V30 55557 C 5234.18 -2.71917 2.16052 0
M  V30 55558 C 5233.13 -2.70249 3.31888 0
M  V30 55559 C 5232.46 -4.09852 3.43403 0
M  V30 55560 C 5233.76 -2.3065 4.68613 0
M  V30 55561 H 5235.45 -1.06699 2.79742 0
M  V30 55562 H 5233 -0.511836 1.34597 0
M  V30 55563 H 5234.95 -3.46983 2.39125 0
M  V30 55564 H 5233.68 -3.02519 1.23084 0
M  V30 55565 H 5232.33 -1.9764 3.08762 0
M  V30 55566 H 5231.98 -4.37656 2.47924 0
M  V30 55567 H 5231.68 -4.09634 4.21277 0
M  V30 55568 H 5233.21 -4.86676 3.68753 0
M  V30 55569 H 5234.62 -2.95436 4.91315 0
M  V30 55570 H 5233.02 -2.41617 5.4931 0
M  V30 55571 H 5234.09 -1.25776 4.68304 0
M  V30 55572 N 5235.43 -1.477 -0.549768 0
M  V30 55573 C 5236.38 -1.60745 -1.65619 0
M  V30 55574 C 5237.35 -0.450186 -1.59883 0
M  V30 55575 O 5238.53 -0.671185 -1.78605 0
M  V30 55576 C 5235.67 -1.63467 -3.03928 0
M  V30 55577 C 5234.79 -2.90163 -3.20046 0
M  V30 55578 C 5233.92 -2.84173 -4.48797 0
M  V30 55579 C 5232.96 -4.0566 -4.58373 0
M  V30 55580 N 5232.1 -3.97863 -5.78489 0
M  V30 55581 H 5236.94 -2.55239 -1.53808 0
M  V30 55582 H 5234.47 -1.26596 -0.749129 0
M  V30 55583 H 5236.43 -1.63028 -3.84028 0
M  V30 55584 H 5235.06 -0.724799 -3.14558 0
M  V30 55585 H 5234.11 -3.00436 -2.33329 0
M  V30 55586 H 5235.43 -3.80108 -3.22985 0
M  V30 55587 H 5234.58 -2.82025 -5.37166 0
M  V30 55588 H 5233.32 -1.91924 -4.48349 0
M  V30 55589 H 5232.32 -4.08105 -3.68416 0
M  V30 55590 H 5233.55 -4.99046 -4.60576 0
M  V30 55591 H 5231.49 -3.08421 -5.78975 0
M  V30 55592 H 5231.41 -4.81494 -5.82838 0
M  V30 55593 H 5232.68 -3.99743 -6.69198 0
M  V30 55594 N 5236.91 0.797093 -1.35957 0
M  V30 55595 C 5238.19 1.5422 -1.20315 0
M  V30 55596 C 5238.57 2.10014 0.213852 0
M  V30 55597 O 5237.91 1.93296 1.21855 0
M  V30 55598 C 5238.12 2.64322 -2.27893 0
M  V30 55599 C 5239.47 3.32409 -2.64177 0
M  V30 55600 O 5240.5 2.74599 -2.26878 0
M  V30 55601 O 5239.35 4.36865 -3.28346 0
M  V30 55602 H 5236.45 0.681841 -0.467998 0
M  V30 55603 H 5238.99 0.836236 -1.47666 0
M  V30 55604 H 5237.77 2.21033 -3.22893 0
M  V30 55605 H 5237.39 3.42544 -2.01865 0
M  V30 55606 N 5238.39 1.2011 1.02036 0
M  V30 55607 C 5239.61 1.03446 1.79183 0
M  V30 55608 C 5240.03 -0.416478 1.84149 0
M  V30 55609 O 5239.39 -1.28921 1.29173 0
M  V30 55610 C 5239.44 1.60675 3.2383 0
M  V30 55611 O 5239.16 3.0009 3.19182 0
M  V30 55612 C 5240.66 1.48912 4.17541 0
M  V30 55613 H 5237.88 0.364112 0.563616 0
M  V30 55614 H 5240.42 1.59114 1.28464 0
M  V30 55615 H 5238.58 1.09135 3.7171 0
M  V30 55616 H 5238.99 3.27176 4.09946 0
M  V30 55617 H 5240.47 1.93721 5.16891 0
M  V30 55618 H 5240.94 0.440997 4.3698 0
M  V30 55619 H 5241.55 1.99624 3.7554 0
M  V30 55620 N 5239.86 -1.21284 1.00638 0
M  V30 55621 C 5241.14 -1.85998 0.605322 0
M  V30 55622 C 5241.52 -1.90143 -0.917005 0
M  V30 55623 O 5240.87 -1.40175 -1.80453 0
M  V30 55624 C 5241.08 -3.26179 1.2413 0
M  V30 55625 C 5242.43 -4.02557 1.35029 0
M  V30 55626 O 5243.45 -3.35495 1.19673 0
M  V30 55627 O 5242.31 -5.22632 1.59744 0
M  V30 55628 H 5239.4 -0.800542 0.207514 0
M  V30 55629 H 5241.95 -1.28955 1.10312 0
M  V30 55630 H 5240.72 -3.1787 2.28197 0
M  V30 55631 H 5240.35 -3.90842 0.729945 0
M  V30 55632 N 5241.34 -0.781292 -1.36871 0
M  V30 55633 C 5242.25 -0.175063 -2.33946 0
M  V30 55634 C 5243.27 0.668456 -1.60648 0
M  V30 55635 O 5244.44 0.586145 -1.92682 0
M  V30 55636 C 5241.51 0.686438 -3.39837 0
M  V30 55637 C 5240.57 -0.174639 -4.28945 0
M  V30 55638 C 5239.8 0.645838 -5.29778 0
M  V30 55639 O 5240.03 1.88235 -5.38446 0
M  V30 55640 O 5238.96 0.0500098 -6.01879 0
M  V30 55641 H 5242.79 -0.977483 -2.8754 0
M  V30 55642 H 5240.37 -0.542608 -1.39198 0
M  V30 55643 H 5242.25 1.17796 -4.04601 0
M  V30 55644 H 5240.93 1.46688 -2.88555 0
M  V30 55645 H 5239.84 -0.712733 -3.67248 0
M  V30 55646 H 5241.17 -0.918402 -4.83556 0
M  V30 55647 N 5242.82 1.48327 -0.532624 0
M  V30 55648 C 5243.73 2.33445 0.232464 0
M  V30 55649 C 5244.75 1.46655 0.936398 0
M  V30 55650 O 5245.92 1.7963 0.91077 0
M  V30 55651 C 5242.99 3.22828 1.26423 0
M  V30 55652 C 5242.05 4.25494 0.570361 0
M  V30 55653 C 5241.28 5.10606 1.55297 0
M  V30 55654 O 5241.5 4.97743 2.78582 0
M  V30 55655 O 5240.44 5.91931 1.09091 0
M  V30 55656 H 5244.26 3.00118 -0.465094 0
M  V30 55657 H 5241.85 1.46488 -0.293513 0
M  V30 55658 H 5243.73 3.78109 1.86042 0
M  V30 55659 H 5242.41 2.58814 1.94415 0
M  V30 55660 H 5241.31 3.74041 -0.0663902 0
M  V30 55661 H 5242.65 4.92153 -0.0676634 0
M  V30 55662 N 5244.3 0.26788 1.55307 0
M  V30 55663 C 5245.54 -0.351486 1.99731 0
M  V30 55664 C 5245.88 -1.56045 1.15601 0
M  V30 55665 O 5245.15 -1.93202 0.224342 0
M  V30 55666 C 5245.44 -0.740786 3.52398 0
M  V30 55667 C 5245.29 0.475019 4.47285 0
M  V30 55668 C 5246.61 -1.57996 4.10762 0
M  V30 55669 H 5243.73 -0.126282 0.7261 0
M  V30 55670 H 5246.37 0.373381 1.86295 0
M  V30 55671 H 5244.52 -1.35839 3.63978 0
M  V30 55672 H 5246.19 1.11356 4.47658 0
M  V30 55673 H 5244.43 1.11439 4.19242 0
M  V30 55674 H 5245.1 0.158976 5.51771 0
M  V30 55675 H 5247.58 -1.05843 4.02413 0
M  V30 55676 H 5246.46 -1.82117 5.17807 0
M  V30 55677 H 5246.72 -2.55866 3.60535 0
M  V30 55678 N 5245.78 -1.57599 -0.00494828 0
M  V30 55679 C 5247.19 -1.55465 -0.360961 0
M  V30 55680 C 5247.39 -0.997113 -1.751 0
M  V30 55681 O 5246.45 -0.628747 -2.44547 0
M  V30 55682 C 5247.76 -2.99735 -0.240722 0
M  V30 55683 C 5249.31 -3.114 -0.316028 0
M  V30 55684 C 5249.78 -4.57447 -0.22497 0
M  V30 55685 N 5251.28 -4.62335 -0.283023 0
M  V30 55686 C 5252.01 -5.72915 -0.235829 0
M  V30 55687 N 5251.51 -6.9266 -0.139519 0
M  V30 55688 N 5253.3 -5.61365 -0.287331 0
M  V30 55689 H 5245.45 -1.92182 0.904427 0
M  V30 55690 H 5247.71 -0.882516 0.346221 0
M  V30 55691 H 5247.42 -3.44346 0.715464 0
M  V30 55692 H 5247.29 -3.63012 -1.02478 0
M  V30 55693 H 5249.68 -2.66723 -1.26266 0
M  V30 55694 H 5249.76 -2.50909 0.497813 0
M  V30 55695 H 5249.41 -5.02798 0.718094 0
M  V30 55696 H 5249.34 -5.15878 -1.05723 0
M  V30 55697 H 5251.83 -3.76191 -0.358991 0
M  V30 55698 H 5252.14 -7.72723 -0.109269 0
M  V30 55699 H 5250.48 -6.9492 -0.105217 0
M  V30 55700 H 5253.68 -4.66708 -0.360733 0
M  V30 55701 H 5253.85 -6.47529 -0.247086 0
M  V30 55702 N 5247.25 0.277627 -1.55135 0
M  V30 55703 C 5248.16 1.36518 -1.90788 0
M  V30 55704 C 5249.18 1.5428 -0.804596 0
M  V30 55705 O 5250.36 1.68495 -1.10324 0
M  V30 55706 C 5247.42 2.70517 -2.16845 0
M  V30 55707 C 5246.48 2.6154 -3.40434 0
M  V30 55708 C 5245.72 3.89149 -3.65238 0
M  V30 55709 O 5245.94 4.89614 -2.92633 0
M  V30 55710 O 5244.87 3.89631 -4.58771 0
M  V30 55711 H 5248.7 1.0928 -2.83358 0
M  V30 55712 H 5246.28 0.475749 -1.41623 0
M  V30 55713 H 5248.17 3.49756 -2.3505 0
M  V30 55714 H 5246.84 2.9755 -1.27458 0
M  V30 55715 H 5245.75 1.80692 -3.27569 0
M  V30 55716 H 5247.08 2.39457 -4.30025 0
M  V30 55717 N 5248.73 1.4799 0.541927 0
M  V30 55718 C 5249.98 1.55398 1.29838 0
M  V30 55719 C 5250.31 0.222736 1.9322 0
M  V30 55720 O 5249.56 -0.785873 1.79228 0
M  V30 55721 C 5249.86 2.63198 2.41788 0
M  V30 55722 C 5249.53 4.06006 1.96137 0
M  V30 55723 C 5248.19 4.44878 1.83404 0
M  V30 55724 C 5250.54 4.95551 1.6149 0
M  V30 55725 C 5247.87 5.71112 1.34341 0
M  V30 55726 C 5250.22 6.22263 1.13893 0
M  V30 55727 C 5248.89 6.60002 0.997679 0
M  V30 55728 H 5248.16 0.56864 0.47511 0
M  V30 55729 H 5250.8 1.81656 0.606079 0
M  V30 55730 H 5249.11 2.30754 3.16638 0
M  V30 55731 H 5250.81 2.66148 2.99944 0
M  V30 55732 H 5247.4 3.75301 2.06995 0
M  V30 55733 H 5251.58 4.66206 1.70193 0
M  V30 55734 H 5246.84 5.99088 1.22082 0
M  V30 55735 H 5251.01 6.91051 0.861512 0
M  V30 55736 H 5248.64 7.57706 0.615294 0
M  V30 55737 N 5250.21 -0.789872 1.36377 0
M  V30 55738 C 5251.14 -1.91678 1.33348 0
M  V30 55739 C 5252.12 -1.6886 0.205025 0
M  V30 55740 O 5253.31 -1.89981 0.402598 0
M  V30 55741 C 5250.44 -3.28692 1.12154 0
M  V30 55742 C 5249.39 -3.66033 2.21819 0
M  V30 55743 C 5248.72 -5.01392 1.85769 0
M  V30 55744 C 5250.02 -3.74664 3.63901 0
M  V30 55745 H 5251.71 -1.9447 2.27644 0
M  V30 55746 H 5249.26 -0.934233 1.09581 0
M  V30 55747 H 5251.21 -4.07147 1.0867 0
M  V30 55748 H 5249.93 -3.26286 0.143088 0
M  V30 55749 H 5248.59 -2.89875 2.24428 0
M  V30 55750 H 5248.24 -4.95507 0.864991 0
M  V30 55751 H 5247.94 -5.27346 2.59191 0
M  V30 55752 H 5249.47 -5.82267 1.8384 0
M  V30 55753 H 5250.88 -4.43312 3.63521 0
M  V30 55754 H 5249.28 -4.12102 4.36224 0
M  V30 55755 H 5250.35 -2.75781 3.98839 0
M  V30 55756 N 5251.69 -1.20649 -1.01398 0
M  V30 55757 C 5252.64 -0.925282 -2.08381 0
M  V30 55758 C 5253.62 0.115938 -1.60482 0
M  V30 55759 O 5254.82 -0.0917897 -1.76762 0
M  V30 55760 C 5251.94 -0.482049 -3.39899 0
M  V30 55761 C 5251.03 -1.55684 -3.94491 0
M  V30 55762 N 5251.42 -2.77986 -4.2256 0
M  V30 55763 C 5249.72 -1.42362 -4.22669 0
M  V30 55764 C 5250.42 -3.47333 -4.6662 0
M  V30 55765 N 5249.4 -2.74753 -4.69054 0
M  V30 55766 H 5253.2 -1.8546 -2.27995 0
M  V30 55767 H 5250.71 -1.10089 -1.19391 0
M  V30 55768 H 5252.71 -0.261982 -4.16076 0
M  V30 55769 H 5251.37 0.440612 -3.21697 0
M  V30 55770 H 5252.38 -3.14613 -4.11387 0
M  V30 55771 H 5249.06 -0.565563 -4.13652 0
M  V30 55772 H 5250.45 -4.52002 -4.97136 0
M  V30 55773 N 5253.17 1.20748 -1.0128 0
M  V30 55774 C 5254.12 2.2543 -0.573068 0
M  V30 55775 C 5255.11 1.64937 0.386296 0
M  V30 55776 O 5256.32 1.78161 0.256634 0
M  V30 55777 H 5252.69 0.733223 -0.166998 0
M  V30 55778 H 5254.66 2.59851 -1.46697 0
M  V30 55779 C 5253.41 3.47615 0.0767027 0
M  V30 55780 H 5252.73 3.9444 -0.652493 0
M  V30 55781 H 5254.17 4.22573 0.347552 0
M  V30 55782 C 5252.63 3.10034 1.31835 0
M  V30 55783 O 5253.16 3.21225 2.412 0
M  V30 55784 N 5251.37 2.6462 1.20101 0
M  V30 55785 H 5250.92 2.55715 0.311094 0
M  V30 55786 H 5250.87 2.39845 2.03277 0
M  V30 55787 N 5254.65 0.78854 1.36454 0
M  V30 55788 C 5255.59 0.174274 2.31946 0
M  V30 55789 C 5256.59 -0.665919 1.55762 0
M  V30 55790 O 5257.79 -0.561101 1.71031 0
M  V30 55791 H 5254.17 0.0375802 0.75106 0
M  V30 55792 H 5256.14 0.99511 2.81319 0
M  V30 55793 C 5254.89 -0.677156 3.41042 0
M  V30 55794 H 5254.21 -0.0400013 3.9978 0
M  V30 55795 H 5255.65 -1.07365 4.10181 0
M  V30 55796 C 5254.11 -1.83502 2.8254 0
M  V30 55797 O 5254.64 -2.93154 2.74634 0
M  V30 55798 N 5252.85 -1.64086 2.39842 0
M  V30 55799 H 5252.39 -0.748959 2.46472 0
M  V30 55800 H 5252.35 -2.41719 2.01045 0
M  V30 55801 N 5256.12 -1.48042 0.540482 0
M  V30 55802 C 5257.05 -2.32598 -0.205097 0
M  V30 55803 C 5258.03 -1.42751 -0.92499 0
M  V30 55804 O 5259.22 -1.71627 -0.908724 0
M  V30 55805 C 5256.35 -3.24179 -1.24601 0
M  V30 55806 C 5255.3 -4.23133 -0.643612 0
M  V30 55807 C 5254.63 -5.03921 -1.78794 0
M  V30 55808 C 5255.93 -5.2083 0.391623 0
M  V30 55809 H 5257.62 -2.95182 0.500779 0
M  V30 55810 H 5255.17 -1.41947 0.242275 0
M  V30 55811 H 5257.12 -3.82164 -1.77563 0
M  V30 55812 H 5255.85 -2.59615 -1.9816 0
M  V30 55813 H 5254.51 -3.6635 -0.135425 0
M  V30 55814 H 5254.15 -4.35774 -2.51217 0
M  V30 55815 H 5253.85 -5.70905 -1.39074 0
M  V30 55816 H 5255.38 -5.64761 -2.32114 0
M  V30 55817 H 5256.79 -5.73277 -0.0513049 0
M  V30 55818 H 5255.19 -5.95923 0.706779 0
M  V30 55819 H 5256.26 -4.67326 1.29362 0
M  V30 55820 N 5257.6 -0.276112 -1.55162 0
M  V30 55821 C 5258.55 0.625472 -2.19253 0
M  V30 55822 C 5259.54 1.11765 -1.15748 0
M  V30 55823 O 5260.73 1.06255 -1.41558 0
M  V30 55824 C 5257.86 1.80868 -2.9179 0
M  V30 55825 C 5256.94 1.33365 -4.02585 0
M  V30 55826 N 5257.33 0.574825 -5.02523 0
M  V30 55827 C 5255.63 1.61652 -4.15674 0
M  V30 55828 C 5256.33 0.324959 -5.80792 0
M  V30 55829 N 5255.31 0.897663 -5.36137 0
M  V30 55830 H 5259.11 0.037891 -2.93876 0
M  V30 55831 H 5256.62 -0.079718 -1.62204 0
M  V30 55832 H 5258.62 2.46588 -3.36155 0
M  V30 55833 H 5257.28 2.40021 -2.18678 0
M  V30 55834 H 5258.29 0.222074 -5.17424 0
M  V30 55835 H 5254.97 2.21732 -3.53753 0
M  V30 55836 H 5256.36 -0.282834 -6.71304 0
M  V30 55837 N 5259.08 1.576 -0.00340966 0
M  V30 55838 C 5260.01 2.11672 0.985764 0
M  V30 55839 C 5260.99 1.02666 1.35624 0
M  V30 55840 O 5262.18 1.30366 1.43938 0
M  V30 55841 C 5259.31 2.62281 2.27653 0
M  V30 55842 C 5258.26 3.75844 2.04757 0
M  V30 55843 C 5257.59 4.12781 3.39876 0
M  V30 55844 C 5258.89 5.0298 1.40741 0
M  V30 55845 H 5260.58 2.94572 0.535533 0
M  V30 55846 H 5258.13 1.41703 0.256154 0
M  V30 55847 H 5260.08 2.98737 2.97211 0
M  V30 55848 H 5258.8 1.76508 2.74796 0
M  V30 55849 H 5257.46 3.39787 1.37624 0
M  V30 55850 H 5257.11 3.24026 3.84729 0
M  V30 55851 H 5256.81 4.89293 3.25371 0
M  V30 55852 H 5258.33 4.51799 4.10744 0
M  V30 55853 H 5259.75 5.37186 2.0026 0
M  V30 55854 H 5258.14 5.8432 1.36714 0
M  V30 55855 H 5259.21 4.83432 0.377048 0
M  V30 55856 N 5260.56 -0.269396 1.5528 0
M  V30 55857 C 5261.49 -1.35546 1.84824 0
M  V30 55858 C 5262.5 -1.45367 0.732965 0
M  V30 55859 O 5263.69 -1.47119 1.01086 0
M  V30 55860 C 5260.79 -2.73637 1.99939 0
M  V30 55861 C 5259.96 -2.86364 3.30627 0
M  V30 55862 C 5259.02 -4.05154 3.35763 0
M  V30 55863 O 5258.05 -3.95741 4.09118 0
M  V30 55864 N 5259.25 -5.17288 2.63426 0
M  V30 55865 H 5262.02 -1.10547 2.78567 0
M  V30 55866 H 5259.58 -0.459512 1.55242 0
M  V30 55867 H 5261.57 -3.51404 2.00742 0
M  V30 55868 H 5260.14 -2.91444 1.13046 0
M  V30 55869 H 5259.36 -1.95453 3.42333 0
M  V30 55870 H 5260.65 -2.918 4.16809 0
M  V30 55871 H 5260.05 -5.27822 2.03519 0
M  V30 55872 H 5258.6 -5.93272 2.69947 0
M  V30 55873 N 5262.04 -1.48275 -0.534071 0
M  V30 55874 C 5263.28 -1.55776 -1.28757 0
M  V30 55875 C 5263.6 -0.231643 -1.93619 0
M  V30 55876 O 5262.87 0.746469 -1.81121 0
M  V30 55877 H 5261.45 -0.573868 -0.478209 0
M  V30 55878 H 5264.12 -1.84714 -0.621823 0
M  V30 55879 H 5263.21 -2.33664 -2.069 0
M  V30 55880 N 5263.51 0.782628 -1.36794 0
M  V30 55881 C 5264.46 1.89554 -1.31674 0
M  V30 55882 C 5265.43 1.65075 -0.184205 0
M  V30 55883 O 5266.62 1.87142 -0.371819 0
M  V30 55884 C 5263.76 3.26465 -1.11869 0
M  V30 55885 C 5262.87 3.6297 -2.34258 0
M  V30 55886 C 5262 4.89034 -2.07411 0
M  V30 55887 C 5261.04 5.18238 -3.25724 0
M  V30 55888 N 5260.18 6.35486 -2.98499 0
M  V30 55889 H 5265.02 1.93266 -2.26831 0
M  V30 55890 H 5262.56 0.945017 -1.12729 0
M  V30 55891 H 5264.52 4.05427 -0.984111 0
M  V30 55892 H 5263.15 3.22157 -0.203644 0
M  V30 55893 H 5262.2 2.79078 -2.58495 0
M  V30 55894 H 5263.51 3.80496 -3.22528 0
M  V30 55895 H 5262.66 5.75877 -1.90922 0
M  V30 55896 H 5261.4 4.7359 -1.16462 0
M  V30 55897 H 5260.41 4.29875 -3.42765 0
M  V30 55898 H 5261.63 5.35596 -4.17509 0
M  V30 55899 H 5259.58 6.21422 -2.10168 0
M  V30 55900 H 5259.5 6.53377 -3.80309 0
M  V30 55901 H 5260.76 7.25294 -2.85603 0
M  V30 55902 N 5264.99 1.21185 1.00757 0
M  V30 55903 C 5266.24 1.02904 1.74753 0
M  V30 55904 C 5266.57 -0.436707 1.89226 0
M  V30 55905 O 5265.85 -1.3241 1.42471 0
M  V30 55906 C 5266.13 1.72384 3.16158 0
M  V30 55907 C 5265.98 3.26461 3.09424 0
M  V30 55908 C 5267.3 1.4643 4.15026 0
M  V30 55909 H 5264.42 0.375236 0.634324 0
M  V30 55910 H 5267.06 1.49325 1.17482 0
M  V30 55911 H 5265.21 1.32918 3.65055 0
M  V30 55912 H 5266.88 3.75278 2.68261 0
M  V30 55913 H 5265.13 3.56897 2.4659 0
M  V30 55914 H 5265.8 3.7024 4.09422 0
M  V30 55915 H 5268.27 1.80684 3.74823 0
M  V30 55916 H 5267.15 1.97562 5.12114 0
M  V30 55917 H 5267.41 0.393765 4.40343 0
M  V30 55918 N 5266.47 -1.20209 1.01919 0
M  V30 55919 C 5267.38 -2.26761 0.601391 0
M  V30 55920 C 5268.4 -1.70186 -0.362309 0
M  V30 55921 O 5269.57 -2.00166 -0.222612 0
M  V30 55922 C 5266.64 -3.46662 -0.051166 0
M  V30 55923 C 5265.7 -4.18456 0.958806 0
M  V30 55924 C 5264.93 -5.32633 0.337295 0
M  V30 55925 O 5265.15 -5.63844 -0.862312 0
M  V30 55926 O 5264.09 -5.92576 1.05531 0
M  V30 55927 H 5267.91 -2.6472 1.48853 0
M  V30 55928 H 5265.5 -1.26877 0.788829 0
M  V30 55929 H 5267.38 -4.19347 -0.415492 0
M  V30 55930 H 5266.06 -3.10573 -0.912463 0
M  V30 55931 H 5264.96 -3.47933 1.37455 0
M  V30 55932 H 5266.3 -4.58491 1.79015 0
M  V30 55933 N 5267.95 -0.795765 -1.36034 0
M  V30 55934 C 5269.2 -0.370361 -1.98677 0
M  V30 55935 C 5269.52 1.06326 -1.63462 0
M  V30 55936 O 5268.79 1.7339 -0.911732 0
M  V30 55937 H 5267.37 -0.133954 -0.734891 0
M  V30 55938 H 5270.03 -1.01921 -1.66127 0
M  V30 55939 H 5269.13 -0.467315 -3.08582 0
M  V30 55940 N 5269.43 1.47754 -0.548326 0
M  V30 55941 C 5270.65 2.07387 -0.0235479 0
M  V30 55942 C 5271.08 1.39961 1.25669 0
M  V30 55943 O 5270.43 0.471604 1.75059 0
M  V30 55944 C 5270.48 3.60224 0.164542 0
M  V30 55945 O 5269.59 3.93657 1.22915 0
M  V30 55946 H 5268.93 0.66231 -0.0473389 0
M  V30 55947 H 5271.46 1.89902 -0.761475 0
M  V30 55948 H 5271.47 4.06212 0.381517 0
M  V30 55949 H 5270.14 4.08699 -0.770569 0
M  V30 55950 H 5268.72 3.59425 0.993369 0
M  V30 55951 N 5270.9 0.284337 1.55014 0
M  V30 55952 C 5272.32 -0.211616 1.85497 0
M  V30 55953 C 5272.67 -1.54731 1.20635 0
M  V30 55954 O 5271.79 -2.10592 0.497992 0
M  V30 55955 C 5272.39 -0.390746 3.36539 0
M  V30 55956 C 5270.95 -0.830926 3.67114 0
M  V30 55957 C 5270.09 0.0704556 2.7721 0
M  V30 55958 H 5273.04 0.505856 1.50422 0
M  V30 55959 H 5273.06 -1.22791 3.60143 0
M  V30 55960 H 5272.58 0.581544 3.83718 0
M  V30 55961 H 5270.68 -1.81436 3.25441 0
M  V30 55962 H 5270.79 -0.661859 4.74506 0
M  V30 55963 H 5269.15 -0.44744 2.50739 0
M  V30 55964 H 5269.94 1.0388 3.27206 0
M  V30 55965 N 5272.38 -1.57596 0.0117675 0
M  V30 55966 C 5273.61 -1.95766 -0.68487 0
M  V30 55967 C 5274.03 -0.887343 -1.65855 0
M  V30 55968 O 5273.39 0.153444 -1.80649 0
M  V30 55969 C 5273.44 -3.33036 -1.38273 0
M  V30 55970 O 5272.54 -3.28172 -2.49754 0
M  V30 55971 H 5271.88 -0.638773 -0.181287 0
M  V30 55972 H 5274.41 -2.04485 0.0684602 0
M  V30 55973 H 5274.42 -3.68872 -1.74349 0
M  V30 55974 H 5273.1 -4.10486 -0.668899 0
M  V30 55975 H 5271.68 -3.04029 -2.15919 0
M  V30 55976 N 5273.86 0.261157 -1.55421 0
M  V30 55977 C 5274.79 1.32705 -1.92124 0
M  V30 55978 C 5275.77 1.50931 -0.784459 0
M  V30 55979 O 5276.96 1.63777 -1.04358 0
M  V30 55980 C 5274.09 2.68445 -2.20351 0
M  V30 55981 C 5273.04 2.64935 -3.36145 0
M  V30 55982 C 5272.37 4.04337 -3.4988 0
M  V30 55983 C 5273.67 2.23166 -4.72223 0
M  V30 55984 H 5275.36 1.02235 -2.81404 0
M  V30 55985 H 5272.91 0.490358 -1.35394 0
M  V30 55986 H 5274.86 3.43135 -2.44615 0
M  V30 55987 H 5273.58 3.00523 -1.27881 0
M  V30 55988 H 5272.24 1.92703 -3.11867 0
M  V30 55989 H 5271.89 4.33656 -2.54856 0
M  V30 55990 H 5271.59 4.0288 -4.2774 0
M  V30 55991 H 5273.11 4.80748 -3.76449 0
M  V30 55992 H 5274.53 2.87582 -4.95953 0
M  V30 55993 H 5272.93 2.32848 -5.53084 0
M  V30 55994 H 5274 1.1831 -4.70245 0
M  V30 55995 N 5275.34 1.48556 0.526201 0
M  V30 55996 C 5276.75 1.3476 0.855091 0
M  V30 55997 C 5276.95 0.361489 1.98231 0
M  V30 55998 O 5276.01 -0.215937 2.51575 0
M  V30 55999 C 5277.32 2.74881 1.21905 0
M  V30 56000 C 5278.87 2.83397 1.32872 0
M  V30 56001 C 5279.35 4.24229 1.72609 0
M  V30 56002 N 5280.84 4.2692 1.79705 0
M  V30 56003 C 5281.57 5.32832 2.11844 0
M  V30 56004 N 5281.07 6.49017 2.42382 0
M  V30 56005 N 5282.86 5.20228 2.12883 0
M  V30 56006 H 5275.01 2.11283 -0.217497 0
M  V30 56007 H 5277.28 0.947366 -0.0346696 0
M  V30 56008 H 5276.98 3.48621 0.464363 0
M  V30 56009 H 5276.86 3.08647 2.16833 0
M  V30 56010 H 5279.24 2.09911 2.07416 0
M  V30 56011 H 5279.32 2.53246 0.360549 0
M  V30 56012 H 5278.97 4.98233 0.986236 0
M  V30 56013 H 5278.9 4.51826 2.70482 0
M  V30 56014 H 5281.39 3.43116 1.58366 0
M  V30 56015 H 5281.7 7.2557 2.66022 0
M  V30 56016 H 5280.05 6.52285 2.39894 0
M  V30 56017 H 5283.24 4.28475 1.88485 0
M  V30 56018 H 5283.41 6.02869 2.37598 0
M  V30 56019 N 5276.82 -0.775363 1.37207 0
M  V30 56020 C 5278.06 -1.53528 1.33419 0
M  V30 56021 C 5278.42 -1.92226 -0.081876 0
M  V30 56022 O 5277.71 -1.60938 -1.03968 0
M  V30 56023 C 5277.9 -2.81369 2.20377 0
M  V30 56024 C 5277.73 -2.55167 3.70297 0
M  V30 56025 C 5276.5 -2.49478 4.39419 0
M  V30 56026 C 5278.7 -2.23408 4.63242 0
M  V30 56027 N 5276.68 -2.15321 5.749 0
M  V30 56028 C 5278.05 -1.9936 5.87074 0
M  V30 56029 C 5280.11 -2.09533 4.51664 0
M  V30 56030 C 5278.81 -1.62838 7.00626 0
M  V30 56031 C 5280.84 -1.74411 5.65097 0
M  V30 56032 C 5280.2 -1.51221 6.87977 0
M  V30 56033 H 5276.3 -0.562259 0.543497 0
M  V30 56034 H 5278.88 -0.904889 1.72394 0
M  V30 56035 H 5277.05 -3.42253 1.83624 0
M  V30 56036 H 5278.79 -3.47233 2.07874 0
M  V30 56037 H 5275.54 -2.65208 3.9238 0
M  V30 56038 H 5275.97 -2.00949 6.46489 0
M  V30 56039 H 5280.61 -2.26147 3.57236 0
M  V30 56040 H 5278.33 -1.44963 7.94991 0
M  V30 56041 H 5281.91 -1.64339 5.58107 0
M  V30 56042 H 5280.79 -1.24445 7.74263 0
M  V30 56043 N 5278.3 -1.21718 -1.00112 0
M  V30 56044 C 5279.23 -0.937701 -2.09141 0
M  V30 56045 C 5280.24 0.080572 -1.626 0
M  V30 56046 O 5281.43 -0.152411 -1.77848 0
M  V30 56047 C 5278.53 -0.387154 -3.36681 0
M  V30 56048 C 5277.7 -1.46069 -4.1229 0
M  V30 56049 C 5276.76 -0.918688 -5.18118 0
M  V30 56050 O 5275.79 -1.60302 -5.46161 0
M  V30 56051 N 5276.99 0.264104 -5.79899 0
M  V30 56052 H 5279.75 -1.8763 -2.33699 0
M  V30 56053 H 5277.32 -1.12295 -1.16625 0
M  V30 56054 H 5279.31 -0.0100705 -4.04699 0
M  V30 56055 H 5277.88 0.456359 -3.09251 0
M  V30 56056 H 5277.1 -2.01145 -3.3902 0
M  V30 56057 H 5278.39 -2.18323 -4.59579 0
M  V30 56058 H 5277.78 0.837045 -5.59473 0
M  V30 56059 H 5276.34 0.582658 -6.49191 0
M  V30 56060 N 5279.77 1.19667 -1.02555 0
M  V30 56061 C 5280.71 2.21521 -0.548076 0
M  V30 56062 C 5281.68 1.57364 0.409294 0
M  V30 56063 O 5282.87 1.85639 0.327183 0
M  V30 56064 C 5280 3.38102 0.201256 0
M  V30 56065 C 5279.04 4.20599 -0.707034 0
M  V30 56066 S 5279.87 4.89058 -2.18133 0
M  V30 56067 C 5281.03 6.09053 -1.44241 0
M  V30 56068 H 5281.26 2.61679 -1.41108 0
M  V30 56069 H 5278.8 1.29861 -0.835199 0
M  V30 56070 H 5280.75 4.05676 0.627464 0
M  V30 56071 H 5279.42 2.96385 1.03994 0
M  V30 56072 H 5278.61 5.03836 -0.128731 0
M  V30 56073 H 5278.21 3.58325 -1.07141 0
M  V30 56074 H 5280.5 6.73586 -0.727212 0
M  V30 56075 H 5281.45 6.7136 -2.25126 0
M  V30 56076 H 5281.85 5.56595 -0.941371 0
M  V30 56077 N 5281.25 0.802969 1.3561 0
M  V30 56078 C 5282.21 0.216502 2.28175 0
M  V30 56079 C 5283.21 -0.594049 1.49425 0
M  V30 56080 O 5284.4 -0.413061 1.69232 0
M  V30 56081 C 5281.54 -0.698629 3.33664 0
M  V30 56082 H 5282.73 1.03286 2.81553 0
M  V30 56083 H 5280.28 0.573358 1.45404 0
M  V30 56084 H 5281.02 -1.53881 2.85466 0
M  V30 56085 H 5280.8 -0.119176 3.91919 0
M  V30 56086 H 5282.29 -1.1034 4.02759 0
M  V30 56087 N 5282.73 -1.47461 0.556154 0
M  V30 56088 C 5283.66 -2.32802 -0.180415 0
M  V30 56089 C 5284.64 -1.43724 -0.909798 0
M  V30 56090 O 5285.83 -1.72581 -0.890469 0
M  V30 56091 C 5282.96 -3.25482 -1.21155 0
M  V30 56092 C 5281.91 -4.23792 -0.598697 0
M  V30 56093 C 5281.24 -5.05789 -1.73439 0
M  V30 56094 C 5282.54 -5.20385 0.446842 0
M  V30 56095 H 5284.23 -2.94635 0.532059 0
M  V30 56096 H 5281.78 -1.41682 0.257317 0
M  V30 56097 H 5283.73 -3.84026 -1.735 0
M  V30 56098 H 5282.45 -2.61702 -1.95396 0
M  V30 56099 H 5281.11 -3.66473 -0.0965609 0
M  V30 56100 H 5280.76 -4.38414 -2.46581 0
M  V30 56101 H 5280.46 -5.72348 -1.33011 0
M  V30 56102 H 5281.98 -5.67191 -2.26111 0
M  V30 56103 H 5283.4 -5.73299 0.00950173 0
M  V30 56104 H 5281.79 -5.9514 0.769945 0
M  V30 56105 H 5282.86 -4.65928 1.34311 0
M  V30 56106 N 5284.21 -0.292554 -1.54861 0
M  V30 56107 C 5285.44 0.321575 -2.04082 0
M  V30 56108 C 5285.85 1.48708 -1.16972 0
M  V30 56109 O 5285.19 1.82754 -0.186154 0
M  V30 56110 C 5285.25 0.848556 -3.49342 0
M  V30 56111 C 5284.91 -0.190576 -4.56602 0
M  V30 56112 C 5285.91 -1.01613 -5.09873 0
M  V30 56113 C 5283.6 -0.329842 -5.01216 0
M  V30 56114 C 5285.59 -1.96697 -6.06291 0
M  V30 56115 C 5283.28 -1.28414 -5.97456 0
M  V30 56116 C 5284.28 -2.10119 -6.49876 0
M  V30 56117 O 5283.96 -3.03933 -7.44231 0
M  V30 56118 H 5283.7 0.0750744 -0.671818 0
M  V30 56119 H 5286.25 -0.427601 -2.009 0
M  V30 56120 H 5284.48 1.64811 -3.4982 0
M  V30 56121 H 5286.17 1.37765 -3.81806 0
M  V30 56122 H 5286.93 -0.919365 -4.76207 0
M  V30 56123 H 5282.81 0.296156 -4.60048 0
M  V30 56124 H 5286.36 -2.60511 -6.47132 0
M  V30 56125 H 5282.25 -1.38166 -6.3054 0
M  V30 56126 H 5283.02 -2.98814 -7.62005 0
M  V30 56127 N 5285.69 1.57587 -0.020125 0
M  V30 56128 C 5287.1 1.56019 0.336182 0
M  V30 56129 C 5287.3 1.02484 1.73491 0
M  V30 56130 O 5286.36 0.667573 2.43515 0
M  V30 56131 C 5287.67 3.0008 0.193007 0
M  V30 56132 C 5289.22 3.11864 0.266447 0
M  V30 56133 C 5289.69 4.57747 0.152165 0
M  V30 56134 N 5291.18 4.62726 0.209434 0
M  V30 56135 C 5291.92 5.73218 0.144653 0
M  V30 56136 N 5291.42 6.92794 0.0293052 0
M  V30 56137 N 5293.21 5.61751 0.197987 0
M  V30 56138 H 5285.36 1.90719 -0.934887 0
M  V30 56139 H 5287.62 0.876897 -0.360217 0
M  V30 56140 H 5287.33 3.43164 -0.770156 0
M  V30 56141 H 5287.2 3.64597 0.966901 0
M  V30 56142 H 5289.59 2.68698 1.22006 0
M  V30 56143 H 5289.67 2.50086 -0.537668 0
M  V30 56144 H 5289.31 5.01592 -0.797994 0
M  V30 56145 H 5289.24 5.17495 0.975028 0
M  V30 56146 H 5291.74 3.76715 0.299097 0
M  V30 56147 H 5292.05 7.72799 -0.0136788 0
M  V30 56148 H 5290.39 6.95 -0.0053517 0
M  V30 56149 H 5293.58 4.67223 0.286438 0
M  V30 56150 H 5293.76 6.4784 0.144038 0
M  V30 56151 N 5287.16 -0.252911 1.55557 0
M  V30 56152 C 5288.41 -0.97985 1.76758 0
M  V30 56153 C 5288.73 -1.86081 0.583009 0
M  V30 56154 O 5288 -1.91743 -0.401429 0
M  V30 56155 H 5286.58 -0.364782 0.651877 0
M  V30 56156 H 5289.24 -0.272305 1.92988 0
M  V30 56157 H 5288.34 -1.60508 2.67663 0
M  V30 56158 N 5288.64 -1.48833 -0.518315 0
M  V30 56159 C 5289.89 -1.57677 -1.27538 0
M  V30 56160 C 5290.22 -0.254982 -1.92519 0
M  V30 56161 O 5289.5 0.740044 -1.79871 0
M  V30 56162 C 5289.78 -2.72353 -2.35575 0
M  V30 56163 C 5289.63 -4.14273 -1.75209 0
M  V30 56164 C 5290.95 -2.82738 -3.37264 0
M  V30 56165 H 5288.07 -0.573943 -0.462341 0
M  V30 56166 H 5290.71 -1.81052 -0.576204 0
M  V30 56167 H 5288.86 -2.52553 -2.95211 0
M  V30 56168 H 5290.53 -4.45544 -1.19535 0
M  V30 56169 H 5288.78 -4.20728 -1.05691 0
M  V30 56170 H 5289.45 -4.90354 -2.5349 0
M  V30 56171 H 5291.92 -3.00709 -2.87599 0
M  V30 56172 H 5290.8 -3.64684 -4.1024 0
M  V30 56173 H 5291.06 -1.91374 -3.98533 0
M  V30 56174 N 5290.12 0.768075 -1.37617 0
M  V30 56175 C 5291.53 1.34458 -1.2953 0
M  V30 56176 C 5291.88 1.96122 0.0554479 0
M  V30 56177 O 5291.01 1.94072 0.957337 0
M  V30 56178 C 5291.6 2.44466 -2.34567 0
M  V30 56179 C 5290.16 2.97875 -2.30103 0
M  V30 56180 C 5289.31 1.71124 -2.18202 0
M  V30 56181 H 5292.26 0.568051 -1.48185 0
M  V30 56182 H 5292.28 3.2404 -1.99445 0
M  V30 56183 H 5291.79 1.99556 -3.32865 0
M  V30 56184 H 5289.89 3.47151 -1.35341 0
M  V30 56185 H 5290.01 3.53239 -3.23665 0
M  V30 56186 H 5288.37 1.94191 -1.64809 0
M  V30 56187 H 5289.15 1.28312 -3.18419 0
M  V30 56188 N 5291.6 1.22247 0.994655 0
M  V30 56189 C 5292.85 1.0439 1.73052 0
M  V30 56190 C 5293.17 -0.422138 1.90376 0
M  V30 56191 O 5292.44 -1.30378 1.46213 0
M  V30 56192 H 5291.02 0.383285 0.641172 0
M  V30 56193 H 5293.68 1.5373 1.19805 0
M  V30 56194 H 5292.77 1.52031 2.72567 0
M  V30 56195 N 5293.08 -1.19122 1.03188 0
M  V30 56196 C 5294.49 -1.40907 0.749496 0
M  V30 56197 C 5294.69 -1.90222 -0.664662 0
M  V30 56198 O 5293.75 -2.0809 -1.4302 0
M  V30 56199 C 5295.06 -2.41755 1.78816 0
M  V30 56200 C 5296.61 -2.55497 1.80805 0
M  V30 56201 C 5297.08 -3.59602 2.83638 0
M  V30 56202 N 5298.58 -3.671 2.82474 0
M  V30 56203 C 5299.31 -4.47353 3.58696 0
M  V30 56204 N 5298.81 -5.31287 4.44642 0
M  V30 56205 N 5300.6 -4.42032 3.47224 0
M  V30 56206 H 5292.75 -0.854331 1.94461 0
M  V30 56207 H 5295.01 -0.437723 0.840894 0
M  V30 56208 H 5294.72 -2.12549 2.80206 0
M  V30 56209 H 5294.59 -3.40975 1.61295 0
M  V30 56210 H 5296.98 -2.84024 0.800903 0
M  V30 56211 H 5297.06 -1.5642 2.02401 0
M  V30 56212 H 5296.71 -3.31816 3.84526 0
M  V30 56213 H 5296.64 -4.58336 2.59299 0
M  V30 56214 H 5299.13 -3.07158 2.20141 0
M  V30 56215 H 5299.44 -5.8965 4.99533 0
M  V30 56216 H 5297.78 -5.30737 4.48713 0
M  V30 56217 H 5300.98 -3.75504 2.7949 0
M  V30 56218 H 5301.15 -5.04336 4.06877 0
M  V30 56219 N 5294.55 -0.810149 -1.35183 0
M  V30 56220 C 5295.46 -0.224647 -2.33522 0
M  V30 56221 C 5296.48 0.63423 -1.62029 0
M  V30 56222 O 5297.66 0.545142 -1.93882 0
M  V30 56223 C 5294.72 0.614199 -3.41216 0
M  V30 56224 C 5293.78 -0.265586 -4.28478 0
M  V30 56225 C 5293.02 0.533319 -5.31029 0
M  V30 56226 O 5293.24 1.76771 -5.42317 0
M  V30 56227 O 5292.17 -0.0776689 -6.0185 0
M  V30 56228 H 5296 -1.03825 -2.85401 0
M  V30 56229 H 5293.58 -0.572012 -1.38016 0
M  V30 56230 H 5295.47 1.09187 -4.07009 0
M  V30 56231 H 5294.14 1.40535 -2.91602 0
M  V30 56232 H 5293.05 -0.790472 -3.65653 0
M  V30 56233 H 5294.38 -1.02076 -4.81499 0
M  V30 56234 N 5296.03 1.47164 -0.563966 0
M  V30 56235 C 5296.94 2.33886 0.182895 0
M  V30 56236 C 5297.96 1.48608 0.90508 0
M  V30 56237 O 5299.13 1.81521 0.872463 0
M  V30 56238 C 5296.2 3.25437 1.19547 0
M  V30 56239 C 5295.26 4.26608 0.479979 0
M  V30 56240 C 5294.49 5.13785 1.44431 0
M  V30 56241 O 5294.72 5.0354 2.67961 0
M  V30 56242 O 5293.65 5.94112 0.965112 0
M  V30 56243 H 5297.48 2.99064 -0.528649 0
M  V30 56244 H 5295.06 1.45833 -0.32452 0
M  V30 56245 H 5296.94 3.8197 1.77979 0
M  V30 56246 H 5295.62 2.6288 1.88881 0
M  V30 56247 H 5294.53 3.73816 -0.145715 0
M  V30 56248 H 5295.86 4.91899 -0.172041 0
M  V30 56249 N 5297.51 0.300763 1.54704 0
M  V30 56250 C 5298.79 -0.361689 1.92227 0
M  V30 56251 C 5299.17 -1.7171 1.22796 0
M  V30 56252 O 5298.52 -2.25588 0.363621 0
M  V30 56253 C 5298.73 -0.476577 3.45731 0
M  V30 56254 C 5300.07 -0.747553 4.17967 0
M  V30 56255 O 5301.1 -0.560398 3.51764 0
M  V30 56256 O 5299.96 -1.10705 5.3517 0
M  V30 56257 H 5297.05 -0.202185 0.801904 0
M  V30 56258 H 5299.6 0.348804 1.66077 0
M  V30 56259 H 5298.37 0.476269 3.88391 0
M  V30 56260 H 5297.99 -1.23555 3.77915 0
M  V30 56261 N 5298.99 -1.57574 0.028482 0
M  V30 56262 C 5299.95 -2.091 -0.938617 0
M  V30 56263 C 5300.95 -1.00593 -1.2545 0
M  V30 56264 O 5302.14 -1.26754 -1.19495 0
M  V30 56265 C 5299.27 -2.55632 -2.25533 0
M  V30 56266 H 5300.47 -2.9583 -0.492376 0
M  V30 56267 H 5298.02 -1.5475 -0.21954 0
M  V30 56268 H 5298.75 -1.72228 -2.74787 0
M  V30 56269 H 5298.54 -3.34903 -2.03917 0
M  V30 56270 H 5300.03 -2.95722 -2.94853 0
M  V30 56271 N 5300.47 0.244658 -1.55689 0
M  V30 56272 C 5301.74 0.995348 -1.68381 0
M  V30 56273 C 5302.12 2.03286 -0.569021 0
M  V30 56274 O 5301.47 2.24471 0.42722 0
M  V30 56275 C 5301.68 1.62667 -3.08773 0
M  V30 56276 C 5303.03 2.12767 -3.67444 0
M  V30 56277 O 5304.05 1.72603 -3.11587 0
M  V30 56278 O 5302.91 2.86519 -4.6537 0
M  V30 56279 H 5300.01 0.463452 -0.684939 0
M  V30 56280 H 5302.55 0.238267 -1.68019 0
M  V30 56281 H 5301.32 0.876335 -3.81361 0
M  V30 56282 H 5300.95 2.44989 -3.13155 0
M  V30 56283 N 5301.94 1.49106 0.510415 0
M  V30 56284 C 5303.22 1.48614 1.27174 0
M  V30 56285 C 5303.6 0.208611 2.10067 0
M  V30 56286 O 5302.95 -0.80926 2.1369 0
M  V30 56287 C 5303.16 2.75961 2.13651 0
M  V30 56288 C 5304.51 3.25076 2.73149 0
M  V30 56289 O 5305.53 2.77013 2.23925 0
M  V30 56290 O 5304.39 4.0876 3.62736 0
M  V30 56291 H 5301.48 0.594394 0.574999 0
M  V30 56292 H 5304.03 1.6136 0.525459 0
M  V30 56293 H 5302.8 3.60439 1.52312 0
M  V30 56294 H 5302.43 2.6603 2.95489 0
M  V30 56295 N 5303.42 -0.760766 1.38022 0
M  V30 56296 C 5304.83 -1.33769 1.30241 0
M  V30 56297 C 5305.18 -1.96148 -0.0450463 0
M  V30 56298 O 5304.31 -1.94577 -0.947032 0
M  V30 56299 C 5304.9 -2.43219 2.3586 0
M  V30 56300 C 5303.46 -2.9665 2.3168 0
M  V30 56301 C 5302.61 -1.69964 2.19106 0
M  V30 56302 H 5305.56 -0.560184 1.48484 0
M  V30 56303 H 5305.58 -3.22978 2.01161 0
M  V30 56304 H 5305.09 -1.97788 3.33918 0
M  V30 56305 H 5303.2 -3.46428 1.3718 0
M  V30 56306 H 5303.31 -3.51518 3.25534 0
M  V30 56307 H 5301.67 -1.93314 1.65836 0
M  V30 56308 H 5302.46 -1.26622 3.19095 0
M  V30 56309 N 5304.9 -1.22773 -0.988158 0
M  V30 56310 C 5305.81 -1.01852 -2.11337 0
M  V30 56311 C 5306.83 0.0346325 -1.73966 0
M  V30 56312 O 5308 -0.159131 -2.0077 0
M  V30 56313 C 5305.07 -0.603957 -3.41399 0
M  V30 56314 C 5304.13 -1.73127 -3.92843 0
M  V30 56315 C 5303.36 -1.33639 -5.16697 0
M  V30 56316 O 5303.58 -0.217241 -5.69986 0
M  V30 56317 O 5302.52 -2.15463 -5.62014 0
M  V30 56318 H 5306.34 -1.96135 -2.31872 0
M  V30 56319 H 5303.93 -1.01409 -1.09711 0
M  V30 56320 H 5305.81 -0.383343 -4.19653 0
M  V30 56321 H 5304.49 0.309969 -3.22212 0
M  V30 56322 H 5303.39 -2.00645 -3.15741 0
M  V30 56323 H 5304.73 -2.62323 -4.1647 0
M  V30 56324 N 5306.38 1.18573 -1.03818 0
M  V30 56325 C 5307.33 2.22118 -0.627066 0
M  V30 56326 C 5308.3 1.62066 0.363855 0
M  V30 56327 O 5309.48 1.89042 0.258403 0
M  V30 56328 C 5306.62 3.45099 0.00638001 0
M  V30 56329 C 5305.73 4.195 -1.03171 0
M  V30 56330 C 5304.87 5.2993 -0.367039 0
M  V30 56331 C 5303.91 5.96099 -1.39039 0
M  V30 56332 N 5303.05 6.98073 -0.75087 0
M  V30 56333 H 5307.89 2.5664 -1.51458 0
M  V30 56334 H 5305.42 1.26082 -0.757746 0
M  V30 56335 H 5307.38 4.15364 0.390962 0
M  V30 56336 H 5306.01 3.11204 0.857427 0
M  V30 56337 H 5305.06 3.48087 -1.53426 0
M  V30 56338 H 5306.37 4.64837 -1.80909 0
M  V30 56339 H 5305.53 6.06657 0.0718846 0
M  V30 56340 H 5304.27 4.85689 0.44246 0
M  V30 56341 H 5303.27 5.18115 -1.83948 0
M  V30 56342 H 5304.5 6.42424 -2.20155 0
M  V30 56343 H 5302.44 6.55989 0.0383675 0
M  V30 56344 H 5302.36 7.4165 -1.466 0
M  V30 56345 H 5303.63 7.78774 -0.33626 0
M  V30 56346 N 5307.86 0.817307 1.34751 0
M  V30 56347 C 5309.11 0.399149 1.97711 0
M  V30 56348 C 5309.42 -1.04197 1.65537 0
M  V30 56349 O 5310.63 -1.56376 2.21943 0
M  V30 56350 C 5309.08 0.662758 3.53745 0
M  V30 56351 C 5308.69 2.11713 3.94819 0
M  V30 56352 C 5310.43 0.310489 4.23363 0
M  V30 56353 C 5308.34 2.32592 5.43742 0
M  V30 56354 H 5307.27 0.145514 0.739825 0
M  V30 56355 H 5309.92 1.00287 1.53671 0
M  V30 56356 H 5308.3 -0.011058 3.95998 0
M  V30 56357 H 5309.48 2.82964 3.63687 0
M  V30 56358 H 5307.79 2.43029 3.38121 0
M  V30 56359 H 5310.39 0.444398 5.3285 0
M  V30 56360 H 5310.73 -0.74445 4.0959 0
M  V30 56361 H 5311.27 0.938654 3.86567 0
M  V30 56362 H 5308 3.36571 5.62495 0
M  V30 56363 H 5307.52 1.65878 5.76407 0
M  V30 56364 H 5309.2 2.14672 6.10348 0
M  V30 56365 N 5309.34 -1.46863 0.571763 0
M  V30 56366 C 5310.58 -2.0273 0.0532571 0
M  V30 56367 C 5310.91 -1.44358 -1.29902 0
M  V30 56368 O 5310.19 -0.604553 -1.84866 0
M  V30 56369 C 5310.47 -3.60092 -0.0242565 0
M  V30 56370 C 5310.33 -4.28869 1.35614 0
M  V30 56371 C 5311.64 -4.33997 -0.73041 0
M  V30 56372 H 5308.76 -0.736706 0.0208277 0
M  V30 56373 H 5311.41 -1.7513 0.736856 0
M  V30 56374 H 5309.56 -3.83738 -0.60643 0
M  V30 56375 H 5311.23 -4.1652 1.98264 0
M  V30 56376 H 5309.47 -3.88657 1.92687 0
M  V30 56377 H 5310.14 -5.37556 1.25448 0
M  V30 56378 H 5312.62 -4.1543 -0.235952 0
M  V30 56379 H 5311.49 -5.43702 -0.753645 0
M  V30 56380 H 5311.75 -4.04263 -1.78952 0
M  V30 56381 N 5310.81 -0.308963 -1.54542 0
M  V30 56382 C 5312.23 0.0441713 -1.59539 0
M  V30 56383 C 5312.43 1.51739 -1.3258 0
M  V30 56384 O 5311.49 2.2713 -1.1031 0
M  V30 56385 C 5312.8 -0.360931 -2.98526 0
M  V30 56386 C 5314.35 -0.310361 -3.11457 0
M  V30 56387 C 5314.82 -0.690405 -4.52766 0
M  V30 56388 N 5316.31 -0.643246 -4.58712 0
M  V30 56389 C 5317.05 -0.909682 -5.66138 0
M  V30 56390 N 5316.54 -1.2425 -6.81567 0
M  V30 56391 N 5318.34 -0.836214 -5.55845 0
M  V30 56392 H 5310.49 -1.26899 -1.70325 0
M  V30 56393 H 5312.75 -0.515014 -0.795905 0
M  V30 56394 H 5312.46 -1.3868 -3.23204 0
M  V30 56395 H 5312.33 0.28143 -3.76149 0
M  V30 56396 H 5314.72 0.706274 -2.86524 0
M  V30 56397 H 5314.8 -0.987456 -2.35972 0
M  V30 56398 H 5314.44 -1.70489 -4.78431 0
M  V30 56399 H 5314.37 0.00884562 -5.26599 0
M  V30 56400 H 5316.86 -0.39727 -3.75806 0
M  V30 56401 H 5317.18 -1.43157 -7.59425 0
M  V30 56402 H 5315.52 -1.28062 -6.831 0
M  V30 56403 H 5318.71 -0.5758 -4.64545 0
M  V30 56404 H 5318.89 -1.04722 -6.39482 0
M  V30 56405 N 5312.29 1.57557 -0.0368381 0
M  V30 56406 C 5313.71 1.56367 0.319615 0
M  V30 56407 C 5313.91 1.04319 1.72394 0
M  V30 56408 O 5312.96 0.693363 2.42794 0
M  V30 56409 C 5314.28 3.00268 0.161168 0
M  V30 56410 C 5315.82 3.12129 0.233355 0
M  V30 56411 C 5316.3 4.57883 0.103606 0
M  V30 56412 N 5317.79 4.62922 0.160344 0
M  V30 56413 C 5318.53 5.73339 0.0838478 0
M  V30 56414 N 5318.02 6.92786 -0.0441765 0
M  V30 56415 N 5319.81 5.6193 0.138394 0
M  V30 56416 H 5311.97 1.89716 -0.955063 0
M  V30 56417 H 5314.23 0.873027 -0.369497 0
M  V30 56418 H 5313.93 3.42328 -0.80651 0
M  V30 56419 H 5313.81 3.65602 0.928176 0
M  V30 56420 H 5316.2 2.69977 1.1915 0
M  V30 56421 H 5316.28 2.49501 -0.564163 0
M  V30 56422 H 5315.92 5.00717 -0.851149 0
M  V30 56423 H 5315.85 5.185 0.920086 0
M  V30 56424 H 5318.34 3.77011 0.259124 0
M  V30 56425 H 5318.65 7.72741 -0.0956437 0
M  V30 56426 H 5317 6.94955 -0.0790654 0
M  V30 56427 H 5320.19 4.675 0.236867 0
M  V30 56428 H 5320.36 6.47956 0.0753182 0
M  V30 56429 N 5313.77 -0.236398 1.55817 0
M  V30 56430 C 5315.02 -0.964376 1.78403 0
M  V30 56431 C 5315.35 -1.84571 0.603933 0
M  V30 56432 O 5314.62 -1.90397 -0.397406 0
M  V30 56433 C 5314.91 -1.81597 3.10957 0
M  V30 56434 C 5314.76 -0.962129 4.39389 0
M  V30 56435 C 5316.08 -2.79653 3.39826 0
M  V30 56436 H 5313.2 -0.349169 0.649038 0
M  V30 56437 H 5315.84 -0.23418 1.88551 0
M  V30 56438 H 5313.99 -2.43853 3.02437 0
M  V30 56439 H 5315.66 -0.357458 4.59913 0
M  V30 56440 H 5313.9 -0.266909 4.32978 0
M  V30 56441 H 5314.58 -1.59203 5.28544 0
M  V30 56442 H 5317.05 -2.27534 3.48378 0
M  V30 56443 H 5315.93 -3.36352 4.33772 0
M  V30 56444 H 5316.19 -3.56647 2.61257 0
M  V30 56445 N 5315.25 -1.49374 -0.5025 0
M  V30 56446 C 5316.18 -1.62051 -1.62087 0
M  V30 56447 C 5317.19 -0.503275 -1.54826 0
M  V30 56448 O 5318.38 -0.775265 -1.60785 0
M  V30 56449 C 5315.48 -1.55981 -3.0087 0
M  V30 56450 C 5314.65 -2.83212 -3.33331 0
M  V30 56451 C 5313.71 -2.70216 -4.51519 0
M  V30 56452 O 5312.74 -3.44148 -4.53377 0
M  V30 56453 N 5313.94 -1.81661 -5.51343 0
M  V30 56454 H 5316.71 -2.58506 -1.5164 0
M  V30 56455 H 5314.27 -1.46444 -0.690344 0
M  V30 56456 H 5316.26 -1.44943 -3.77854 0
M  V30 56457 H 5314.83 -0.673902 -3.0525 0
M  V30 56458 H 5314.05 -3.08612 -2.45259 0
M  V30 56459 H 5315.34 -3.67564 -3.51816 0
M  V30 56460 H 5314.74 -1.20848 -5.52641 0
M  V30 56461 H 5313.29 -1.76546 -6.27435 0
M  V30 56462 N 5316.73 0.753436 -1.38424 0
M  V30 56463 C 5317.64 1.89792 -1.37899 0
M  V30 56464 C 5318.65 1.71796 -0.276083 0
M  V30 56465 O 5319.83 1.94717 -0.514532 0
M  V30 56466 C 5316.89 3.25161 -1.20296 0
M  V30 56467 C 5315.95 3.55682 -2.40392 0
M  V30 56468 C 5315.19 4.84593 -2.23619 0
M  V30 56469 O 5315.41 5.56981 -1.22998 0
M  V30 56470 O 5314.34 5.14594 -3.12212 0
M  V30 56471 H 5318.17 1.93189 -2.34333 0
M  V30 56472 H 5315.75 0.898733 -1.19345 0
M  V30 56473 H 5317.64 4.06095 -1.12539 0
M  V30 56474 H 5316.31 3.22576 -0.269465 0
M  V30 56475 H 5315.22 2.7491 -2.53723 0
M  V30 56476 H 5316.55 3.63029 -3.32372 0
M  V30 56477 N 5318.2 1.23295 0.981634 0
M  V30 56478 C 5319.45 1.06588 1.72531 0
M  V30 56479 C 5319.78 -0.396472 1.9011 0
M  V30 56480 O 5319.06 -1.29358 1.45247 0
M  V30 56481 C 5319.34 1.79051 3.1243 0
M  V30 56482 C 5319.19 3.32951 3.02429 0
M  V30 56483 C 5320.51 1.552 4.11826 0
M  V30 56484 H 5317.63 0.388607 0.626222 0
M  V30 56485 H 5320.27 1.51783 1.14288 0
M  V30 56486 H 5318.42 1.40632 3.62153 0
M  V30 56487 H 5320.1 3.80884 2.6024 0
M  V30 56488 H 5318.34 3.62048 2.38964 0
M  V30 56489 H 5319.01 3.78841 4.01477 0
M  V30 56490 H 5321.49 1.88594 3.70906 0
M  V30 56491 H 5320.36 2.0838 5.07808 0
M  V30 56492 H 5320.62 0.48708 4.39409 0
M  V30 56493 N 5319.68 -1.1802 1.04446 0
M  V30 56494 C 5320.91 -1.9257 0.770164 0
M  V30 56495 C 5321.33 -1.75873 -0.667107 0
M  V30 56496 O 5320.69 -1.07141 -1.46255 0
M  V30 56497 C 5320.74 -3.419 1.14614 0
M  V30 56498 O 5319.84 -4.1149 0.273857 0
M  V30 56499 H 5319.18 -0.600626 0.283097 0
M  V30 56500 H 5321.71 -1.4964 1.39531 0
M  V30 56501 H 5321.72 -3.92619 1.1097 0
M  V30 56502 H 5320.4 -3.53374 2.19316 0
M  V30 56503 H 5318.97 -3.71057 0.370255 0
M  V30 56504 N 5321.16 -0.824441 -1.34316 0
M  V30 56505 C 5322.12 -0.252776 -2.27802 0
M  V30 56506 C 5323.12 0.570201 -1.50351 0
M  V30 56507 O 5324.31 0.386085 -1.69868 0
M  V30 56508 C 5321.45 0.645457 -3.34734 0
M  V30 56509 H 5322.64 -1.07752 -2.79874 0
M  V30 56510 H 5320.19 -0.596418 -1.44473 0
M  V30 56511 H 5320.93 1.4932 -2.87878 0
M  V30 56512 H 5320.71 0.05681 -3.92059 0
M  V30 56513 H 5322.2 1.03918 -4.04464 0
M  V30 56514 N 5322.64 1.46557 -0.579543 0
M  V30 56515 C 5323.88 2.02699 -0.0640076 0
M  V30 56516 C 5324.22 1.45045 1.29134 0
M  V30 56517 O 5323.49 0.614349 1.84543 0
M  V30 56518 C 5323.78 3.601 0.00515959 0
M  V30 56519 C 5323.63 4.28144 -1.37887 0
M  V30 56520 C 5324.95 4.34378 0.707384 0
M  V30 56521 H 5322.07 0.736585 -0.0247344 0
M  V30 56522 H 5324.71 1.74737 -0.746133 0
M  V30 56523 H 5322.86 3.84054 0.586071 0
M  V30 56524 H 5324.53 4.15463 -2.0047 0
M  V30 56525 H 5322.77 3.87629 -1.94746 0
M  V30 56526 H 5323.44 5.36883 -1.28297 0
M  V30 56527 H 5325.92 4.1555 0.213918 0
M  V30 56528 H 5324.8 5.44094 0.724801 0
M  V30 56529 H 5325.06 4.05206 1.76806 0
M  V30 56530 N 5324.12 0.317154 1.54376 0
M  V30 56531 C 5325.05 -0.544543 2.27062 0
M  V30 56532 C 5326.03 -1.12465 1.27615 0
M  V30 56533 O 5327.21 -1.15098 1.56417 0
M  V30 56534 C 5324.34 -1.70869 3.02359 0
M  V30 56535 C 5323.3 -1.25819 4.09089 0
M  V30 56536 C 5322.62 -2.50877 4.72191 0
M  V30 56537 C 5323.92 -0.377692 5.20933 0
M  V30 56538 H 5325.62 0.0617424 2.99336 0
M  V30 56539 H 5323.16 0.0311354 1.43966 0
M  V30 56540 H 5325.12 -2.31774 3.51936 0
M  V30 56541 H 5323.84 -2.34147 2.2769 0
M  V30 56542 H 5322.5 -0.672101 3.60386 0
M  V30 56543 H 5322.15 -3.12504 3.94145 0
M  V30 56544 H 5321.85 -2.21428 5.44282 0
M  V30 56545 H 5323.37 -3.12556 5.24539 0
M  V30 56546 H 5324.78 -0.892857 5.66305 0
M  V30 56547 H 5323.18 -0.176263 5.99841 0
M  V30 56548 H 5324.25 0.593112 4.81259 0
M  V30 56549 N 5325.59 -1.57535 0.0451932 0
M  V30 56550 C 5326.82 -1.96478 -0.638745 0
M  V30 56551 C 5327.23 -0.921114 -1.65264 0
M  V30 56552 O 5326.58 0.103779 -1.83407 0
M  V30 56553 C 5326.64 -3.31634 -1.38776 0
M  V30 56554 C 5326.3 -4.53912 -0.530385 0
M  V30 56555 C 5327.3 -5.19511 0.201046 0
M  V30 56556 C 5324.98 -5.00161 -0.463066 0
M  V30 56557 C 5326.98 -6.29692 0.9883 0
M  V30 56558 C 5324.66 -6.1022 0.32788 0
M  V30 56559 C 5325.66 -6.74846 1.05226 0
M  V30 56560 O 5325.35 -7.82789 1.83021 0
M  V30 56561 H 5325.08 -0.651632 -0.179867 0
M  V30 56562 H 5327.64 -2.05126 0.106103 0
M  V30 56563 H 5325.87 -3.19524 -2.17811 0
M  V30 56564 H 5327.56 -3.55367 -1.96136 0
M  V30 56565 H 5328.32 -4.84741 0.158469 0
M  V30 56566 H 5324.2 -4.49654 -1.01647 0
M  V30 56567 H 5327.74 -6.80066 1.55421 0
M  V30 56568 H 5323.64 -6.44427 0.372117 0
M  V30 56569 H 5324.41 -7.99536 1.75168 0
M  V30 56570 N 5327.07 0.228132 -1.5594 0
M  V30 56571 C 5328.3 0.969147 -1.82459 0
M  V30 56572 C 5328.71 1.78711 -0.621196 0
M  V30 56573 O 5328.05 1.78843 0.419631 0
M  V30 56574 C 5328.12 1.94078 -3.02612 0
M  V30 56575 C 5327.78 1.30796 -4.37883 0
M  V30 56576 C 5328.78 0.701094 -5.15151 0
M  V30 56577 C 5326.46 1.3217 -4.84599 0
M  V30 56578 C 5328.46 0.116407 -6.37294 0
M  V30 56579 C 5326.14 0.733162 -6.06686 0
M  V30 56580 C 5327.14 0.131564 -6.82873 0
M  V30 56581 O 5326.83 -0.447831 -8.02652 0
M  V30 56582 H 5326.56 0.28993 -0.610669 0
M  V30 56583 H 5329.11 0.250505 -2.03867 0
M  V30 56584 H 5327.34 2.69823 -2.77006 0
M  V30 56585 H 5329.03 2.54679 -3.16059 0
M  V30 56586 H 5329.8 0.682853 -4.80169 0
M  V30 56587 H 5325.68 1.77934 -4.25277 0
M  V30 56588 H 5329.22 -0.353784 -6.96702 0
M  V30 56589 H 5325.12 0.748793 -6.41142 0
M  V30 56590 H 5325.89 -0.341511 -8.17787 0
M  V30 56591 N 5328.55 1.49639 0.494571 0
M  V30 56592 C 5329.48 1.69698 1.6039 0
M  V30 56593 C 5330.46 0.545705 1.61109 0
M  V30 56594 O 5331.65 0.782264 1.77748 0
M  V30 56595 C 5328.78 1.76945 2.98844 0
M  V30 56596 C 5327.73 2.91926 3.12991 0
M  V30 56597 C 5327.06 2.84292 4.5286 0
M  V30 56598 C 5328.36 4.32774 2.92411 0
M  V30 56599 H 5330.05 2.62575 1.43857 0
M  V30 56600 H 5327.6 1.26358 0.690635 0
M  V30 56601 H 5329.55 1.89564 3.76356 0
M  V30 56602 H 5328.27 0.80672 3.1648 0
M  V30 56603 H 5326.93 2.7892 2.37906 0
M  V30 56604 H 5326.58 1.85914 4.67381 0
M  V30 56605 H 5326.28 3.61468 4.63265 0
M  V30 56606 H 5327.8 2.98927 5.32424 0
M  V30 56607 H 5329.22 4.46428 3.59687 0
M  V30 56608 H 5327.62 5.11221 3.14282 0
M  V30 56609 H 5328.69 4.46772 1.88475 0
M  V30 56610 N 5330.03 -0.746085 1.38821 0
M  V30 56611 C 5331.31 -1.49648 1.25956 0
M  V30 56612 C 5331.69 -2.10663 -0.135759 0
M  V30 56613 O 5331.03 -1.97686 -1.14597 0
M  V30 56614 C 5331.24 -2.55681 2.37546 0
M  V30 56615 C 5332.59 -3.22375 2.76332 0
M  V30 56616 O 5333.62 -2.6599 2.36913 0
M  V30 56617 O 5332.47 -4.24378 3.44334 0
M  V30 56618 H 5329.57 -0.664002 0.492981 0
M  V30 56619 H 5332.11 -0.780855 1.50668 0
M  V30 56620 H 5330.89 -2.08897 3.30874 0
M  V30 56621 H 5330.51 -3.34816 2.14439 0
M  V30 56622 N 5331.51 -1.23814 -0.975081 0
M  V30 56623 C 5332.44 -0.981852 -2.07105 0
M  V30 56624 C 5333.45 0.0460639 -1.62735 0
M  V30 56625 O 5334.64 -0.190101 -1.77485 0
M  V30 56626 C 5331.74 -0.458482 -3.35784 0
M  V30 56627 C 5330.91 -1.54781 -4.09099 0
M  V30 56628 C 5329.97 -1.02838 -5.16053 0
M  V30 56629 O 5329 -1.7185 -5.42638 0
M  V30 56630 N 5330.2 0.141039 -5.80329 0
M  V30 56631 H 5332.97 -1.92545 -2.29666 0
M  V30 56632 H 5330.53 -1.14744 -1.14217 0
M  V30 56633 H 5332.52 -0.0959109 -4.04586 0
M  V30 56634 H 5331.09 0.390659 -3.10149 0
M  V30 56635 H 5330.31 -2.08291 -3.34677 0
M  V30 56636 H 5331.6 -2.28022 -4.54845 0
M  V30 56637 H 5330.99 0.718184 -5.61123 0
M  V30 56638 H 5329.55 0.444824 -6.5028 0
M  V30 56639 N 5332.98 1.17465 -1.0507 0
M  V30 56640 C 5334.21 1.91618 -0.780401 0
M  V30 56641 C 5334.63 1.76748 0.663755 0
M  V30 56642 O 5333.98 1.10382 1.45335 0
M  V30 56643 C 5334.04 3.42719 -1.15004 0
M  V30 56644 O 5333.76 3.5713 -2.53751 0
M  V30 56645 C 5335.26 4.33949 -0.905702 0
M  V30 56646 H 5332.48 0.608012 -0.283836 0
M  V30 56647 H 5335.02 1.48965 -1.40105 0
M  V30 56648 H 5333.18 3.83122 -0.574165 0
M  V30 56649 H 5333.59 4.5074 -2.68204 0
M  V30 56650 H 5335.06 5.38483 -1.21409 0
M  V30 56651 H 5335.54 4.38912 0.159141 0
M  V30 56652 H 5336.15 3.99258 -1.46536 0
M  V30 56653 N 5334.46 0.831553 1.33877 0
M  V30 56654 C 5335.37 0.26177 2.33135 0
M  V30 56655 C 5336.39 -0.608372 1.63018 0
M  V30 56656 O 5337.56 -0.514229 1.94725 0
M  V30 56657 C 5334.63 -0.559837 3.4215 0
M  V30 56658 C 5333.69 0.333719 4.28001 0
M  V30 56659 C 5332.92 -0.44877 5.3181 0
M  V30 56660 O 5333.15 -1.68121 5.45061 0
M  V30 56661 O 5332.08 0.173408 6.0165 0
M  V30 56662 H 5335.91 1.08353 2.83714 0
M  V30 56663 H 5333.49 0.593897 1.37088 0
M  V30 56664 H 5335.37 -1.02698 4.08694 0
M  V30 56665 H 5334.05 -1.35878 2.93801 0
M  V30 56666 H 5332.96 0.848544 3.64349 0
M  V30 56667 H 5334.29 1.09724 4.79814 0
M  V30 56668 N 5335.94 -1.46248 0.587307 0
M  V30 56669 C 5336.89 -2.27407 -0.164313 0
M  V30 56670 C 5337.88 -1.36141 -0.85758 0
M  V30 56671 O 5339.07 -1.60282 -0.750916 0
M  V30 56672 C 5336.2 -3.22589 -1.17436 0
M  V30 56673 C 5335.28 -4.21341 -0.482973 0
M  V30 56674 N 5335.67 -5.03667 0.464027 0
M  V30 56675 C 5333.97 -4.39933 -0.733135 0
M  V30 56676 C 5334.67 -5.75179 0.868536 0
M  V30 56677 N 5333.65 -5.43168 0.216678 0
M  V30 56678 H 5337.45 -2.88451 0.563338 0
M  V30 56679 H 5334.96 -1.57154 0.409443 0
M  V30 56680 H 5336.96 -3.79445 -1.72705 0
M  V30 56681 H 5335.62 -2.63105 -1.90278 0
M  V30 56682 H 5336.63 -5.11046 0.839782 0
M  V30 56683 H 5333.31 -3.91594 -1.44778 0
M  V30 56684 H 5334.7 -6.51365 1.64844 0
M  V30 56685 N 5337.42 -0.325336 -1.54205 0
M  V30 56686 C 5338.83 0.16236 -1.85993 0
M  V30 56687 C 5339.18 1.51478 -1.24695 0
M  V30 56688 O 5338.31 2.09198 -0.553652 0
M  V30 56689 C 5338.9 0.301381 -3.37457 0
M  V30 56690 C 5337.46 0.7333 -3.69188 0
M  V30 56691 C 5336.61 -0.143928 -2.76926 0
M  V30 56692 H 5339.56 -0.54556 -1.49028 0
M  V30 56693 H 5339.58 1.13199 -3.63272 0
M  V30 56694 H 5339.09 -0.683076 -3.82041 0
M  V30 56695 H 5337.19 1.72744 -3.30137 0
M  V30 56696 H 5337.31 0.535819 -4.76094 0
M  V30 56697 H 5335.67 0.380803 -2.51837 0
M  V30 56698 H 5336.45 -1.12518 -3.24337 0
M  V30 56699 N 5338.9 1.57509 -0.0535471 0
M  V30 56700 C 5340.13 1.96814 0.628317 0
M  V30 56701 C 5340.54 0.929865 1.64773 0
M  V30 56702 O 5339.88 -0.0940511 1.83459 0
M  V30 56703 C 5339.94 3.32366 1.37016 0
M  V30 56704 C 5339.6 4.54187 0.506306 0
M  V30 56705 C 5340.6 5.19397 -0.228594 0
M  V30 56706 C 5338.29 5.004 0.436534 0
M  V30 56707 C 5340.28 6.29159 -1.02168 0
M  V30 56708 C 5337.97 6.10037 -0.360237 0
M  V30 56709 C 5338.97 6.74278 -1.08803 0
M  V30 56710 O 5338.65 7.81807 -1.87169 0
M  V30 56711 H 5338.39 0.652576 0.176409 0
M  V30 56712 H 5340.94 2.05067 -0.11698 0
M  V30 56713 H 5339.17 3.20674 2.16113 0
M  V30 56714 H 5340.86 3.56402 1.94249 0
M  V30 56715 H 5341.62 4.8465 -0.184174 0
M  V30 56716 H 5337.5 4.50187 0.992613 0
M  V30 56717 H 5341.05 6.79232 -1.59026 0
M  V30 56718 H 5336.94 6.4422 -0.406287 0
M  V30 56719 H 5337.71 7.98596 -1.79406 0
M  V30 56720 N 5340.38 -0.219858 1.56059 0
M  V30 56721 C 5341.32 -1.27248 1.92553 0
M  V30 56722 C 5342.29 -1.4649 0.782934 0
M  V30 56723 O 5343.48 -1.60031 1.03897 0
M  V30 56724 C 5340.62 -2.61748 2.24905 0
M  V30 56725 C 5339.73 -2.5029 3.52107 0
M  V30 56726 C 5338.87 -3.77325 3.73898 0
M  V30 56727 C 5337.9 -3.60596 4.94608 0
M  V30 56728 N 5337.04 -4.79585 5.12779 0
M  V30 56729 H 5341.88 -0.954252 2.82308 0
M  V30 56730 H 5339.42 -0.459879 1.39727 0
M  V30 56731 H 5341.38 -3.40074 2.41672 0
M  V30 56732 H 5340.01 -2.91663 1.38321 0
M  V30 56733 H 5339.06 -1.63389 3.43523 0
M  V30 56734 H 5340.37 -2.3385 4.40585 0
M  V30 56735 H 5339.52 -4.64094 3.90771 0
M  V30 56736 H 5338.26 -3.96692 2.83702 0
M  V30 56737 H 5337.27 -2.72211 4.77683 0
M  V30 56738 H 5338.49 -3.42698 5.86289 0
M  V30 56739 H 5336.44 -4.99262 4.25528 0
M  V30 56740 H 5336.36 -4.65878 5.95394 0
M  V30 56741 H 5337.62 -5.67775 5.34089 0
M  V30 56742 N 5341.85 -1.49899 -0.486629 0
M  V30 56743 C 5343.08 -1.64111 -1.26817 0
M  V30 56744 C 5343.5 -0.318032 -1.85392 0
M  V30 56745 O 5342.86 0.716202 -1.66554 0
M  V30 56746 C 5342.91 -2.72309 -2.3639 0
M  V30 56747 O 5342.01 -2.32481 -3.40626 0
M  V30 56748 H 5341.35 -0.548807 -0.373773 0
M  V30 56749 H 5343.88 -1.96179 -0.580948 0
M  V30 56750 H 5343.89 -2.94916 -2.81938 0
M  V30 56751 H 5342.57 -3.68342 -1.93125 0
M  V30 56752 H 5341.15 -2.20262 -3.00897 0
M  V30 56753 N 5343.33 0.738712 -1.39215 0
M  V30 56754 C 5344.28 1.85269 -1.37638 0
M  V30 56755 C 5345.25 1.64406 -0.236629 0
M  V30 56756 O 5346.43 1.85864 -0.431169 0
M  V30 56757 C 5343.57 3.22741 -1.22199 0
M  V30 56758 C 5342.69 3.55334 -2.45687 0
M  V30 56759 C 5341.82 4.82188 -2.22864 0
M  V30 56760 C 5340.86 5.07613 -3.42047 0
M  V30 56761 N 5340 6.25668 -3.18565 0
M  V30 56762 H 5344.84 1.85951 -2.32865 0
M  V30 56763 H 5342.37 0.908675 -1.15678 0
M  V30 56764 H 5344.33 4.02091 -1.1126 0
M  V30 56765 H 5342.96 3.21346 -0.306033 0
M  V30 56766 H 5342.01 2.70713 -2.67243 0
M  V30 56767 H 5343.33 3.70042 -3.3447 0
M  V30 56768 H 5342.48 5.69511 -2.09146 0
M  V30 56769 H 5341.22 4.69645 -1.3147 0
M  V30 56770 H 5340.22 4.18752 -3.56267 0
M  V30 56771 H 5341.45 5.22042 -4.34337 0
M  V30 56772 H 5339.4 6.14421 -2.29832 0
M  V30 56773 H 5339.31 6.40947 -4.00903 0
M  V30 56774 H 5340.58 7.15841 -3.08533 0
M  V30 56775 N 5344.81 1.24329 0.968501 0
M  V30 56776 C 5345.76 1.03497 2.06294 0
M  V30 56777 C 5346.73 -0.0514749 1.6602 0
M  V30 56778 O 5347.91 0.102991 1.90522 0
M  V30 56779 C 5345.05 0.644989 3.39019 0
M  V30 56780 C 5344.16 1.80483 3.92492 0
M  V30 56781 C 5343.3 1.3605 5.13482 0
M  V30 56782 C 5342.34 2.49034 5.5915 0
M  V30 56783 N 5341.48 2.05475 6.7136 0
M  V30 56784 H 5346.32 1.97169 2.23447 0
M  V30 56785 H 5343.85 0.982066 1.09517 0
M  V30 56786 H 5345.81 0.399917 4.15279 0
M  V30 56787 H 5344.44 -0.254732 3.21793 0
M  V30 56788 H 5343.49 2.16359 3.12879 0
M  V30 56789 H 5344.8 2.6538 4.22344 0
M  V30 56790 H 5343.96 1.07426 5.97114 0
M  V30 56791 H 5342.7 0.482058 4.85312 0
M  V30 56792 H 5341.7 2.78419 4.74092 0
M  V30 56793 H 5342.93 3.37434 5.89334 0
M  V30 56794 H 5340.87 1.20027 6.44926 0
M  V30 56795 H 5340.79 2.83926 7.00658 0
M  V30 56796 H 5342.06 1.79988 7.58436 0
M  V30 56797 N 5346.29 -1.16906 1.05692 0
M  V30 56798 C 5347.25 -2.19295 0.66651 0
M  V30 56799 C 5348.25 -1.58261 -0.284618 0
M  V30 56800 O 5349.44 -1.74068 -0.0678145 0
M  V30 56801 C 5346.57 -3.40894 -0.0202457 0
M  V30 56802 H 5347.77 -2.55348 1.57281 0
M  V30 56803 H 5345.32 -1.31075 0.851405 0
M  V30 56804 H 5346.05 -3.10391 -0.939576 0
M  V30 56805 H 5345.84 -3.86444 0.6636 0
M  V30 56806 H 5347.33 -4.16665 -0.279328 0
M  V30 56807 N 5347.77 -0.838641 -1.33434 0
M  V30 56808 C 5349.01 -0.434882 -1.98082 0
M  V30 56809 C 5349.34 1.00325 -1.66279 0
M  V30 56810 O 5348.62 1.70135 -0.94256 0
M  V30 56811 C 5348.9 -0.655727 -3.54079 0
M  V30 56812 C 5348.76 -2.14111 -3.95571 0
M  V30 56813 C 5350.07 -0.101731 -4.39982 0
M  V30 56814 H 5347.19 -0.159481 -0.719538 0
M  V30 56815 H 5349.84 -1.05411 -1.58077 0
M  V30 56816 H 5347.99 -0.128638 -3.88287 0
M  V30 56817 H 5349.66 -2.73305 -3.71621 0
M  V30 56818 H 5347.9 -2.6257 -3.4531 0
M  V30 56819 H 5348.57 -2.24639 -5.04224 0
M  V30 56820 H 5351.05 -0.552267 -4.12419 0
M  V30 56821 H 5349.92 -0.285943 -5.48155 0
M  V30 56822 H 5350.18 0.994465 -4.3077 0
M  V30 56823 N 5349.24 1.45934 -0.595055 0
M  V30 56824 C 5350.49 2.03183 -0.093884 0
M  V30 56825 C 5350.84 1.4568 1.25679 0
M  V30 56826 O 5350.14 0.617186 1.81387 0
M  V30 56827 C 5350.33 3.57396 0.0172491 0
M  V30 56828 C 5350.16 4.29857 -1.32111 0
M  V30 56829 C 5348.93 4.68278 -1.89851 0
M  V30 56830 C 5351.13 4.62613 -2.24709 0
M  V30 56831 N 5349.11 5.25543 -3.17298 0
M  V30 56832 C 5350.48 5.20578 -3.36748 0
M  V30 56833 C 5352.54 4.44547 -2.24237 0
M  V30 56834 C 5351.24 5.62382 -4.48462 0
M  V30 56835 C 5353.27 4.87376 -3.3499 0
M  V30 56836 C 5352.63 5.45423 -4.4575 0
M  V30 56837 H 5348.73 0.778157 -0.0774268 0
M  V30 56838 H 5351.31 1.77923 -0.790662 0
M  V30 56839 H 5349.48 3.82344 0.68322 0
M  V30 56840 H 5351.21 4.01294 0.523932 0
M  V30 56841 H 5347.97 4.51432 -1.432 0
M  V30 56842 H 5348.39 5.58686 -3.8236 0
M  V30 56843 H 5353.03 3.98994 -1.39871 0
M  V30 56844 H 5350.75 6.06908 -5.33561 0
M  V30 56845 H 5354.34 4.7514 -3.35757 0
M  V30 56846 H 5353.22 5.77956 -5.30034 0
M  V30 56847 N 5350.72 0.33351 1.54031 0
M  V30 56848 C 5351.67 -0.543667 2.21423 0
M  V30 56849 C 5352.66 -1.07392 1.19816 0
M  V30 56850 O 5353.85 -1.00928 1.45404 0
M  V30 56851 C 5350.98 -1.69914 2.98302 0
M  V30 56852 C 5350.06 -1.18331 4.07257 0
M  V30 56853 N 5350.45 -0.387921 5.0431 0
M  V30 56854 C 5348.75 -1.46113 4.21387 0
M  V30 56855 C 5349.45 -0.109178 5.81598 0
M  V30 56856 N 5348.43 -0.698061 5.39099 0
M  V30 56857 H 5352.23 0.0712051 2.93814 0
M  V30 56858 H 5349.75 0.139864 1.61797 0
M  V30 56859 H 5351.74 -2.33942 3.45075 0
M  V30 56860 H 5350.4 -2.31739 2.27436 0
M  V30 56861 H 5351.41 -0.0298824 5.17891 0
M  V30 56862 H 5348.09 -2.0845 3.61738 0
M  V30 56863 H 5349.48 0.53179 6.69792 0
M  V30 56864 N 5352.2 -1.57478 0.0618994 0
M  V30 56865 C 5353.15 -2.12155 -0.908788 0
M  V30 56866 C 5354.12 -1.03157 -1.30184 0
M  V30 56867 O 5355.3 -1.30765 -1.38943 0
M  V30 56868 C 5352.44 -2.67968 -2.17456 0
M  V30 56869 C 5351.56 -3.91089 -1.83503 0
M  V30 56870 C 5350.69 -4.3518 -3.04618 0
M  V30 56871 C 5349.73 -5.50974 -2.66636 0
M  V30 56872 N 5348.87 -5.90068 -3.80478 0
M  V30 56873 H 5353.71 -2.94799 -0.43564 0
M  V30 56874 H 5351.24 -1.45687 -0.203394 0
M  V30 56875 H 5353.2 -2.98432 -2.91538 0
M  V30 56876 H 5351.83 -1.88105 -2.62329 0
M  V30 56877 H 5350.88 -3.6715 -0.995251 0
M  V30 56878 H 5352.2 -4.75219 -1.51552 0
M  V30 56879 H 5351.35 -4.67252 -3.86988 0
M  V30 56880 H 5350.09 -3.49883 -3.39755 0
M  V30 56881 H 5349.09 -5.18562 -1.82684 0
M  V30 56882 H 5350.32 -6.37995 -2.32679 0
M  V30 56883 H 5348.26 -5.07723 -4.15396 0
M  V30 56884 H 5348.18 -6.68915 -3.52262 0
M  V30 56885 H 5349.45 -6.2676 -4.63457 0
M  V30 56886 N 5353.68 0.211579 -1.56173 0
M  V30 56887 C 5354.61 1.26526 -1.96248 0
M  V30 56888 C 5355.59 1.48359 -0.83208 0
M  V30 56889 O 5356.77 1.60375 -1.09516 0
M  V30 56890 C 5353.9 2.61299 -2.28779 0
M  V30 56891 C 5352.86 2.54106 -3.44404 0
M  V30 56892 C 5352.18 3.93001 -3.62566 0
M  V30 56893 C 5353.48 2.08029 -4.79084 0
M  V30 56894 H 5355.18 0.932307 -2.84514 0
M  V30 56895 H 5352.72 0.447036 -1.36885 0
M  V30 56896 H 5354.68 3.35179 -2.55407 0
M  V30 56897 H 5353.4 2.96302 -1.37378 0
M  V30 56898 H 5352.06 1.82683 -3.1784 0
M  V30 56899 H 5351.71 4.25329 -2.68523 0
M  V30 56900 H 5351.41 3.89067 -4.40341 0
M  V30 56901 H 5352.93 4.68528 -3.91553 0
M  V30 56902 H 5354.35 2.71658 -5.04851 0
M  V30 56903 H 5352.74 2.15134 -5.60212 0
M  V30 56904 H 5353.81 1.0329 -4.73771 0
M  V30 56905 N 5355.16 1.50155 0.478672 0
M  V30 56906 C 5356.09 1.71389 1.58581 0
M  V30 56907 C 5357.07 0.562762 1.60521 0
M  V30 56908 O 5358.25 0.801073 1.76908 0
M  V30 56909 C 5355.38 1.80105 2.96951 0
M  V30 56910 C 5354.34 2.95229 3.09877 0
M  V30 56911 C 5353.66 2.89079 4.49819 0
M  V30 56912 C 5354.96 4.35851 2.87804 0
M  V30 56913 H 5356.66 2.64086 1.41064 0
M  V30 56914 H 5354.2 1.27083 0.677194 0
M  V30 56915 H 5356.16 1.93545 3.74324 0
M  V30 56916 H 5354.88 0.840242 3.15607 0
M  V30 56917 H 5353.54 2.81427 2.34934 0
M  V30 56918 H 5353.19 1.9086 4.65383 0
M  V30 56919 H 5352.89 3.66361 4.59405 0
M  V30 56920 H 5354.41 3.04558 5.29223 0
M  V30 56921 H 5355.82 4.50218 3.54932 0
M  V30 56922 H 5354.22 5.14525 3.08842 0
M  V30 56923 H 5355.29 4.48746 1.83726 0
M  V30 56924 N 5356.63 -0.731319 1.39605 0
M  V30 56925 C 5357.86 -1.52562 1.40497 0
M  V30 56926 C 5358.28 -1.881 0.0023544 0
M  V30 56927 O 5357.64 -1.5217 -0.98559 0
M  V30 56928 C 5357.69 -2.78741 2.2877 0
M  V30 56929 O 5356.79 -3.74814 1.72012 0
M  V30 56930 H 5356.14 -0.460584 0.478287 0
M  V30 56931 H 5358.67 -0.901978 1.83645 0
M  V30 56932 H 5358.68 -3.27437 2.43411 0
M  V30 56933 H 5357.35 -2.52208 3.30702 0
M  V30 56934 H 5355.93 -3.33598 1.66634 0
M  V30 56935 N 5358.11 -1.24841 -0.961894 0
M  V30 56936 C 5359.06 -1.0459 -2.05742 0
M  V30 56937 C 5360.03 0.0426697 -1.66045 0
M  V30 56938 O 5361.21 -0.113093 -1.90465 0
M  V30 56939 C 5358.35 -0.662959 -3.38672 0
M  V30 56940 C 5357.47 -1.82562 -3.91529 0
M  V30 56941 C 5356.6 -1.38771 -5.12753 0
M  V30 56942 C 5355.64 -2.51996 -5.57821 0
M  V30 56943 N 5354.78 -2.09032 -6.70261 0
M  V30 56944 H 5359.62 -1.98351 -2.22398 0
M  V30 56945 H 5357.16 -0.98786 -1.08994 0
M  V30 56946 H 5359.11 -0.421934 -4.15061 0
M  V30 56947 H 5357.74 0.237663 -3.21924 0
M  V30 56948 H 5356.8 -2.18015 -3.11727 0
M  V30 56949 H 5358.11 -2.67616 -4.20931 0
M  V30 56950 H 5357.26 -1.10591 -5.96535 0
M  V30 56951 H 5356 -0.507788 -4.85049 0
M  V30 56952 H 5355.01 -2.80929 -4.72609 0
M  V30 56953 H 5356.23 -3.40555 -5.87537 0
M  V30 56954 H 5354.18 -1.23446 -6.4428 0
M  V30 56955 H 5354.09 -2.87638 -6.99143 0
M  V30 56956 H 5355.36 -1.84008 -7.5747 0
M  V30 56957 N 5359.59 1.16344 -1.0631 0
M  V30 56958 C 5360.52 2.20314 -0.632007 0
M  V30 56959 C 5361.54 1.5982 0.310077 0
M  V30 56960 O 5362.72 1.78214 0.101041 0
M  V30 56961 C 5359.82 3.38771 0.0936454 0
M  V30 56962 C 5359 4.28823 -0.861967 0
M  V30 56963 C 5358.06 5.25907 -0.175531 0
M  V30 56964 O 5357.08 5.63361 -0.813237 0
M  V30 56965 N 5358.28 5.70311 1.08284 0
M  V30 56966 H 5361.05 2.5792 -1.52635 0
M  V30 56967 H 5358.61 1.31355 -0.946438 0
M  V30 56968 H 5360.6 4.00761 0.563271 0
M  V30 56969 H 5359.17 2.99669 0.889799 0
M  V30 56970 H 5358.39 3.64093 -1.51096 0
M  V30 56971 H 5359.68 4.8587 -1.51024 0
M  V30 56972 H 5359.08 5.41976 1.62108 0
M  V30 56973 H 5357.64 6.34392 1.49634 0
M  V30 56974 N 5361.07 0.845705 1.32987 0
M  V30 56975 C 5362.48 0.534382 1.50388 0
M  V30 56976 C 5362.68 -0.936876 1.78395 0
M  V30 56977 O 5361.74 -1.72036 1.84824 0
M  V30 56978 C 5363.05 1.41363 2.65399 0
M  V30 56979 C 5364.6 1.41312 2.79284 0
M  V30 56980 C 5365.08 2.27738 3.97365 0
M  V30 56981 N 5366.57 2.25485 4.04612 0
M  V30 56982 C 5367.3 2.89091 4.95191 0
M  V30 56983 N 5366.8 3.61775 5.90839 0
M  V30 56984 N 5368.59 2.78526 4.88242 0
M  V30 56985 H 5360.74 1.79802 1.13071 0
M  V30 56986 H 5363.01 0.767473 0.556497 0
M  V30 56987 H 5362.71 2.45945 2.51404 0
M  V30 56988 H 5362.59 1.09458 3.60969 0
M  V30 56989 H 5364.97 0.375002 2.92708 0
M  V30 56990 H 5365.05 1.77229 1.84455 0
M  V30 56991 H 5364.7 3.31613 3.84701 0
M  V30 56992 H 5364.63 1.8916 4.91453 0
M  V30 56993 H 5367.12 1.72633 3.36164 0
M  V30 56994 H 5367.43 4.07498 6.56632 0
M  V30 56995 H 5365.78 3.65883 5.90893 0
M  V30 56996 H 5368.97 2.21299 4.12486 0
M  V30 56997 H 5369.14 3.2838 5.58633 0
M  V30 56998 N 5362.55 -1.45617 0.602786 0
M  V30 56999 C 5363.96 -1.57367 0.266045 0
M  V30 57000 C 5364.16 -1.59489 -1.23148 0
M  V30 57001 O 5363.22 -1.52261 -2.01427 0
M  V30 57002 C 5364.53 -2.8586 0.932982 0
M  V30 57003 C 5366.08 -2.99527 0.908449 0
M  V30 57004 C 5366.55 -4.30783 1.55531 0
M  V30 57005 N 5368.05 -4.3753 1.52057 0
M  V30 57006 C 5368.78 -5.37751 1.99027 0
M  V30 57007 N 5368.28 -6.44535 2.54061 0
M  V30 57008 N 5370.07 -5.29078 1.89824 0
M  V30 57009 H 5362.22 -1.42483 1.57519 0
M  V30 57010 H 5364.48 -0.680924 0.65958 0
M  V30 57011 H 5364.19 -2.90176 1.98723 0
M  V30 57012 H 5364.06 -3.74466 0.453341 0
M  V30 57013 H 5366.45 -2.94781 -0.13724 0
M  V30 57014 H 5366.53 -2.12344 1.42631 0
M  V30 57015 H 5366.18 -4.36288 2.6003 0
M  V30 57016 H 5366.11 -5.16775 1.01251 0
M  V30 57017 H 5368.6 -3.60968 1.11849 0
M  V30 57018 H 5368.91 -7.17248 2.87707 0
M  V30 57019 H 5367.25 -6.45299 2.58098 0
M  V30 57020 H 5370.45 -4.44561 1.46572 0
M  V30 57021 H 5370.62 -6.07035 2.26743 0
M  V30 57022 N 5364.02 -0.341674 -1.53852 0
M  V30 57023 C 5365.44 0.0103208 -1.59597 0
M  V30 57024 C 5365.64 1.48892 -1.35769 0
M  V30 57025 O 5364.7 2.24739 -1.15103 0
M  V30 57026 C 5366.01 -0.424171 -2.97693 0
M  V30 57027 C 5367.56 -0.376356 -3.10729 0
M  V30 57028 C 5368.03 -0.786288 -4.512 0
M  V30 57029 N 5369.52 -0.740401 -4.57244 0
M  V30 57030 C 5370.26 -1.02956 -5.64081 0
M  V30 57031 N 5369.75 -1.38679 -6.78778 0
M  V30 57032 N 5371.55 -0.953928 -5.53946 0
M  V30 57033 H 5363.7 -1.30483 -1.67594 0
M  V30 57034 H 5365.96 -0.531781 -0.784801 0
M  V30 57035 H 5365.67 -1.45504 -3.2019 0
M  V30 57036 H 5365.54 0.20158 -3.76661 0
M  V30 57037 H 5367.93 0.64534 -2.87957 0
M  V30 57038 H 5368.01 -1.03729 -2.33825 0
M  V30 57039 H 5367.65 -1.80598 -4.74707 0
M  V30 57040 H 5367.58 -0.102856 -5.265 0
M  V30 57041 H 5370.07 -0.476894 -3.74879 0
M  V30 57042 H 5370.39 -1.59233 -7.56217 0
M  V30 57043 H 5368.73 -1.42522 -6.8023 0
M  V30 57044 H 5371.92 -0.674207 -4.63219 0
M  V30 57045 H 5372.1 -1.18263 -6.37117 0
M  V30 57046 N 5365.5 1.57443 -0.07025 0
M  V30 57047 C 5366.47 2.11515 0.882848 0
M  V30 57048 C 5367.47 1.03883 1.22739 0
M  V30 57049 O 5368.66 1.29878 1.16092 0
M  V30 57050 C 5365.79 2.61521 2.18676 0
M  V30 57051 H 5366.98 2.97032 0.413769 0
M  V30 57052 H 5364.53 1.55278 0.178434 0
M  V30 57053 H 5365.27 1.79453 2.70124 0
M  V30 57054 H 5365.05 3.40192 1.94966 0
M  V30 57055 H 5366.54 3.03436 2.86909 0
M  V30 57056 N 5366.98 -0.203294 1.56283 0
M  V30 57057 C 5368.23 -0.926317 1.80408 0
M  V30 57058 C 5368.56 -1.83248 0.642947 0
M  V30 57059 O 5367.84 -1.91197 -0.35693 0
M  V30 57060 C 5368.12 -1.7496 3.14739 0
M  V30 57061 C 5367.97 -0.868711 4.41331 0
M  V30 57062 C 5369.29 -2.72382 3.45682 0
M  V30 57063 H 5366.41 -0.335323 0.656298 0
M  V30 57064 H 5369.05 -0.194133 1.89006 0
M  V30 57065 H 5367.2 -2.37383 3.07541 0
M  V30 57066 H 5368.87 -0.259824 4.60568 0
M  V30 57067 H 5367.12 -0.175008 4.33447 0
M  V30 57068 H 5367.79 -1.47956 5.31802 0
M  V30 57069 H 5370.26 -2.20093 3.53126 0
M  V30 57070 H 5369.14 -3.27075 4.40809 0
M  V30 57071 H 5369.4 -3.51026 2.68763 0
M  V30 57072 N 5368.46 -1.50407 -0.470702 0
M  V30 57073 C 5369.71 -1.61654 -1.22457 0
M  V30 57074 C 5370.04 -0.316102 -1.9161 0
M  V30 57075 O 5369.31 0.682445 -1.82134 0
M  V30 57076 C 5369.6 -2.7971 -2.26792 0
M  V30 57077 C 5369.45 -4.19637 -1.61941 0
M  V30 57078 C 5370.77 -2.93325 -3.28098 0
M  V30 57079 H 5367.89 -0.588361 -0.443847 0
M  V30 57080 H 5370.53 -1.82794 -0.518312 0
M  V30 57081 H 5368.68 -2.61817 -2.87026 0
M  V30 57082 H 5370.35 -4.49121 -1.053 0
M  V30 57083 H 5368.59 -4.23877 -0.922525 0
M  V30 57084 H 5369.27 -4.9817 -2.37761 0
M  V30 57085 H 5371.74 -3.09707 -2.77887 0
M  V30 57086 H 5370.62 -3.77551 -3.9843 0
M  V30 57087 H 5370.88 -2.03956 -3.92243 0
M  V30 57088 N 5369.94 0.723905 -1.39991 0
M  V30 57089 C 5370.9 1.81968 -1.39356 0
M  V30 57090 C 5371.9 1.58186 -0.288757 0
M  V30 57091 O 5373.09 1.65381 -0.547239 0
M  V30 57092 C 5370.22 3.19932 -1.17712 0
M  V30 57093 H 5371.42 1.83931 -2.36874 0
M  V30 57094 H 5368.97 0.928698 -1.25718 0
M  V30 57095 H 5369.7 3.23625 -0.209206 0
M  V30 57096 H 5369.49 3.38593 -1.97731 0
M  V30 57097 H 5370.98 3.99976 -1.20036 0
M  V30 57098 N 5371.42 1.2535 0.95526 0
M  V30 57099 C 5372.66 1.11265 1.71463 0
M  V30 57100 C 5373.02 -0.340693 1.88953 0
M  V30 57101 O 5374.22 -0.603348 2.61941 0
M  V30 57102 C 5372.49 1.84552 3.06064 0
M  V30 57103 S 5374.05 1.86351 3.97264 0
M  V30 57104 H 5370.87 0.397704 0.589366 0
M  V30 57105 H 5373.47 1.58865 1.1394 0
M  V30 57106 H 5372.17 2.89387 2.91004 0
M  V30 57107 H 5371.71 1.37336 3.68649 0
M  V30 57108 H 5373.72 0.940096 4.87213 0
M  V30 57109 N 5372.89 -1.15778 1.06926 0
M  V30 57110 C 5374.14 -1.86462 0.789817 0
M  V30 57111 C 5374.47 -1.82078 -0.683958 0
M  V30 57112 O 5373.72 -1.23581 -1.51744 0
M  V30 57113 C 5374.02 -3.3528 1.23782 0
M  V30 57114 C 5373.69 -3.59862 2.71681 0
M  V30 57115 C 5372.35 -3.66279 3.12078 0
M  V30 57116 C 5374.7 -3.69916 3.67167 0
M  V30 57117 C 5372.03 -3.80259 4.46789 0
M  V30 57118 C 5374.38 -3.85419 5.01633 0
M  V30 57119 C 5373.05 -3.90081 5.41658 0
M  V30 57120 H 5372.32 -0.682313 0.289015 0
M  V30 57121 H 5374.96 -1.36856 1.3395 0
M  V30 57122 H 5373.27 -3.87062 0.607445 0
M  V30 57123 H 5374.97 -3.88368 0.998568 0
M  V30 57124 H 5371.56 -3.55504 2.39406 0
M  V30 57125 H 5375.74 -3.64263 3.37085 0
M  V30 57126 H 5371 -3.82124 4.77275 0
M  V30 57127 H 5375.17 -3.92141 5.75499 0
M  V30 57128 H 5372.8 -4.00665 6.46043 0
M  V30 57129 N 5374.37 -0.852746 -1.32537 0
M  V30 57130 C 5375.79 -0.54235 -1.50102 0
M  V30 57131 C 5375.99 0.927402 -1.7889 0
M  V30 57132 O 5375.04 1.71053 -1.85734 0
M  V30 57133 C 5376.36 -1.42769 -2.64646 0
M  V30 57134 C 5377.9 -1.42792 -2.78531 0
M  V30 57135 C 5378.38 -2.29842 -3.96152 0
M  V30 57136 N 5379.87 -2.27628 -4.0341 0
M  V30 57137 C 5380.61 -2.91713 -4.93651 0
M  V30 57138 N 5380.1 -3.64904 -5.88912 0
M  V30 57139 N 5381.89 -2.81111 -4.86758 0
M  V30 57140 H 5374.05 -1.80399 -1.12116 0
M  V30 57141 H 5376.31 -0.770414 -0.552419 0
M  V30 57142 H 5376.01 -2.47274 -2.50097 0
M  V30 57143 H 5375.89 -1.11371 -3.60384 0
M  V30 57144 H 5378.28 -0.390519 -2.92505 0
M  V30 57145 H 5378.36 -1.78204 -1.83513 0
M  V30 57146 H 5378 -3.33649 -3.82937 0
M  V30 57147 H 5377.93 -1.91763 -4.90443 0
M  V30 57148 H 5380.42 -1.74414 -3.35244 0
M  V30 57149 H 5380.73 -4.10975 -6.54461 0
M  V30 57150 H 5379.08 -3.69012 -5.88944 0
M  V30 57151 H 5382.27 -2.23484 -4.11306 0
M  V30 57152 H 5382.44 -3.31338 -5.56884 0
M  V30 57153 N 5375.85 1.45295 -0.6105 0
M  V30 57154 C 5376.78 2.27669 0.155557 0
M  V30 57155 C 5377.76 1.37311 0.870888 0
M  V30 57156 O 5378.94 1.66742 0.879169 0
M  V30 57157 C 5376.07 3.15752 1.22549 0
M  V30 57158 C 5375.12 4.22072 0.612967 0
M  V30 57159 S 5375.95 5.32335 -0.58137 0
M  V30 57160 C 5377.11 6.23986 0.489078 0
M  V30 57161 H 5377.34 2.92293 -0.543308 0
M  V30 57162 H 5374.87 1.4918 -0.398096 0
M  V30 57163 H 5376.83 3.67057 1.83791 0
M  V30 57164 H 5375.49 2.50388 1.89644 0
M  V30 57165 H 5374.68 4.83638 1.4181 0
M  V30 57166 H 5374.29 3.73924 0.0756167 0
M  V30 57167 H 5376.58 6.63558 1.36736 0
M  V30 57168 H 5377.52 7.08042 -0.0904945 0
M  V30 57169 H 5377.93 5.5872 0.805714 0
M  V30 57170 N 5377.33 0.349828 1.53668 0
M  V30 57171 C 5378.56 -0.245966 2.05433 0
M  V30 57172 C 5378.97 -1.43715 1.2244 0
M  V30 57173 O 5378.33 -1.80621 0.26123 0
M  V30 57174 C 5378.38 -0.654885 3.55519 0
M  V30 57175 O 5378.1 0.488935 4.35363 0
M  V30 57176 C 5379.6 -1.31073 4.23479 0
M  V30 57177 H 5376.82 -0.0463717 0.669396 0
M  V30 57178 H 5379.36 0.503636 1.98201 0
M  V30 57179 H 5377.52 -1.35442 3.62952 0
M  V30 57180 H 5377.93 0.161712 5.24251 0
M  V30 57181 H 5379.41 -1.54756 5.29863 0
M  V30 57182 H 5379.88 -2.26623 3.76216 0
M  V30 57183 H 5380.49 -0.653063 4.20256 0
M  V30 57184 N 5378.81 -1.57404 0.0785986 0
M  V30 57185 C 5380.22 -1.8112 -0.453047 0
M  V30 57186 C 5380.57 -0.993023 -1.69214 0
M  V30 57187 O 5379.69 -0.217524 -2.15304 0
M  V30 57188 C 5380.29 -3.28509 -0.828705 0
M  V30 57189 C 5378.85 -3.53047 -1.30518 0
M  V30 57190 C 5377.99 -2.7574 -0.293683 0
M  V30 57191 H 5380.94 -1.55757 0.304226 0
M  V30 57192 H 5380.97 -3.4093 -1.68959 0
M  V30 57193 H 5380.48 -3.88031 0.073319 0
M  V30 57194 H 5378.58 -2.98837 -2.22547 0
M  V30 57195 H 5378.69 -4.61729 -1.2784 0
M  V30 57196 H 5377.06 -2.42706 -0.772392 0
M  V30 57197 H 5377.84 -3.38003 0.600732 0
M  V30 57198 N 5380.28 0.195003 -1.56389 0
M  V30 57199 C 5381.21 1.24437 -1.97579 0
M  V30 57200 C 5382.2 1.47468 -0.847769 0
M  V30 57201 O 5383.38 1.59204 -1.1121 0
M  V30 57202 C 5380.51 2.58858 -2.31538 0
M  V30 57203 C 5379.46 2.50439 -3.4708 0
M  V30 57204 C 5378.79 3.89133 -3.66714 0
M  V30 57205 C 5380.09 2.02936 -4.81263 0
M  V30 57206 H 5381.78 0.902078 -2.85487 0
M  V30 57207 H 5379.33 0.432492 -1.37352 0
M  V30 57208 H 5381.28 3.32451 -2.58948 0
M  V30 57209 H 5380.01 2.94828 -1.40513 0
M  V30 57210 H 5378.67 1.79302 -3.1976 0
M  V30 57211 H 5378.31 4.22457 -2.73019 0
M  V30 57212 H 5378.01 3.84375 -4.44443 0
M  V30 57213 H 5379.54 4.64349 -3.96501 0
M  V30 57214 H 5380.95 2.66288 -5.07704 0
M  V30 57215 H 5379.35 2.0918 -5.62462 0
M  V30 57216 H 5380.42 0.98259 -4.7484 0
M  V30 57217 N 5381.76 1.50654 0.462719 0
M  V30 57218 C 5382.99 1.6559 1.23545 0
M  V30 57219 C 5383.4 0.342077 1.86082 0
M  V30 57220 O 5382.74 -0.686833 1.70377 0
M  V30 57221 C 5382.81 2.69563 2.37857 0
M  V30 57222 C 5382.47 4.12887 1.95892 0
M  V30 57223 C 5383.47 4.98488 1.47667 0
M  V30 57224 C 5381.15 4.5885 2.04357 0
M  V30 57225 C 5383.15 6.28104 1.08461 0
M  V30 57226 C 5380.83 5.8847 1.64762 0
M  V30 57227 C 5381.83 6.72923 1.16894 0
M  V30 57228 O 5381.52 8.00121 0.778516 0
M  V30 57229 H 5381.25 0.559451 0.37946 0
M  V30 57230 H 5383.8 1.97682 0.557746 0
M  V30 57231 H 5382.03 2.32731 3.08825 0
M  V30 57232 H 5383.72 2.73634 2.99799 0
M  V30 57233 H 5384.49 4.64191 1.40542 0
M  V30 57234 H 5380.37 3.93256 2.40563 0
M  V30 57235 H 5383.91 6.93975 0.71028 0
M  V30 57236 H 5379.81 6.22287 1.71549 0
M  V30 57237 H 5380.58 8.13463 0.906625 0
M  V30 57238 N 5383.24 -0.716471 1.40373 0
M  V30 57239 C 5384.19 -1.85189 1.4074 0
M  V30 57240 C 5385.18 -1.66933 0.288028 0
M  V30 57241 O 5386.39 -1.74049 0.459018 0
M  V30 57242 H 5382.76 -0.609907 0.439907 0
M  V30 57243 H 5384.73 -1.81995 2.36475 0
M  V30 57244 C 5383.48 -3.23044 1.286 0
M  V30 57245 H 5382.81 -3.37697 2.14011 0
M  V30 57246 H 5384.25 -4.02628 1.32917 0
M  V30 57247 C 5382.71 -3.369 -0.00384668 0
M  V30 57248 O 5383.24 -3.89885 -0.967106 0
M  V30 57249 N 5381.44 -2.90508 -0.0730543 0
M  V30 57250 H 5380.99 -2.47578 0.711541 0
M  V30 57251 H 5380.95 -3.00158 -0.935546 0
M  V30 57252 N 5384.72 -1.25855 -0.948599 0
M  V30 57253 C 5385.65 -1.09255 -2.06363 0
M  V30 57254 C 5386.63 0.00014537 -1.701 0
M  V30 57255 O 5387.81 -0.17051 -1.9345 0
M  V30 57256 C 5384.94 -0.716896 -3.3982 0
M  V30 57257 C 5383.9 -1.7605 -3.90116 0
M  V30 57258 C 5383.22 -1.23937 -5.20138 0
M  V30 57259 C 5384.52 -3.16053 -4.15822 0
M  V30 57260 H 5386.22 -2.02525 -2.20508 0
M  V30 57261 H 5383.76 -0.97513 -1.05959 0
M  V30 57262 H 5385.72 -0.587678 -4.17282 0
M  V30 57263 H 5384.44 0.251512 -3.2563 0
M  V30 57264 H 5383.1 -1.87826 -3.14828 0
M  V30 57265 H 5382.75 -0.261013 -5.02322 0
M  V30 57266 H 5382.45 -1.93692 -5.54759 0
M  V30 57267 H 5383.97 -1.12266 -6.0019 0
M  V30 57268 H 5385.39 -3.07397 -4.83922 0
M  V30 57269 H 5383.78 -3.83333 -4.61709 0
M  V30 57270 H 5384.85 -3.62664 -3.21874 0
M  V30 57271 N 5386.2 1.1521 -1.07538 0
M  V30 57272 C 5387.61 1.67626 -0.822104 0
M  V30 57273 C 5387.96 1.85032 0.652506 0
M  V30 57274 O 5387.08 1.55502 1.50493 0
M  V30 57275 C 5387.68 3.04484 -1.48577 0
M  V30 57276 C 5386.24 3.53969 -1.27995 0
M  V30 57277 C 5385.38 2.2965 -1.55422 0
M  V30 57278 H 5388.34 0.993972 -1.23717 0
M  V30 57279 H 5388.36 3.69506 -0.908046 0
M  V30 57280 H 5387.87 2.91783 -2.55899 0
M  V30 57281 H 5385.97 3.71908 -0.227037 0
M  V30 57282 H 5386.08 4.35291 -2.00146 0
M  V30 57283 H 5384.45 2.35286 -0.975334 0
M  V30 57284 H 5385.23 2.19534 -2.63931 0
M  V30 57285 N 5387.67 0.859763 1.32083 0
M  V30 57286 C 5388.9 0.479794 2.0126 0
M  V30 57287 C 5389.32 -0.924928 1.64592 0
M  V30 57288 O 5388.67 -1.60436 0.86986 0
M  V30 57289 C 5388.73 0.615254 3.56226 0
M  V30 57290 O 5388.45 1.96465 3.91578 0
M  V30 57291 C 5389.95 0.234959 4.42677 0
M  V30 57292 H 5387.17 0.18803 0.644116 0
M  V30 57293 H 5389.71 1.15811 1.68547 0
M  V30 57294 H 5387.87 -0.0153906 3.87397 0
M  V30 57295 H 5388.28 1.96508 4.86297 0
M  V30 57296 H 5389.75 0.380728 5.50685 0
M  V30 57297 H 5390.23 -0.825038 4.31381 0
M  V30 57298 H 5390.84 0.840885 4.16904 0
M  V30 57299 N 5389.15 -1.44969 0.618196 0
M  V30 57300 C 5390.1 -2.27705 -0.116039 0
M  V30 57301 C 5391.09 -1.37929 -0.828509 0
M  V30 57302 O 5392.28 -1.61839 -0.716749 0
M  V30 57303 C 5389.41 -3.25007 -1.10567 0
M  V30 57304 C 5388.49 -4.22271 -0.393492 0
M  V30 57305 N 5388.88 -5.02569 0.570758 0
M  V30 57306 C 5387.18 -4.41389 -0.639654 0
M  V30 57307 C 5387.88 -5.73208 0.990345 0
M  V30 57308 N 5386.86 -5.42586 0.331844 0
M  V30 57309 H 5390.66 -2.87191 0.624396 0
M  V30 57310 H 5388.18 -1.5625 0.442685 0
M  V30 57311 H 5390.17 -3.83023 -1.64618 0
M  V30 57312 H 5388.83 -2.67082 -1.84655 0
M  V30 57313 H 5389.84 -5.0915 0.947993 0
M  V30 57314 H 5386.52 -3.94576 -1.36439 0
M  V30 57315 H 5387.91 -6.47722 1.78623 0
M  V30 57316 N 5390.63 -0.357973 -1.53481 0
M  V30 57317 C 5392.05 -0.00660718 -1.59599 0
M  V30 57318 C 5392.25 1.47444 -1.37341 0
M  V30 57319 O 5391.3 2.23506 -1.1748 0
M  V30 57320 C 5392.62 -0.455722 -2.97227 0
M  V30 57321 C 5394.16 -0.409292 -3.10312 0
M  V30 57322 C 5394.64 -0.8341 -4.50341 0
M  V30 57323 N 5396.13 -0.788856 -4.56433 0
M  V30 57324 C 5396.86 -1.08933 -5.62957 0
M  V30 57325 N 5396.36 -1.45871 -6.77269 0
M  V30 57326 N 5398.15 -1.01263 -5.52903 0
M  V30 57327 H 5390.3 -1.32253 -1.66201 0
M  V30 57328 H 5392.57 -0.540075 -0.779117 0
M  V30 57329 H 5392.27 -1.48892 -3.18628 0
M  V30 57330 H 5392.15 0.161619 -3.76854 0
M  V30 57331 H 5394.53 0.614762 -2.88626 0
M  V30 57332 H 5394.62 -1.06203 -2.32711 0
M  V30 57333 H 5394.26 -1.85623 -4.72765 0
M  V30 57334 H 5394.19 -0.158692 -5.26361 0
M  V30 57335 H 5396.68 -0.516629 -3.74352 0
M  V30 57336 H 5396.99 -1.67245 -7.54486 0
M  V30 57337 H 5395.34 -1.49729 -6.7868 0
M  V30 57338 H 5398.53 -0.7233 -4.62478 0
M  V30 57339 H 5398.7 -1.25014 -6.35827 0
M  V30 57340 N 5392.11 1.5736 -0.086945 0
M  V30 57341 C 5393.07 2.12439 0.860365 0
M  V30 57342 C 5394.07 1.05179 1.2163 0
M  V30 57343 O 5395.26 1.31102 1.14708 0
M  V30 57344 C 5392.39 2.63826 2.1589 0
M  V30 57345 H 5393.59 2.97454 0.382241 0
M  V30 57346 H 5391.14 1.55459 0.161954 0
M  V30 57347 H 5391.87 1.82308 2.68206 0
M  V30 57348 H 5391.66 3.42241 1.91347 0
M  V30 57349 H 5393.15 3.06462 2.83674 0
M  V30 57350 N 5393.59 -0.186707 1.5649 0
M  V30 57351 C 5394.83 -0.912459 1.82903 0
M  V30 57352 C 5395.19 -1.80092 0.665661 0
M  V30 57353 O 5396.39 -2.56309 0.809877 0
M  V30 57354 C 5394.66 -1.70011 3.14374 0
M  V30 57355 S 5396.22 -2.47674 3.6222 0
M  V30 57356 H 5393.04 -0.305894 0.641833 0
M  V30 57357 H 5395.64 -0.175221 1.94713 0
M  V30 57358 H 5394.35 -1.03818 3.97052 0
M  V30 57359 H 5393.88 -2.47901 3.05464 0
M  V30 57360 H 5395.89 -3.72047 3.28323 0
M  V30 57361 N 5395.07 -1.50897 -0.454723 0
M  V30 57362 C 5396.01 -1.71502 -1.5713 0
M  V30 57363 C 5397.01 -0.581036 -1.59124 0
M  V30 57364 O 5398.21 -0.761973 -1.63077 0
M  V30 57365 H 5394.59 -0.541598 -0.521705 0
M  V30 57366 H 5396.56 -2.65134 -1.36918 0
M  V30 57367 C 5395.31 -1.84135 -2.9494 0
M  V30 57368 H 5394.63 -2.7079 -2.94131 0
M  V30 57369 H 5396.07 -2.02571 -3.7248 0
M  V30 57370 C 5394.53 -0.596869 -3.31571 0
M  V30 57371 O 5395.06 0.256491 -4.0088 0
M  V30 57372 N 5393.27 -0.446059 -2.87156 0
M  V30 57373 H 5392.81 -1.14154 -2.30925 0
M  V30 57374 H 5392.77 0.38541 -3.12029 0
M  V30 57375 N 5396.54 0.709016 -1.40751 0
M  V30 57376 C 5397.48 1.83288 -1.35943 0
M  V30 57377 C 5398.45 1.60983 -0.228767 0
M  V30 57378 O 5399.64 1.83909 -0.413499 0
M  V30 57379 C 5396.77 3.19742 -1.11726 0
M  V30 57380 C 5395.81 3.60864 -2.27331 0
M  V30 57381 S 5396.64 3.6722 -3.89756 0
M  V30 57382 C 5397.8 5.06422 -3.67815 0
M  V30 57383 H 5398.03 1.87087 -2.31054 0
M  V30 57384 H 5395.57 0.876434 -1.27114 0
M  V30 57385 H 5397.52 3.98522 -0.984386 0
M  V30 57386 H 5396.19 3.13569 -0.182582 0
M  V30 57387 H 5395.38 4.59958 -2.06046 0
M  V30 57388 H 5394.98 2.89358 -2.36956 0
M  V30 57389 H 5397.27 5.93532 -3.26689 0
M  V30 57390 H 5398.22 5.32745 -4.66464 0
M  V30 57391 H 5398.62 4.77325 -3.01365 0
M  V30 57392 N 5398.02 1.26356 0.941911 0
M  V30 57393 C 5399.27 1.11857 1.68802 0
M  V30 57394 C 5399.6 -0.338223 1.91537 0
M  V30 57395 O 5398.85 -1.26489 1.49328 0
M  V30 57396 C 5399.15 1.83206 3.06872 0
M  V30 57397 C 5398.82 3.33104 3.03896 0
M  V30 57398 C 5397.48 3.73993 3.02792 0
M  V30 57399 C 5399.83 4.28813 2.96258 0
M  V30 57400 C 5397.16 5.08981 2.91814 0
M  V30 57401 C 5399.51 5.6384 2.86822 0
M  V30 57402 C 5398.17 6.04042 2.8406 0
M  V30 57403 H 5397.44 0.409314 0.617692 0
M  V30 57404 H 5400.09 1.56789 1.09952 0
M  V30 57405 H 5398.4 1.30741 3.69343 0
M  V30 57406 H 5400.09 1.69428 3.63449 0
M  V30 57407 H 5396.68 3.00577 3.05535 0
M  V30 57408 H 5400.87 3.98205 2.9622 0
M  V30 57409 H 5396.12 5.39292 2.88053 0
M  V30 57410 H 5400.3 6.37685 2.79875 0
M  V30 57411 H 5397.92 7.08596 2.7531 0
M  V30 57412 N 5399.5 -1.14638 1.08148 0
M  V30 57413 C 5400.43 -2.21773 0.730687 0
M  V30 57414 C 5401.41 -1.67684 -0.285643 0
M  V30 57415 O 5402.6 -1.93568 -0.156599 0
M  V30 57416 C 5399.73 -3.47032 0.136364 0
M  V30 57417 C 5398.68 -4.1413 1.08075 0
M  V30 57418 C 5398.01 -5.33561 0.348773 0
M  V30 57419 C 5399.31 -4.6297 2.41777 0
M  V30 57420 H 5401 -2.51372 1.62642 0
M  V30 57421 H 5398.55 -1.20822 0.783453 0
M  V30 57422 H 5400.5 -4.21226 -0.121034 0
M  V30 57423 H 5399.22 -3.16789 -0.794489 0
M  V30 57424 H 5397.88 -3.41887 1.3232 0
M  V30 57425 H 5397.53 -4.99577 -0.585799 0
M  V30 57426 H 5397.23 -5.79398 0.978326 0
M  V30 57427 H 5398.75 -6.10519 0.0993655 0
M  V30 57428 H 5400.17 -5.28651 2.21813 0
M  V30 57429 H 5398.56 -5.19499 3.00401 0
M  V30 57430 H 5399.63 -3.78178 3.03495 0
M  V30 57431 N 5400.98 -0.866756 -1.31625 0
M  V30 57432 C 5401.89 -0.323489 -2.32359 0
M  V30 57433 C 5402.9 0.564937 -1.64574 0
M  V30 57434 O 5404.08 0.46242 -1.96019 0
M  V30 57435 C 5401.14 0.468925 -3.43514 0
M  V30 57436 C 5400.21 -0.447079 -4.26966 0
M  V30 57437 C 5399.44 0.307612 -5.32813 0
M  V30 57438 O 5399.66 1.53611 -5.49327 0
M  V30 57439 O 5398.6 -0.332864 -6.00979 0
M  V30 57440 H 5402.42 -1.15837 -2.80741 0
M  V30 57441 H 5400.01 -0.630035 -1.35466 0
M  V30 57442 H 5401.89 0.918261 -4.11274 0
M  V30 57443 H 5400.56 1.2804 -2.973 0
M  V30 57444 H 5399.47 -0.944846 -3.61972 0
M  V30 57445 H 5400.8 -1.22407 -4.76736 0
M  V30 57446 N 5402.46 1.44639 -0.625876 0
M  V30 57447 C 5403.68 2.0697 -0.133446 0
M  V30 57448 C 5404.11 1.46425 1.18073 0
M  V30 57449 O 5403.46 0.563736 1.72313 0
M  V30 57450 C 5403.51 3.6059 -0.0266365 0
M  V30 57451 O 5402.62 3.99619 1.01875 0
M  V30 57452 H 5401.96 0.65887 -0.08238 0
M  V30 57453 H 5404.49 1.85598 -0.861068 0
M  V30 57454 H 5404.5 4.07664 0.165656 0
M  V30 57455 H 5403.17 4.0404 -0.986128 0
M  V30 57456 H 5401.75 3.64186 0.801449 0
M  V30 57457 N 5403.93 0.366107 1.53289 0
M  V30 57458 C 5405.16 -0.223838 2.05384 0
M  V30 57459 C 5405.57 -1.42958 1.23934 0
M  V30 57460 O 5404.91 -1.81658 0.273136 0
M  V30 57461 C 5404.98 -0.680914 3.52993 0
M  V30 57462 C 5404.64 0.40821 4.55173 0
M  V30 57463 C 5405.64 1.25824 5.04445 0
M  V30 57464 C 5403.32 0.568603 4.99071 0
M  V30 57465 C 5405.32 2.254 5.96216 0
M  V30 57466 C 5403 1.56773 5.90648 0
M  V30 57467 C 5404 2.40887 6.39111 0
M  V30 57468 O 5403.69 3.39095 7.28883 0
M  V30 57469 H 5403.42 -0.0429355 0.674635 0
M  V30 57470 H 5405.98 0.522966 1.98631 0
M  V30 57471 H 5404.21 -1.47933 3.57285 0
M  V30 57472 H 5405.89 -1.19392 3.87944 0
M  V30 57473 H 5406.66 1.14552 4.71278 0
M  V30 57474 H 5402.54 -0.0763238 4.60937 0
M  V30 57475 H 5406.08 2.9109 6.33966 0
M  V30 57476 H 5401.98 1.68092 6.2323 0
M  V30 57477 H 5402.75 3.3483 7.46881 0
M  V30 57478 N 5405.41 -1.57312 0.095289 0
M  V30 57479 C 5406.36 -2.14035 -0.863582 0
M  V30 57480 C 5407.33 -1.05895 -1.27967 0
M  V30 57481 O 5408.51 -1.33682 -1.36138 0
M  V30 57482 C 5405.65 -2.7252 -2.11723 0
M  V30 57483 C 5404.77 -3.94893 -1.75166 0
M  V30 57484 C 5403.9 -4.41543 -2.95318 0
M  V30 57485 C 5402.94 -5.56505 -2.54889 0
M  V30 57486 N 5402.08 -5.98006 -3.67876 0
M  V30 57487 H 5406.92 -2.95656 -0.373011 0
M  V30 57488 H 5404.45 -1.46086 -0.172446 0
M  V30 57489 H 5406.41 -3.04549 -2.85142 0
M  V30 57490 H 5405.04 -1.93627 -2.5828 0
M  V30 57491 H 5404.09 -3.69178 -0.91715 0
M  V30 57492 H 5405.41 -4.78327 -1.41438 0
M  V30 57493 H 5404.56 -4.75356 -3.7699 0
M  V30 57494 H 5403.3 -3.57011 -3.32257 0
M  V30 57495 H 5402.3 -5.2232 -1.71644 0
M  V30 57496 H 5403.53 -6.42787 -2.19094 0
M  V30 57497 H 5401.48 -5.1642 -4.04533 0
M  V30 57498 H 5401.39 -6.76237 -3.37994 0
M  V30 57499 H 5402.66 -6.3645 -4.50058 0
M  V30 57500 N 5406.89 0.178405 -1.56587 0
M  V30 57501 C 5407.85 1.20472 -1.94985 0
M  V30 57502 C 5408.85 1.37558 -0.832725 0
M  V30 57503 O 5410.04 1.35085 -1.09989 0
M  V30 57504 C 5407.17 2.57109 -2.23848 0
M  V30 57505 H 5408.37 0.876072 -2.86819 0
M  V30 57506 H 5405.92 0.420582 -1.50535 0
M  V30 57507 H 5406.66 2.95 -1.34705 0
M  V30 57508 H 5406.44 2.46075 -3.05269 0
M  V30 57509 H 5407.93 3.31087 -2.54501 0
M  V30 57510 N 5408.37 1.51136 0.446714 0
M  V30 57511 C 5409.33 1.71193 1.524 0
M  V30 57512 C 5410.33 0.58209 1.49894 0
M  V30 57513 O 5411.52 0.849505 1.52082 0
M  V30 57514 C 5408.65 1.75973 2.9197 0
M  V30 57515 H 5409.85 2.67329 1.35924 0
M  V30 57516 H 5407.4 1.40985 0.674763 0
M  V30 57517 H 5408.13 0.816175 3.13862 0
M  V30 57518 H 5407.92 2.58075 2.95194 0
M  V30 57519 H 5409.41 1.9336 3.70137 0
M  V30 57520 N 5409.85 -0.701542 1.41125 0
M  V30 57521 C 5411.09 -1.4624 1.4137 0
M  V30 57522 C 5411.45 -1.92389 0.0201338 0
M  V30 57523 O 5410.74 -1.66223 -0.952912 0
M  V30 57524 C 5410.93 -2.69292 2.34982 0
M  V30 57525 C 5410.76 -2.3518 3.83302 0
M  V30 57526 C 5409.53 -2.25834 4.52025 0
M  V30 57527 C 5411.73 -1.98539 4.74433 0
M  V30 57528 N 5409.71 -1.84544 5.85505 0
M  V30 57529 C 5411.08 -1.6796 5.96816 0
M  V30 57530 C 5413.14 -1.85297 4.62136 0
M  V30 57531 C 5411.84 -1.25471 7.08272 0
M  V30 57532 C 5413.87 -1.44212 5.73548 0
M  V30 57533 C 5413.23 -1.1454 6.95025 0
M  V30 57534 H 5409.33 -0.532659 0.572537 0
M  V30 57535 H 5411.91 -0.812234 1.76949 0
M  V30 57536 H 5410.08 -3.32038 2.01508 0
M  V30 57537 H 5411.82 -3.35726 2.25987 0
M  V30 57538 H 5408.57 -2.44035 4.05886 0
M  V30 57539 H 5409 -1.66398 6.56232 0
M  V30 57540 H 5413.64 -2.06893 3.68721 0
M  V30 57541 H 5411.36 -1.02619 8.01558 0
M  V30 57542 H 5414.94 -1.34524 5.66034 0
M  V30 57543 H 5413.82 -0.832282 7.79771 0
M  V30 57544 N 5411.32 -1.26854 -0.935197 0
M  V30 57545 C 5412.57 -1.12138 -1.67654 0
M  V30 57546 C 5412.89 0.333771 -1.92731 0
M  V30 57547 O 5414.09 0.601707 -2.64748 0
M  V30 57548 C 5412.55 -1.95883 -3.01923 0
M  V30 57549 C 5412.16 -3.4601 -2.84572 0
M  V30 57550 C 5413.9 -1.89794 -3.79708 0
M  V30 57551 C 5411.81 -4.21981 -4.14351 0
M  V30 57552 H 5410.74 -0.416057 -0.628818 0
M  V30 57553 H 5413.39 -1.51213 -1.03956 0
M  V30 57554 H 5411.77 -1.49646 -3.66636 0
M  V30 57555 H 5412.94 -4.00057 -2.28672 0
M  V30 57556 H 5411.26 -3.53398 -2.20224 0
M  V30 57557 H 5413.86 -2.43835 -4.75866 0
M  V30 57558 H 5414.2 -0.86994 -4.07109 0
M  V30 57559 H 5414.73 -2.33886 -3.2178 0
M  V30 57560 H 5411.47 -5.25274 -3.92132 0
M  V30 57561 H 5410.99 -3.72712 -4.69942 0
M  V30 57562 H 5412.67 -4.30751 -4.82765 0
M  V30 57563 N 5412.8 1.14063 -1.08754 0
M  V30 57564 C 5413.73 2.21382 -0.742437 0
M  V30 57565 C 5414.71 1.67834 0.276746 0
M  V30 57566 O 5415.9 1.93648 0.146332 0
M  V30 57567 C 5413.03 3.46955 -0.154766 0
M  V30 57568 C 5411.98 4.13551 -1.10269 0
M  V30 57569 C 5411.31 5.33369 -0.377064 0
M  V30 57570 C 5412.61 4.61681 -2.44229 0
M  V30 57571 H 5414.3 2.50506 -1.63973 0
M  V30 57572 H 5411.85 1.20405 -0.78985 0
M  V30 57573 H 5413.8 4.21284 0.0986938 0
M  V30 57574 H 5412.53 3.17206 0.777677 0
M  V30 57575 H 5411.18 3.41181 -1.34131 0
M  V30 57576 H 5410.83 4.99881 0.559297 0
M  V30 57577 H 5410.53 5.78871 -1.00904 0
M  V30 57578 H 5412.06 6.10458 -0.131741 0
M  V30 57579 H 5413.47 5.27467 -2.24614 0
M  V30 57580 H 5411.87 5.17899 -3.03152 0
M  V30 57581 H 5412.94 3.76564 -3.05496 0
M  V30 57582 N 5414.28 0.873724 1.31163 0
M  V30 57583 C 5415.51 0.501114 2.0074 0
M  V30 57584 C 5415.92 -0.907418 1.65564 0
M  V30 57585 O 5415.28 -1.59504 0.886827 0
M  V30 57586 C 5415.33 0.653002 3.55553 0
M  V30 57587 O 5415.05 2.00607 3.89472 0
M  V30 57588 C 5416.55 0.281898 4.42403 0
M  V30 57589 H 5413.77 0.194851 0.642086 0
M  V30 57590 H 5416.32 1.17592 1.67309 0
M  V30 57591 H 5414.47 0.0256989 3.87391 0
M  V30 57592 H 5414.89 2.01655 4.84186 0
M  V30 57593 H 5416.36 0.439114 5.50251 0
M  V30 57594 H 5416.84 -0.779237 4.32232 0
M  V30 57595 H 5417.44 0.885056 4.15989 0
M  V30 57596 N 5415.76 -1.44305 0.633538 0
M  V30 57597 C 5416.67 -2.34492 -0.0710962 0
M  V30 57598 C 5417.68 -1.52757 -0.833147 0
M  V30 57599 O 5418.86 -1.85477 -0.784863 0
M  V30 57600 C 5415.93 -3.30771 -1.03883 0
M  V30 57601 C 5414.99 -4.28413 -0.275892 0
M  V30 57602 C 5414.22 -5.20091 -1.19753 0
M  V30 57603 O 5414.44 -5.15752 -2.43632 0
M  V30 57604 O 5413.38 -5.9804 -0.680554 0
M  V30 57605 H 5417.2 -2.96201 0.670734 0
M  V30 57606 H 5414.79 -1.44118 0.393729 0
M  V30 57607 H 5416.67 -3.90027 -1.59552 0
M  V30 57608 H 5415.34 -2.71592 -1.76124 0
M  V30 57609 H 5414.25 -3.72695 0.323901 0
M  V30 57610 H 5415.58 -4.90518 0.406537 0
M  V30 57611 N 5417.24 -0.374231 -1.53092 0
M  V30 57612 C 5418.51 0.269563 -1.93734 0
M  V30 57613 C 5418.89 1.65656 -1.30849 0
M  V30 57614 O 5418.24 2.23596 -0.470838 0
M  V30 57615 C 5418.45 0.311082 -3.47611 0
M  V30 57616 C 5419.8 0.547284 -4.21058 0
M  V30 57617 O 5420.82 0.391928 -3.54037 0
M  V30 57618 O 5419.68 0.850455 -5.39842 0
M  V30 57619 H 5416.78 0.163695 -0.810637 0
M  V30 57620 H 5419.32 -0.427644 -1.64223 0
M  V30 57621 H 5418.09 -0.661032 -3.85676 0
M  V30 57622 H 5417.72 1.05383 -3.8338 0
M  V30 57623 N 5418.71 1.57259 -0.10363 0
M  V30 57624 C 5419.66 2.11035 0.863027 0
M  V30 57625 C 5420.65 1.02741 1.23827 0
M  V30 57626 O 5421.84 1.29001 1.21193 0
M  V30 57627 C 5418.97 2.70107 2.1189 0
M  V30 57628 C 5418.06 3.85457 1.76871 0
M  V30 57629 N 5418.45 4.93141 1.12451 0
M  V30 57630 C 5416.74 3.95353 2.06427 0
M  V30 57631 C 5417.45 5.73685 0.962325 0
M  V30 57632 N 5416.42 5.22997 1.48239 0
M  V30 57633 H 5420.22 2.91672 0.361162 0
M  V30 57634 H 5417.74 1.62096 0.0993224 0
M  V30 57635 H 5419.73 3.06967 2.82094 0
M  V30 57636 H 5418.39 1.90928 2.62634 0
M  V30 57637 H 5419.41 5.11834 0.790309 0
M  V30 57638 H 5416.08 3.27194 2.59326 0
M  V30 57639 H 5417.47 6.70338 0.457862 0
M  V30 57640 N 5420.19 -0.170098 1.56679 0
M  V30 57641 C 5421.42 -0.906115 1.86559 0
M  V30 57642 C 5421.84 -1.74983 0.690106 0
M  V30 57643 O 5421.2 -1.77674 -0.3608 0
M  V30 57644 C 5421.25 -1.75766 3.14863 0
M  V30 57645 O 5420.35 -2.85942 2.97172 0
M  V30 57646 H 5419.69 -0.253759 0.613598 0
M  V30 57647 H 5422.22 -0.167871 2.0391 0
M  V30 57648 H 5422.23 -2.15735 3.46298 0
M  V30 57649 H 5420.91 -1.13793 4.0003 0
M  V30 57650 H 5419.49 -2.49547 2.77093 0
M  V30 57651 N 5421.67 -1.51371 -0.438693 0
M  V30 57652 C 5422.92 -1.63973 -1.18824 0
M  V30 57653 C 5423.25 -0.355313 -1.91227 0
M  V30 57654 O 5422.5 0.66054 -1.84216 0
M  V30 57655 C 5422.8 -2.79229 -2.23083 0
M  V30 57656 C 5422.47 -4.18553 -1.67702 0
M  V30 57657 C 5421.13 -4.56456 -1.52321 0
M  V30 57658 C 5423.48 -5.05498 -1.26969 0
M  V30 57659 C 5420.81 -5.7901 -0.946792 0
M  V30 57660 C 5423.16 -6.2863 -0.707564 0
M  V30 57661 C 5421.82 -6.65307 -0.540647 0
M  V30 57662 H 5421.09 -0.600019 -0.434809 0
M  V30 57663 H 5423.74 -1.854 -0.4795 0
M  V30 57664 H 5422.05 -2.52018 -2.9999 0
M  V30 57665 H 5423.74 -2.86178 -2.80897 0
M  V30 57666 H 5420.33 -3.88669 -1.80649 0
M  V30 57667 H 5424.52 -4.76823 -1.37673 0
M  V30 57668 H 5419.77 -6.06074 -0.805219 0
M  V30 57669 H 5423.95 -6.95344 -0.383415 0
M  V30 57670 H 5421.57 -7.60144 -0.0918652 0
M  V30 57671 N 5423.15 0.694048 -1.41495 0
M  V30 57672 C 5424.06 1.83773 -1.45824 0
M  V30 57673 C 5425.07 1.7047 -0.348699 0
M  V30 57674 O 5426.25 1.92359 -0.596655 0
M  V30 57675 C 5423.32 3.19767 -1.33979 0
M  V30 57676 C 5422.38 3.45167 -2.55262 0
M  V30 57677 C 5421.61 4.74672 -2.43971 0
M  V30 57678 O 5421.83 5.51263 -1.46511 0
M  V30 57679 O 5420.77 5.00889 -3.33757 0
M  V30 57680 H 5424.59 1.83076 -2.42316 0
M  V30 57681 H 5422.18 0.847306 -1.23049 0
M  V30 57682 H 5424.06 4.00956 -1.29662 0
M  V30 57683 H 5422.73 3.21143 -0.406039 0
M  V30 57684 H 5421.64 2.63901 -2.65155 0
M  V30 57685 H 5422.97 3.48605 -3.4747 0
M  V30 57686 N 5424.63 1.27348 0.928456 0
M  V30 57687 C 5425.9 1.04368 1.65429 0
M  V30 57688 C 5426.28 -0.421823 2.06843 0
M  V30 57689 O 5425.63 -1.4049 1.80208 0
M  V30 57690 C 5425.84 2.00452 2.85692 0
M  V30 57691 C 5427.19 2.2978 3.57053 0
M  V30 57692 O 5428.21 1.9842 2.95818 0
M  V30 57693 O 5427.07 2.83233 4.67377 0
M  V30 57694 H 5424.17 0.397808 0.725036 0
M  V30 57695 H 5426.71 1.38609 0.97906 0
M  V30 57696 H 5425.49 2.9929 2.52074 0
M  V30 57697 H 5425.11 1.66768 3.60935 0
M  V30 57698 N 5426.11 -1.13484 1.09357 0
M  V30 57699 C 5427.52 -1.36736 0.823134 0
M  V30 57700 C 5427.72 -1.93478 -0.562895 0
M  V30 57701 O 5426.78 -2.15379 -1.31789 0
M  V30 57702 C 5428.09 -2.31937 1.91379 0
M  V30 57703 C 5429.64 -2.45554 1.94094 0
M  V30 57704 C 5430.11 -3.44061 3.02301 0
M  V30 57705 N 5431.6 -3.51611 3.01536 0
M  V30 57706 C 5432.34 -4.27711 3.81905 0
M  V30 57707 N 5431.84 -5.0697 4.72179 0
M  V30 57708 N 5433.63 -4.23005 3.70167 0
M  V30 57709 H 5425.78 -0.75005 1.98716 0
M  V30 57710 H 5428.04 -0.392534 0.862914 0
M  V30 57711 H 5427.75 -1.97398 2.91079 0
M  V30 57712 H 5427.62 -3.31946 1.79142 0
M  V30 57713 H 5430.01 -2.79379 0.950332 0
M  V30 57714 H 5430.09 -1.45472 2.10408 0
M  V30 57715 H 5429.73 -3.10967 4.01574 0
M  V30 57716 H 5429.66 -4.43946 2.8323 0
M  V30 57717 H 5432.16 -2.95057 2.36113 0
M  V30 57718 H 5432.47 -5.62342 5.30087 0
M  V30 57719 H 5430.81 -5.06206 4.76215 0
M  V30 57720 H 5434 -3.6016 2.99002 0
M  V30 57721 H 5434.18 -4.82059 4.33039 0
M  V30 57722 N 5427.58 -0.880667 -1.30698 0
M  V30 57723 C 5428.52 -0.288893 -2.26364 0
M  V30 57724 C 5429.49 0.588082 -1.51593 0
M  V30 57725 O 5430.68 0.539134 -1.80626 0
M  V30 57726 C 5427.81 0.589914 -3.33523 0
M  V30 57727 C 5426.85 -0.217152 -4.25947 0
M  V30 57728 S 5427.68 -1.60264 -5.10956 0
M  V30 57729 C 5428.84 -0.730242 -6.21626 0
M  V30 57730 H 5429.07 -1.09981 -2.76209 0
M  V30 57731 H 5426.61 -0.679829 -1.38628 0
M  V30 57732 H 5428.56 1.09123 -3.9573 0
M  V30 57733 H 5427.23 1.37488 -2.82411 0
M  V30 57734 H 5426.42 0.453304 -5.01957 0
M  V30 57735 H 5426.02 -0.650932 -3.68292 0
M  V30 57736 H 5428.31 0.0546263 -6.77478 0
M  V30 57737 H 5429.26 -1.46181 -6.92847 0
M  V30 57738 H 5429.66 -0.293053 -5.63739 0
M  V30 57739 N 5429.06 1.43967 -0.641182 0
M  V30 57740 C 5430.31 2.01163 -0.147097 0
M  V30 57741 C 5430.62 1.51104 1.24206 0
M  V30 57742 O 5431.83 2.00493 1.83071 0
M  V30 57743 C 5430.29 3.59274 -0.212194 0
M  V30 57744 C 5429.89 4.18328 -1.60329 0
M  V30 57745 C 5431.64 4.23904 0.224908 0
M  V30 57746 C 5429.54 5.68695 -1.62296 0
M  V30 57747 H 5428.47 0.752258 -0.0512275 0
M  V30 57748 H 5431.13 1.65073 -0.801454 0
M  V30 57749 H 5429.51 3.92709 0.509451 0
M  V30 57750 H 5430.68 3.96413 -2.34932 0
M  V30 57751 H 5429 3.66024 -1.98533 0
M  V30 57752 H 5431.59 5.34206 0.229886 0
M  V30 57753 H 5431.94 3.9696 1.25412 0
M  V30 57754 H 5432.47 3.95308 -0.444579 0
M  V30 57755 H 5429.21 6.00388 -2.63087 0
M  V30 57756 H 5428.73 5.92702 -0.920006 0
M  V30 57757 H 5430.41 6.32516 -1.36135 0
M  V30 57758 N 5430.54 0.382345 1.52892 0
M  V30 57759 C 5431.82 -0.259285 1.93874 0
M  V30 57760 C 5432.2 -1.64959 1.31726 0
M  V30 57761 O 5431.54 -2.23344 0.482689 0
M  V30 57762 C 5431.75 -0.292643 3.47771 0
M  V30 57763 C 5433.1 -0.524947 4.21342 0
M  V30 57764 O 5434.13 -0.373147 3.5424 0
M  V30 57765 O 5432.99 -0.821814 5.40286 0
M  V30 57766 H 5430.08 -0.159393 0.811494 0
M  V30 57767 H 5432.63 0.436347 1.63994 0
M  V30 57768 H 5431.4 0.681476 3.8532 0
M  V30 57769 H 5431.02 -1.03348 3.83933 0
M  V30 57770 N 5432.02 -1.57202 0.111969 0
M  V30 57771 C 5433.29 -1.86461 -0.590906 0
M  V30 57772 C 5433.67 -1.01189 -1.85268 0
M  V30 57773 O 5433.02 -0.0888693 -2.28327 0
M  V30 57774 C 5433.23 -3.37458 -0.890106 0
M  V30 57775 C 5434.58 -4.05899 -1.24623 0
M  V30 57776 O 5435.6 -3.42437 -0.980592 0
M  V30 57777 O 5434.46 -5.1791 -1.74447 0
M  V30 57778 H 5431.56 -0.771663 -0.297432 0
M  V30 57779 H 5434.1 -1.69071 0.145941 0
M  V30 57780 H 5432.88 -3.913 0.00432769 0
M  V30 57781 H 5432.5 -3.60254 -1.68235 0
M  V30 57782 N 5433.5 0.161787 -1.56767 0
M  V30 57783 C 5434.43 1.20218 -2.00174 0
M  V30 57784 C 5435.41 1.45637 -0.878858 0
M  V30 57785 O 5436.59 1.56809 -1.14562 0
M  V30 57786 C 5433.72 2.53888 -2.36977 0
M  V30 57787 C 5432.68 2.43021 -3.52314 0
M  V30 57788 C 5432 3.81267 -3.74886 0
M  V30 57789 C 5433.3 1.92683 -4.85459 0
M  V30 57790 H 5435 0.841319 -2.87336 0
M  V30 57791 H 5432.54 0.40326 -1.38238 0
M  V30 57792 H 5434.49 3.26884 -2.65942 0
M  V30 57793 H 5433.22 2.91782 -1.46735 0
M  V30 57794 H 5431.88 1.72479 -3.23491 0
M  V30 57795 H 5431.53 4.1657 -2.81919 0
M  V30 57796 H 5431.23 3.74861 -4.52496 0
M  V30 57797 H 5432.75 4.55834 -4.06261 0
M  V30 57798 H 5434.16 2.55459 -5.13238 0
M  V30 57799 H 5432.56 1.97202 -5.66773 0
M  V30 57800 H 5433.63 0.881649 -4.76818 0
M  V30 57801 N 5434.97 1.51602 0.430659 0
M  V30 57802 C 5436.2 1.68704 1.20639 0
M  V30 57803 C 5436.62 0.38662 1.84084 0
M  V30 57804 O 5435.98 -0.653893 1.69097 0
M  V30 57805 C 5436.03 2.80895 2.2612 0
M  V30 57806 O 5435.13 2.44963 3.31763 0
M  V30 57807 H 5434.47 0.562302 0.353147 0
M  V30 57808 H 5437 1.982 0.507737 0
M  V30 57809 H 5437.01 3.05176 2.70798 0
M  V30 57810 H 5435.69 3.75256 1.79321 0
M  V30 57811 H 5434.27 2.31278 2.92515 0
M  V30 57812 N 5436.45 -0.686534 1.41861 0
M  V30 57813 C 5437.4 -1.80033 1.44419 0
M  V30 57814 C 5438.37 -1.63414 0.297485 0
M  V30 57815 O 5439.55 -1.84136 0.499854 0
M  V30 57816 C 5436.69 -3.17983 1.34093 0
M  V30 57817 C 5435.81 -3.4597 2.58706 0
M  V30 57818 C 5434.94 -4.73584 2.40607 0
M  V30 57819 C 5433.98 -4.94568 3.60651 0
M  V30 57820 N 5433.12 -6.13414 3.41567 0
M  V30 57821 H 5437.96 -1.7718 2.39606 0
M  V30 57822 H 5435.49 -0.865116 1.18971 0
M  V30 57823 H 5437.45 -3.97685 1.26106 0
M  V30 57824 H 5436.08 -3.19989 0.425088 0
M  V30 57825 H 5435.13 -2.60608 2.77106 0
M  V30 57826 H 5436.45 -3.57374 3.47973 0
M  V30 57827 H 5435.6 -5.61356 2.30139 0
M  V30 57828 H 5434.34 -4.64442 1.4881 0
M  V30 57829 H 5433.34 -4.05241 3.71564 0
M  V30 57830 H 5434.57 -5.05562 4.53413 0
M  V30 57831 H 5432.52 -6.05468 2.52477 0
M  V30 57832 H 5432.43 -6.25626 4.24415 0
M  V30 57833 H 5433.7 -7.03896 3.34888 0
M  V30 57834 N 5437.93 -1.27838 -0.92169 0
M  V30 57835 C 5438.89 -1.11115 -2.00465 0
M  V30 57836 C 5439.89 -0.0532595 -1.60712 0
M  V30 57837 O 5441.08 -0.298368 -1.71626 0
M  V30 57838 C 5438.21 -0.694386 -3.33753 0
M  V30 57839 H 5439.41 -2.07286 -2.16731 0
M  V30 57840 H 5436.96 -1.10712 -1.10329 0
M  V30 57841 H 5437.7 0.268448 -3.23187 0
M  V30 57842 H 5437.48 -1.45848 -3.63965 0
M  V30 57843 H 5438.97 -0.599795 -4.1327 0
M  V30 57844 N 5439.41 1.12903 -1.09958 0
M  V30 57845 C 5440.66 1.83939 -0.837319 0
M  V30 57846 C 5440.98 1.84236 0.638919 0
M  V30 57847 O 5440.25 1.30198 1.46373 0
M  V30 57848 H 5438.83 0.681104 -0.306767 0
M  V30 57849 H 5441.49 1.36738 -1.38884 0
M  V30 57850 H 5440.59 2.88285 -1.19575 0
M  V30 57851 N 5440.89 0.887586 1.30229 0
M  V30 57852 C 5441.8 0.360415 2.31815 0
M  V30 57853 C 5442.81 -0.538683 1.65452 0
M  V30 57854 O 5443.99 -0.431176 1.9673 0
M  V30 57855 C 5441.05 -0.414215 3.44217 0
M  V30 57856 C 5440.11 0.514949 4.262 0
M  V30 57857 C 5439.35 -0.222807 5.33235 0
M  V30 57858 O 5439.57 -1.44852 5.51701 0
M  V30 57859 O 5438.5 0.428433 6.00373 0
M  V30 57860 H 5442.33 1.20289 2.78863 0
M  V30 57861 H 5439.92 0.651506 1.34446 0
M  V30 57862 H 5441.8 -0.852714 4.12682 0
M  V30 57863 H 5440.47 -1.23294 2.99299 0
M  V30 57864 H 5439.38 1.00231 3.60423 0
M  V30 57865 H 5440.71 1.29976 4.74729 0
M  V30 57866 N 5442.36 -1.43625 0.648807 0
M  V30 57867 C 5443.3 -2.29046 -0.0841053 0
M  V30 57868 C 5444.31 -1.42265 -0.791487 0
M  V30 57869 O 5445.5 -1.66245 -0.64998 0
M  V30 57870 C 5442.6 -3.19079 -1.14201 0
M  V30 57871 C 5441.77 -4.34374 -0.513647 0
M  V30 57872 C 5440.83 -5.05312 -1.46785 0
M  V30 57873 O 5439.86 -5.60732 -0.978148 0
M  V30 57874 N 5441.06 -5.08403 -2.80191 0
M  V30 57875 H 5443.82 -2.92587 0.649051 0
M  V30 57876 H 5441.38 -1.54267 0.491263 0
M  V30 57877 H 5443.38 -3.63401 -1.78106 0
M  V30 57878 H 5441.95 -2.57167 -1.77719 0
M  V30 57879 H 5441.17 -3.93023 0.3044 0
M  V30 57880 H 5442.45 -5.08745 -0.0748083 0
M  V30 57881 H 5441.85 -4.64741 -3.22541 0
M  V30 57882 H 5440.41 -5.56456 -3.3941 0
M  V30 57883 N 5443.84 -0.390448 -1.52687 0
M  V30 57884 C 5444.75 0.451462 -2.30215 0
M  V30 57885 C 5445.77 1.07046 -1.37176 0
M  V30 57886 O 5446.94 1.07603 -1.70246 0
M  V30 57887 C 5444.01 1.56288 -3.09475 0
M  V30 57888 C 5443.07 0.96887 -4.18224 0
M  V30 57889 C 5442.3 2.02732 -4.93696 0
M  V30 57890 O 5442.53 3.24256 -4.6927 0
M  V30 57891 O 5441.46 1.64398 -5.79014 0
M  V30 57892 H 5445.29 -0.180149 -3.03165 0
M  V30 57893 H 5442.87 -0.154135 -1.48603 0
M  V30 57894 H 5444.75 2.20852 -3.58891 0
M  V30 57895 H 5443.43 2.17943 -2.39337 0
M  V30 57896 H 5442.34 0.286456 -3.73002 0
M  V30 57897 H 5443.67 0.396515 -4.906 0
M  V30 57898 N 5445.32 1.5714 -0.120304 0
M  V30 57899 C 5446.23 2.18928 0.843078 0
M  V30 57900 C 5447.25 1.1658 1.29171 0
M  V30 57901 O 5448.42 1.49054 1.35443 0
M  V30 57902 C 5445.49 2.77757 2.0749 0
M  V30 57903 C 5444.55 3.95145 1.67806 0
M  V30 57904 C 5443.78 4.51159 2.85116 0
M  V30 57905 O 5444 4.0607 4.00579 0
M  V30 57906 O 5442.94 5.41824 2.62126 0
M  V30 57907 H 5446.76 3.01708 0.347251 0
M  V30 57908 H 5444.35 1.49028 0.105375 0
M  V30 57909 H 5446.23 3.15253 2.79632 0
M  V30 57910 H 5444.91 1.98007 2.56076 0
M  V30 57911 H 5443.81 3.62415 0.927679 0
M  V30 57912 H 5445.15 4.76335 1.2396 0
M  V30 57913 N 5446.8 -0.153471 1.56851 0
M  V30 57914 C 5447.71 -1.20925 2.01033 0
M  V30 57915 C 5448.72 -1.47398 0.92465 0
M  V30 57916 O 5449.9 -1.59196 1.23364 0
M  V30 57917 C 5446.97 -2.5243 2.37656 0
M  V30 57918 C 5446.03 -2.33661 3.6014 0
M  V30 57919 C 5445.26 -3.58895 3.95007 0
M  V30 57920 O 5445.48 -4.64812 3.30615 0
M  V30 57921 O 5444.42 -3.51943 4.88283 0
M  V30 57922 H 5448.24 -0.864171 2.91146 0
M  V30 57923 H 5445.83 -0.361704 1.44955 0
M  V30 57924 H 5447.71 -3.29972 2.621 0
M  V30 57925 H 5446.38 -2.86481 1.507 0
M  V30 57926 H 5445.29 -1.54091 3.40891 0
M  V30 57927 H 5446.62 -2.04528 4.47693 0
M  V30 57928 N 5448.28 -1.51828 -0.422613 0
M  V30 57929 C 5449.19 -1.77071 -1.53893 0
M  V30 57930 C 5450.2 -0.655598 -1.61177 0
M  V30 57931 O 5451.38 -0.939511 -1.78144 0
M  V30 57932 C 5448.44 -1.90382 -2.89751 0
M  V30 57933 C 5447.5 -3.14267 -2.92464 0
M  V30 57934 C 5446.74 -3.26933 -4.21842 0
M  V30 57935 O 5446.96 -2.45182 -5.15016 0
M  V30 57936 O 5445.89 -4.20004 -4.31138 0
M  V30 57937 H 5449.72 -2.71796 -1.35501 0
M  V30 57938 H 5447.31 -1.36508 -0.607117 0
M  V30 57939 H 5449.19 -2.01037 -3.70354 0
M  V30 57940 H 5447.86 -0.988456 -3.08239 0
M  V30 57941 H 5446.77 -3.09079 -2.10763 0
M  V30 57942 H 5448.1 -4.0554 -2.78923 0
M  V30 57943 N 5449.75 0.679002 -1.42223 0
M  V30 57944 C 5450.66 1.82216 -1.47765 0
M  V30 57945 C 5451.68 1.70091 -0.36676 0
M  V30 57946 O 5452.86 1.91715 -0.617024 0
M  V30 57947 C 5449.92 3.18328 -1.37363 0
M  V30 57948 C 5448.98 3.4244 -2.58908 0
M  V30 57949 C 5448.22 4.72058 -2.48992 0
M  V30 57950 O 5448.44 5.49678 -1.5235 0
M  V30 57951 O 5447.37 4.97321 -3.3905 0
M  V30 57952 H 5451.2 1.80495 -2.44244 0
M  V30 57953 H 5448.78 0.834207 -1.23941 0
M  V30 57954 H 5450.67 3.99558 -1.33907 0
M  V30 57955 H 5449.34 3.20695 -0.440077 0
M  V30 57956 H 5448.25 2.61074 -2.67939 0
M  V30 57957 H 5449.58 3.449 -3.51148 0
M  V30 57958 N 5451.23 1.28325 0.914897 0
M  V30 57959 C 5452.14 1.14 2.05039 0
M  V30 57960 C 5453.16 0.0668533 1.73872 0
M  V30 57961 O 5454.33 0.275915 1.99501 0
M  V30 57962 C 5451.4 0.801975 3.37297 0
M  V30 57963 C 5450.46 1.95736 3.82081 0
M  V30 57964 C 5449.69 1.63537 5.08027 0
M  V30 57965 O 5449.92 0.54919 5.6775 0
M  V30 57966 O 5448.85 2.47864 5.48495 0
M  V30 57967 H 5452.68 2.0932 2.20043 0
M  V30 57968 H 5450.26 1.07633 1.03612 0
M  V30 57969 H 5452.14 0.627361 4.16704 0
M  V30 57970 H 5450.82 -0.121583 3.23472 0
M  V30 57971 H 5449.73 2.18712 3.03506 0
M  V30 57972 H 5451.06 2.86158 4.00468 0
M  V30 57973 N 5452.71 -1.12318 1.10555 0
M  V30 57974 C 5453.96 -1.84127 0.849996 0
M  V30 57975 C 5454.29 -1.8394 -0.622881 0
M  V30 57976 O 5453.56 -1.28584 -1.45933 0
M  V30 57977 C 5453.85 -3.31746 1.40059 0
M  V30 57978 C 5453.7 -3.40381 2.94042 0
M  V30 57979 C 5455.02 -4.27539 1.04394 0
M  V30 57980 H 5452.14 -0.668522 0.310237 0
M  V30 57981 H 5454.78 -1.31761 1.3689 0
M  V30 57982 H 5452.93 -3.76472 0.959234 0
M  V30 57983 H 5454.6 -3.04281 3.46714 0
M  V30 57984 H 5452.85 -2.80889 3.30581 0
M  V30 57985 H 5453.52 -4.4424 3.2765 0
M  V30 57986 H 5455.99 -3.90946 1.42479 0
M  V30 57987 H 5454.87 -5.29235 1.45608 0
M  V30 57988 H 5455.13 -4.42076 -0.0464762 0
M  V30 57989 N 5454.19 -0.89448 -1.29757 0
M  V30 57990 C 5455.1 -0.372703 -2.31621 0
M  V30 57991 C 5456.12 0.529901 -1.65735 0
M  V30 57992 O 5457.29 0.420737 -1.96956 0
M  V30 57993 C 5454.36 0.395955 -3.44432 0
M  V30 57994 C 5453.42 -0.537544 -4.25921 0
M  V30 57995 C 5452.65 0.194525 -5.33345 0
M  V30 57996 O 5452.87 1.41924 -5.52462 0
M  V30 57997 O 5451.81 -0.460266 -6.00138 0
M  V30 57998 H 5455.63 -1.21766 -2.78221 0
M  V30 57999 H 5453.22 -0.658627 -1.34099 0
M  V30 58000 H 5455.1 0.830817 -4.13129 0
M  V30 58001 H 5453.78 1.21705 -2.99949 0
M  V30 58002 H 5452.68 -1.02141 -3.59886 0
M  V30 58003 H 5454.02 -1.32491 -4.74033 0
M  V30 58004 N 5455.67 1.43279 -0.656415 0
M  V30 58005 C 5456.58 2.34576 0.0337816 0
M  V30 58006 C 5457.59 1.54063 0.808739 0
M  V30 58007 O 5458.77 1.86703 0.755256 0
M  V30 58008 C 5455.83 3.32381 0.98608 0
M  V30 58009 C 5454.9 4.28797 0.207701 0
M  V30 58010 C 5454.13 5.21931 1.11464 0
M  V30 58011 O 5454.35 5.19562 2.35396 0
M  V30 58012 O 5453.29 5.99047 0.585325 0
M  V30 58013 H 5457.11 2.95096 -0.717772 0
M  V30 58014 H 5454.7 1.43474 -0.416607 0
M  V30 58015 H 5456.58 3.92516 1.53327 0
M  V30 58016 H 5455.25 2.7436 1.7178 0
M  V30 58017 H 5454.16 3.72133 -0.383153 0
M  V30 58018 H 5455.49 4.89809 -0.484523 0
M  V30 58019 N 5457.15 0.398539 1.52478 0
M  V30 58020 C 5458.09 -0.432132 2.26718 0
M  V30 58021 C 5459.06 -1.05003 1.287 0
M  V30 58022 O 5460.25 -1.0763 1.57545 0
M  V30 58023 C 5457.39 -1.54857 3.08405 0
M  V30 58024 C 5456.5 -0.952631 4.21366 0
M  V30 58025 C 5455.64 -2.04088 4.9043 0
M  V30 58026 C 5454.67 -1.42133 5.95369 0
M  V30 58027 N 5453.81 -2.44928 6.57993 0
M  V30 58028 H 5458.65 0.207408 2.97277 0
M  V30 58029 H 5456.19 0.114117 1.46657 0
M  V30 58030 H 5458.15 -2.20671 3.54062 0
M  V30 58031 H 5456.78 -2.15829 2.40037 0
M  V30 58032 H 5455.83 -0.183828 3.79956 0
M  V30 58033 H 5457.14 -0.459957 4.96675 0
M  V30 58034 H 5456.29 -2.77653 5.39438 0
M  V30 58035 H 5455.03 -2.56718 4.14665 0
M  V30 58036 H 5454.04 -0.67097 5.4569 0
M  V30 58037 H 5455.26 -0.902857 6.73072 0
M  V30 58038 H 5453.21 -2.9671 5.85064 0
M  V30 58039 H 5453.13 -2.00442 7.28944 0
M  V30 58040 H 5454.39 -3.18094 7.11644 0
M  V30 58041 N 5458.62 -1.57074 0.128636 0
M  V30 58042 C 5459.57 -2.15818 -0.817988 0
M  V30 58043 C 5460.54 -1.08585 -1.25692 0
M  V30 58044 O 5461.73 -1.3654 -1.33272 0
M  V30 58045 C 5458.87 -2.7695 -2.05895 0
M  V30 58046 C 5457.98 -3.9852 -1.6675 0
M  V30 58047 C 5457.11 -4.47708 -2.85886 0
M  V30 58048 C 5456.15 -5.61787 -2.43027 0
M  V30 58049 N 5455.29 -6.05675 -3.55109 0
M  V30 58050 H 5460.13 -2.96381 -0.310214 0
M  V30 58051 H 5457.67 -1.46419 -0.14142 0
M  V30 58052 H 5459.62 -3.10528 -2.78618 0
M  V30 58053 H 5458.25 -1.99062 -2.54115 0
M  V30 58054 H 5457.31 -3.71041 -0.838635 0
M  V30 58055 H 5458.62 -4.8122 -1.3126 0
M  V30 58056 H 5457.77 -4.83246 -3.66822 0
M  V30 58057 H 5456.51 -3.63978 -3.24609 0
M  V30 58058 H 5455.52 -5.25844 -1.60526 0
M  V30 58059 H 5456.74 -6.47289 -2.0541 0
M  V30 58060 H 5454.69 -5.24884 -3.93488 0
M  V30 58061 H 5454.6 -6.83254 -3.23574 0
M  V30 58062 H 5455.87 -6.45853 -4.36457 0
M  V30 58063 N 5460.1 0.14515 -1.5693 0
M  V30 58064 C 5461.51 0.705028 -1.72876 0
M  V30 58065 C 5461.86 1.81574 -0.743325 0
M  V30 58066 O 5460.99 2.16214 0.0896393 0
M  V30 58067 C 5461.58 1.28567 -3.13458 0
M  V30 58068 C 5460.14 1.7921 -3.31 0
M  V30 58069 C 5459.29 0.681298 -2.688 0
M  V30 58070 H 5462.24 -0.0805355 -1.58496 0
M  V30 58071 H 5462.26 2.15547 -3.1356 0
M  V30 58072 H 5461.77 0.477051 -3.85157 0
M  V30 58073 H 5459.87 2.62632 -2.64301 0
M  V30 58074 H 5459.99 1.91954 -4.38965 0
M  V30 58075 H 5458.35 1.10839 -2.29318 0
M  V30 58076 H 5459.13 -0.115906 -3.43104 0
M  V30 58077 N 5461.58 1.5205 0.414556 0
M  V30 58078 C 5462.86 1.56401 1.17465 0
M  V30 58079 C 5463.24 0.341783 2.08315 0
M  V30 58080 O 5462.58 -0.671723 2.18404 0
M  V30 58081 C 5462.79 2.8899 1.95668 0
M  V30 58082 C 5464.14 3.41789 2.51923 0
M  V30 58083 O 5465.17 2.90693 2.05854 0
M  V30 58084 O 5464.03 4.31001 3.36007 0
M  V30 58085 H 5461.12 0.629759 0.536034 0
M  V30 58086 H 5463.67 1.64375 0.421776 0
M  V30 58087 H 5462.44 3.69396 1.29081 0
M  V30 58088 H 5462.06 2.84283 2.77973 0
M  V30 58089 N 5463.06 -0.67145 1.42581 0
M  V30 58090 C 5464.47 -1.25215 1.38485 0
M  V30 58091 C 5464.82 -1.96038 0.0797879 0
M  V30 58092 O 5463.94 -2.00206 -0.821371 0
M  V30 58093 C 5464.54 -2.27727 2.5085 0
M  V30 58094 C 5463.1 -2.81316 2.50077 0
M  V30 58095 C 5462.25 -1.55686 2.29472 0
M  V30 58096 H 5465.2 -0.46462 1.51746 0
M  V30 58097 H 5465.22 -3.09531 2.21294 0
M  V30 58098 H 5464.73 -1.76152 3.45821 0
M  V30 58099 H 5462.83 -3.37003 1.58934 0
M  V30 58100 H 5462.94 -3.30103 3.4723 0
M  V30 58101 H 5461.31 -1.82376 1.77795 0
M  V30 58102 H 5462.09 -1.06072 3.26502 0
M  V30 58103 N 5464.54 -1.28809 -0.908079 0
M  V30 58104 C 5465.47 -1.15765 -2.02782 0
M  V30 58105 C 5466.45 -0.0539707 -1.70014 0
M  V30 58106 O 5467.63 -0.231969 -1.9281 0
M  V30 58107 C 5464.76 -0.824644 -3.37368 0
M  V30 58108 C 5463.72 -1.88372 -3.84318 0
M  V30 58109 C 5463.04 -1.40422 -5.15932 0
M  V30 58110 C 5464.34 -3.29122 -4.05556 0
M  V30 58111 H 5466.04 -2.09438 -2.13953 0
M  V30 58112 H 5463.58 -1.00835 -1.02803 0
M  V30 58113 H 5465.53 -0.720136 -4.15201 0
M  V30 58114 H 5464.26 0.147788 -3.26265 0
M  V30 58115 H 5462.92 -1.97747 -3.08693 0
M  V30 58116 H 5462.57 -0.420691 -5.01238 0
M  V30 58117 H 5462.27 -2.11243 -5.48316 0
M  V30 58118 H 5463.79 -1.31304 -5.96315 0
M  V30 58119 H 5465.2 -3.22637 -4.73897 0
M  V30 58120 H 5463.6 -3.97828 -4.4928 0
M  V30 58121 H 5464.67 -3.7272 -3.10173 0
M  V30 58122 N 5466.01 1.1173 -1.11149 0
M  V30 58123 C 5466.96 2.15787 -0.736209 0
M  V30 58124 C 5467.95 1.58814 0.258264 0
M  V30 58125 O 5469.14 1.76877 0.0658457 0
M  V30 58126 C 5466.27 3.4284 -0.177717 0
M  V30 58127 C 5465.35 4.06778 -1.19967 0
M  V30 58128 N 5465.75 4.45618 -2.39287 0
M  V30 58129 C 5464.04 4.33659 -1.04191 0
M  V30 58130 C 5464.74 4.95673 -3.04439 0
M  V30 58131 N 5463.72 4.9164 -2.31929 0
M  V30 58132 H 5467.52 2.43592 -1.64439 0
M  V30 58133 H 5465.04 1.28713 -0.990292 0
M  V30 58134 H 5467.03 4.16757 0.109255 0
M  V30 58135 H 5465.69 3.165 0.72509 0
M  V30 58136 H 5466.7 4.37748 -2.76763 0
M  V30 58137 H 5463.38 4.17043 -0.195279 0
M  V30 58138 H 5464.77 5.3538 -4.05977 0
M  V30 58139 N 5467.49 0.901349 1.29281 0
M  V30 58140 C 5468.42 0.337632 2.267 0
M  V30 58141 C 5469.44 -0.516985 1.54373 0
M  V30 58142 O 5470.63 -0.333875 1.7535 0
M  V30 58143 C 5467.73 -0.537096 3.34617 0
M  V30 58144 C 5466.9 0.29217 4.36423 0
M  V30 58145 C 5465.96 -0.515653 5.23667 0
M  V30 58146 O 5464.98 0.0674304 5.6916 0
M  V30 58147 N 5466.19 -1.82139 5.51186 0
M  V30 58148 H 5468.95 1.17494 2.75709 0
M  V30 58149 H 5466.51 0.766007 1.42632 0
M  V30 58150 H 5468.5 -1.08396 3.89913 0
M  V30 58151 H 5467.07 -1.2751 2.85412 0
M  V30 58152 H 5466.29 1.02045 3.80763 0
M  V30 58153 H 5467.58 0.860032 5.01479 0
M  V30 58154 H 5466.98 -2.31782 5.16037 0
M  V30 58155 H 5465.54 -2.31535 6.09291 0
M  V30 58156 N 5468.97 -1.42929 0.664004 0
M  V30 58157 C 5469.9 -2.33499 -0.00723119 0
M  V30 58158 C 5470.88 -1.50077 -0.80068 0
M  V30 58159 O 5472.07 -1.78711 -0.759999 0
M  V30 58160 C 5469.2 -3.33573 -0.96678 0
M  V30 58161 C 5468.15 -4.27065 -0.282689 0
M  V30 58162 C 5467.48 -5.17261 -1.35443 0
M  V30 58163 C 5468.78 -5.15637 0.831619 0
M  V30 58164 H 5470.47 -2.89876 0.749146 0
M  V30 58165 H 5468.02 -1.39383 0.361705 0
M  V30 58166 H 5469.97 -3.95838 -1.44535 0
M  V30 58167 H 5468.69 -2.75475 -1.75445 0
M  V30 58168 H 5467.35 -3.66179 0.175546 0
M  V30 58169 H 5467 -4.55497 -2.13381 0
M  V30 58170 H 5466.7 -5.80637 -0.901894 0
M  V30 58171 H 5468.22 -5.82401 -1.83415 0
M  V30 58172 H 5469.64 -5.71649 0.434735 0
M  V30 58173 H 5468.04 -5.87789 1.20928 0
M  V30 58174 H 5469.11 -4.54681 1.68503 0
M  V30 58175 N 5470.45 -0.40662 -1.52264 0
M  V30 58176 C 5471.69 0.170234 -2.02084 0
M  V30 58177 C 5472.03 1.45003 -1.29181 0
M  V30 58178 O 5471.3 1.90397 -0.397377 0
M  V30 58179 C 5471.59 0.420501 -3.57636 0
M  V30 58180 C 5471.44 -0.875795 -4.41191 0
M  V30 58181 C 5472.76 1.20372 -4.23319 0
M  V30 58182 H 5469.88 0.0603961 -0.734521 0
M  V30 58183 H 5472.52 -0.539593 -1.82177 0
M  V30 58184 H 5470.67 1.02517 -3.7473 0
M  V30 58185 H 5472.34 -1.51208 -4.35814 0
M  V30 58186 H 5470.58 -1.48733 -4.07506 0
M  V30 58187 H 5471.25 -0.655109 -5.48099 0
M  V30 58188 H 5473.73 0.691828 -4.10308 0
M  V30 58189 H 5472.61 1.34758 -5.32101 0
M  V30 58190 H 5472.87 2.22366 -3.82107 0
M  V30 58191 N 5471.93 1.57004 -0.136964 0
M  V30 58192 C 5472.86 2.19265 0.802825 0
M  V30 58193 C 5473.84 1.13791 1.26435 0
M  V30 58194 O 5475.02 1.42096 1.32372 0
M  V30 58195 C 5472.15 2.80631 2.04606 0
M  V30 58196 C 5471.11 3.91845 1.72167 0
M  V30 58197 C 5470.43 4.40101 3.0367 0
M  V30 58198 C 5471.73 5.13099 0.976069 0
M  V30 58199 H 5473.43 2.9805 0.283955 0
M  V30 58200 H 5470.97 1.43364 0.135138 0
M  V30 58201 H 5472.93 3.22851 2.70823 0
M  V30 58202 H 5471.65 1.99162 2.58848 0
M  V30 58203 H 5470.31 3.50228 1.08332 0
M  V30 58204 H 5469.96 3.55466 3.55883 0
M  V30 58205 H 5469.66 5.15108 2.82733 0
M  V30 58206 H 5471.18 4.84984 3.70976 0
M  V30 58207 H 5472.59 5.52225 1.54013 0
M  V30 58208 H 5470.99 5.93804 0.867005 0
M  V30 58209 H 5472.06 4.84888 -0.0340192 0
M  V30 58210 N 5473.4 -0.136826 1.57005 0
M  V30 58211 C 5474.35 -1.17404 1.95449 0
M  V30 58212 C 5475.34 -1.38016 0.827063 0
M  V30 58213 O 5476.53 -1.39408 1.09062 0
M  V30 58214 C 5473.66 -2.50517 2.34726 0
M  V30 58215 C 5472.75 -2.33455 3.54062 0
M  V30 58216 N 5473.14 -1.86168 4.70293 0
M  V30 58217 C 5471.43 -2.64172 3.59345 0
M  V30 58218 C 5472.14 -1.82391 5.52366 0
M  V30 58219 N 5471.11 -2.26081 4.94356 0
M  V30 58220 H 5474.91 -0.800701 2.82783 0
M  V30 58221 H 5472.43 -0.344775 1.58698 0
M  V30 58222 H 5474.42 -3.25511 2.60477 0
M  V30 58223 H 5473.08 -2.88624 1.48749 0
M  V30 58224 H 5474.1 -1.5598 4.93853 0
M  V30 58225 H 5470.77 -3.06086 2.83932 0
M  V30 58226 H 5472.16 -1.47237 6.55569 0
M  V30 58227 N 5474.88 -1.52268 -0.406486 0
M  V30 58228 C 5476.13 -1.66456 -1.15319 0
M  V30 58229 C 5476.46 -0.395795 -1.9043 0
M  V30 58230 O 5475.71 0.621317 -1.85575 0
M  V30 58231 C 5476.01 -2.83898 -2.1711 0
M  V30 58232 C 5475.68 -4.22016 -1.58786 0
M  V30 58233 C 5474.34 -4.59584 -1.42605 0
M  V30 58234 C 5476.69 -5.08078 -1.16218 0
M  V30 58235 C 5474.02 -5.80888 -0.823763 0
M  V30 58236 C 5476.37 -6.2999 -0.574063 0
M  V30 58237 C 5475.04 -6.66304 -0.399404 0
M  V30 58238 H 5474.31 -0.609106 -0.421984 0
M  V30 58239 H 5476.95 -1.86375 -0.440066 0
M  V30 58240 H 5475.26 -2.58325 -2.94577 0
M  V30 58241 H 5476.95 -2.92072 -2.74763 0
M  V30 58242 H 5473.54 -3.92414 -1.72365 0
M  V30 58243 H 5477.73 -4.79636 -1.27527 0
M  V30 58244 H 5472.98 -6.07646 -0.676481 0
M  V30 58245 H 5477.16 -6.96001 -0.235836 0
M  V30 58246 H 5474.79 -7.60168 0.0693934 0
M  V30 58247 N 5476.36 0.663879 -1.42935 0
M  V30 58248 C 5477.59 1.45685 -1.47616 0
M  V30 58249 C 5478.01 1.87874 -0.0920966 0
M  V30 58250 O 5477.37 1.56699 0.911865 0
M  V30 58251 C 5477.42 2.67509 -2.41809 0
M  V30 58252 O 5476.52 3.6618 -1.89699 0
M  V30 58253 H 5475.86 0.43724 -0.499717 0
M  V30 58254 H 5478.39 0.813331 -1.87739 0
M  V30 58255 H 5478.4 3.15451 -2.58756 0
M  V30 58256 H 5477.08 2.36143 -3.42359 0
M  V30 58257 H 5475.65 3.25268 -1.8236 0
M  V30 58258 N 5477.84 1.29288 0.901235 0
M  V30 58259 C 5479.25 1.07267 1.18178 0
M  V30 58260 C 5479.45 -0.177016 2.00721 0
M  V30 58261 O 5478.51 -0.875209 2.36847 0
M  V30 58262 C 5479.82 2.32723 1.90421 0
M  V30 58263 C 5481.37 2.38027 2.03254 0
M  V30 58264 C 5481.85 3.63283 2.78907 0
M  V30 58265 N 5483.34 3.63997 2.86462 0
M  V30 58266 C 5484.07 4.57597 3.45533 0
M  V30 58267 N 5483.57 5.61527 4.05782 0
M  V30 58268 N 5485.36 4.45169 3.43192 0
M  V30 58269 H 5477.51 2.09489 0.350462 0
M  V30 58270 H 5479.78 0.922654 0.217746 0
M  V30 58271 H 5479.48 3.23833 1.37204 0
M  V30 58272 H 5479.36 2.40113 2.90905 0
M  V30 58273 H 5481.74 1.47407 2.55647 0
M  V30 58274 H 5481.82 2.34624 1.01908 0
M  V30 58275 H 5481.47 4.54254 2.2719 0
M  V30 58276 H 5481.4 3.63944 3.80595 0
M  V30 58277 H 5483.89 2.88849 2.43669 0
M  V30 58278 H 5484.2 6.29074 4.48872 0
M  V30 58279 H 5482.55 5.65339 4.04249 0
M  V30 58280 H 5485.74 3.63168 2.95341 0
M  V30 58281 H 5485.91 5.183 3.88934 0
M  V30 58282 N 5479.32 -1.11139 1.1174 0
M  V30 58283 C 5480.54 -1.86742 0.890792 0
M  V30 58284 C 5480.96 -1.80317 -0.559577 0
M  V30 58285 O 5480.32 -1.18667 -1.38652 0
M  V30 58286 C 5480.37 -3.35431 1.3479 0
M  V30 58287 O 5480.09 -3.41728 2.74141 0
M  V30 58288 C 5481.59 -4.27931 1.15717 0
M  V30 58289 H 5478.81 -0.590429 0.318802 0
M  V30 58290 H 5481.35 -1.40544 1.48552 0
M  V30 58291 H 5479.51 -3.79122 0.796559 0
M  V30 58292 H 5479.92 -4.34336 2.94028 0
M  V30 58293 H 5481.4 -5.30488 1.52598 0
M  V30 58294 H 5481.87 -4.39093 0.0970278 0
M  V30 58295 H 5482.48 -3.90036 1.69565 0
M  V30 58296 N 5480.79 -0.908192 -1.28801 0
M  V30 58297 C 5481.76 -0.397137 -2.25733 0
M  V30 58298 C 5482.76 0.473429 -1.53673 0
M  V30 58299 O 5483.95 0.277274 -1.71979 0
M  V30 58300 C 5481.08 0.431273 -3.38161 0
M  V30 58301 H 5482.27 -1.25333 -2.72455 0
M  V30 58302 H 5479.83 -0.68709 -1.40388 0
M  V30 58303 H 5480.56 1.3071 -2.96792 0
M  V30 58304 H 5480.35 -0.19264 -3.91626 0
M  V30 58305 H 5481.84 0.779856 -4.10254 0
M  V30 58306 N 5482.27 1.42575 -0.671575 0
M  V30 58307 C 5483.2 2.33499 -0.00515193 0
M  V30 58308 C 5484.18 1.505 0.79271 0
M  V30 58309 O 5485.37 1.79112 0.750511 0
M  V30 58310 C 5482.5 3.34081 0.949076 0
M  V30 58311 C 5481.45 4.27209 0.260036 0
M  V30 58312 C 5480.78 5.17972 1.32698 0
M  V30 58313 C 5482.08 5.15189 -0.858953 0
M  V30 58314 H 5483.77 2.89475 -0.764508 0
M  V30 58315 H 5481.32 1.39189 -0.369091 0
M  V30 58316 H 5483.27 3.96599 1.42434 0
M  V30 58317 H 5482 2.76402 1.73981 0
M  V30 58318 H 5480.65 3.66081 -0.194963 0
M  V30 58319 H 5480.3 4.56622 2.10962 0
M  V30 58320 H 5480 5.81107 0.871089 0
M  V30 58321 H 5481.53 5.83366 1.80324 0
M  V30 58322 H 5482.94 5.71411 -0.465045 0
M  V30 58323 H 5481.34 5.8714 -1.24044 0
M  V30 58324 H 5482.41 4.53781 -1.70911 0
M  V30 58325 N 5483.75 0.414689 1.52046 0
M  V30 58326 C 5484.98 -0.158614 2.06291 0
M  V30 58327 C 5485.39 -1.38392 1.28425 0
M  V30 58328 O 5484.75 -1.7935 0.337602 0
M  V30 58329 C 5484.8 -0.503508 3.57976 0
M  V30 58330 O 5484.52 0.673148 4.32898 0
M  V30 58331 C 5486.02 -1.12994 4.28657 0
M  V30 58332 H 5483.24 -0.0179386 0.67076 0
M  V30 58333 H 5485.79 0.587246 1.95887 0
M  V30 58334 H 5483.94 -1.19926 3.6837 0
M  V30 58335 H 5484.36 0.383919 5.23093 0
M  V30 58336 H 5485.83 -1.32143 5.3595 0
M  V30 58337 H 5486.31 -2.10462 3.8549 0
M  V30 58338 H 5486.91 -0.47423 4.22648 0
M  V30 58339 N 5485.23 -1.56929 0.145288 0
M  V30 58340 C 5486.14 -2.20241 -0.808142 0
M  V30 58341 C 5487.16 -1.1862 -1.273 0
M  V30 58342 O 5488.33 -1.5119 -1.33054 0
M  V30 58343 C 5485.4 -2.81023 -2.03045 0
M  V30 58344 C 5484.46 -3.97765 -1.61498 0
M  V30 58345 C 5483.69 -4.55638 -2.77902 0
M  V30 58346 O 5483.91 -4.12391 -3.94068 0
M  V30 58347 O 5482.85 -5.45926 -2.53473 0
M  V30 58348 H 5486.67 -3.02222 -0.299208 0
M  V30 58349 H 5484.26 -1.49177 -0.0816526 0
M  V30 58350 H 5486.14 -3.19661 -2.74581 0
M  V30 58351 H 5484.82 -2.02056 -2.52894 0
M  V30 58352 H 5483.72 -3.63845 -0.869905 0
M  V30 58353 H 5485.06 -4.78246 -1.16367 0
M  V30 58354 N 5486.71 0.128498 -1.57075 0
M  V30 58355 C 5487.65 1.15805 -1.99644 0
M  V30 58356 C 5488.62 1.41676 -0.86701 0
M  V30 58357 O 5489.81 1.53701 -1.13051 0
M  V30 58358 C 5486.95 2.4819 -2.39783 0
M  V30 58359 C 5486.06 2.29335 -3.661 0
M  V30 58360 C 5485.2 3.54884 -3.95261 0
M  V30 58361 C 5484.24 3.31146 -5.1479 0
M  V30 58362 N 5483.37 4.48873 -5.39868 0
M  V30 58363 H 5488.21 0.788035 -2.87392 0
M  V30 58364 H 5485.75 0.377632 -1.4217 0
M  V30 58365 H 5487.71 3.25405 -2.61089 0
M  V30 58366 H 5486.34 2.83102 -1.5509 0
M  V30 58367 H 5485.39 1.43083 -3.52465 0
M  V30 58368 H 5486.7 2.07765 -4.5347 0
M  V30 58369 H 5485.86 4.40521 -4.17164 0
M  V30 58370 H 5484.6 3.79476 -3.06348 0
M  V30 58371 H 5483.6 2.43898 -4.92741 0
M  V30 58372 H 5484.83 3.07933 -6.05272 0
M  V30 58373 H 5482.77 4.73603 -4.53912 0
M  V30 58374 H 5482.69 4.30372 -6.21543 0
M  V30 58375 H 5483.96 5.35671 -5.66284 0
M  V30 58376 N 5488.19 1.52481 0.398405 0
M  V30 58377 C 5489.41 1.71225 1.17033 0
M  V30 58378 C 5489.84 0.42558 1.83222 0
M  V30 58379 O 5489.19 -0.617878 1.70446 0
M  V30 58380 C 5489.24 2.85628 2.20111 0
M  V30 58381 O 5488.35 2.51945 3.26492 0
M  V30 58382 H 5487.69 0.569666 0.34114 0
M  V30 58383 H 5490.22 1.99232 0.465582 0
M  V30 58384 H 5490.23 3.10852 2.64264 0
M  V30 58385 H 5488.9 3.78975 1.71321 0
M  V30 58386 H 5487.48 2.3743 2.87544 0
M  V30 58387 N 5489.66 -0.656289 1.43285 0
M  V30 58388 C 5490.61 -1.76929 1.48206 0
M  V30 58389 C 5491.58 -1.62747 0.33208 0
M  V30 58390 O 5492.77 -1.83034 0.5388 0
M  V30 58391 C 5489.91 -3.15067 1.40808 0
M  V30 58392 C 5489.02 -3.40405 2.65986 0
M  V30 58393 C 5488.15 -4.68374 2.50598 0
M  V30 58394 C 5487.19 -4.86807 3.7106 0
M  V30 58395 N 5486.33 -6.06031 3.54501 0
M  V30 58396 H 5491.17 -1.72058 2.4331 0
M  V30 58397 H 5488.71 -0.839686 1.2078 0
M  V30 58398 H 5490.66 -3.9492 1.34513 0
M  V30 58399 H 5489.29 -3.19015 0.492867 0
M  V30 58400 H 5488.35 -2.54671 2.82572 0
M  V30 58401 H 5489.66 -3.49912 3.55475 0
M  V30 58402 H 5488.81 -5.56348 2.41994 0
M  V30 58403 H 5487.55 -4.61181 1.58628 0
M  V30 58404 H 5486.56 -3.97269 3.80076 0
M  V30 58405 H 5487.78 -4.95831 4.64035 0
M  V30 58406 H 5485.73 -5.99976 2.65263 0
M  V30 58407 H 5485.64 -6.16483 4.3759 0
M  V30 58408 H 5486.91 -6.96634 3.49744 0
M  V30 58409 N 5491.14 -1.29765 -0.894366 0
M  V30 58410 C 5492.07 -1.17909 -2.01543 0
M  V30 58411 C 5493.05 -0.072 -1.69948 0
M  V30 58412 O 5494.24 -0.252406 -1.92553 0
M  V30 58413 C 5491.37 -0.86038 -3.36474 0
M  V30 58414 C 5490.32 -1.92438 -3.82298 0
M  V30 58415 C 5489.65 -1.45886 -5.14414 0
M  V30 58416 C 5490.95 -3.33405 -4.02042 0
M  V30 58417 H 5492.64 -2.11696 -2.1172 0
M  V30 58418 H 5490.19 -1.01919 -1.01727 0
M  V30 58419 H 5492.14 -0.764133 -4.14414 0
M  V30 58420 H 5490.86 0.113175 -3.26404 0
M  V30 58421 H 5489.52 -2.0101 -3.06579 0
M  V30 58422 H 5489.17 -0.47383 -5.00763 0
M  V30 58423 H 5488.87 -2.17047 -5.46044 0
M  V30 58424 H 5490.4 -1.37622 -5.94889 0
M  V30 58425 H 5491.81 -3.27645 -4.70449 0
M  V30 58426 H 5490.21 -4.02571 -4.45036 0
M  V30 58427 H 5491.28 -3.75989 -3.06203 0
M  V30 58428 N 5492.62 1.10545 -1.12328 0
M  V30 58429 C 5493.9 1.78965 -0.78935 0
M  V30 58430 C 5494.28 1.98403 0.721086 0
M  V30 58431 O 5493.62 1.57616 1.65437 0
M  V30 58432 C 5493.83 3.12038 -1.56311 0
M  V30 58433 C 5495.18 3.86933 -1.74838 0
M  V30 58434 O 5496.21 3.21755 -1.52814 0
M  V30 58435 O 5495.07 5.03912 -2.11506 0
M  V30 58436 H 5492.16 0.775607 -0.28699 0
M  V30 58437 H 5494.71 1.17205 -1.22724 0
M  V30 58438 H 5493.48 2.93303 -2.59015 0
M  V30 58439 H 5493.1 3.81517 -1.1194 0
M  V30 58440 N 5494.1 0.91501 1.28317 0
M  V30 58441 C 5495.01 0.409505 2.30998 0
M  V30 58442 C 5496.02 -0.503467 1.66557 0
M  V30 58443 O 5497.2 -0.38935 1.97601 0
M  V30 58444 C 5494.26 -0.341109 3.45018 0
M  V30 58445 C 5493.33 0.605236 4.25012 0
M  V30 58446 C 5492.56 -0.10965 5.33587 0
M  V30 58447 O 5492.78 -1.33117 5.54649 0
M  V30 58448 O 5491.72 0.555684 5.99329 0
M  V30 58449 H 5495.54 1.26177 2.76248 0
M  V30 58450 H 5493.13 0.679878 1.33034 0
M  V30 58451 H 5495.01 -0.764986 4.14398 0
M  V30 58452 H 5493.68 -1.16918 3.01847 0
M  V30 58453 H 5492.59 1.07854 3.58216 0
M  V30 58454 H 5493.92 1.40016 4.71865 0
M  V30 58455 N 5495.58 -1.42217 0.679127 0
M  V30 58456 C 5496.85 -1.95154 0.131949 0
M  V30 58457 C 5497.23 -1.61934 -1.35427 0
M  V30 58458 O 5496.58 -0.917745 -2.0926 0
M  V30 58459 C 5496.79 -3.46634 0.405699 0
M  V30 58460 C 5498.14 -4.23358 0.324543 0
M  V30 58461 O 5499.16 -3.54577 0.339688 0
M  V30 58462 O 5498.02 -5.4583 0.27046 0
M  V30 58463 H 5495.12 -0.826982 0.00538345 0
M  V30 58464 H 5497.66 -1.52022 0.754155 0
M  V30 58465 H 5496.43 -3.64035 1.43508 0
M  V30 58466 H 5496.06 -3.96824 -0.2483 0
M  V30 58467 N 5497.05 -0.422747 -1.51824 0
M  V30 58468 C 5498.28 0.147457 -2.06073 0
M  V30 58469 C 5498.69 1.3826 -1.29155 0
M  V30 58470 O 5498.03 1.80519 -0.340369 0
M  V30 58471 C 5498.1 0.549434 -3.55277 0
M  V30 58472 C 5497.76 -0.576864 -4.53345 0
M  V30 58473 C 5498.76 -1.4446 -4.99427 0
M  V30 58474 C 5496.44 -0.753439 -4.96617 0
M  V30 58475 C 5498.44 -2.47373 -5.8744 0
M  V30 58476 C 5496.12 -1.78587 -5.84423 0
M  V30 58477 C 5497.12 -2.64441 -6.2973 0
M  V30 58478 O 5496.81 -3.65913 -7.15795 0
M  V30 58479 H 5496.54 0.0178673 -0.675764 0
M  V30 58480 H 5499.1 -0.596327 -1.96553 0
M  V30 58481 H 5497.33 1.34571 -3.6253 0
M  V30 58482 H 5499.01 1.04911 -3.92108 0
M  V30 58483 H 5499.78 -1.31964 -4.66702 0
M  V30 58484 H 5495.66 -0.0948025 -4.60903 0
M  V30 58485 H 5499.2 -3.14419 -6.22725 0
M  V30 58486 H 5495.1 -1.91107 -6.16562 0
M  V30 58487 H 5495.87 -3.62319 -7.33939 0
M  V30 58488 N 5498.53 1.5685 -0.153609 0
M  V30 58489 C 5499.46 2.20104 0.779524 0
M  V30 58490 C 5500.44 1.15125 1.25221 0
M  V30 58491 O 5501.63 1.43492 1.30857 0
M  V30 58492 C 5498.76 2.82786 2.01618 0
M  V30 58493 C 5497.71 3.93649 1.68002 0
M  V30 58494 C 5497.04 4.43297 2.98985 0
M  V30 58495 C 5498.34 5.14105 0.921593 0
M  V30 58496 H 5500.03 2.98335 0.252327 0
M  V30 58497 H 5497.58 1.435 0.119925 0
M  V30 58498 H 5499.53 3.25705 2.67384 0
M  V30 58499 H 5498.26 2.01896 2.56721 0
M  V30 58500 H 5496.91 3.51357 1.04611 0
M  V30 58501 H 5496.56 3.59221 3.52093 0
M  V30 58502 H 5496.26 5.18077 2.77254 0
M  V30 58503 H 5497.79 4.88891 3.65811 0
M  V30 58504 H 5499.2 5.53828 1.48147 0
M  V30 58505 H 5497.6 5.9469 0.803976 0
M  V30 58506 H 5498.67 4.84825 -0.0854462 0
M  V30 58507 N 5500.01 -0.120166 1.57141 0
M  V30 58508 C 5501.24 -0.841153 1.88701 0
M  V30 58509 C 5501.65 -1.74008 0.742831 0
M  V30 58510 O 5500.99 -1.81309 -0.295433 0
M  V30 58511 C 5501.05 -1.7277 3.15263 0
M  V30 58512 C 5500.72 -1.0032 4.45853 0
M  V30 58513 C 5501.71 -0.344552 5.18757 0
M  V30 58514 C 5499.4 -0.984726 4.92553 0
M  V30 58515 C 5501.39 0.322887 6.36582 0
M  V30 58516 C 5499.08 -0.313487 6.10295 0
M  V30 58517 C 5500.08 0.339166 6.82157 0
M  V30 58518 O 5499.77 0.999697 7.9766 0
M  V30 58519 H 5499.5 -0.247173 0.629191 0
M  V30 58520 H 5502.05 -0.10947 2.05108 0
M  V30 58521 H 5500.28 -2.501 2.94935 0
M  V30 58522 H 5501.97 -2.32301 3.32853 0
M  V30 58523 H 5502.74 -0.350453 4.83732 0
M  V30 58524 H 5498.62 -1.48215 4.36524 0
M  V30 58525 H 5502.16 0.832887 6.9261 0
M  V30 58526 H 5498.06 -0.305345 6.44777 0
M  V30 58527 H 5498.83 0.904056 8.13492 0
M  V30 58528 N 5501.49 -1.5269 -0.390313 0
M  V30 58529 C 5502.42 -1.72123 -1.4983 0
M  V30 58530 C 5503.4 -0.569039 -1.52318 0
M  V30 58531 O 5504.58 -0.798683 -1.70743 0
M  V30 58532 C 5501.71 -1.77765 -2.88301 0
M  V30 58533 C 5500.76 -2.99503 -3.03645 0
M  V30 58534 S 5501.59 -4.59505 -2.74982 0
M  V30 58535 C 5502.75 -4.6796 -4.15649 0
M  V30 58536 H 5502.98 -2.65831 -1.33121 0
M  V30 58537 H 5500.51 -1.42966 -0.583103 0
M  V30 58538 H 5502.47 -1.817 -3.68097 0
M  V30 58539 H 5501.13 -0.851512 -3.02338 0
M  V30 58540 H 5500.32 -2.99988 -4.04998 0
M  V30 58541 H 5499.93 -2.93552 -2.3174 0
M  V30 58542 H 5502.22 -4.46494 -5.09558 0
M  V30 58543 H 5503.16 -5.6996 -4.2018 0
M  V30 58544 H 5503.57 -3.96813 -4.01497 0
M  V30 58545 N 5502.97 0.648681 -1.43631 0
M  V30 58546 C 5503.93 1.74325 -1.48806 0
M  V30 58547 C 5504.93 1.56433 -0.372202 0
M  V30 58548 O 5506.12 1.62248 -0.634135 0
M  V30 58549 C 5503.25 3.13243 -1.34505 0
M  V30 58550 H 5504.44 1.71116 -2.46291 0
M  V30 58551 H 5502 0.860752 -1.30464 0
M  V30 58552 H 5502.73 3.22061 -0.380458 0
M  V30 58553 H 5502.52 3.27635 -2.15401 0
M  V30 58554 H 5504.01 3.93051 -1.41069 0
M  V30 58555 N 5504.44 1.30237 0.887472 0
M  V30 58556 C 5505.67 1.21658 1.66982 0
M  V30 58557 C 5506.08 -0.223407 1.87876 0
M  V30 58558 O 5505.43 -1.15988 1.42452 0
M  V30 58559 C 5505.49 1.87183 3.06924 0
M  V30 58560 C 5505.15 3.36507 3.09212 0
M  V30 58561 C 5506.15 4.3254 2.88453 0
M  V30 58562 C 5503.83 3.77913 3.30889 0
M  V30 58563 C 5505.83 5.67953 2.89324 0
M  V30 58564 C 5503.51 5.13444 3.31389 0
M  V30 58565 C 5504.51 6.08274 3.10631 0
M  V30 58566 O 5504.2 7.41329 3.10944 0
M  V30 58567 H 5503.93 0.422243 0.527908 0
M  V30 58568 H 5506.49 1.72353 1.1173 0
M  V30 58569 H 5504.72 1.31015 3.6383 0
M  V30 58570 H 5506.41 1.72758 3.673 0
M  V30 58571 H 5507.17 4.01882 2.71506 0
M  V30 58572 H 5503.05 3.04546 3.46082 0
M  V30 58573 H 5506.59 6.41946 2.73041 0
M  V30 58574 H 5502.49 5.43742 3.47872 0
M  V30 58575 H 5503.26 7.50287 3.27127 0
M  V30 58576 N 5505.92 -1.09948 1.12913 0
M  V30 58577 C 5506.89 -2.14612 0.804624 0
M  V30 58578 C 5507.89 -1.59751 -0.183394 0
M  V30 58579 O 5509.08 -1.74147 0.0430235 0
M  V30 58580 C 5506.21 -3.40333 0.196591 0
M  V30 58581 H 5507.4 -2.44829 1.73201 0
M  V30 58582 H 5504.95 -1.25396 0.933041 0
M  V30 58583 H 5505.69 -3.15738 -0.740277 0
M  V30 58584 H 5505.47 -3.81441 0.90802 0
M  V30 58585 H 5506.96 -4.17598 -0.0137796 0
M  V30 58586 N 5507.4 -0.921802 -1.2783 0
M  V30 58587 C 5508.68 -0.477773 -1.89675 0
M  V30 58588 C 5509.06 1.04386 -1.83485 0
M  V30 58589 O 5508.41 1.89545 -1.27613 0
M  V30 58590 C 5508.62 -1.01721 -3.33847 0
M  V30 58591 C 5509.96 -1.07414 -4.10789 0
M  V30 58592 O 5510.99 -0.966416 -3.42839 0
M  V30 58593 O 5509.85 -1.23928 -5.32263 0
M  V30 58594 H 5506.94 -0.152739 -0.812773 0
M  V30 58595 H 5509.49 -1.01311 -1.3614 0
M  V30 58596 H 5508.26 -2.06112 -3.32616 0
M  V30 58597 H 5507.88 -0.46317 -3.94893 0
M  V30 58598 N 5508.88 1.41855 -0.686659 0
M  V30 58599 C 5510.13 2.00593 -0.211021 0
M  V30 58600 C 5510.44 1.54979 1.19336 0
M  V30 58601 O 5511.65 2.06216 1.76599 0
M  V30 58602 C 5510.1 3.58417 -0.326387 0
M  V30 58603 C 5509.71 4.13016 -1.73557 0
M  V30 58604 C 5511.45 4.24405 0.0899324 0
M  V30 58605 C 5509.36 5.63244 -1.80306 0
M  V30 58606 H 5508.29 0.750247 -0.075134 0
M  V30 58607 H 5510.94 1.62439 -0.853565 0
M  V30 58608 H 5509.32 3.94131 0.384255 0
M  V30 58609 H 5510.5 3.88739 -2.47425 0
M  V30 58610 H 5508.81 3.59522 -2.10077 0
M  V30 58611 H 5511.41 5.34667 0.059816 0
M  V30 58612 H 5511.75 4.00749 1.12719 0
M  V30 58613 H 5512.29 3.93693 -0.570118 0
M  V30 58614 H 5509.03 5.91714 -2.82054 0
M  V30 58615 H 5508.55 5.89475 -1.1081 0
M  V30 58616 H 5510.22 6.27865 -1.56189 0
M  V30 58617 N 5510.36 0.430792 1.51598 0
M  V30 58618 C 5511.29 -0.429028 2.24131 0
M  V30 58619 C 5512.27 -1.03015 1.25804 0
M  V30 58620 O 5513.45 -1.07387 1.5492 0
M  V30 58621 C 5510.58 -1.59739 2.98666 0
M  V30 58622 C 5509.62 -1.11758 4.11597 0
M  V30 58623 S 5510.46 -0.0649585 5.35461 0
M  V30 58624 C 5511.61 -1.23814 6.13532 0
M  V30 58625 H 5511.85 0.186787 2.96713 0
M  V30 58626 H 5509.38 0.215255 1.52892 0
M  V30 58627 H 5511.34 -2.26723 3.42209 0
M  V30 58628 H 5510 -2.1846 2.25686 0
M  V30 58629 H 5509.19 -1.99109 4.63003 0
M  V30 58630 H 5508.79 -0.526079 3.70282 0
M  V30 58631 H 5511.09 -2.15774 6.42221 0
M  V30 58632 H 5512.03 -0.764183 7.03964 0
M  V30 58633 H 5512.44 -1.47374 5.44923 0
M  V30 58634 N 5511.83 -1.56766 0.161924 0
M  V30 58635 C 5512.8 -2.16302 -0.758028 0
M  V30 58636 C 5513.8 -1.10863 -1.16474 0
M  V30 58637 O 5514.99 -1.36425 -1.08322 0
M  V30 58638 C 5512.12 -2.73826 -2.03057 0
M  V30 58639 H 5513.31 -2.98939 -0.239887 0
M  V30 58640 H 5510.87 -1.56054 -0.0875984 0
M  V30 58641 H 5511.6 -1.94897 -2.59202 0
M  V30 58642 H 5511.39 -3.5098 -1.74801 0
M  V30 58643 H 5512.88 -3.19647 -2.6873 0
M  V30 58644 N 5513.31 0.11183 -1.57203 0
M  V30 58645 C 5514.26 1.13681 -2.00862 0
M  V30 58646 C 5515.23 1.40749 -0.881988 0
M  V30 58647 O 5516.42 1.52494 -1.14675 0
M  V30 58648 C 5513.56 2.45633 -2.42402 0
M  V30 58649 C 5512.67 2.25439 -3.68512 0
M  V30 58650 C 5511.8 3.50672 -3.99002 0
M  V30 58651 C 5510.84 3.25667 -5.18274 0
M  V30 58652 N 5509.98 4.43121 -5.44599 0
M  V30 58653 H 5514.82 0.757509 -2.88211 0
M  V30 58654 H 5512.36 0.362532 -1.42563 0
M  V30 58655 H 5514.31 3.22618 -2.64525 0
M  V30 58656 H 5512.94 2.81441 -1.58084 0
M  V30 58657 H 5512 1.39336 -3.53963 0
M  V30 58658 H 5513.31 2.02944 -4.55648 0
M  V30 58659 H 5512.46 4.36072 -4.21813 0
M  V30 58660 H 5511.2 3.76206 -3.10356 0
M  V30 58661 H 5510.21 2.38658 -4.953 0
M  V30 58662 H 5511.43 3.01496 -6.08504 0
M  V30 58663 H 5509.38 4.68762 -4.5891 0
M  V30 58664 H 5509.29 4.23756 -6.26073 0
M  V30 58665 H 5510.56 5.29634 -5.71933 0
M  V30 58666 N 5514.79 1.52895 0.38221 0
M  V30 58667 C 5516.02 1.72457 1.1521 0
M  V30 58668 C 5516.44 0.444989 1.82761 0
M  V30 58669 O 5515.8 -0.599765 1.71092 0
M  V30 58670 C 5515.85 2.87947 2.17069 0
M  V30 58671 O 5514.95 2.55394 3.23802 0
M  V30 58672 H 5514.29 0.573252 0.335079 0
M  V30 58673 H 5516.82 1.99715 0.444425 0
M  V30 58674 H 5516.83 3.13637 2.60952 0
M  V30 58675 H 5515.51 3.80771 1.67291 0
M  V30 58676 H 5514.08 2.40467 2.85009 0
M  V30 58677 N 5516.27 -0.641055 1.43973 0
M  V30 58678 C 5517.51 -1.41245 1.47747 0
M  V30 58679 C 5517.87 -1.91721 0.10342 0
M  V30 58680 O 5519.07 -2.68795 0.0158346 0
M  V30 58681 C 5517.35 -2.55361 2.50051 0
M  V30 58682 S 5518.9 -3.43698 2.72795 0
M  V30 58683 H 5515.72 -0.481989 0.522693 0
M  V30 58684 H 5518.32 -0.743097 1.80827 0
M  V30 58685 H 5517.03 -2.16573 3.48603 0
M  V30 58686 H 5516.56 -3.27135 2.1851 0
M  V30 58687 H 5518.57 -4.52488 2.0364 0
M  V30 58688 N 5517.75 -1.30706 -0.880552 0
M  V30 58689 C 5518.7 -1.14069 -1.97414 0
M  V30 58690 C 5519.68 -0.0546106 -1.60807 0
M  V30 58691 O 5520.87 -0.278406 -1.74797 0
M  V30 58692 C 5518 -0.839179 -3.32885 0
M  V30 58693 C 5517.09 -1.96573 -3.75792 0
M  V30 58694 N 5517.48 -3.21159 -3.90756 0
M  V30 58695 C 5515.78 -1.86308 -4.05222 0
M  V30 58696 C 5516.48 -3.94781 -4.27227 0
M  V30 58697 N 5515.45 -3.22866 -4.37331 0
M  V30 58698 H 5519.26 -2.08555 -2.0708 0
M  V30 58699 H 5516.77 -1.22109 -1.07066 0
M  V30 58700 H 5518.77 -0.700995 -4.10964 0
M  V30 58701 H 5517.43 0.0975667 -3.24553 0
M  V30 58702 H 5518.44 -3.56397 -3.75768 0
M  V30 58703 H 5515.12 -1.0003 -4.0534 0
M  V30 58704 H 5516.51 -5.02092 -4.4649 0
M  V30 58705 N 5519.23 1.09347 -1.13494 0
M  V30 58706 C 5520.16 2.18034 -0.835665 0
M  V30 58707 C 5521.14 1.68856 0.205313 0
M  V30 58708 O 5522.32 1.94094 0.0640675 0
M  V30 58709 C 5519.45 3.45986 -0.301782 0
M  V30 58710 C 5518.41 4.08502 -1.2771 0
M  V30 58711 C 5517.73 5.3129 -0.602945 0
M  V30 58712 C 5519.03 4.50907 -2.63591 0
M  V30 58713 H 5520.73 2.43326 -1.7445 0
M  V30 58714 H 5518.27 1.16947 -0.840207 0
M  V30 58715 H 5520.22 4.21324 -0.0800761 0
M  V30 58716 H 5518.95 3.20219 0.64244 0
M  V30 58717 H 5517.61 3.35185 -1.48481 0
M  V30 58718 H 5517.26 5.01803 0.346777 0
M  V30 58719 H 5516.96 5.74071 -1.25365 0
M  V30 58720 H 5518.48 6.0935 -0.390539 0
M  V30 58721 H 5519.89 5.17466 -2.46783 0
M  V30 58722 H 5518.29 5.04575 -3.24845 0
M  V30 58723 H 5519.36 3.63268 -3.21193 0
M  V30 58724 N 5520.7 0.928568 1.2734 0
M  V30 58725 C 5521.61 0.433982 2.30551 0
M  V30 58726 C 5522.63 -0.485773 1.67082 0
M  V30 58727 O 5523.81 -0.36837 1.98003 0
M  V30 58728 C 5520.87 -0.304496 3.4536 0
M  V30 58729 C 5519.93 0.65028 4.24346 0
M  V30 58730 C 5519.16 -0.0530496 5.33674 0
M  V30 58731 O 5519.39 -1.27227 5.5603 0
M  V30 58732 O 5518.32 0.61922 5.98706 0
M  V30 58733 H 5522.15 1.29099 2.74895 0
M  V30 58734 H 5519.73 0.69395 1.32305 0
M  V30 58735 H 5521.61 -0.720991 4.15186 0
M  V30 58736 H 5520.29 -1.1371 3.0307 0
M  V30 58737 H 5519.2 1.11647 3.57051 0
M  V30 58738 H 5520.53 1.45013 4.70353 0
M  V30 58739 N 5522.18 -1.41489 0.694172 0
M  V30 58740 C 5523.09 -2.34583 0.0284239 0
M  V30 58741 C 5524.11 -1.56153 -0.767607 0
M  V30 58742 O 5525.28 -1.88639 -0.70549 0
M  V30 58743 C 5522.35 -3.34879 -0.897608 0
M  V30 58744 C 5521.41 -4.29197 -0.0939397 0
M  V30 58745 C 5520.64 -5.24702 -0.975867 0
M  V30 58746 O 5520.87 -5.25621 -2.21538 0
M  V30 58747 O 5519.8 -6.00389 -0.426292 0
M  V30 58748 H 5523.63 -2.93089 0.795759 0
M  V30 58749 H 5521.21 -1.42319 0.4545 0
M  V30 58750 H 5523.09 -3.96443 -1.42867 0
M  V30 58751 H 5521.77 -2.78818 -1.64446 0
M  V30 58752 H 5520.67 -3.70986 0.481683 0
M  V30 58753 H 5522.01 -4.88353 0.614217 0
M  V30 58754 N 5523.66 -0.438826 -1.51367 0
M  V30 58755 C 5524.91 0.126891 -2.01701 0
M  V30 58756 C 5525.23 1.43082 -1.32486 0
M  V30 58757 O 5524.5 1.90425 -0.459889 0
M  V30 58758 H 5523.08 0.049883 -0.745333 0
M  V30 58759 H 5525.74 -0.581873 -1.86011 0
M  V30 58760 H 5524.84 0.301727 -3.10638 0
M  V30 58761 N 5525.14 1.56678 -0.170236 0
M  V30 58762 C 5526.39 1.96461 0.474056 0
M  V30 58763 C 5526.71 1.05724 1.63852 0
M  V30 58764 O 5525.98 0.123385 1.95511 0
M  V30 58765 H 5524.56 0.725452 0.178123 0
M  V30 58766 H 5527.22 1.93275 -0.251167 0
M  V30 58767 H 5526.31 3.00729 0.834788 0
M  V30 58768 N 5526.62 -0.103492 1.5726 0
M  V30 58769 C 5527.53 -1.14468 2.04779 0
M  V30 58770 C 5528.54 -1.44382 0.971076 0
M  V30 58771 O 5529.72 -1.5519 1.28367 0
M  V30 58772 C 5526.78 -2.44741 2.45566 0
M  V30 58773 C 5525.84 -2.22085 3.67392 0
M  V30 58774 C 5525.08 -3.46146 4.06225 0
M  V30 58775 O 5525.3 -4.54058 3.45235 0
M  V30 58776 O 5524.23 -3.3623 4.99232 0
M  V30 58777 H 5528.06 -0.771108 2.93748 0
M  V30 58778 H 5525.64 -0.315405 1.46033 0
M  V30 58779 H 5527.53 -3.21466 2.72465 0
M  V30 58780 H 5526.2 -2.81541 1.59738 0
M  V30 58781 H 5525.11 -1.43167 3.45621 0
M  V30 58782 H 5526.44 -1.90181 4.53973 0
M  V30 58783 N 5528.09 -1.53096 -0.374097 0
M  V30 58784 C 5529.04 -1.7959 -1.47818 0
M  V30 58785 C 5530.04 -0.664567 -1.5582 0
M  V30 58786 O 5531.24 -0.847345 -1.58808 0
M  V30 58787 H 5527.62 -0.568491 -0.492262 0
M  V30 58788 H 5529.59 -2.72019 -1.22672 0
M  V30 58789 C 5528.34 -1.9951 -2.84765 0
M  V30 58790 H 5527.66 -2.86001 -2.79363 0
M  V30 58791 H 5529.1 -2.22031 -3.61218 0
M  V30 58792 C 5527.56 -0.771788 -3.27941 0
M  V30 58793 O 5528.09 0.0436325 -4.01676 0
M  V30 58794 N 5526.3 -0.597647 -2.84388 0
M  V30 58795 H 5525.84 -1.26235 -2.2455 0
M  V30 58796 H 5525.8 0.219468 -3.13633 0
M  V30 58797 N 5529.57 0.633411 -1.44311 0
M  V30 58798 C 5530.82 1.39026 -1.46684 0
M  V30 58799 C 5531.14 1.94745 -0.099785 0
M  V30 58800 O 5530.41 1.7564 0.867598 0
M  V30 58801 H 5528.99 0.516032 -0.540112 0
M  V30 58802 H 5531.65 0.745675 -1.80071 0
M  V30 58803 H 5530.75 2.22272 -2.19092 0
M  V30 58804 N 5531.05 1.31171 0.873608 0
M  V30 58805 C 5531.96 1.20465 2.01309 0
M  V30 58806 C 5532.98 0.122135 1.73571 0
M  V30 58807 O 5534.15 0.339245 1.98522 0
M  V30 58808 C 5531.22 0.908878 3.34575 0
M  V30 58809 C 5530.28 2.07793 3.7566 0
M  V30 58810 C 5529.51 1.79617 5.02567 0
M  V30 58811 O 5529.73 0.729537 5.65715 0
M  V30 58812 O 5528.67 2.65188 5.40332 0
M  V30 58813 H 5532.49 2.16215 2.13272 0
M  V30 58814 H 5530.08 1.10875 1.00135 0
M  V30 58815 H 5531.96 0.759614 4.14497 0
M  V30 58816 H 5530.64 -0.0186111 3.23695 0
M  V30 58817 H 5529.54 2.28257 2.96394 0
M  V30 58818 H 5530.88 2.98754 3.91161 0
M  V30 58819 N 5532.53 -1.08744 1.14072 0
M  V30 58820 C 5533.49 -2.13747 0.827341 0
M  V30 58821 C 5534.49 -1.59936 -0.16644 0
M  V30 58822 O 5535.68 -1.74091 0.0614917 0
M  V30 58823 C 5532.81 -3.40105 0.232677 0
M  V30 58824 H 5534.01 -2.42978 1.75788 0
M  V30 58825 H 5531.56 -1.24399 0.946288 0
M  V30 58826 H 5532.29 -3.16505 -0.706748 0
M  V30 58827 H 5532.08 -3.80457 0.948426 0
M  V30 58828 H 5533.57 -4.17589 0.030513 0
M  V30 58829 N 5534.01 -0.935308 -1.26845 0
M  V30 58830 C 5534.92 -0.446203 -2.30318 0
M  V30 58831 C 5535.93 0.476906 -1.67337 0
M  V30 58832 O 5537.11 0.357864 -1.98195 0
M  V30 58833 C 5534.17 0.286176 -3.45517 0
M  V30 58834 C 5533.23 -0.672775 -4.23996 0
M  V30 58835 C 5532.47 0.0247468 -5.33694 0
M  V30 58836 O 5532.69 1.24276 -5.56697 0
M  V30 58837 O 5531.62 -0.650962 -5.9837 0
M  V30 58838 H 5535.45 -1.30555 -2.74206 0
M  V30 58839 H 5533.04 -0.700956 -1.31935 0
M  V30 58840 H 5534.92 0.698962 -4.15563 0
M  V30 58841 H 5533.59 1.12101 -3.03669 0
M  V30 58842 H 5532.5 -1.13539 -3.56454 0
M  V30 58843 H 5533.83 -1.47505 -4.69578 0
M  V30 58844 N 5535.48 1.41118 -0.701666 0
M  V30 58845 C 5536.39 2.34564 -0.040864 0
M  V30 58846 C 5537.41 1.56558 0.759315 0
M  V30 58847 O 5538.59 1.89011 0.695476 0
M  V30 58848 C 5535.65 3.3535 0.879836 0
M  V30 58849 C 5534.71 4.29241 0.071177 0
M  V30 58850 C 5533.95 5.25212 0.948027 0
M  V30 58851 O 5534.17 5.26788 2.18747 0
M  V30 58852 O 5533.1 6.00606 0.394446 0
M  V30 58853 H 5536.93 2.92663 -0.811291 0
M  V30 58854 H 5534.51 1.42076 -0.462041 0
M  V30 58855 H 5536.4 3.97195 1.40762 0
M  V30 58856 H 5535.07 2.79686 1.62965 0
M  V30 58857 H 5533.98 3.70725 -0.50135 0
M  V30 58858 H 5535.31 4.8802 -0.640106 0
M  V30 58859 N 5536.96 0.446847 1.51133 0
M  V30 58860 C 5537.87 -0.365708 2.31732 0
M  V30 58861 C 5538.89 -1.01881 1.41054 0
M  V30 58862 O 5540.06 -1.0121 1.74122 0
M  V30 58863 C 5537.13 -1.44694 3.15063 0
M  V30 58864 C 5536.19 -0.812981 4.21532 0
M  V30 58865 C 5535.42 -1.84269 5.0088 0
M  V30 58866 O 5535.65 -3.06616 4.80981 0
M  V30 58867 O 5534.58 -1.42795 5.84716 0
M  V30 58868 H 5538.41 0.292543 3.02288 0
M  V30 58869 H 5535.99 0.209181 1.47928 0
M  V30 58870 H 5537.87 -2.0738 3.6684 0
M  V30 58871 H 5536.55 -2.0891 2.47261 0
M  V30 58872 H 5535.46 -0.147822 3.73808 0
M  V30 58873 H 5536.79 -0.214159 4.91734 0
M  V30 58874 N 5538.44 -1.56585 0.178542 0
M  V30 58875 C 5539.69 -1.97391 -0.465236 0
M  V30 58876 C 5540.02 -1.0648 -1.62406 0
M  V30 58877 O 5539.29 -0.113385 -1.94169 0
M  V30 58878 C 5539.58 -3.4758 -0.941286 0
M  V30 58879 C 5539.43 -4.4927 0.218212 0
M  V30 58880 C 5540.75 -4.01045 -1.81249 0
M  V30 58881 H 5537.87 -0.717681 -0.167638 0
M  V30 58882 H 5540.51 -1.88127 0.266133 0
M  V30 58883 H 5538.66 -3.55606 -1.5645 0
M  V30 58884 H 5540.33 -4.53298 0.855491 0
M  V30 58885 H 5538.58 -4.24933 0.87259 0
M  V30 58886 H 5539.25 -5.51776 -0.157121 0
M  V30 58887 H 5541.72 -3.95695 -1.28704 0
M  V30 58888 H 5540.6 -5.06534 -2.11458 0
M  V30 58889 H 5540.86 -3.45298 -2.76083 0
M  V30 58890 N 5539.92 0.0951507 -1.57313 0
M  V30 58891 C 5540.83 1.1338 -2.05383 0
M  V30 58892 C 5541.84 1.43865 -0.978719 0
M  V30 58893 O 5543.02 1.54507 -1.29188 0
M  V30 58894 C 5540.09 2.43435 -2.46861 0
M  V30 58895 C 5539.15 2.20133 -3.68564 0
M  V30 58896 C 5538.38 3.43987 -4.08055 0
M  V30 58897 O 5538.6 4.52221 -3.47638 0
M  V30 58898 O 5537.54 3.33578 -5.01008 0
M  V30 58899 H 5541.36 0.755519 -2.94152 0
M  V30 58900 H 5538.95 0.307656 -1.46198 0
M  V30 58901 H 5540.83 3.20017 -2.74166 0
M  V30 58902 H 5539.5 2.8069 -1.61229 0
M  V30 58903 H 5538.41 1.41332 -3.46375 0
M  V30 58904 H 5539.74 1.87771 -4.54976 0
M  V30 58905 N 5541.4 1.53292 0.365972 0
M  V30 58906 C 5542.64 1.69706 1.1103 0
M  V30 58907 C 5542.98 0.447347 1.88977 0
M  V30 58908 O 5542.25 -0.555355 1.86403 0
M  V30 58909 C 5542.53 2.94669 2.06984 0
M  V30 58910 C 5542.39 4.29796 1.32648 0
M  V30 58911 C 5543.71 3.1523 3.07112 0
M  V30 58912 H 5540.82 0.617539 0.402262 0
M  V30 58913 H 5543.47 1.8593 0.391158 0
M  V30 58914 H 5541.62 2.80968 2.68308 0
M  V30 58915 H 5543.29 4.55308 0.741106 0
M  V30 58916 H 5541.53 4.29225 0.628333 0
M  V30 58917 H 5542.2 5.13366 2.02878 0
M  V30 58918 H 5544.68 3.28114 2.55891 0
M  V30 58919 H 5543.55 4.04101 3.71475 0
M  V30 58920 H 5543.82 2.30492 3.77261 0
M  V30 58921 N 5542.88 -0.625749 1.44645 0
M  V30 58922 C 5544.1 -1.4172 1.51427 0
M  V30 58923 C 5544.53 -1.87564 0.141876 0
M  V30 58924 O 5543.88 -1.59062 -0.869998 0
M  V30 58925 C 5543.93 -2.61004 2.48816 0
M  V30 58926 O 5543.04 -3.61022 1.99341 0
M  V30 58927 H 5542.38 -0.423837 0.511134 0
M  V30 58928 H 5544.91 -0.763269 1.8983 0
M  V30 58929 H 5544.92 -3.0848 2.67029 0
M  V30 58930 H 5543.59 -2.26983 3.48499 0
M  V30 58931 H 5542.17 -3.20318 1.9092 0
M  V30 58932 N 5544.35 -1.31632 -0.86664 0
M  V30 58933 C 5545.6 -1.21509 -1.61994 0
M  V30 58934 C 5545.93 0.225976 -1.93183 0
M  V30 58935 O 5545.18 1.17568 -1.56449 0
M  V30 58936 C 5545.48 -2.00785 -2.95669 0
M  V30 58937 C 5545.15 -3.50255 -2.83958 0
M  V30 58938 C 5543.81 -3.9101 -2.80472 0
M  V30 58939 C 5546.16 -4.45356 -2.70753 0
M  V30 58940 C 5543.49 -5.25129 -2.61643 0
M  V30 58941 C 5545.84 -5.79604 -2.53461 0
M  V30 58942 C 5544.51 -6.19576 -2.48359 0
M  V30 58943 H 5543.78 -0.444631 -0.592777 0
M  V30 58944 H 5546.42 -1.62933 -1.00623 0
M  V30 58945 H 5544.73 -1.52052 -3.61092 0
M  V30 58946 H 5546.43 -1.9033 -3.52952 0
M  V30 58947 H 5543.02 -3.17879 -2.87491 0
M  V30 58948 H 5547.2 -4.14798 -2.725 0
M  V30 58949 H 5542.46 -5.55169 -2.5612 0
M  V30 58950 H 5546.63 -6.52918 -2.4222 0
M  V30 58951 H 5544.26 -7.23442 -2.33529 0
M  V30 58952 N 5545.83 1.08138 -1.14647 0
M  V30 58953 C 5546.74 2.18672 -0.849684 0
M  V30 58954 C 5547.76 1.73158 0.170922 0
M  V30 58955 O 5548.93 2.014 -0.0012287 0
M  V30 58956 C 5546 3.45083 -0.334426 0
M  V30 58957 C 5545.06 4.05208 -1.41793 0
M  V30 58958 C 5544.29 5.25585 -0.927166 0
M  V30 58959 O 5544.52 5.69935 0.230321 0
M  V30 58960 O 5543.45 5.77177 -1.70736 0
M  V30 58961 H 5547.28 2.46536 -1.77352 0
M  V30 58962 H 5544.86 1.17324 -0.924952 0
M  V30 58963 H 5546.74 4.21366 -0.0531375 0
M  V30 58964 H 5545.42 3.1879 0.561643 0
M  V30 58965 H 5544.32 3.30501 -1.75272 0
M  V30 58966 H 5545.66 4.35756 -2.28862 0
M  V30 58967 N 5547.31 0.942022 1.26348 0
M  V30 58968 C 5548.22 0.458411 2.30078 0
M  V30 58969 C 5549.24 -0.468025 1.67587 0
M  V30 58970 O 5550.41 -0.347348 1.98382 0
M  V30 58971 C 5547.48 -0.267848 3.45664 0
M  V30 58972 C 5546.54 0.695251 4.23633 0
M  V30 58973 C 5545.77 0.00355662 5.337 0
M  V30 58974 O 5545.99 -1.21322 5.57348 0
M  V30 58975 O 5544.93 0.682686 5.98016 0
M  V30 58976 H 5548.75 1.32008 2.7351 0
M  V30 58977 H 5546.34 0.707943 1.31562 0
M  V30 58978 H 5548.22 -0.676914 4.15928 0
M  V30 58979 H 5546.9 -1.10489 3.04259 0
M  V30 58980 H 5545.8 1.15428 3.55847 0
M  V30 58981 H 5547.14 1.49993 4.68789 0
M  V30 58982 N 5548.79 -1.40744 0.70914 0
M  V30 58983 C 5549.73 -2.3074 0.0524396 0
M  V30 58984 C 5550.7 -1.47842 -0.757093 0
M  V30 58985 O 5551.89 -1.76597 -0.722358 0
M  V30 58986 C 5549.03 -3.34003 -0.868085 0
M  V30 58987 C 5548.14 -4.31973 -0.0487168 0
M  V30 58988 C 5547.28 -5.22303 -0.968128 0
M  V30 58989 C 5546.32 -6.11934 -0.142467 0
M  V30 58990 N 5545.45 -6.94704 -1.01641 0
M  V30 58991 H 5550.29 -2.86335 0.825609 0
M  V30 58992 H 5547.83 -1.41011 0.418835 0
M  V30 58993 H 5549.79 -3.92436 -1.41597 0
M  V30 58994 H 5548.42 -2.79927 -1.60751 0
M  V30 58995 H 5547.47 -3.75375 0.616269 0
M  V30 58996 H 5548.78 -4.95289 0.590799 0
M  V30 58997 H 5547.94 -5.85636 -1.58477 0
M  V30 58998 H 5546.68 -4.59246 -1.64148 0
M  V30 58999 H 5545.68 -5.47637 0.487158 0
M  V30 59000 H 5546.91 -6.7705 0.527284 0
M  V30 59001 H 5544.85 -6.34241 -1.67552 0
M  V30 59002 H 5544.77 -7.5476 -0.432779 0
M  V30 59003 H 5546.04 -7.62492 -1.61943 0
M  V30 59004 N 5550.27 -0.454856 -1.50893 0
M  V30 59005 C 5551.2 0.383747 -2.25965 0
M  V30 59006 C 5552.21 0.971217 -1.30657 0
M  V30 59007 O 5553.4 0.862379 -1.56286 0
M  V30 59008 C 5550.5 1.55059 -3.01347 0
M  V30 59009 C 5549.67 1.07884 -4.23886 0
M  V30 59010 C 5548.73 2.11783 -4.81699 0
M  V30 59011 O 5547.76 1.70504 -5.43063 0
M  V30 59012 N 5548.96 3.44443 -4.67268 0
M  V30 59013 H 5551.72 -0.259751 -2.98572 0
M  V30 59014 H 5549.29 -0.284717 -1.59377 0
M  V30 59015 H 5551.28 2.24224 -3.36906 0
M  V30 59016 H 5549.85 2.09909 -2.3164 0
M  V30 59017 H 5549.07 0.213634 -3.93621 0
M  V30 59018 H 5550.36 0.741324 -5.0337 0
M  V30 59019 H 5549.75 3.80701 -4.1843 0
M  V30 59020 H 5548.31 4.09452 -5.07141 0
M  V30 59021 N 5551.74 1.56489 -0.186844 0
M  V30 59022 C 5552.68 2.14586 0.776412 0
M  V30 59023 C 5553.65 1.08024 1.2153 0
M  V30 59024 O 5554.84 1.3609 1.3043 0
M  V30 59025 C 5551.97 2.69805 2.04751 0
M  V30 59026 C 5551.01 3.8888 1.75141 0
M  V30 59027 S 5551.84 5.27766 0.90684 0
M  V30 59028 C 5553 5.86401 2.18827 0
M  V30 59029 H 5553.23 2.95955 0.282498 0
M  V30 59030 H 5550.77 1.54375 0.0280446 0
M  V30 59031 H 5552.72 3.02264 2.77753 0
M  V30 59032 H 5551.39 1.88493 2.51255 0
M  V30 59033 H 5550.58 4.25898 2.69494 0
M  V30 59034 H 5550.18 3.57388 1.10226 0
M  V30 59035 H 5552.47 6.0026 3.14155 0
M  V30 59036 H 5553.42 6.83166 1.86254 0
M  V30 59037 H 5553.82 5.14939 2.31296 0
M  V30 59038 N 5553.22 -0.0868067 1.57361 0
M  V30 59039 C 5554.13 -1.1229 2.05981 0
M  V30 59040 C 5555.15 -1.43344 0.986335 0
M  V30 59041 O 5556.32 -1.5382 1.30005 0
M  V30 59042 C 5553.39 -2.42123 2.48148 0
M  V30 59043 C 5552.45 -2.18176 3.69727 0
M  V30 59044 C 5551.68 -3.41818 4.09873 0
M  V30 59045 O 5551.91 -4.50371 3.50032 0
M  V30 59046 O 5550.84 -3.30916 5.0277 0
M  V30 59047 H 5554.67 -0.739908 2.94549 0
M  V30 59048 H 5552.25 -0.299898 1.46359 0
M  V30 59049 H 5554.13 -3.18558 2.75859 0
M  V30 59050 H 5552.81 -2.79831 1.62715 0
M  V30 59051 H 5551.71 -1.39493 3.4712 0
M  V30 59052 H 5553.05 -1.85356 4.55965 0
M  V30 59053 N 5554.7 -1.53484 -0.357838 0
M  V30 59054 C 5555.65 -1.80468 -1.43875 0
M  V30 59055 C 5556.62 -0.649492 -1.52875 0
M  V30 59056 O 5557.8 -0.892469 -1.68641 0
M  V30 59057 C 5554.94 -2.00724 -2.8072 0
M  V30 59058 C 5554.05 -3.28441 -2.80625 0
M  V30 59059 C 5553.19 -3.38843 -4.09095 0
M  V30 59060 C 5552.23 -4.60563 -4.03173 0
M  V30 59061 N 5551.37 -4.68075 -5.23307 0
M  V30 59062 H 5556.21 -2.72698 -1.20165 0
M  V30 59063 H 5553.74 -1.35081 -0.582375 0
M  V30 59064 H 5555.7 -2.10456 -3.60228 0
M  V30 59065 H 5554.33 -1.11822 -3.02813 0
M  V30 59066 H 5553.38 -3.27623 -1.93306 0
M  V30 59067 H 5554.69 -4.18032 -2.72123 0
M  V30 59068 H 5553.85 -3.47929 -4.97022 0
M  V30 59069 H 5552.59 -2.47282 -4.2036 0
M  V30 59070 H 5551.59 -4.51569 -3.13633 0
M  V30 59071 H 5552.82 -5.53472 -3.93504 0
M  V30 59072 H 5550.76 -3.79419 -5.35142 0
M  V30 59073 H 5550.68 -5.51581 -5.17005 0
M  V30 59074 H 5551.95 -4.81454 -6.13043 0
M  V30 59075 N 5556.18 0.618069 -1.44975 0
M  V30 59076 C 5557.11 1.74294 -1.48843 0
M  V30 59077 C 5558.12 1.58295 -0.380336 0
M  V30 59078 O 5559.31 1.66369 -0.646816 0
M  V30 59079 C 5556.41 3.12174 -1.31912 0
M  V30 59080 C 5555.58 3.5451 -2.56205 0
M  V30 59081 C 5554.64 4.71316 -2.33983 0
M  V30 59082 O 5553.67 4.78964 -3.07542 0
M  V30 59083 N 5554.87 5.63889 -1.37874 0
M  V30 59084 H 5557.64 1.71442 -2.45821 0
M  V30 59085 H 5555.2 0.803037 -1.40581 0
M  V30 59086 H 5557.19 3.88055 -1.14872 0
M  V30 59087 H 5555.76 3.09594 -0.432499 0
M  V30 59088 H 5554.98 2.68701 -2.88433 0
M  V30 59089 H 5556.27 3.79551 -3.38848 0
M  V30 59090 H 5555.67 5.60415 -0.77147 0
M  V30 59091 H 5554.22 6.39346 -1.26809 0
M  V30 59092 N 5557.66 1.3209 0.859647 0
M  V30 59093 C 5559.07 1.10972 1.14705 0
M  V30 59094 C 5559.27 -0.113069 2.01183 0
M  V30 59095 O 5558.33 -0.799415 2.39511 0
M  V30 59096 C 5559.64 2.38664 1.82921 0
M  V30 59097 C 5561.19 2.44373 1.95578 0
M  V30 59098 C 5561.66 3.71973 2.67209 0
M  V30 59099 N 5563.16 3.72926 2.74737 0
M  V30 59100 C 5563.89 4.68358 3.308 0
M  V30 59101 N 5563.39 5.74153 3.87712 0
M  V30 59102 N 5565.18 4.55862 3.28856 0
M  V30 59103 H 5557.33 2.10498 0.283637 0
M  V30 59104 H 5559.59 0.929115 0.188282 0
M  V30 59105 H 5559.3 3.28034 1.26832 0
M  V30 59106 H 5559.17 2.49246 2.83119 0
M  V30 59107 H 5561.56 1.55465 2.50828 0
M  V30 59108 H 5561.64 2.37747 0.943917 0
M  V30 59109 H 5561.29 4.61252 2.12624 0
M  V30 59110 H 5561.22 3.75868 3.68824 0
M  V30 59111 H 5563.71 2.96455 2.34356 0
M  V30 59112 H 5564.02 6.43036 4.28632 0
M  V30 59113 H 5562.36 5.77914 3.86058 0
M  V30 59114 H 5565.56 3.72381 2.83638 0
M  V30 59115 H 5565.73 5.30411 3.72247 0
M  V30 59116 N 5559.13 -1.07528 1.15219 0
M  V30 59117 C 5560.06 -2.16677 0.870247 0
M  V30 59118 C 5561.05 -1.69162 -0.178424 0
M  V30 59119 O 5562.23 -1.94172 -0.0331807 0
M  V30 59120 C 5559.36 -3.45462 0.356787 0
M  V30 59121 C 5558.31 -4.06419 1.34193 0
M  V30 59122 C 5557.64 -5.30263 0.687392 0
M  V30 59123 C 5558.94 -4.46656 2.70731 0
M  V30 59124 H 5560.63 -2.4052 1.78299 0
M  V30 59125 H 5558.18 -1.15595 0.858706 0
M  V30 59126 H 5560.13 -4.21143 0.147095 0
M  V30 59127 H 5558.86 -3.21201 -0.591414 0
M  V30 59128 H 5557.52 -3.3278 1.53795 0
M  V30 59129 H 5557.16 -5.02291 -0.2669 0
M  V30 59130 H 5556.86 -5.72004 1.34482 0
M  V30 59131 H 5558.39 -6.08651 0.487432 0
M  V30 59132 H 5559.8 -5.13474 2.54985 0
M  V30 59133 H 5558.2 -4.99343 3.32831 0
M  V30 59134 H 5559.27 -3.58112 3.26931 0
M  V30 59135 N 5560.61 -0.948709 -1.25846 0
M  V30 59136 C 5561.54 -0.482116 -2.28469 0
M  V30 59137 C 5562.52 0.468496 -1.63521 0
M  V30 59138 O 5563.71 0.368729 -1.90667 0
M  V30 59139 C 5560.84 0.246481 -3.46424 0
M  V30 59140 C 5559.79 -0.618299 -4.2351 0
M  V30 59141 C 5559.12 0.240696 -5.34158 0
M  V30 59142 C 5560.42 -1.89344 -4.86771 0
M  V30 59143 H 5562.11 -1.33982 -2.67748 0
M  V30 59144 H 5559.66 -0.64569 -1.28712 0
M  V30 59145 H 5561.61 0.583988 -4.17334 0
M  V30 59146 H 5560.34 1.13838 -3.06118 0
M  V30 59147 H 5558.99 -0.938807 -3.54375 0
M  V30 59148 H 5558.64 1.13218 -4.90093 0
M  V30 59149 H 5558.34 -0.334573 -5.86647 0
M  V30 59150 H 5559.87 0.573303 -6.07903 0
M  V30 59151 H 5561.28 -1.62271 -5.49855 0
M  V30 59152 H 5559.68 -2.41388 -5.4941 0
M  V30 59153 H 5560.75 -2.6002 -4.09289 0
M  V30 59154 N 5562.09 1.40366 -0.716594 0
M  V30 59155 C 5563.32 2.04883 -0.265829 0
M  V30 59156 C 5563.73 1.54099 1.09774 0
M  V30 59157 O 5563.07 0.693004 1.70127 0
M  V30 59158 C 5563.13 3.59103 -0.168996 0
M  V30 59159 C 5562.8 4.3278 -1.46801 0
M  V30 59160 C 5563.79 4.60661 -2.41013 0
M  V30 59161 C 5561.48 4.7167 -1.72722 0
M  V30 59162 C 5563.47 5.26419 -3.59391 0
M  V30 59163 C 5561.16 5.3716 -2.91381 0
M  V30 59164 C 5562.16 5.64464 -3.84537 0
M  V30 59165 O 5561.85 6.28601 -5.01115 0
M  V30 59166 H 5561.58 0.665789 -0.117049 0
M  V30 59167 H 5564.13 1.80743 -0.975762 0
M  V30 59168 H 5562.36 3.82066 0.596888 0
M  V30 59169 H 5564.05 4.05146 0.24734 0
M  V30 59170 H 5564.82 4.31079 -2.22252 0
M  V30 59171 H 5560.7 4.49785 -1.01065 0
M  V30 59172 H 5564.24 5.47648 -4.3212 0
M  V30 59173 H 5560.14 5.66162 -3.1005 0
M  V30 59174 H 5560.91 6.47097 -5.01206 0
M  V30 59175 N 5563.57 0.462852 1.5065 0
M  V30 59176 C 5564.5 -0.371758 2.26165 0
M  V30 59177 C 5565.51 -0.964274 1.3117 0
M  V30 59178 O 5566.7 -0.854079 1.56741 0
M  V30 59179 C 5563.8 -1.53458 3.02165 0
M  V30 59180 C 5562.98 -1.05635 4.24453 0
M  V30 59181 C 5562.03 -2.09226 4.82816 0
M  V30 59182 O 5561.06 -1.67621 5.43959 0
M  V30 59183 N 5562.26 -3.4196 4.69088 0
M  V30 59184 H 5565.03 0.275581 2.9843 0
M  V30 59185 H 5562.59 0.293165 1.59224 0
M  V30 59186 H 5564.58 -2.22434 3.38091 0
M  V30 59187 H 5563.15 -2.08677 2.3275 0
M  V30 59188 H 5562.37 -0.192757 3.93728 0
M  V30 59189 H 5563.66 -0.714618 5.03757 0
M  V30 59190 H 5563.06 -3.78476 4.20443 0
M  V30 59191 H 5561.61 -4.06757 5.09305 0
M  V30 59192 N 5565.05 -1.56387 0.19514 0
M  V30 59193 C 5565.98 -2.16318 -0.757567 0
M  V30 59194 C 5566.99 -1.12502 -1.17674 0
M  V30 59195 O 5568.18 -1.39594 -1.11246 0
M  V30 59196 C 5565.28 -2.71047 -2.03438 0
M  V30 59197 C 5564.45 -3.99766 -1.775 0
M  V30 59198 C 5563.51 -4.3932 -2.89628 0
M  V30 59199 O 5562.54 -5.06741 -2.59234 0
M  V30 59200 N 5563.74 -4.02827 -4.17984 0
M  V30 59201 H 5566.51 -2.98696 -0.245065 0
M  V30 59202 H 5564.07 -1.61895 0.0131763 0
M  V30 59203 H 5566.06 -2.94493 -2.7759 0
M  V30 59204 H 5564.63 -1.93123 -2.4581 0
M  V30 59205 H 5563.85 -3.84451 -0.871265 0
M  V30 59206 H 5565.14 -4.83787 -1.57568 0
M  V30 59207 H 5564.53 -3.48596 -4.4553 0
M  V30 59208 H 5563.09 -4.31223 -4.88763 0
M  V30 59209 N 5566.52 0.0784603 -1.57405 0
M  V30 59210 C 5567.49 1.07828 -2.02252 0
M  V30 59211 C 5568.49 1.31984 -0.918522 0
M  V30 59212 O 5569.68 1.27817 -1.18357 0
M  V30 59213 C 5566.81 2.42353 -2.39746 0
M  V30 59214 H 5568 0.691893 -2.9181 0
M  V30 59215 H 5565.56 0.323996 -1.52905 0
M  V30 59216 H 5566.29 2.85836 -1.53193 0
M  V30 59217 H 5566.08 2.26163 -3.20301 0
M  V30 59218 H 5567.57 3.14232 -2.75042 0
M  V30 59219 N 5568 1.53671 0.349693 0
M  V30 59220 C 5569.42 1.43798 0.692406 0
M  V30 59221 C 5569.62 0.589787 1.92675 0
M  V30 59222 O 5568.67 0.0783827 2.52378 0
M  V30 59223 C 5569.99 2.87203 0.89078 0
M  V30 59224 C 5571.54 2.96938 0.989787 0
M  V30 59225 C 5572.01 4.41438 1.22052 0
M  V30 59226 N 5573.5 4.44936 1.28786 0
M  V30 59227 C 5574.24 5.53869 1.48379 0
M  V30 59228 N 5573.73 6.72819 1.65184 0
M  V30 59229 N 5575.53 5.41473 1.50877 0
M  V30 59230 H 5567.68 2.07315 -0.461968 0
M  V30 59231 H 5569.94 0.936889 -0.144714 0
M  V30 59232 H 5569.65 3.51656 0.0553859 0
M  V30 59233 H 5569.52 3.3179 1.7943 0
M  V30 59234 H 5571.91 2.32629 1.81571 0
M  V30 59235 H 5571.99 2.55722 0.0633007 0
M  V30 59236 H 5571.63 5.06326 0.399551 0
M  V30 59237 H 5571.56 4.80241 2.16048 0
M  V30 59238 H 5574.05 3.59218 1.17349 0
M  V30 59239 H 5574.37 7.51604 1.79752 0
M  V30 59240 H 5572.71 6.75776 1.62332 0
M  V30 59241 H 5575.9 4.47503 1.37326 0
M  V30 59242 H 5576.07 6.26429 1.65804 0
M  V30 59243 N 5569.48 -0.610372 1.453 0
M  V30 59244 C 5570.41 -1.73201 1.566 0
M  V30 59245 C 5571.39 -1.64891 0.417708 0
M  V30 59246 O 5572.58 -1.83334 0.640494 0
M  V30 59247 C 5569.71 -3.11797 1.5297 0
M  V30 59248 C 5568.66 -3.34916 2.66487 0
M  V30 59249 C 5567.99 -4.73756 2.47911 0
M  V30 59250 C 5569.29 -3.25442 4.08515 0
M  V30 59251 H 5570.98 -1.64001 2.50487 0
M  V30 59252 H 5568.53 -0.787579 1.20554 0
M  V30 59253 H 5570.48 -3.9006 1.59472 0
M  V30 59254 H 5569.2 -3.21831 0.556103 0
M  V30 59255 H 5567.86 -2.59042 2.59408 0
M  V30 59256 H 5567.51 -4.80519 1.48697 0
M  V30 59257 H 5567.21 -4.9018 3.24033 0
M  V30 59258 H 5568.73 -5.54222 2.56263 0
M  V30 59259 H 5570.15 -3.93582 4.16853 0
M  V30 59260 H 5568.55 -3.53397 4.85006 0
M  V30 59261 H 5569.62 -2.22924 4.30619 0
M  V30 59262 N 5570.96 -1.32544 -0.85263 0
M  V30 59263 C 5571.91 -1.18231 -1.9495 0
M  V30 59264 C 5572.89 -0.0887079 -1.60655 0
M  V30 59265 O 5574.08 -0.31542 -1.74167 0
M  V30 59266 C 5571.21 -0.909601 -3.3103 0
M  V30 59267 C 5570.3 -2.045 -3.71538 0
M  V30 59268 N 5570.69 -3.29375 -3.83856 0
M  V30 59269 C 5568.99 -1.94862 -4.01179 0
M  V30 59270 C 5569.69 -4.03754 -4.18757 0
M  V30 59271 N 5568.67 -3.32069 -4.30384 0
M  V30 59272 H 5572.47 -2.129 -2.02609 0
M  V30 59273 H 5569.98 -1.24353 -1.04451 0
M  V30 59274 H 5571.98 -0.788009 -4.09385 0
M  V30 59275 H 5570.64 0.0287022 -3.24687 0
M  V30 59276 H 5571.65 -3.64287 -3.68124 0
M  V30 59277 H 5568.33 -1.08606 -4.03127 0
M  V30 59278 H 5569.72 -5.1145 -4.35739 0
M  V30 59279 N 5572.44 1.06915 -1.15788 0
M  V30 59280 C 5573.67 1.83307 -0.959487 0
M  V30 59281 C 5574.08 1.82269 0.492268 0
M  V30 59282 O 5573.44 1.23732 1.34152 0
M  V30 59283 C 5573.49 3.30197 -1.47147 0
M  V30 59284 O 5573.21 3.31318 -2.86636 0
M  V30 59285 C 5574.71 4.23341 -1.31519 0
M  V30 59286 H 5571.93 0.57819 -0.340495 0
M  V30 59287 H 5574.47 1.34933 -1.53666 0
M  V30 59288 H 5572.63 3.75905 -0.936719 0
M  V30 59289 H 5573.04 4.23124 -3.09945 0
M  V30 59290 H 5574.52 5.24459 -1.72182 0
M  V30 59291 H 5574.99 4.3843 -0.259927 0
M  V30 59292 H 5575.6 3.83474 -1.83924 0
M  V30 59293 N 5573.92 0.95537 1.25341 0
M  V30 59294 C 5575.33 0.659914 1.45318 0
M  V30 59295 C 5575.53 -0.782315 1.85694 0
M  V30 59296 O 5574.59 -1.55753 1.98739 0
M  V30 59297 C 5575.9 1.63348 2.52464 0
M  V30 59298 C 5577.45 1.64474 2.66303 0
M  V30 59299 C 5577.92 2.60596 3.76635 0
M  V30 59300 N 5579.41 2.58965 3.84046 0
M  V30 59301 C 5580.15 3.30019 4.68909 0
M  V30 59302 N 5579.65 4.10548 5.58052 0
M  V30 59303 N 5581.44 3.18902 4.6288 0
M  V30 59304 H 5573.59 1.88738 0.974263 0
M  V30 59305 H 5575.85 0.811875 0.489451 0
M  V30 59306 H 5575.56 2.66366 2.29656 0
M  V30 59307 H 5575.43 1.39656 3.50394 0
M  V30 59308 H 5577.82 0.621724 2.88476 0
M  V30 59309 H 5577.9 1.92224 1.68771 0
M  V30 59310 H 5577.54 3.63024 3.55213 0
M  V30 59311 H 5577.47 2.3013 4.73654 0
M  V30 59312 H 5579.97 2.00502 3.20324 0
M  V30 59313 H 5580.28 4.61682 6.19734 0
M  V30 59314 H 5578.62 4.14645 5.57758 0
M  V30 59315 H 5581.81 2.55461 3.92246 0
M  V30 59316 H 5581.99 3.74543 5.28793 0
M  V30 59317 N 5575.39 -1.39984 0.724028 0
M  V30 59318 C 5576.64 -2.00333 0.266658 0
M  V30 59319 C 5576.96 -1.57718 -1.14674 0
M  V30 59320 O 5576.23 -0.820433 -1.77892 0
M  V30 59321 H 5574.81 -0.740857 0.0955991 0
M  V30 59322 H 5577.47 -1.71197 0.931541 0
M  V30 59323 H 5576.57 -3.10592 0.306391 0
M  V30 59324 N 5576.87 -0.470835 -1.50402 0
M  V30 59325 C 5577.83 0.312147 -2.27064 0
M  V30 59326 C 5578.83 0.920663 -1.31835 0
M  V30 59327 O 5580.02 0.789882 -1.55263 0
M  V30 59328 C 5577.16 1.44467 -3.08775 0
M  V30 59329 H 5578.35 -0.360165 -2.97729 0
M  V30 59330 H 5575.9 -0.224891 -1.54674 0
M  V30 59331 H 5576.64 2.15204 -2.42606 0
M  V30 59332 H 5576.42 1.01413 -3.78758 0
M  V30 59333 H 5577.91 1.997 -3.66756 0
M  V30 59334 N 5578.35 1.56282 -0.203431 0
M  V30 59335 C 5579.31 2.18236 0.700412 0
M  V30 59336 C 5580.31 1.13912 1.13493 0
M  V30 59337 O 5581.5 1.39249 1.04667 0
M  V30 59338 C 5578.63 2.79113 1.95726 0
M  V30 59339 H 5579.83 2.9947 0.160544 0
M  V30 59340 H 5577.38 1.56232 0.0461925 0
M  V30 59341 H 5578.12 2.017 2.53944 0
M  V30 59342 H 5577.9 3.55491 1.65433 0
M  V30 59343 H 5579.39 3.26659 2.6016 0
M  V30 59344 N 5579.83 -0.0701116 1.57444 0
M  V30 59345 C 5580.74 -1.10099 2.0716 0
M  V30 59346 C 5581.75 -1.4229 1.00148 0
M  V30 59347 O 5582.93 -1.52432 1.31629 0
M  V30 59348 C 5579.99 -2.39477 2.50702 0
M  V30 59349 C 5579.06 -2.14242 3.7202 0
M  V30 59350 C 5578.29 -3.37452 4.13476 0
M  V30 59351 O 5578.51 -4.46633 3.54789 0
M  V30 59352 O 5577.45 -3.25565 5.06252 0
M  V30 59353 H 5581.27 -0.708626 2.95317 0
M  V30 59354 H 5578.86 -0.284358 1.46669 0
M  V30 59355 H 5580.74 -3.15615 2.79223 0
M  V30 59356 H 5579.41 -2.7809 1.65674 0
M  V30 59357 H 5578.32 -1.35804 3.4858 0
M  V30 59358 H 5579.65 -1.80509 4.57905 0
M  V30 59359 N 5581.31 -1.53855 -0.341539 0
M  V30 59360 C 5582.24 -1.76802 -1.44278 0
M  V30 59361 C 5583.22 -0.61721 -1.5043 0
M  V30 59362 O 5584.4 -0.8526 -1.68116 0
M  V30 59363 C 5581.53 -1.86847 -2.825 0
M  V30 59364 C 5580.57 -3.09012 -2.93963 0
M  V30 59365 S 5581.41 -4.68021 -2.60224 0
M  V30 59366 C 5582.56 -4.80947 -4.00551 0
M  V30 59367 H 5582.8 -2.69932 -1.24596 0
M  V30 59368 H 5580.33 -1.44749 -0.537324 0
M  V30 59369 H 5582.29 -1.93319 -3.6213 0
M  V30 59370 H 5580.95 -0.947267 -2.99476 0
M  V30 59371 H 5580.14 -3.1272 -3.95249 0
M  V30 59372 H 5579.74 -3.00776 -2.22283 0
M  V30 59373 H 5582.03 -4.6248 -4.95095 0
M  V30 59374 H 5582.98 -5.83039 -4.01835 0
M  V30 59375 H 5583.39 -4.09386 -3.88669 0
M  V30 59376 N 5582.78 0.602658 -1.45622 0
M  V30 59377 C 5584.03 1.36354 -1.50118 0
M  V30 59378 C 5584.36 1.93663 -0.144366 0
M  V30 59379 O 5583.64 1.7534 0.84179 0
M  V30 59380 C 5583.92 2.50779 -2.58422 0
M  V30 59381 C 5583.77 1.98635 -4.03564 0
M  V30 59382 C 5585.09 3.52895 -2.62969 0
M  V30 59383 H 5582.21 0.494435 -0.546537 0
M  V30 59384 H 5584.85 0.678894 -1.77457 0
M  V30 59385 H 5583 3.09183 -2.35241 0
M  V30 59386 H 5584.68 1.44842 -4.37971 0
M  V30 59387 H 5582.92 1.296 -4.13988 0
M  V30 59388 H 5583.59 2.81142 -4.7504 0
M  V30 59389 H 5586.07 3.0434 -2.83754 0
M  V30 59390 H 5584.94 4.30442 -3.40604 0
M  V30 59391 H 5585.2 4.08834 -1.68248 0
M  V30 59392 N 5584.26 1.32995 0.845589 0
M  V30 59393 C 5585.19 1.25308 1.97028 0
M  V30 59394 C 5586.17 0.135025 1.69563 0
M  V30 59395 O 5587.36 0.323696 1.91483 0
M  V30 59396 C 5584.49 0.984668 3.33049 0
M  V30 59397 C 5583.44 2.06494 3.74892 0
M  V30 59398 C 5582.77 1.64878 5.08645 0
M  V30 59399 C 5584.07 3.48097 3.89391 0
M  V30 59400 H 5585.76 2.19408 2.03717 0
M  V30 59401 H 5583.31 1.05625 0.978746 0
M  V30 59402 H 5585.26 0.917413 4.11292 0
M  V30 59403 H 5583.98 0.00804597 3.26599 0
M  V30 59404 H 5582.64 2.1225 2.98907 0
M  V30 59405 H 5582.29 0.659359 4.9866 0
M  V30 59406 H 5581.99 2.37164 5.37612 0
M  V30 59407 H 5583.52 1.59606 5.89371 0
M  V30 59408 H 5584.93 3.44879 4.57964 0
M  V30 59409 H 5583.33 4.18811 4.29788 0
M  V30 59410 H 5584.4 3.87095 2.92037 0
M  V30 59411 N 5585.74 -1.063 1.16353 0
M  V30 59412 C 5586.67 -2.13729 0.827797 0
M  V30 59413 C 5587.68 -1.61962 -0.164926 0
M  V30 59414 O 5588.87 -1.784 0.0598218 0
M  V30 59415 C 5585.97 -3.38238 0.211742 0
M  V30 59416 C 5585.15 -4.19321 1.24455 0
M  V30 59417 C 5584.21 -5.22191 0.64831 0
M  V30 59418 O 5583.23 -5.53751 1.31715 0
M  V30 59419 N 5584.43 -5.77744 -0.564976 0
M  V30 59420 H 5587.2 -2.4313 1.75237 0
M  V30 59421 H 5584.76 -1.22301 1.06086 0
M  V30 59422 H 5586.75 -4.04205 -0.200164 0
M  V30 59423 H 5585.32 -3.06463 -0.616383 0
M  V30 59424 H 5584.54 -3.4901 1.83263 0
M  V30 59425 H 5585.83 -4.70299 1.94155 0
M  V30 59426 H 5585.23 -5.5437 -1.12653 0
M  V30 59427 H 5583.78 -6.45287 -0.919094 0
M  V30 59428 N 5587.22 -0.962004 -1.24833 0
M  V30 59429 C 5588.15 -0.432267 -2.24068 0
M  V30 59430 C 5589.13 0.490484 -1.55026 0
M  V30 59431 O 5590.31 0.423171 -1.83689 0
M  V30 59432 C 5587.44 0.376612 -3.366 0
M  V30 59433 C 5586.49 -0.487599 -4.23704 0
M  V30 59434 S 5587.32 -1.92434 -4.99729 0
M  V30 59435 C 5588.48 -1.12409 -6.15723 0
M  V30 59436 H 5588.71 -1.27324 -2.68656 0
M  V30 59437 H 5586.24 -0.766615 -1.34024 0
M  V30 59438 H 5588.2 0.837346 -4.01869 0
M  V30 59439 H 5586.86 1.1925 -2.90583 0
M  V30 59440 H 5586.05 0.13316 -5.03824 0
M  V30 59441 H 5585.66 -0.883835 -3.63407 0
M  V30 59442 H 5587.95 -0.376335 -6.76454 0
M  V30 59443 H 5588.89 -1.89948 -6.82148 0
M  V30 59444 H 5589.3 -0.650976 -5.60734 0
M  V30 59445 N 5588.7 1.39598 -0.731441 0
M  V30 59446 C 5589.95 1.9982 -0.274731 0
M  V30 59447 C 5590.26 1.58697 1.14345 0
M  V30 59448 O 5591.46 2.1173 1.69949 0
M  V30 59449 C 5589.92 3.57197 -0.440249 0
M  V30 59450 C 5589.53 4.07285 -1.86608 0
M  V30 59451 C 5591.27 4.24476 -0.0451343 0
M  V30 59452 C 5589.18 5.57222 -1.98134 0
M  V30 59453 H 5588.11 0.747477 -0.0989646 0
M  V30 59454 H 5590.76 1.59642 -0.904811 0
M  V30 59455 H 5589.14 3.95154 0.258671 0
M  V30 59456 H 5590.32 3.8067 -2.59667 0
M  V30 59457 H 5588.63 3.52657 -2.21409 0
M  V30 59458 H 5591.23 5.34586 -0.110314 0
M  V30 59459 H 5591.57 4.04133 0.999127 0
M  V30 59460 H 5592.1 3.9168 -0.69508 0
M  V30 59461 H 5588.84 5.82441 -3.00737 0
M  V30 59462 H 5588.36 5.85652 -1.29508 0
M  V30 59463 H 5590.04 6.22578 -1.76085 0
M  V30 59464 N 5590.17 0.478804 1.50151 0
M  V30 59465 C 5591.4 -0.0732201 2.07271 0
M  V30 59466 C 5591.82 -1.32061 1.33946 0
M  V30 59467 O 5591.18 -1.77068 0.389429 0
M  V30 59468 C 5591.23 -0.332401 3.59065 0
M  V30 59469 O 5590.33 -1.41144 3.87495 0
M  V30 59470 H 5589.68 0.0163917 0.663798 0
M  V30 59471 H 5592.21 0.67206 1.93247 0
M  V30 59472 H 5592.22 -0.570593 4.0399 0
M  V30 59473 H 5590.89 0.579078 4.11849 0
M  V30 59474 H 5589.47 -1.15995 3.544 0
M  V30 59475 N 5591.65 -1.56171 0.211716 0
M  V30 59476 C 5592.62 -2.18604 -0.688829 0
M  V30 59477 C 5593.62 -1.14512 -1.12888 0
M  V30 59478 O 5594.81 -1.39803 -1.03927 0
M  V30 59479 C 5591.94 -2.80147 -1.94243 0
M  V30 59480 H 5593.13 -2.99551 -0.14466 0
M  V30 59481 H 5590.68 -1.56254 -0.0379065 0
M  V30 59482 H 5591.42 -2.03044 -2.52871 0
M  V30 59483 H 5591.2 -3.56364 -1.63546 0
M  V30 59484 H 5592.69 -3.28035 -2.58424 0
M  V30 59485 N 5593.13 0.061761 -1.57479 0
M  V30 59486 C 5594.37 0.764229 -1.89576 0
M  V30 59487 C 5594.73 1.74232 -0.806666 0
M  V30 59488 O 5595.94 2.49063 -1.01099 0
M  V30 59489 C 5594.21 1.44492 -3.2689 0
M  V30 59490 S 5595.77 2.18107 -3.80756 0
M  V30 59491 H 5592.58 0.253923 -0.664112 0
M  V30 59492 H 5595.19 0.0199377 -1.9549 0
M  V30 59493 H 5593.89 0.719383 -4.04046 0
M  V30 59494 H 5593.42 2.22844 -3.24198 0
M  V30 59495 H 5595.44 3.4478 -3.56849 0
M  V30 59496 N 5594.61 1.54034 0.333374 0
M  V30 59497 C 5595.56 1.82734 1.40986 0
M  V30 59498 C 5596.53 0.67373 1.51823 0
M  V30 59499 O 5597.71 0.919185 1.67199 0
M  V30 59500 C 5594.85 2.05165 2.77491 0
M  V30 59501 C 5593.96 3.32864 2.75364 0
M  V30 59502 C 5593.1 3.45308 4.03653 0
M  V30 59503 C 5592.14 4.66919 3.95795 0
M  V30 59504 N 5591.27 4.76342 5.15794 0
M  V30 59505 H 5596.11 2.74576 1.15811 0
M  V30 59506 H 5593.65 1.3599 0.560811 0
M  V30 59507 H 5595.61 2.16161 3.56834 0
M  V30 59508 H 5594.24 1.16625 3.00996 0
M  V30 59509 H 5593.29 3.30657 1.88069 0
M  V30 59510 H 5594.6 4.22308 2.65438 0
M  V30 59511 H 5593.76 3.55792 4.91423 0
M  V30 59512 H 5592.5 2.53939 4.16373 0
M  V30 59513 H 5591.5 4.56502 3.06409 0
M  V30 59514 H 5592.73 5.59663 3.84648 0
M  V30 59515 H 5590.67 3.87884 5.29038 0
M  V30 59516 H 5590.59 5.59737 5.08164 0
M  V30 59517 H 5591.86 4.91146 6.05306 0
M  V30 59518 N 5596.09 -0.594927 1.4594 0
M  V30 59519 C 5597.33 -1.35088 1.50318 0
M  V30 59520 C 5597.66 -1.94412 0.151383 0
M  V30 59521 O 5596.93 -1.77879 -0.820725 0
M  V30 59522 H 5595.51 -0.50153 0.553603 0
M  V30 59523 H 5598.17 -0.697671 1.81985 0
M  V30 59524 H 5597.26 -2.16385 2.24909 0
M  V30 59525 N 5597.56 -1.33441 -0.838524 0
M  V30 59526 C 5598.47 -1.2576 -1.98044 0
M  V30 59527 C 5599.49 -0.168112 -1.73186 0
M  V30 59528 O 5600.67 -0.391761 -1.97553 0
M  V30 59529 C 5597.73 -0.997265 -3.32047 0
M  V30 59530 C 5596.79 -2.1768 -3.70019 0
M  V30 59531 C 5596.03 -1.92878 -4.97628 0
M  V30 59532 O 5596.25 -0.87927 -5.63582 0
M  V30 59533 O 5595.18 -2.79421 -5.33111 0
M  V30 59534 H 5599.01 -2.21793 -2.07464 0
M  V30 59535 H 5596.59 -1.13491 -0.971605 0
M  V30 59536 H 5598.48 -0.869244 -4.12337 0
M  V30 59537 H 5597.15 -0.0672174 -3.2363 0
M  V30 59538 H 5596.06 -2.36035 -2.90238 0
M  V30 59539 H 5597.39 -3.0902 -3.83103 0
M  V30 59540 N 5599.04 1.05681 -1.16915 0
M  V30 59541 C 5600.27 1.82279 -0.978875 0
M  V30 59542 C 5600.69 1.82781 0.472908 0
M  V30 59543 O 5600.04 1.25147 1.32832 0
M  V30 59544 C 5600.09 3.28618 -1.50641 0
M  V30 59545 O 5599.81 3.28259 -2.90134 0
M  V30 59546 C 5601.32 4.21922 -1.36002 0
M  V30 59547 H 5598.54 0.574546 -0.346609 0
M  V30 59548 H 5601.08 1.33296 -1.55089 0
M  V30 59549 H 5599.23 3.7489 -0.976536 0
M  V30 59550 H 5599.65 4.19813 -3.14415 0
M  V30 59551 H 5601.12 5.22604 -1.77735 0
M  V30 59552 H 5601.6 4.3813 -0.306414 0
M  V30 59553 H 5602.21 3.81501 -1.87981 0
M  V30 59554 N 5600.52 0.96861 1.24321 0
M  V30 59555 C 5601.77 0.62975 1.92038 0
M  V30 59556 C 5602.09 -0.837845 1.76083 0
M  V30 59557 O 5601.36 -1.59816 1.13294 0
M  V30 59558 H 5599.94 0.229926 0.710734 0
M  V30 59559 H 5602.6 1.22988 1.51195 0
M  V30 59560 H 5601.7 0.871139 2.99696 0
M  V30 59561 N 5602 -1.39208 0.738834 0
M  V30 59562 C 5602.96 -2.28937 0.109827 0
M  V30 59563 C 5603.96 -1.46491 -0.663106 0
M  V30 59564 O 5605.15 -1.67121 -0.491555 0
M  V30 59565 C 5602.28 -3.30042 -0.853517 0
M  V30 59566 H 5603.48 -2.86064 0.900396 0
M  V30 59567 H 5601.03 -1.4792 0.504905 0
M  V30 59568 H 5601.77 -2.77977 -1.6703 0
M  V30 59569 H 5601.55 -3.90936 -0.30187 0
M  V30 59570 H 5603.04 -3.97173 -1.29008 0
M  V30 59571 N 5603.48 -0.48676 -1.49895 0
M  V30 59572 C 5604.41 0.345548 -2.25569 0
M  V30 59573 C 5605.39 0.982748 -1.29541 0
M  V30 59574 O 5606.57 1.01563 -1.58799 0
M  V30 59575 C 5603.7 1.48544 -3.04389 0
M  V30 59576 C 5602.75 0.96405 -4.15462 0
M  V30 59577 S 5603.58 -0.133819 -5.35333 0
M  V30 59578 C 5604.73 1.00958 -6.17704 0
M  V30 59579 H 5604.97 -0.296781 -2.95815 0
M  V30 59580 H 5602.5 -0.271851 -1.51988 0
M  V30 59581 H 5604.46 2.13866 -3.50388 0
M  V30 59582 H 5603.12 2.09933 -2.33638 0
M  V30 59583 H 5602.31 1.81788 -4.70074 0
M  V30 59584 H 5601.91 0.388288 -3.71979 0
M  V30 59585 H 5604.21 1.91789 -6.49787 0
M  V30 59586 H 5605.15 0.502384 -7.06316 0
M  V30 59587 H 5605.56 1.27048 -5.50017 0
M  V30 59588 N 5604.96 1.56057 -0.219996 0
M  V30 59589 C 5606.2 1.98556 0.412738 0
M  V30 59590 C 5606.53 1.10748 1.59526 0
M  V30 59591 O 5605.81 0.164825 1.938 0
M  V30 59592 C 5606.09 3.49953 0.8488 0
M  V30 59593 C 5605.95 4.48534 -0.337251 0
M  V30 59594 C 5607.26 4.05709 1.70552 0
M  V30 59595 H 5604.38 0.721874 0.148551 0
M  V30 59596 H 5607.03 1.87355 -0.315918 0
M  V30 59597 H 5605.18 3.59629 1.46967 0
M  V30 59598 H 5606.85 4.5087 -0.975375 0
M  V30 59599 H 5605.09 4.2247 -0.984947 0
M  V30 59600 H 5605.76 5.51999 0.0107725 0
M  V30 59601 H 5608.24 3.98968 1.18168 0
M  V30 59602 H 5607.11 5.11962 1.97954 0
M  V30 59603 H 5607.37 3.52496 2.66831 0
M  V30 59604 N 5606.43 -0.0534086 1.57509 0
M  V30 59605 C 5607.66 -0.765233 1.92767 0
M  V30 59606 C 5608.08 -1.69382 0.818003 0
M  V30 59607 O 5607.44 -1.7986 -0.228012 0
M  V30 59608 C 5607.49 -1.51926 3.27033 0
M  V30 59609 O 5606.59 -2.6311 3.17564 0
M  V30 59610 H 5605.93 -0.207545 0.630731 0
M  V30 59611 H 5608.46 -0.0161534 2.04594 0
M  V30 59612 H 5608.47 -1.89453 3.61347 0
M  V30 59613 H 5607.15 -0.838063 4.07369 0
M  V30 59614 H 5605.73 -2.28306 2.94841 0
M  V30 59615 N 5607.91 -1.54208 -0.325201 0
M  V30 59616 C 5609.14 -1.76614 -1.0873 0
M  V30 59617 C 5609.56 -0.512513 -1.80983 0
M  V30 59618 O 5608.92 0.535852 -1.732 0
M  V30 59619 C 5608.97 -2.95805 -2.06233 0
M  V30 59620 O 5608.07 -2.67236 -3.141 0
M  V30 59621 H 5607.41 -0.585293 -0.313572 0
M  V30 59622 H 5609.94 -2.01227 -0.369995 0
M  V30 59623 H 5609.95 -3.23106 -2.49132 0
M  V30 59624 H 5608.63 -3.86717 -1.53044 0
M  V30 59625 H 5607.2 -2.50879 -2.75888 0
M  V30 59626 N 5609.39 0.587179 -1.46253 0
M  V30 59627 C 5610.62 1.37169 -1.54894 0
M  V30 59628 C 5611.03 1.87857 -0.188511 0
M  V30 59629 O 5610.39 1.63368 0.813452 0
M  V30 59630 C 5610.44 2.56228 -2.55009 0
M  V30 59631 O 5610.16 2.07642 -3.85767 0
M  V30 59632 C 5611.66 3.48836 -2.73547 0
M  V30 59633 H 5608.88 0.419192 -0.523946 0
M  V30 59634 H 5611.43 0.714239 -1.91622 0
M  V30 59635 H 5609.58 3.17972 -2.21298 0
M  V30 59636 H 5610 2.85146 -4.40218 0
M  V30 59637 H 5611.47 4.28868 -3.47529 0
M  V30 59638 H 5611.95 4.00487 -1.80296 0
M  V30 59639 H 5612.55 2.92931 -3.08336 0
M  V30 59640 N 5610.87 1.33884 0.831435 0
M  V30 59641 C 5611.8 1.27391 1.95688 0
M  V30 59642 C 5612.78 0.153002 1.6941 0
M  V30 59643 O 5613.96 0.343987 1.91129 0
M  V30 59644 C 5611.09 1.01994 3.31986 0
M  V30 59645 C 5610.05 2.10458 3.72681 0
M  V30 59646 C 5609.37 1.70263 5.06867 0
M  V30 59647 C 5610.67 3.52208 3.85677 0
M  V30 59648 H 5612.37 2.21556 2.01379 0
M  V30 59649 H 5609.91 1.06657 0.967488 0
M  V30 59650 H 5611.87 0.960985 4.10296 0
M  V30 59651 H 5610.59 0.0426857 3.26572 0
M  V30 59652 H 5609.25 2.15408 2.96639 0
M  V30 59653 H 5608.9 0.712211 4.97932 0
M  V30 59654 H 5608.6 2.42852 5.35067 0
M  V30 59655 H 5610.12 1.65848 5.87645 0
M  V30 59656 H 5611.54 3.49717 4.5428 0
M  V30 59657 H 5609.93 4.23346 4.25322 0
M  V30 59658 H 5611 3.9017 2.87915 0
M  V30 59659 N 5612.35 -1.0506 1.17474 0
M  V30 59660 C 5613.29 -2.12838 0.892665 0
M  V30 59661 C 5614.26 -1.65289 -0.163962 0
M  V30 59662 O 5615.45 -1.90782 -0.0264699 0
M  V30 59663 C 5612.59 -3.42613 0.41356 0
M  V30 59664 C 5611.7 -4.0383 1.53446 0
M  V30 59665 C 5610.84 -5.21527 1.00909 0
M  V30 59666 C 5609.87 -5.74753 2.10535 0
M  V30 59667 N 5609.01 -6.83751 1.59466 0
M  V30 59668 H 5613.85 -2.36305 1.81559 0
M  V30 59669 H 5611.39 -1.15925 0.905524 0
M  V30 59670 H 5613.35 -4.17035 0.117328 0
M  V30 59671 H 5611.98 -3.19325 -0.472405 0
M  V30 59672 H 5611.03 -3.26833 1.94639 0
M  V30 59673 H 5612.34 -4.39372 2.36123 0
M  V30 59674 H 5611.49 -6.03025 0.666787 0
M  V30 59675 H 5610.23 -4.87464 0.151779 0
M  V30 59676 H 5609.24 -4.91884 2.45622 0
M  V30 59677 H 5610.46 -6.10864 2.96685 0
M  V30 59678 H 5608.41 -6.51582 0.760078 0
M  V30 59679 H 5608.33 -7.18302 2.35749 0
M  V30 59680 H 5609.59 -7.68897 1.28132 0
M  V30 59681 N 5613.82 -0.97519 -1.23806 0
M  V30 59682 C 5614.75 -0.530469 -2.27395 0
M  V30 59683 C 5615.73 0.433705 -1.64478 0
M  V30 59684 O 5616.92 0.328202 -1.91407 0
M  V30 59685 C 5614.05 0.172944 -3.46869 0
M  V30 59686 C 5613 -0.707993 -4.22104 0
M  V30 59687 C 5612.33 0.127339 -5.34548 0
M  V30 59688 C 5613.63 -1.99626 -4.82645 0
M  V30 59689 H 5615.32 -1.39631 -2.64846 0
M  V30 59690 H 5612.87 -0.672846 -1.27314 0
M  V30 59691 H 5614.82 0.495334 -4.18479 0
M  V30 59692 H 5613.55 1.0732 -3.08464 0
M  V30 59693 H 5612.21 -1.01376 -3.52304 0
M  V30 59694 H 5611.85 1.02797 -4.92384 0
M  V30 59695 H 5611.55 -0.458934 -5.85805 0
M  V30 59696 H 5613.08 0.444229 -6.08982 0
M  V30 59697 H 5614.49 -1.73898 -5.4629 0
M  V30 59698 H 5612.89 -2.52988 -5.44166 0
M  V30 59699 H 5613.96 -2.68643 -4.03682 0
M  V30 59700 N 5615.3 1.38815 -0.746207 0
M  V30 59701 C 5616.55 1.99884 -0.298495 0
M  V30 59702 C 5616.87 1.59522 1.1215 0
M  V30 59703 O 5616.14 0.84863 1.76565 0
M  V30 59704 H 5614.72 0.739243 -0.107373 0
M  V30 59705 H 5617.38 1.69693 -0.958659 0
M  V30 59706 H 5616.48 3.10066 -0.355765 0
M  V30 59707 N 5616.78 0.494703 1.49634 0
M  V30 59708 C 5618.03 -0.0538568 2.01628 0
M  V30 59709 C 5618.34 -1.38629 1.37991 0
M  V30 59710 O 5619.55 -2.02117 1.81276 0
M  V30 59711 C 5618 -0.146455 3.59602 0
M  V30 59712 C 5617.61 1.17895 4.32209 0
M  V30 59713 C 5619.36 -0.645715 4.1956 0
M  V30 59714 C 5617.26 1.04886 5.82025 0
M  V30 59715 H 5616.19 -0.0239013 0.753621 0
M  V30 59716 H 5618.84 0.633173 1.7223 0
M  V30 59717 H 5617.23 -0.897796 3.85689 0
M  V30 59718 H 5618.4 1.94309 4.17828 0
M  V30 59719 H 5616.72 1.61116 3.83967 0
M  V30 59720 H 5619.31 -0.760454 5.29265 0
M  V30 59721 H 5619.66 -1.643 3.82507 0
M  V30 59722 H 5620.19 0.0489099 3.9777 0
M  V30 59723 H 5616.93 2.02022 6.23592 0
M  V30 59724 H 5616.45 0.325504 5.98916 0
M  V30 59725 H 5618.13 0.725025 6.42925 0
M  V30 59726 N 5618.26 -1.55938 0.228269 0
M  V30 59727 C 5619.48 -2.03321 -0.409292 0
M  V30 59728 C 5619.91 -1.10689 -1.52084 0
M  V30 59729 O 5619.27 -0.0963121 -1.81044 0
M  V30 59730 C 5619.31 -3.4888 -0.911859 0
M  V30 59731 O 5618.42 -3.59385 -2.02277 0
M  V30 59732 H 5617.76 -0.657628 -0.0917678 0
M  V30 59733 H 5620.29 -2.01604 0.348873 0
M  V30 59734 H 5620.3 -3.89335 -1.21993 0
M  V30 59735 H 5618.97 -4.15784 -0.098344 0
M  V30 59736 H 5617.55 -3.30821 -1.72081 0
M  V30 59737 N 5619.74 0.0450548 -1.57536 0
M  V30 59738 C 5620.99 0.738006 -1.87714 0
M  V30 59739 C 5621.3 1.77367 -0.824641 0
M  V30 59740 O 5622.5 2.51808 -1.01512 0
M  V30 59741 C 5620.96 1.36361 -3.33067 0
M  V30 59742 C 5620.57 0.365126 -4.4651 0
M  V30 59743 C 5622.31 2.03737 -3.72413 0
M  V30 59744 C 5620.22 0.998166 -5.82916 0
M  V30 59745 H 5619.15 0.279388 -0.700327 0
M  V30 59746 H 5621.8 -0.00808875 -1.83498 0
M  V30 59747 H 5620.18 2.15887 -3.31977 0
M  V30 59748 H 5621.36 -0.402264 -4.59041 0
M  V30 59749 H 5619.67 -0.205651 -4.15892 0
M  V30 59750 H 5622.27 2.51923 -4.71634 0
M  V30 59751 H 5622.61 2.84858 -3.03581 0
M  V30 59752 H 5623.14 1.31007 -3.75609 0
M  V30 59753 H 5619.88 0.226705 -6.55108 0
M  V30 59754 H 5619.4 1.73578 -5.74135 0
M  V30 59755 H 5621.08 1.51022 -6.29127 0
M  V30 59756 N 5621.21 1.54379 0.317018 0
M  V30 59757 C 5622.14 1.87215 1.39545 0
M  V30 59758 C 5623.13 0.729537 1.53661 0
M  V30 59759 O 5624.31 0.983857 1.67433 0
M  V30 59760 C 5621.44 2.1053 2.76215 0
M  V30 59761 C 5620.39 3.26376 2.76881 0
M  V30 59762 C 5619.72 3.35075 4.16688 0
M  V30 59763 C 5621.02 4.6387 2.40045 0
M  V30 59764 H 5622.71 2.77536 1.12314 0
M  V30 59765 H 5620.26 1.33538 0.53885 0
M  V30 59766 H 5622.21 2.32085 3.5173 0
M  V30 59767 H 5620.94 1.16964 3.04938 0
M  V30 59768 H 5619.6 3.04718 2.0382 0
M  V30 59769 H 5619.24 2.39056 4.42562 0
M  V30 59770 H 5618.94 4.12938 4.18038 0
M  V30 59771 H 5620.47 3.58873 4.94007 0
M  V30 59772 H 5621.88 4.85263 3.05275 0
M  V30 59773 H 5620.28 5.4433 2.52636 0
M  V30 59774 H 5621.35 4.65674 1.35186 0
M  V30 59775 N 5622.69 -0.579414 1.46562 0
M  V30 59776 C 5623.64 -1.70931 1.5775 0
M  V30 59777 C 5624.63 -1.63428 0.445827 0
M  V30 59778 O 5625.84 -1.68881 0.622821 0
M  V30 59779 H 5622.22 -0.565201 0.496036 0
M  V30 59780 H 5624.19 -1.58627 2.52745 0
M  V30 59781 C 5622.94 -3.09316 1.58805 0
M  V30 59782 H 5622.26 -3.15761 2.45224 0
M  V30 59783 H 5623.7 -3.88126 1.70687 0
M  V30 59784 C 5622.16 -3.35403 0.317283 0
M  V30 59785 O 5622.69 -3.97327 -0.591088 0
M  V30 59786 N 5620.89 -2.89882 0.204173 0
M  V30 59787 H 5620.44 -2.39669 0.944278 0
M  V30 59788 H 5620.4 -3.07709 -0.645195 0
M  V30 59789 N 5624.17 -1.34323 -0.824323 0
M  V30 59790 C 5625.42 -1.26351 -1.57734 0
M  V30 59791 C 5625.74 0.166768 -1.94286 0
M  V30 59792 O 5625.01 1.09905 -1.62165 0
M  V30 59793 H 5623.59 -0.46468 -0.584877 0
M  V30 59794 H 5626.25 -1.68218 -0.984314 0
M  V30 59795 H 5625.35 -1.86728 -2.50078 0
M  V30 59796 N 5625.65 1.04435 -1.1803 0
M  V30 59797 C 5626.9 1.77221 -0.971454 0
M  V30 59798 C 5627.22 1.88468 0.500497 0
M  V30 59799 O 5626.49 1.40697 1.36312 0
M  V30 59800 H 5625.07 0.656473 -0.356445 0
M  V30 59801 H 5627.73 1.26059 -1.48644 0
M  V30 59802 H 5626.83 2.78621 -1.4063 0
M  V30 59803 N 5627.13 0.981742 1.23287 0
M  V30 59804 C 5628.07 0.515512 2.26815 0
M  V30 59805 C 5629.07 -0.428146 1.639 0
M  V30 59806 O 5630.27 -0.301892 1.7745 0
M  V30 59807 H 5626.65 0.148283 0.737235 0
M  V30 59808 H 5628.62 1.40036 2.635 0
M  V30 59809 C 5627.37 -0.165144 3.47308 0
M  V30 59810 H 5626.69 0.551899 3.95972 0
M  V30 59811 H 5628.13 -0.454982 4.21552 0
M  V30 59812 C 5626.59 -1.39682 3.06579 0
M  V30 59813 O 5627.12 -2.49297 3.14982 0
M  V30 59814 N 5625.33 -1.26797 2.61478 0
M  V30 59815 H 5624.87 -0.376071 2.5484 0
M  V30 59816 H 5624.83 -2.09315 2.34594 0
M  V30 59817 N 5628.6 -1.38417 0.753558 0
M  V30 59818 C 5629.57 -2.28807 0.134102 0
M  V30 59819 C 5630.57 -1.47186 -0.647531 0
M  V30 59820 O 5631.76 -1.67633 -0.473802 0
M  V30 59821 C 5628.89 -3.30929 -0.818464 0
M  V30 59822 H 5630.08 -2.85093 0.930686 0
M  V30 59823 H 5627.64 -1.47376 0.520566 0
M  V30 59824 H 5628.37 -2.79733 -1.64073 0
M  V30 59825 H 5628.16 -3.91234 -0.260389 0
M  V30 59826 H 5629.65 -3.98519 -1.24788 0
M  V30 59827 N 5630.08 -0.502631 -1.4937 0
M  V30 59828 C 5630.99 0.27945 -2.3293 0
M  V30 59829 C 5632.01 0.965756 -1.44738 0
M  V30 59830 O 5633.18 0.946777 -1.77759 0
M  V30 59831 C 5630.25 1.32901 -3.20216 0
M  V30 59832 C 5629.31 0.655972 -4.24259 0
M  V30 59833 C 5628.54 1.65553 -5.07374 0
M  V30 59834 O 5628.77 2.88554 -4.92029 0
M  V30 59835 O 5627.7 1.20995 -5.89613 0
M  V30 59836 H 5631.53 -0.404533 -3.00994 0
M  V30 59837 H 5629.11 -0.26394 -1.4705 0
M  V30 59838 H 5630.99 1.93622 -3.74284 0
M  V30 59839 H 5629.67 1.9959 -2.54844 0
M  V30 59840 H 5628.58 0.00898337 -3.74099 0
M  V30 59841 H 5629.91 0.0315071 -4.9219 0
M  V30 59842 N 5631.56 1.55815 -0.236535 0
M  V30 59843 C 5632.81 1.98982 0.391655 0
M  V30 59844 C 5633.14 1.12434 1.58342 0
M  V30 59845 O 5632.42 0.185371 1.93615 0
M  V30 59846 C 5632.7 3.50834 0.811635 0
M  V30 59847 C 5632.55 4.48151 -0.384805 0
M  V30 59848 C 5633.87 4.07495 1.6624 0
M  V30 59849 H 5630.99 0.723409 0.140886 0
M  V30 59850 H 5633.63 1.8701 -0.335772 0
M  V30 59851 H 5631.78 3.61168 1.43144 0
M  V30 59852 H 5633.45 4.49811 -1.02314 0
M  V30 59853 H 5631.7 4.21402 -1.0297 0
M  V30 59854 H 5632.37 5.51979 -0.047775 0
M  V30 59855 H 5634.84 4.00199 1.13929 0
M  V30 59856 H 5633.72 5.14033 1.92513 0
M  V30 59857 H 5633.98 3.55306 2.63078 0
M  V30 59858 N 5633.04 -0.0366996 1.57557 0
M  V30 59859 C 5633.97 -1.06711 2.02843 0
M  V30 59860 C 5634.98 -1.32923 0.939963 0
M  V30 59861 O 5636.17 -1.30545 1.21739 0
M  V30 59862 C 5633.27 -2.41046 2.38223 0
M  V30 59863 C 5632.45 -2.34298 3.69355 0
M  V30 59864 C 5631.51 -3.5102 3.92009 0
M  V30 59865 O 5630.53 -3.30859 4.63164 0
M  V30 59866 N 5631.73 -4.72622 3.37058 0
M  V30 59867 H 5634.5 -0.681173 2.91856 0
M  V30 59868 H 5632.06 -0.22478 1.60332 0
M  V30 59869 H 5634.05 -3.17838 2.50522 0
M  V30 59870 H 5632.62 -2.71512 1.5492 0
M  V30 59871 H 5631.84 -1.42655 3.67482 0
M  V30 59872 H 5633.13 -2.26924 4.55393 0
M  V30 59873 H 5632.53 -4.91904 2.79369 0
M  V30 59874 H 5631.08 -5.46806 3.54749 0
M  V30 59875 N 5634.52 -1.54545 -0.308827 0
M  V30 59876 C 5635.45 -1.81314 -1.40206 0
M  V30 59877 C 5636.46 -0.695732 -1.47185 0
M  V30 59878 O 5637.65 -0.973087 -1.49644 0
M  V30 59879 C 5634.75 -1.92911 -2.78637 0
M  V30 59880 C 5633.92 -3.23232 -2.94685 0
M  V30 59881 C 5632.98 -3.25344 -4.13567 0
M  V30 59882 O 5632.01 -3.98914 -4.06025 0
M  V30 59883 N 5633.21 -2.50176 -5.23824 0
M  V30 59884 H 5635.98 -2.75663 -1.176 0
M  V30 59885 H 5633.54 -1.54022 -0.498871 0
M  V30 59886 H 5635.53 -1.91734 -3.56399 0
M  V30 59887 H 5634.1 -1.05592 -2.94226 0
M  V30 59888 H 5633.32 -3.37248 -2.04102 0
M  V30 59889 H 5634.61 -4.09248 -3.02313 0
M  V30 59890 H 5634.01 -1.9002 -5.32831 0
M  V30 59891 H 5632.56 -2.54761 -5.9995 0
M  V30 59892 N 5636 0.571634 -1.46868 0
M  V30 59893 C 5636.94 1.67987 -1.58269 0
M  V30 59894 C 5637.91 1.60534 -0.426401 0
M  V30 59895 O 5639.1 1.79582 -0.644597 0
M  V30 59896 C 5636.24 3.06322 -1.58938 0
M  V30 59897 C 5635.35 3.24318 -2.8538 0
M  V30 59898 C 5634.49 4.52966 -2.77479 0
M  V30 59899 C 5633.52 4.64345 -3.98811 0
M  V30 59900 N 5632.66 5.84331 -3.89232 0
M  V30 59901 H 5637.5 1.5758 -2.52928 0
M  V30 59902 H 5635.04 0.767839 -1.2547 0
M  V30 59903 H 5637 3.86406 -1.5731 0
M  V30 59904 H 5635.63 3.15599 -0.678023 0
M  V30 59905 H 5634.68 2.37763 -2.96939 0
M  V30 59906 H 5635.99 3.28592 -3.75272 0
M  V30 59907 H 5635.14 5.41293 -2.7402 0
M  V30 59908 H 5633.88 4.51149 -1.85247 0
M  V30 59909 H 5632.89 3.74433 -4.02591 0
M  V30 59910 H 5634.11 4.67933 -4.92154 0
M  V30 59911 H 5632.06 5.8349 -2.99792 0
M  V30 59912 H 5631.98 5.89921 -4.72788 0
M  V30 59913 H 5633.24 6.75058 -3.89765 0
M  V30 59914 N 5637.47 1.34758 0.817188 0
M  V30 59915 C 5638.41 1.21154 1.93383 0
M  V30 59916 C 5639.38 0.101845 1.62281 0
M  V30 59917 O 5640.57 0.268034 1.86585 0
M  V30 59918 C 5637.7 0.863125 3.27518 0
M  V30 59919 C 5636.74 1.98338 3.77577 0
M  V30 59920 S 5637.57 3.59765 3.96648 0
M  V30 59921 C 5638.73 3.26977 5.33701 0
M  V30 59922 H 5638.96 2.15674 2.04627 0
M  V30 59923 H 5636.5 1.19851 0.973399 0
M  V30 59924 H 5638.45 0.668897 4.05014 0
M  V30 59925 H 5637.12 -0.0638313 3.14035 0
M  V30 59926 H 5636.31 1.69349 4.74697 0
M  V30 59927 H 5635.91 2.1354 3.07045 0
M  V30 59928 H 5638.2 2.79148 6.17319 0
M  V30 59929 H 5639.15 4.23258 5.67678 0
M  V30 59930 H 5639.55 2.63013 4.99484 0
M  V30 59931 N 5638.95 -1.03808 1.18582 0
M  V30 59932 C 5639.88 -2.13799 0.93874 0
M  V30 59933 C 5640.86 -1.69644 -0.124516 0
M  V30 59934 O 5642.05 -1.94179 0.0286104 0
M  V30 59935 C 5639.18 -3.44153 0.466513 0
M  V30 59936 C 5638.13 -4.01944 1.47055 0
M  V30 59937 C 5637.46 -5.27808 0.855743 0
M  V30 59938 C 5638.76 -4.37817 2.84804 0
M  V30 59939 H 5640.45 -2.34726 1.85861 0
M  V30 59940 H 5638 -1.12805 0.895047 0
M  V30 59941 H 5639.95 -4.20462 0.281004 0
M  V30 59942 H 5638.67 -3.2292 -0.488927 0
M  V30 59943 H 5637.33 -3.27719 1.64304 0
M  V30 59944 H 5636.98 -5.02886 -0.106965 0
M  V30 59945 H 5636.68 -5.67436 1.52612 0
M  V30 59946 H 5638.21 -6.06793 0.680823 0
M  V30 59947 H 5639.62 -5.05102 2.71191 0
M  V30 59948 H 5638.02 -4.88502 3.48549 0
M  V30 59949 H 5639.09 -3.47529 3.38159 0
M  V30 59950 N 5640.43 -0.988266 -1.22764 0
M  V30 59951 C 5641.71 -0.577644 -1.86876 0
M  V30 59952 C 5642.09 0.945131 -1.8876 0
M  V30 59953 O 5641.43 1.82514 -1.37481 0
M  V30 59954 C 5641.64 -1.19274 -3.27986 0
M  V30 59955 C 5642.99 -1.29038 -4.04517 0
M  V30 59956 O 5644.02 -1.14679 -3.37235 0
M  V30 59957 O 5642.88 -1.51968 -5.24946 0
M  V30 59958 H 5639.97 -0.195607 -0.803534 0
M  V30 59959 H 5642.52 -1.08385 -1.30579 0
M  V30 59960 H 5641.29 -2.23453 -3.21223 0
M  V30 59961 H 5640.91 -0.671843 -3.91883 0
M  V30 59962 N 5641.91 1.38015 -0.760888 0
M  V30 59963 C 5643.14 2.03933 -0.330876 0
M  V30 59964 C 5643.55 1.57513 1.04816 0
M  V30 59965 O 5642.89 0.746777 1.67836 0
M  V30 59966 C 5642.95 3.58383 -0.283156 0
M  V30 59967 C 5642.61 4.2789 -1.60495 0
M  V30 59968 C 5643.61 4.5276 -2.55546 0
M  V30 59969 C 5641.3 4.65936 -1.8764 0
M  V30 59970 C 5643.29 5.14719 -3.75956 0
M  V30 59971 C 5640.98 5.27618 -3.08323 0
M  V30 59972 C 5641.98 5.51945 -4.02301 0
M  V30 59973 O 5641.66 6.1234 -5.2086 0
M  V30 59974 H 5641.4 0.661729 -0.138171 0
M  V30 59975 H 5643.95 1.77547 -1.03277 0
M  V30 59976 H 5642.18 3.83771 0.475035 0
M  V30 59977 H 5643.87 4.05728 0.118321 0
M  V30 59978 H 5644.63 4.2379 -2.35854 0
M  V30 59979 H 5640.51 4.46342 -1.15324 0
M  V30 59980 H 5644.06 5.33623 -4.49324 0
M  V30 59981 H 5639.95 5.56011 -3.27905 0
M  V30 59982 H 5640.72 6.30824 -5.21539 0
M  V30 59983 N 5643.39 0.510546 1.49101 0
M  V30 59984 C 5644.32 -0.251918 2.32137 0
M  V30 59985 C 5645.3 -0.953564 1.40859 0
M  V30 59986 O 5646.48 -0.943118 1.69761 0
M  V30 59987 C 5643.61 -1.31107 3.21603 0
M  V30 59988 C 5642.57 -0.728732 4.21751 0
M  V30 59989 C 5641.89 -1.8891 5.00217 0
M  V30 59990 C 5643.19 0.286609 5.21513 0
M  V30 59991 H 5644.89 0.441206 2.96131 0
M  V30 59992 H 5642.43 0.213627 1.42407 0
M  V30 59993 H 5644.38 -1.85227 3.78509 0
M  V30 59994 H 5643.11 -2.03351 2.5557 0
M  V30 59995 H 5641.77 -0.209208 3.66003 0
M  V30 59996 H 5641.42 -2.59946 4.30624 0
M  V30 59997 H 5641.12 -1.50548 5.67987 0
M  V30 59998 H 5642.64 -2.43446 5.5997 0
M  V30 59999 H 5644.05 -0.166796 5.73057 0
M  V30 60000 H 5642.45 0.586571 5.97226 0
M  V30 60001 H 5643.52 1.1992 4.69837 0
M  V30 60002 N 5644.86 -1.55687 0.244795 0
M  V30 60003 C 5645.81 -2.21292 -0.655646 0
M  V30 60004 C 5646.78 -1.1761 -1.17291 0
M  V30 60005 O 5647.97 -1.4605 -1.22777 0
M  V30 60006 C 5645.11 -2.9146 -1.84784 0
M  V30 60007 C 5644.22 -4.09791 -1.3673 0
M  V30 60008 C 5643.35 -4.67681 -2.51889 0
M  V30 60009 C 5642.39 -5.78266 -2.00686 0
M  V30 60010 N 5641.53 -6.30347 -3.09203 0
M  V30 60011 H 5646.37 -2.97866 -0.0895109 0
M  V30 60012 H 5643.91 -1.47064 -0.0324208 0
M  V30 60013 H 5645.86 -3.3034 -2.54816 0
M  V30 60014 H 5644.49 -2.17363 -2.38649 0
M  V30 60015 H 5643.55 -3.76239 -0.561096 0
M  V30 60016 H 5644.86 -4.8963 -0.952027 0
M  V30 60017 H 5644.01 -5.09124 -3.29966 0
M  V30 60018 H 5642.75 -3.87054 -2.96716 0
M  V30 60019 H 5641.76 -5.36302 -1.21078 0
M  V30 60020 H 5642.98 -6.60743 -1.5683 0
M  V30 60021 H 5640.93 -5.52626 -3.53469 0
M  V30 60022 H 5640.84 -7.05373 -2.72 0
M  V30 60023 H 5642.11 -6.76449 -3.87346 0
M  V30 60024 N 5646.34 0.0283435 -1.57575 0
M  V30 60025 C 5647.62 0.754463 -1.80464 0
M  V30 60026 C 5648 1.93536 -0.843034 0
M  V30 60027 O 5647.35 2.28212 0.114634 0
M  V30 60028 C 5647.56 1.18682 -3.282 0
M  V30 60029 C 5648.91 1.60243 -3.93201 0
M  V30 60030 O 5649.93 1.28138 -3.32354 0
M  V30 60031 O 5648.79 2.19836 -5.00334 0
M  V30 60032 H 5645.88 0.36491 -0.742139 0
M  V30 60033 H 5648.43 0.00506623 -1.69699 0
M  V30 60034 H 5647.2 0.343843 -3.89786 0
M  V30 60035 H 5646.82 1.99621 -3.43856 0
M  V30 60036 N 5647.82 1.54706 0.300627 0
M  V30 60037 C 5648.77 1.85683 1.37078 0
M  V30 60038 C 5649.74 0.705783 1.50359 0
M  V30 60039 O 5650.92 0.954444 1.65212 0
M  V30 60040 C 5648.06 2.11005 2.73077 0
M  V30 60041 C 5647.18 3.3863 2.68242 0
M  V30 60042 C 5646.31 3.53793 3.96238 0
M  V30 60043 C 5645.35 4.75209 3.85802 0
M  V30 60044 N 5644.49 4.87175 5.05574 0
M  V30 60045 H 5649.33 2.7697 1.09961 0
M  V30 60046 H 5646.86 1.37149 0.531839 0
M  V30 60047 H 5648.82 2.23681 3.52169 0
M  V30 60048 H 5647.45 1.22984 2.98454 0
M  V30 60049 H 5646.5 3.34572 1.81013 0
M  V30 60050 H 5647.82 4.27843 2.56421 0
M  V30 60051 H 5646.97 3.66136 4.83766 0
M  V30 60052 H 5645.71 2.62713 4.10893 0
M  V30 60053 H 5644.71 4.62898 2.96657 0
M  V30 60054 H 5645.94 5.67696 3.72691 0
M  V30 60055 H 5643.88 3.99019 5.20692 0
M  V30 60056 H 5643.8 5.7039 4.96177 0
M  V30 60057 H 5645.07 5.03875 5.94752 0
M  V30 60058 N 5649.3 -0.563837 1.47169 0
M  V30 60059 C 5650.25 -1.67145 1.59158 0
M  V30 60060 C 5651.22 -1.60305 0.434909 0
M  V30 60061 O 5652.4 -1.79237 0.654112 0
M  V30 60062 C 5649.54 -3.05474 1.6056 0
M  V30 60063 C 5648.65 -3.228 2.87096 0
M  V30 60064 C 5647.79 -4.51489 2.79878 0
M  V30 60065 C 5646.83 -4.62223 4.01268 0
M  V30 60066 N 5645.96 -5.82259 3.92325 0
M  V30 60067 H 5650.8 -1.56236 2.5376 0
M  V30 60068 H 5648.34 -0.761175 1.25875 0
M  V30 60069 H 5650.3 -3.85566 1.59357 0
M  V30 60070 H 5648.93 -3.15235 0.694751 0
M  V30 60071 H 5647.98 -2.36185 2.98196 0
M  V30 60072 H 5649.29 -3.26597 3.77009 0
M  V30 60073 H 5648.45 -5.39832 2.76886 0
M  V30 60074 H 5647.19 -4.5016 1.87637 0
M  V30 60075 H 5646.19 -3.72293 4.04571 0
M  V30 60076 H 5647.42 -4.65317 4.94628 0
M  V30 60077 H 5645.36 -5.81892 3.02883 0
M  V30 60078 H 5645.28 -5.87406 4.7591 0
M  V30 60079 H 5646.55 -6.72982 3.93339 0
M  V30 60080 N 5650.78 -1.3519 -0.81003 0
M  V30 60081 C 5651.69 -1.29933 -1.95332 0
M  V30 60082 C 5652.7 -0.204809 -1.7279 0
M  V30 60083 O 5653.88 -0.433577 -1.96678 0
M  V30 60084 C 5650.94 -1.06747 -3.29857 0
M  V30 60085 C 5650 -2.25479 -3.65318 0
M  V30 60086 C 5649.24 -2.0339 -4.93425 0
M  V30 60087 O 5649.46 -0.998616 -5.6159 0
M  V30 60088 O 5648.39 -2.90666 -5.27064 0
M  V30 60089 H 5652.22 -2.26144 -2.02713 0
M  V30 60090 H 5649.81 -1.15526 -0.947313 0
M  V30 60091 H 5651.69 -0.956511 -4.10401 0
M  V30 60092 H 5650.36 -0.135849 -3.23415 0
M  V30 60093 H 5649.27 -2.42139 -2.85166 0
M  V30 60094 H 5650.6 -3.17076 -3.76462 0
M  V30 60095 N 5652.25 1.03178 -1.19131 0
M  V30 60096 C 5653.5 1.76791 -0.993625 0
M  V30 60097 C 5653.83 1.88308 0.474743 0
M  V30 60098 O 5653.11 1.39774 1.35254 0
M  V30 60099 C 5653.39 3.19567 -1.65979 0
M  V30 60100 C 5653.24 3.15938 -3.20161 0
M  V30 60101 C 5654.56 4.17892 -1.38038 0
M  V30 60102 H 5651.68 0.641755 -0.36238 0
M  V30 60103 H 5654.32 1.20467 -1.46928 0
M  V30 60104 H 5652.47 3.67659 -1.25536 0
M  V30 60105 H 5654.15 2.75767 -3.69797 0
M  V30 60106 H 5652.39 2.53731 -3.51857 0
M  V30 60107 H 5653.06 4.16798 -3.61916 0
M  V30 60108 H 5655.54 3.78388 -1.73095 0
M  V30 60109 H 5654.41 5.1599 -1.87204 0
M  V30 60110 H 5654.67 4.41047 -0.304967 0
M  V30 60111 N 5653.73 0.994763 1.22238 0
M  V30 60112 C 5654.98 0.670342 1.90659 0
M  V30 60113 C 5655.3 -0.800306 1.7782 0
M  V30 60114 O 5654.57 -1.57377 1.16659 0
M  V30 60115 H 5653.15 0.24495 0.705697 0
M  V30 60116 H 5655.81 1.26167 1.48553 0
M  V30 60117 H 5654.91 0.934513 2.97781 0
M  V30 60118 N 5655.21 -1.3761 0.768196 0
M  V30 60119 C 5656.46 -1.99778 0.330911 0
M  V30 60120 C 5656.79 -1.60982 -1.09156 0
M  V30 60121 O 5656.04 -0.845841 -1.76477 0
M  V30 60122 C 5656.34 -3.5495 0.417733 0
M  V30 60123 C 5656.01 -4.13503 1.79795 0
M  V30 60124 C 5654.67 -4.29208 2.17564 0
M  V30 60125 C 5657.02 -4.45652 2.70266 0
M  V30 60126 C 5654.35 -4.74364 3.45248 0
M  V30 60127 C 5656.7 -4.92231 3.97356 0
M  V30 60128 C 5655.36 -5.06142 4.35174 0
M  V30 60129 H 5654.63 -0.731039 0.121089 0
M  V30 60130 H 5657.28 -1.64433 0.981528 0
M  V30 60131 H 5655.59 -3.9052 -0.31643 0
M  V30 60132 H 5657.28 -4.00954 0.0607447 0
M  V30 60133 H 5653.87 -4.01704 1.49439 0
M  V30 60134 H 5658.06 -4.33107 2.42347 0
M  V30 60135 H 5653.31 -4.8332 3.74448 0
M  V30 60136 H 5657.49 -5.16074 4.6759 0
M  V30 60137 H 5655.11 -5.40891 5.34173 0
M  V30 60138 N 5656.69 -0.518446 -1.48828 0
M  V30 60139 C 5657.94 0.0198341 -2.0249 0
M  V30 60140 C 5658.26 1.3537 -1.39661 0
M  V30 60141 O 5657.52 1.88452 -0.527652 0
M  V30 60142 C 5657.82 0.202875 -3.56824 0
M  V30 60143 C 5657.48 -1.05517 -4.3838 0
M  V30 60144 C 5656.15 -1.39998 -4.60384 0
M  V30 60145 C 5658.5 -1.89059 -4.85702 0
M  V30 60146 C 5655.83 -2.57941 -5.26957 0
M  V30 60147 C 5658.18 -3.0617 -5.53573 0
M  V30 60148 C 5656.84 -3.41011 -5.73819 0
M  V30 60149 H 5656.11 0.00725783 -0.740964 0
M  V30 60150 H 5658.76 -0.682136 -1.78939 0
M  V30 60151 H 5657.06 0.987519 -3.79151 0
M  V30 60152 H 5658.76 0.634094 -3.95955 0
M  V30 60153 H 5655.35 -0.776618 -4.21505 0
M  V30 60154 H 5659.53 -1.63733 -4.68514 0
M  V30 60155 H 5654.79 -2.85151 -5.40832 0
M  V30 60156 H 5658.96 -3.71218 -5.89211 0
M  V30 60157 H 5656.59 -4.32501 -6.25177 0
M  V30 60158 N 5658.17 1.55555 -0.253048 0
M  V30 60159 C 5659.1 2.18981 0.67676 0
M  V30 60160 C 5660.11 1.16792 1.13417 0
M  V30 60161 O 5661.3 1.43627 1.05988 0
M  V30 60162 C 5658.4 2.7841 1.93238 0
M  V30 60163 C 5657.57 4.06078 1.62541 0
M  V30 60164 C 5656.63 4.49766 2.73124 0
M  V30 60165 O 5655.66 5.16013 2.40248 0
M  V30 60166 N 5656.86 4.18063 4.02745 0
M  V30 60167 H 5659.63 2.994 0.134036 0
M  V30 60168 H 5657.19 1.61734 -0.0732534 0
M  V30 60169 H 5659.18 3.04592 2.66469 0
M  V30 60170 H 5657.75 2.02113 2.38473 0
M  V30 60171 H 5656.97 3.8742 0.727978 0
M  V30 60172 H 5658.26 4.89302 1.39504 0
M  V30 60173 H 5657.65 3.64891 4.32285 0
M  V30 60174 H 5656.21 4.49066 4.72422 0
M  V30 60175 N 5659.64 -0.0199865 1.57587 0
M  V30 60176 C 5660.87 -0.724173 1.94346 0
M  V30 60177 C 5661.29 -1.67609 0.853747 0
M  V30 60178 O 5660.65 -1.80304 -0.18981 0
M  V30 60179 C 5660.7 -1.44955 3.30182 0
M  V30 60180 O 5659.8 -2.56315 3.23073 0
M  V30 60181 H 5659.15 -0.19412 0.634991 0
M  V30 60182 H 5661.68 0.0272475 2.04582 0
M  V30 60183 H 5661.69 -1.81746 3.65284 0
M  V30 60184 H 5660.36 -0.751466 4.09055 0
M  V30 60185 H 5658.94 -2.22 2.99617 0
M  V30 60186 N 5661.12 -1.54863 -0.292418 0
M  V30 60187 C 5662.37 -1.7376 -1.02423 0
M  V30 60188 C 5662.69 -0.535231 -1.88135 0
M  V30 60189 O 5663.89 -0.606185 -2.64646 0
M  V30 60190 C 5662.35 -3.07457 -1.87079 0
M  V30 60191 C 5661.96 -4.35199 -1.06328 0
M  V30 60192 C 5663.7 -3.35709 -2.59807 0
M  V30 60193 C 5661.61 -5.59943 -1.9031 0
M  V30 60194 H 5660.54 -0.647631 -0.386122 0
M  V30 60195 H 5663.19 -1.81339 -0.280796 0
M  V30 60196 H 5661.57 -2.93864 -2.65443 0
M  V30 60197 H 5662.74 -4.59651 -0.325173 0
M  V30 60198 H 5661.06 -4.13946 -0.451429 0
M  V30 60199 H 5663.66 -4.2611 -3.23008 0
M  V30 60200 H 5664 -2.54968 -3.29085 0
M  V30 60201 H 5664.53 -3.50311 -1.88486 0
M  V30 60202 H 5661.27 -6.43376 -1.25487 0
M  V30 60203 H 5660.79 -5.39663 -2.6177 0
M  V30 60204 H 5662.47 -5.9752 -2.4815 0
M  V30 60205 N 5662.6 0.556024 -1.47466 0
M  V30 60206 C 5663.53 1.67824 -1.56102 0
M  V30 60207 C 5664.55 1.56539 -0.447132 0
M  V30 60208 O 5665.74 1.63476 -0.716796 0
M  V30 60209 C 5662.84 3.06298 -1.45033 0
M  V30 60210 C 5662.01 3.43325 -2.71011 0
M  V30 60211 C 5661.07 4.60967 -2.53763 0
M  V30 60212 O 5660.09 4.65489 -3.2758 0
M  V30 60213 N 5661.3 5.57534 -1.61666 0
M  V30 60214 H 5664.06 1.60861 -2.52871 0
M  V30 60215 H 5661.62 0.74269 -1.4386 0
M  V30 60216 H 5663.61 3.82834 -1.31227 0
M  V30 60217 H 5662.18 3.07481 -0.563419 0
M  V30 60218 H 5661.4 2.56226 -2.9957 0
M  V30 60219 H 5662.69 3.64838 -3.54641 0
M  V30 60220 H 5662.09 5.56639 -1.00847 0
M  V30 60221 H 5660.65 6.33392 -1.53812 0
M  V30 60222 N 5664.08 1.35617 0.802849 0
M  V30 60223 C 5665.04 1.28712 1.89647 0
M  V30 60224 C 5666.04 0.197738 1.5958 0
M  V30 60225 O 5667.23 0.451677 1.68242 0
M  V30 60226 C 5664.36 0.992056 3.26146 0
M  V30 60227 H 5665.56 2.25958 1.97188 0
M  V30 60228 H 5663.11 1.20195 0.999136 0
M  V30 60229 H 5663.85 0.0236191 3.24291 0
M  V30 60230 H 5663.63 1.78025 3.49356 0
M  V30 60231 H 5665.12 0.969441 4.06192 0
M  V30 60232 N 5665.56 -1.02544 1.19676 0
M  V30 60233 C 5666.49 -2.12791 0.961364 0
M  V30 60234 C 5667.47 -1.69766 -0.106516 0
M  V30 60235 O 5668.65 -1.94138 0.049204 0
M  V30 60236 C 5665.78 -3.43638 0.502989 0
M  V30 60237 C 5664.74 -4.00362 1.5131 0
M  V30 60238 C 5664.06 -5.26871 0.911676 0
M  V30 60239 C 5665.36 -4.34772 2.89432 0
M  V30 60240 H 5667.06 -2.32741 1.8834 0
M  V30 60241 H 5664.6 -1.11849 0.906961 0
M  V30 60242 H 5666.56 -4.2014 0.325584 0
M  V30 60243 H 5665.28 -3.2342 -0.45465 0
M  V30 60244 H 5663.94 -3.25958 1.67771 0
M  V30 60245 H 5663.59 -5.02971 -0.0536213 0
M  V30 60246 H 5663.29 -5.65785 1.58622 0
M  V30 60247 H 5664.81 -6.06036 0.745143 0
M  V30 60248 H 5666.23 -5.02197 2.76533 0
M  V30 60249 H 5664.62 -4.84777 3.5371 0
M  V30 60250 H 5665.69 -3.43923 3.41826 0
M  V30 60251 N 5667.04 -1.00123 -1.21709 0
M  V30 60252 C 5667.97 -0.503334 -2.2258 0
M  V30 60253 C 5668.95 0.440916 -1.56508 0
M  V30 60254 O 5670.13 0.364518 -1.84942 0
M  V30 60255 C 5667.26 0.269335 -3.37627 0
M  V30 60256 C 5666.3 -0.62215 -4.21938 0
M  V30 60257 S 5667.14 -2.08235 -4.93354 0
M  V30 60258 C 5668.29 -1.31941 -6.11835 0
M  V30 60259 H 5668.53 -1.35807 -2.64469 0
M  V30 60260 H 5666.06 -0.808866 -1.31517 0
M  V30 60261 H 5668.02 0.709071 -4.0433 0
M  V30 60262 H 5666.68 1.09945 -2.94229 0
M  V30 60263 H 5665.87 -0.0271948 -5.03993 0
M  V30 60264 H 5665.47 -0.999002 -3.60411 0
M  V30 60265 H 5667.76 -0.591353 -6.74914 0
M  V30 60266 H 5668.71 -2.11554 -6.75759 0
M  V30 60267 H 5669.12 -0.82904 -5.58379 0
M  V30 60268 N 5668.51 1.37201 -0.775483 0
M  V30 60269 C 5669.45 2.28873 -0.122454 0
M  V30 60270 C 5670.46 1.48813 0.660187 0
M  V30 60271 O 5671.65 1.71422 0.497664 0
M  V30 60272 C 5668.75 3.28065 0.850097 0
M  V30 60273 C 5667.92 4.37234 0.120479 0
M  V30 60274 C 5666.98 5.16476 1.00694 0
M  V30 60275 O 5666.01 5.67262 0.469329 0
M  V30 60276 N 5667.21 5.31564 2.3328 0
M  V30 60277 H 5669.97 2.85556 -0.909842 0
M  V30 60278 H 5667.53 1.49217 -0.628159 0
M  V30 60279 H 5669.53 3.77961 1.44664 0
M  V30 60280 H 5668.1 2.72123 1.53843 0
M  V30 60281 H 5667.32 3.88686 -0.657016 0
M  V30 60282 H 5668.6 5.07352 -0.383536 0
M  V30 60283 H 5668 4.91893 2.79389 0
M  V30 60284 H 5666.56 5.84755 2.87932 0
M  V30 60285 N 5669.99 0.526331 1.48551 0
M  V30 60286 C 5671.22 -0.00515496 2.06899 0
M  V30 60287 C 5671.63 -1.28485 1.38337 0
M  V30 60288 O 5670.99 -1.76352 0.46971 0
M  V30 60289 C 5671.04 -0.236583 3.60725 0
M  V30 60290 O 5670.76 0.992406 4.26712 0
M  V30 60291 C 5672.26 -0.808861 4.35858 0
M  V30 60292 H 5669.48 0.0318662 0.670243 0
M  V30 60293 H 5672.03 0.730933 1.90991 0
M  V30 60294 H 5670.18 -0.922709 3.76251 0
M  V30 60295 H 5670.6 0.770879 5.18804 0
M  V30 60296 H 5672.07 -0.920236 5.44275 0
M  V30 60297 H 5672.55 -1.81288 4.00039 0
M  V30 60298 H 5673.15 -0.159414 4.25001 0
M  V30 60299 N 5671.47 -1.55419 0.261294 0
M  V30 60300 C 5672.71 -2.01191 -0.360777 0
M  V30 60301 C 5673.07 -1.14563 -1.54076 0
M  V30 60302 O 5674.27 -1.49854 -2.23153 0
M  V30 60303 C 5672.55 -3.49516 -0.746557 0
M  V30 60304 S 5674.1 -4.17286 -1.35712 0
M  V30 60305 H 5670.92 -0.701982 -0.112879 0
M  V30 60306 H 5673.52 -1.91773 0.379897 0
M  V30 60307 H 5672.23 -4.10221 0.121316 0
M  V30 60308 H 5671.76 -3.62889 -1.51905 0
M  V30 60309 H 5673.77 -4.19765 -2.64598 0
M  V30 60310 N 5672.95 0.011629 -1.57596 0
M  V30 60311 C 5674.17 0.713856 -1.94728 0
M  V30 60312 C 5674.6 1.67154 -0.862624 0
M  V30 60313 O 5673.96 1.80402 0.180245 0
M  V30 60314 C 5674 1.43202 -3.30946 0
M  V30 60315 O 5673.11 2.54598 -3.24428 0
M  V30 60316 H 5672.45 0.190749 -0.636012 0
M  V30 60317 H 5674.98 -0.0380966 -2.04565 0
M  V30 60318 H 5674.99 1.79806 -3.66243 0
M  V30 60319 H 5673.66 0.729762 -4.09448 0
M  V30 60320 H 5672.24 2.20408 -3.0079 0
M  V30 60321 N 5674.43 1.55016 0.284201 0
M  V30 60322 C 5675.67 1.75353 1.01878 0
M  V30 60323 C 5676 0.546891 1.8634 0
M  V30 60324 O 5675.28 -0.455766 1.89085 0
M  V30 60325 C 5675.56 3.05226 1.91073 0
M  V30 60326 C 5675.42 4.36223 1.09679 0
M  V30 60327 C 5676.73 3.31066 2.89971 0
M  V30 60328 H 5673.85 0.637994 0.368962 0
M  V30 60329 H 5676.5 1.87742 0.29205 0
M  V30 60330 H 5674.65 2.94795 2.53038 0
M  V30 60331 H 5676.32 4.58596 0.498715 0
M  V30 60332 H 5674.56 4.31953 0.399927 0
M  V30 60333 H 5675.23 5.23398 1.75381 0
M  V30 60334 H 5677.71 3.41217 2.38139 0
M  V30 60335 H 5676.58 4.23224 3.49532 0
M  V30 60336 H 5676.84 2.50166 3.64513 0
M  V30 60337 N 5675.9 -0.548196 1.47758 0
M  V30 60338 C 5676.83 -1.66403 1.63805 0
M  V30 60339 C 5677.82 -1.62971 0.487269 0
M  V30 60340 O 5679 -1.80452 0.717676 0
M  V30 60341 C 5676.13 -3.05029 1.66056 0
M  V30 60342 C 5675.08 -3.23312 2.80452 0
M  V30 60343 C 5674.41 -4.62815 2.67781 0
M  V30 60344 C 5675.71 -3.07823 4.21951 0
M  V30 60345 H 5677.4 -1.5323 2.57218 0
M  V30 60346 H 5674.95 -0.735739 1.23786 0
M  V30 60347 H 5676.9 -3.82945 1.75872 0
M  V30 60348 H 5675.63 -3.19183 0.692102 0
M  V30 60349 H 5674.29 -2.47807 2.70162 0
M  V30 60350 H 5673.93 -4.7378 1.68943 0
M  V30 60351 H 5673.63 -4.75995 3.44532 0
M  V30 60352 H 5675.16 -5.42854 2.79539 0
M  V30 60353 H 5676.57 -3.75548 4.33171 0
M  V30 60354 H 5674.97 -3.32508 4.99558 0
M  V30 60355 H 5676.04 -2.04459 4.39687 0
M  V30 60356 N 5677.38 -1.36041 -0.795646 0
M  V30 60357 C 5678.66 -1.20479 -1.54091 0
M  V30 60358 C 5679.04 0.211617 -2.10037 0
M  V30 60359 O 5678.39 1.2165 -1.93426 0
M  V30 60360 C 5678.6 -2.28174 -2.64079 0
M  V30 60361 C 5679.95 -2.64531 -3.32128 0
M  V30 60362 O 5680.97 -2.2717 -2.74358 0
M  V30 60363 O 5679.83 -3.28811 -4.36515 0
M  V30 60364 H 5676.92 -0.468723 -0.681343 0
M  V30 60365 H 5679.47 -1.47755 -0.834664 0
M  V30 60366 H 5678.24 -3.23128 -2.20689 0
M  V30 60367 H 5677.86 -2.02229 -3.42329 0
M  V30 60368 N 5678.86 1.01908 -1.20218 0
M  V30 60369 C 5679.79 2.12278 -0.972635 0
M  V30 60370 C 5680.77 1.6982 0.0975112 0
M  V30 60371 O 5681.96 1.94109 -0.0594989 0
M  V30 60372 C 5679.09 3.43367 -0.521206 0
M  V30 60373 C 5678.04 3.99553 -1.53431 0
M  V30 60374 C 5677.37 5.2638 -0.939605 0
M  V30 60375 C 5678.67 4.33231 -2.91733 0
M  V30 60376 H 5680.36 2.31739 -1.89571 0
M  V30 60377 H 5677.91 1.11367 -0.91288 0
M  V30 60378 H 5679.86 4.19962 -0.34786 0
M  V30 60379 H 5678.58 3.23657 0.437492 0
M  V30 60380 H 5677.24 3.25063 -1.69497 0
M  V30 60381 H 5676.89 5.02993 0.0269468 0
M  V30 60382 H 5676.59 5.64936 -1.6162 0
M  V30 60383 H 5678.11 6.05633 -0.777272 0
M  V30 60384 H 5679.53 5.00724 -2.79193 0
M  V30 60385 H 5677.93 4.82895 -3.56276 0
M  V30 60386 H 5679 3.42106 -3.43645 0
M  V30 60387 N 5680.34 1.00767 1.21176 0
M  V30 60388 C 5681.29 0.563507 2.25671 0
M  V30 60389 C 5682.28 -0.393284 1.64771 0
M  V30 60390 O 5683.49 -0.264184 1.78051 0
M  V30 60391 H 5679.86 0.163888 0.733924 0
M  V30 60392 H 5681.83 1.45594 2.60471 0
M  V30 60393 C 5680.58 -0.0914377 3.4758 0
M  V30 60394 H 5679.9 0.635766 3.94713 0
M  V30 60395 H 5681.34 -0.365462 4.22422 0
M  V30 60396 C 5679.8 -1.33148 3.09473 0
M  V30 60397 O 5680.33 -2.4256 3.20199 0
M  V30 60398 N 5678.54 -1.21222 2.64109 0
M  V30 60399 H 5678.09 -0.321931 2.5558 0
M  V30 60400 H 5678.04 -2.04292 2.38981 0
M  V30 60401 N 5681.82 -1.36787 0.782749 0
M  V30 60402 C 5682.78 -2.28471 0.182606 0
M  V30 60403 C 5683.78 -1.48526 -0.616165 0
M  V30 60404 O 5684.97 -1.686 -0.438138 0
M  V30 60405 C 5682.1 -3.32591 -0.748085 0
M  V30 60406 H 5683.29 -2.83055 0.990949 0
M  V30 60407 H 5680.85 -1.46239 0.551709 0
M  V30 60408 H 5681.58 -2.83151 -1.58102 0
M  V30 60409 H 5681.37 -3.91699 -0.177344 0
M  V30 60410 H 5682.86 -4.01077 -1.16307 0
M  V30 60411 N 5683.29 -0.534202 -1.4827 0
M  V30 60412 C 5684.54 -0.00164377 -2.025 0
M  V30 60413 C 5684.87 1.33881 -1.41089 0
M  V30 60414 O 5684.12 1.87882 -0.54761 0
M  V30 60415 C 5684.42 0.165018 -3.57019 0
M  V30 60416 C 5684.09 -1.10161 -4.37236 0
M  V30 60417 C 5682.75 -1.44874 -4.58874 0
M  V30 60418 C 5685.1 -1.942 -4.83669 0
M  V30 60419 C 5682.43 -2.63515 -5.24191 0
M  V30 60420 C 5684.78 -3.12024 -5.50294 0
M  V30 60421 C 5683.45 -3.47078 -5.7017 0
M  V30 60422 H 5682.72 -0.0006015 -0.741 0
M  V30 60423 H 5685.36 -0.701076 -1.78205 0
M  V30 60424 H 5683.67 0.94725 -3.80177 0
M  V30 60425 H 5685.37 0.592062 -3.96605 0
M  V30 60426 H 5681.96 -0.82128 -4.20658 0
M  V30 60427 H 5686.14 -1.68693 -4.66751 0
M  V30 60428 H 5681.4 -2.90871 -5.37777 0
M  V30 60429 H 5685.57 -3.77447 -5.85241 0
M  V30 60430 H 5683.2 -4.39108 -6.20555 0
M  V30 60431 N 5684.77 1.55278 -0.269533 0
M  V30 60432 C 5685.68 2.25967 0.630571 0
M  V30 60433 C 5686.7 1.28361 1.17471 0
M  V30 60434 O 5687.87 1.61285 1.20619 0
M  V30 60435 C 5684.94 2.96269 1.80071 0
M  V30 60436 C 5684 4.0934 1.29379 0
M  V30 60437 C 5683.23 4.76281 2.40816 0
M  V30 60438 O 5683.46 4.42402 3.60051 0
M  V30 60439 O 5682.39 5.64342 2.09289 0
M  V30 60440 H 5686.22 3.03644 0.0581001 0
M  V30 60441 H 5683.8 1.49354 -0.0371491 0
M  V30 60442 H 5685.68 3.4047 2.48311 0
M  V30 60443 H 5684.36 2.21513 2.36038 0
M  V30 60444 H 5683.27 3.69607 0.578024 0
M  V30 60445 H 5684.6 4.85981 0.779946 0
M  V30 60446 N 5686.25 -0.00327115 1.576 0
M  V30 60447 C 5687.67 -0.359306 1.55503 0
M  V30 60448 C 5687.87 -1.74994 0.998976 0
M  V30 60449 O 5686.92 -2.4448 0.631349 0
M  V30 60450 C 5688.24 -0.237533 2.9976 0
M  V30 60451 C 5689.78 -0.312714 3.11434 0
M  V30 60452 C 5690.26 -0.220101 4.57471 0
M  V30 60453 N 5691.75 -0.278103 4.62364 0
M  V30 60454 C 5692.48 -0.229732 5.7294 0
M  V30 60455 N 5691.98 -0.132148 6.92674 0
M  V30 60456 N 5693.77 -0.281357 5.61395 0
M  V30 60457 H 5685.92 0.906471 1.92086 0
M  V30 60458 H 5688.19 0.34716 0.882147 0
M  V30 60459 H 5687.89 0.719128 3.44269 0
M  V30 60460 H 5687.77 -1.02092 3.63121 0
M  V30 60461 H 5690.15 -1.25982 2.66857 0
M  V30 60462 H 5690.24 0.500483 2.50856 0
M  V30 60463 H 5689.88 0.723444 5.02721 0
M  V30 60464 H 5689.81 -1.05174 5.1599 0
M  V30 60465 H 5692.3 -0.354988 3.76229 0
M  V30 60466 H 5692.61 -0.101045 7.72734 0
M  V30 60467 H 5690.96 -0.0978222 6.94931 0
M  V30 60468 H 5694.15 -0.355767 4.66746 0
M  V30 60469 H 5694.32 -0.240195 6.47555 0
M  V30 60470 N 5687.73 -1.55165 -0.275976 0
M  V30 60471 C 5688.66 -1.84248 -1.36329 0
M  V30 60472 C 5689.67 -0.726796 -1.45676 0
M  V30 60473 O 5690.86 -1.00461 -1.47546 0
M  V30 60474 C 5687.96 -1.98778 -2.74483 0
M  V30 60475 C 5687.14 -3.2941 -2.87763 0
M  V30 60476 C 5686.19 -3.34043 -4.06573 0
M  V30 60477 O 5685.22 -4.07437 -3.97472 0
M  V30 60478 N 5686.42 -2.61231 -5.184 0
M  V30 60479 H 5689.19 -2.78096 -1.11727 0
M  V30 60480 H 5686.75 -1.55046 -0.466088 0
M  V30 60481 H 5688.74 -1.9925 -3.52252 0
M  V30 60482 H 5687.31 -1.11809 -2.9192 0
M  V30 60483 H 5686.53 -3.41501 -1.96902 0
M  V30 60484 H 5687.82 -4.15569 -2.93565 0
M  V30 60485 H 5687.22 -2.0128 -5.2868 0
M  V30 60486 H 5685.77 -2.6743 -5.94411 0
M  V30 60487 N 5689.21 0.540352 -1.48047 0
M  V30 60488 C 5690.15 1.66689 -1.62227 0
M  V30 60489 C 5691.15 1.62189 -0.489 0
M  V30 60490 O 5692.35 1.67171 -0.667378 0
M  V30 60491 H 5688.73 0.55185 -0.510847 0
M  V30 60492 H 5690.7 1.5187 -2.56862 0
M  V30 60493 C 5689.45 3.04996 -1.6695 0
M  V30 60494 H 5688.77 3.09148 -2.5351 0
M  V30 60495 H 5690.21 3.83464 -1.80918 0
M  V30 60496 C 5688.67 3.34444 -0.406098 0
M  V30 60497 O 5689.2 3.98755 0.485536 0
M  V30 60498 N 5687.41 2.89239 -0.280958 0
M  V30 60499 H 5686.95 2.37081 -1.00749 0
M  V30 60500 H 5686.91 3.09311 0.563384 0
M  V30 60501 N 5690.69 1.36461 0.78842 0
M  V30 60502 C 5691.63 1.30869 1.9011 0
M  V30 60503 C 5692.6 0.177206 1.65152 0
M  V30 60504 O 5693.79 0.363883 1.87298 0
M  V30 60505 C 5690.93 1.10484 3.26936 0
M  V30 60506 C 5690.04 2.32717 3.6396 0
M  V30 60507 C 5689.18 2.05336 4.89909 0
M  V30 60508 C 5688.21 3.23524 5.19614 0
M  V30 60509 N 5687.35 2.95802 6.36746 0
M  V30 60510 H 5692.19 2.2601 1.94225 0
M  V30 60511 H 5689.73 1.12327 0.949788 0
M  V30 60512 H 5691.69 0.966915 4.05841 0
M  V30 60513 H 5690.32 0.189986 3.2224 0
M  V30 60514 H 5689.37 2.5731 2.80171 0
M  V30 60515 H 5690.68 3.20912 3.8186 0
M  V30 60516 H 5689.83 1.88479 5.76681 0
M  V30 60517 H 5688.57 1.14454 4.7408 0
M  V30 60518 H 5687.58 3.40939 4.31324 0
M  V30 60519 H 5688.8 4.15235 5.37361 0
M  V30 60520 H 5686.75 2.07532 6.22307 0
M  V30 60521 H 5686.67 3.77536 6.54983 0
M  V30 60522 H 5687.93 2.82526 7.26498 0
M  V30 60523 N 5692.16 -1.01269 1.20757 0
M  V30 60524 C 5693.13 -2.08053 0.961601 0
M  V30 60525 C 5694.13 -1.60671 -0.0643896 0
M  V30 60526 O 5695.32 -1.73348 0.172083 0
M  V30 60527 C 5692.45 -3.37937 0.4485 0
M  V30 60528 H 5693.64 -2.31307 1.90885 0
M  V30 60529 H 5691.19 -1.18129 1.02349 0
M  V30 60530 H 5691.93 -3.20359 -0.504031 0
M  V30 60531 H 5691.71 -3.73655 1.18846 0
M  V30 60532 H 5693.2 -4.16549 0.296022 0
M  V30 60533 N 5693.64 -1.01408 -1.2064 0
M  V30 60534 C 5694.55 -0.591773 -2.27014 0
M  V30 60535 C 5695.57 0.36952 -1.70031 0
M  V30 60536 O 5696.74 0.231095 -2.0007 0
M  V30 60537 C 5693.81 0.0658609 -3.46637 0
M  V30 60538 C 5692.87 -0.941059 -4.18859 0
M  V30 60539 C 5692.1 -0.314713 -5.32771 0
M  V30 60540 O 5692.33 0.886206 -5.63474 0
M  V30 60541 O 5691.26 -1.03018 -5.93018 0
M  V30 60542 H 5695.09 -1.4773 -2.65348 0
M  V30 60543 H 5692.67 -0.783443 -1.27211 0
M  V30 60544 H 5694.55 0.433265 -4.19167 0
M  V30 60545 H 5693.23 0.92562 -3.10184 0
M  V30 60546 H 5692.13 -1.35978 -3.48512 0
M  V30 60547 H 5693.47 -1.7707 -4.59246 0
M  V30 60548 N 5695.12 1.3637 -0.789992 0
M  V30 60549 C 5696.37 1.98833 -0.361935 0
M  V30 60550 C 5696.69 1.6301 1.07018 0
M  V30 60551 O 5695.96 0.904373 1.73775 0
M  V30 60552 H 5694.54 0.735453 -0.130837 0
M  V30 60553 H 5697.2 1.66557 -1.01216 0
M  V30 60554 H 5696.3 3.08777 -0.45423 0
M  V30 60555 N 5696.6 0.542057 1.47985 0
M  V30 60556 C 5697.53 -0.202621 2.32619 0
M  V30 60557 C 5698.51 -0.923471 1.4285 0
M  V30 60558 O 5699.69 -0.906897 1.71724 0
M  V30 60559 C 5696.82 -1.24256 3.24311 0
M  V30 60560 C 5695.78 -0.639108 4.23201 0
M  V30 60561 C 5695.1 -1.78258 5.04111 0
M  V30 60562 C 5696.4 0.397165 5.20788 0
M  V30 60563 H 5698.1 0.50392 2.95129 0
M  V30 60564 H 5695.64 0.243786 1.41921 0
M  V30 60565 H 5697.6 -1.77156 3.82353 0
M  V30 60566 H 5696.32 -1.97884 2.59826 0
M  V30 60567 H 5694.98 -0.131526 3.66364 0
M  V30 60568 H 5694.63 -2.50753 4.36041 0
M  V30 60569 H 5694.33 -1.38467 5.71052 0
M  V30 60570 H 5695.85 -2.31513 5.65008 0
M  V30 60571 H 5697.27 -0.0452042 5.73282 0
M  V30 60572 H 5695.66 0.71312 5.95848 0
M  V30 60573 H 5696.73 1.29859 4.67188 0
M  V30 60574 N 5698.08 -1.55133 0.277764 0
M  V30 60575 C 5699.32 -1.9926 -0.337592 0
M  V30 60576 C 5699.64 -1.16761 -1.56179 0
M  V30 60577 O 5698.91 -0.257775 -1.94197 0
M  V30 60578 H 5697.49 -0.735999 -0.127725 0
M  V30 60579 H 5700.16 -1.91085 0.383713 0
M  V30 60580 H 5699.25 -3.05765 -0.625639 0
M  V30 60581 N 5699.55 -0.00508679 -1.57599 0
M  V30 60582 C 5700.49 1.01875 -2.04198 0
M  V30 60583 C 5701.46 1.33179 -0.932847 0
M  V30 60584 O 5702.65 1.45257 -1.20136 0
M  V30 60585 C 5699.78 2.34507 -2.44386 0
M  V30 60586 C 5698.82 2.1883 -3.66082 0
M  V30 60587 S 5699.65 1.50957 -5.13782 0
M  V30 60588 C 5700.81 2.85007 -5.57245 0
M  V30 60589 H 5701.04 0.621997 -2.90721 0
M  V30 60590 H 5698.58 0.205929 -1.53021 0
M  V30 60591 H 5700.53 3.10765 -2.68207 0
M  V30 60592 H 5699.2 2.71321 -1.58252 0
M  V30 60593 H 5698.39 3.16822 -3.91969 0
M  V30 60594 H 5697.99 1.50715 -3.42288 0
M  V30 60595 H 5700.28 3.81299 -5.60016 0
M  V30 60596 H 5701.23 2.63814 -6.57121 0
M  V30 60597 H 5701.63 2.8915 -4.84822 0
M  V30 60598 N 5701.03 1.55309 0.267743 0
M  V30 60599 C 5702.28 1.76424 1.00012 0
M  V30 60600 C 5702.61 0.566624 1.8575 0
M  V30 60601 O 5701.89 -0.435685 1.89557 0
M  V30 60602 C 5702.17 3.07235 1.87825 0
M  V30 60603 C 5702.02 4.37362 1.05046 0
M  V30 60604 C 5703.34 3.34123 2.86443 0
M  V30 60605 H 5700.46 0.641871 0.362174 0
M  V30 60606 H 5703.1 1.88041 0.272121 0
M  V30 60607 H 5701.25 2.97462 2.49897 0
M  V30 60608 H 5702.92 4.59099 0.450047 0
M  V30 60609 H 5701.17 4.32352 0.35409 0
M  V30 60610 H 5701.84 5.25229 1.6982 0
M  V30 60611 H 5704.31 3.43724 2.34507 0
M  V30 60612 H 5703.19 4.26908 3.45023 0
M  V30 60613 H 5703.45 2.54018 3.61839 0
M  V30 60614 N 5702.51 -0.532493 1.48332 0
M  V30 60615 C 5703.46 -1.65826 1.63109 0
M  V30 60616 C 5704.45 -1.61927 0.497595 0
M  V30 60617 O 5705.66 -1.66814 0.676234 0
M  V30 60618 H 5702.03 -0.549134 0.513767 0
M  V30 60619 H 5704 -1.50506 2.57664 0
M  V30 60620 C 5702.75 -3.04107 1.68566 0
M  V30 60621 H 5702.08 -3.078 2.55146 0
M  V30 60622 H 5703.52 -3.82499 1.82949 0
M  V30 60623 C 5701.97 -3.34223 0.423828 0
M  V30 60624 O 5702.5 -3.99007 -0.464382 0
M  V30 60625 N 5700.71 -2.89086 0.296293 0
M  V30 60626 H 5700.26 -2.36543 1.02005 0
M  V30 60627 H 5700.22 -3.09606 -0.546973 0
M  V30 60628 N 5703.99 -1.36878 -0.781172 0
M  V30 60629 C 5704.9 -1.34047 -1.92532 0
M  V30 60630 C 5705.91 -0.241414 -1.72317 0
M  V30 60631 O 5707.09 -0.475197 -1.95714 0
M  V30 60632 C 5704.15 -1.1372 -3.27519 0
M  V30 60633 C 5703.22 -2.33177 -3.60454 0
M  V30 60634 C 5702.45 -2.13811 -4.89 0
M  V30 60635 O 5702.67 -1.11751 -5.59346 0
M  V30 60636 O 5701.61 -3.01781 -5.2078 0
M  V30 60637 H 5705.43 -2.30393 -1.97871 0
M  V30 60638 H 5703.02 -1.1751 -0.922596 0
M  V30 60639 H 5704.9 -1.04335 -4.0828 0
M  V30 60640 H 5703.57 -0.20442 -3.23054 0
M  V30 60641 H 5702.48 -2.48133 -2.79966 0
M  V30 60642 H 5703.81 -3.2499 -3.69651 0
M  V30 60643 N 5705.47 1.00628 -1.21292 0
M  V30 60644 C 5706.74 1.71632 -0.938184 0
M  V30 60645 C 5707.12 2.038 0.550345 0
M  V30 60646 O 5706.47 1.7107 1.51484 0
M  V30 60647 C 5706.68 2.97668 -1.82194 0
M  V30 60648 C 5708.03 3.70723 -2.07002 0
M  V30 60649 O 5709.05 3.07647 -1.79533 0
M  V30 60650 O 5707.91 4.84174 -2.53452 0
M  V30 60651 H 5705.01 0.748494 -0.35169 0
M  V30 60652 H 5707.55 1.06382 -1.32215 0
M  V30 60653 H 5706.32 2.70296 -2.82941 0
M  V30 60654 H 5705.95 3.70657 -1.43871 0
M  V30 60655 N 5706.94 1.02047 1.20101 0
M  V30 60656 C 5708.19 0.710633 1.89194 0
M  V30 60657 C 5708.51 -0.762408 1.79478 0
M  V30 60658 O 5707.78 -1.54867 1.19971 0
M  V30 60659 H 5706.36 0.259864 0.700343 0
M  V30 60660 H 5709.03 1.2929 1.45843 0
M  V30 60661 H 5708.12 0.997467 2.95731 0
M  V30 60662 N 5708.42 -1.3595 0.797213 0
M  V30 60663 C 5709.65 -2.03279 0.385388 0
M  V30 60664 C 5710.07 -1.60098 -1.0007 0
M  V30 60665 O 5709.42 -0.794072 -1.64319 0
M  V30 60666 C 5709.47 -3.58708 0.448411 0
M  V30 60667 O 5709.19 -4.00316 1.77984 0
M  V30 60668 C 5710.7 -4.43291 0.0282023 0
M  V30 60669 H 5707.92 -0.652186 0.157779 0
M  V30 60670 H 5710.46 -1.73766 1.07823 0
M  V30 60671 H 5708.61 -3.86903 -0.196088 0
M  V30 60672 H 5709.03 -4.94935 1.73609 0
M  V30 60673 H 5710.5 -5.51862 0.123428 0
M  V30 60674 H 5710.98 -4.27063 -1.02537 0
M  V30 60675 H 5711.59 -4.20373 0.645491 0
M  V30 60676 N 5709.9 -0.549898 -1.47695 0
M  V30 60677 C 5711.15 -0.0231558 -2.02787 0
M  V30 60678 C 5711.48 1.3203 -1.42414 0
M  V30 60679 O 5710.75 1.85743 -0.577043 0
M  V30 60680 C 5711.04 0.0777098 -3.60016 0
M  V30 60681 C 5710.89 -1.29232 -4.30835 0
M  V30 60682 C 5712.21 0.794757 -4.32864 0
M  V30 60683 H 5709.33 -0.00988897 -0.736934 0
M  V30 60684 H 5711.97 -0.710776 -1.76204 0
M  V30 60685 H 5710.12 0.663329 -3.82795 0
M  V30 60686 H 5711.79 -1.92059 -4.19418 0
M  V30 60687 H 5710.04 -1.86896 -3.91474 0
M  V30 60688 H 5710.71 -1.17454 -5.39359 0
M  V30 60689 H 5713.18 0.297597 -4.15034 0
M  V30 60690 H 5712.06 0.834275 -5.42523 0
M  V30 60691 H 5712.32 1.84934 -4.01562 0
M  V30 60692 N 5711.38 1.54983 -0.285987 0
M  V30 60693 C 5712.63 1.99009 0.328363 0
M  V30 60694 C 5712.94 1.17793 1.56154 0
M  V30 60695 O 5714.15 1.52014 2.24953 0
M  V30 60696 C 5712.6 3.54244 0.635563 0
M  V30 60697 C 5712.21 4.4425 -0.578427 0
M  V30 60698 C 5713.95 4.06832 1.21194 0
M  V30 60699 C 5711.86 5.90891 -0.24521 0
M  V30 60700 H 5710.79 0.743318 0.126468 0
M  V30 60701 H 5713.44 1.79257 -0.392343 0
M  V30 60702 H 5711.82 3.69839 1.41546 0
M  V30 60703 H 5713 4.40426 -1.35504 0
M  V30 60704 H 5711.31 4.02354 -1.07239 0
M  V30 60705 H 5713.91 5.13946 1.47523 0
M  V30 60706 H 5714.25 3.56522 2.14936 0
M  V30 60707 H 5714.79 3.9472 0.494083 0
M  V30 60708 H 5711.53 6.45319 -1.1508 0
M  V30 60709 H 5711.05 5.97759 0.494426 0
M  V30 60710 H 5712.72 6.46805 0.158663 0
M  V30 60711 N 5712.86 0.0134446 1.57594 0
M  V30 60712 C 5713.8 -0.991722 2.10399 0
M  V30 60713 C 5714.8 -1.3472 1.02697 0
M  V30 60714 O 5716 -1.33127 1.21149 0
M  V30 60715 H 5712.38 -0.337529 0.671996 0
M  V30 60716 H 5714.35 -0.520917 2.93818 0
M  V30 60717 C 5713.1 -2.2703 2.63349 0
M  V30 60718 H 5712.42 -2.00547 3.45862 0
M  V30 60719 H 5713.86 -2.95608 3.0396 0
M  V30 60720 C 5712.32 -2.98933 1.55372 0
M  V30 60721 O 5712.85 -3.9044 0.944419 0
M  V30 60722 N 5711.06 -2.60993 1.27793 0
M  V30 60723 H 5710.6 -1.8666 1.77527 0
M  V30 60724 H 5710.56 -3.09414 0.557694 0
M  V30 60725 N 5714.33 -1.55449 -0.259503 0
M  V30 60726 C 5715.75 -1.4759 -0.60739 0
M  V30 60727 C 5715.95 -0.701119 -1.88909 0
M  V30 60728 O 5715.01 -0.225393 -2.51492 0
M  V30 60729 C 5716.32 -2.91908 -0.721817 0
M  V30 60730 C 5717.87 -3.02204 -0.81498 0
M  V30 60731 C 5718.34 -4.47803 -0.961074 0
M  V30 60732 N 5719.83 -4.51688 -1.02626 0
M  V30 60733 C 5720.57 -5.61578 -1.15834 0
M  V30 60734 N 5720.06 -6.81306 -1.25676 0
M  V30 60735 N 5721.86 -5.49348 -1.19051 0
M  V30 60736 H 5714.01 -2.04269 0.582053 0
M  V30 60737 H 5716.27 -0.926858 0.199091 0
M  V30 60738 H 5715.98 -3.51381 0.149734 0
M  V30 60739 H 5715.85 -3.41687 -1.59781 0
M  V30 60740 H 5718.24 -2.42819 -1.67699 0
M  V30 60741 H 5718.32 -2.55656 0.0859001 0
M  V30 60742 H 5717.96 -5.07794 -0.103669 0
M  V30 60743 H 5717.89 -4.9202 -1.87681 0
M  V30 60744 H 5720.38 -3.65449 -0.962056 0
M  V30 60745 H 5720.7 -7.60806 -1.35626 0
M  V30 60746 H 5719.04 -6.84091 -1.22656 0
M  V30 60747 H 5722.23 -4.54749 -1.11002 0
M  V30 60748 H 5722.41 -6.3503 -1.29 0
M  V30 60749 N 5715.81 0.524619 -1.48612 0
M  V30 60750 C 5716.74 1.64475 -1.59627 0
M  V30 60751 C 5717.76 1.55556 -0.480236 0
M  V30 60752 O 5718.95 1.61918 -0.751311 0
M  V30 60753 C 5716.05 3.03153 -1.51498 0
M  V30 60754 C 5715.22 3.37499 -2.78232 0
M  V30 60755 C 5714.28 4.55481 -2.63483 0
M  V30 60756 O 5713.3 4.58436 -3.3738 0
M  V30 60757 N 5714.51 5.53979 -1.73456 0
M  V30 60758 H 5717.27 1.55461 -2.56226 0
M  V30 60759 H 5714.83 0.712008 -1.45403 0
M  V30 60760 H 5716.82 3.79964 -1.39318 0
M  V30 60761 H 5715.39 3.06216 -0.628514 0
M  V30 60762 H 5714.61 2.49814 -3.04937 0
M  V30 60763 H 5715.9 3.57234 -3.623 0
M  V30 60764 H 5715.3 5.54374 -1.12631 0
M  V30 60765 H 5713.86 6.29987 -1.67212 0
M  V30 60766 N 5717.29 1.3729 0.773902 0
M  V30 60767 C 5718.24 1.32962 1.9085 0
M  V30 60768 C 5719.23 0.218754 1.67982 0
M  V30 60769 O 5720.44 0.386656 1.75798 0
M  V30 60770 H 5716.81 0.414311 0.627575 0
M  V30 60771 H 5718.78 2.28747 1.91618 0
M  V30 60772 C 5717.53 1.15132 3.28085 0
M  V30 60773 H 5716.86 1.99864 3.46257 0
M  V30 60774 H 5718.3 1.16154 4.0778 0
M  V30 60775 C 5716.76 -0.143152 3.36596 0
M  V30 60776 O 5717.29 -1.1275 3.85552 0
M  V30 60777 N 5715.49 -0.193118 2.89958 0
M  V30 60778 H 5715.04 0.608559 2.50308 0
M  V30 60779 H 5715 -1.05886 2.96033 0
M  V30 60780 N 5718.77 -0.999829 1.21824 0
M  V30 60781 C 5720.02 -1.73493 1.03656 0
M  V30 60782 C 5720.34 -1.90195 -0.430204 0
M  V30 60783 O 5719.61 -1.45659 -1.30997 0
M  V30 60784 H 5718.19 -0.642791 0.380564 0
M  V30 60785 H 5720.85 -1.20455 1.5322 0
M  V30 60786 H 5719.95 -2.73209 1.50874 0
M  V30 60787 N 5720.25 -1.02682 -1.19558 0
M  V30 60788 C 5721.16 -0.615818 -2.26373 0
M  V30 60789 C 5722.17 0.351466 -1.70413 0
M  V30 60790 O 5723.35 0.209862 -2.00304 0
M  V30 60791 C 5720.41 0.0290916 -3.46688 0
M  V30 60792 C 5719.48 -0.985431 -4.17837 0
M  V30 60793 C 5718.71 -0.371203 -5.32408 0
M  V30 60794 O 5718.93 0.826392 -5.64382 0
M  V30 60795 O 5717.87 -1.09302 -5.91892 0
M  V30 60796 H 5721.69 -1.50536 -2.63766 0
M  V30 60797 H 5719.28 -0.796892 -1.26372 0
M  V30 60798 H 5721.16 0.388782 -4.19603 0
M  V30 60799 H 5719.83 0.892669 -3.11148 0
M  V30 60800 H 5718.74 -1.39667 -3.4705 0
M  V30 60801 H 5720.07 -1.81931 -4.57342 0
M  V30 60802 N 5721.73 1.35525 -0.804411 0
M  V30 60803 C 5722.67 2.29831 -0.211267 0
M  V30 60804 C 5723.64 1.52706 0.653449 0
M  V30 60805 O 5724.83 1.81154 0.598988 0
M  V30 60806 C 5721.97 3.3919 0.635935 0
M  V30 60807 C 5721.08 4.31282 -0.248976 0
M  V30 60808 C 5720.22 5.27732 0.606024 0
M  V30 60809 C 5719.25 6.11462 -0.27942 0
M  V30 60810 N 5718.39 7.00055 0.535426 0
M  V30 60811 H 5723.23 2.79967 -1.0209 0
M  V30 60812 H 5720.77 1.37791 -0.51498 0
M  V30 60813 H 5722.73 4.01258 1.14227 0
M  V30 60814 H 5721.36 2.90336 1.41085 0
M  V30 60815 H 5720.41 3.70238 -0.873393 0
M  V30 60816 H 5721.72 4.90042 -0.930589 0
M  V30 60817 H 5720.87 5.95162 1.17757 0
M  V30 60818 H 5719.61 4.69463 1.32121 0
M  V30 60819 H 5718.62 5.42981 -0.863256 0
M  V30 60820 H 5719.84 6.71809 -0.992437 0
M  V30 60821 H 5717.79 6.44277 1.23463 0
M  V30 60822 H 5717.71 7.55949 -0.088187 0
M  V30 60823 H 5718.97 7.71837 1.09032 0
M  V30 60824 N 5723.2 0.557723 1.47402 0
M  V30 60825 C 5724.45 0.0339097 2.02772 0
M  V30 60826 C 5724.78 -1.31273 1.43112 0
M  V30 60827 O 5724.06 -1.85434 0.586886 0
M  V30 60828 C 5724.34 -0.0586161 3.60052 0
M  V30 60829 C 5724.19 1.31515 4.30144 0
M  V30 60830 C 5725.51 -0.77179 4.3328 0
M  V30 60831 H 5722.63 0.013797 0.736871 0
M  V30 60832 H 5725.27 0.720111 1.75825 0
M  V30 60833 H 5723.42 -0.643019 3.83142 0
M  V30 60834 H 5725.1 1.9428 4.18393 0
M  V30 60835 H 5723.34 1.8897 3.90478 0
M  V30 60836 H 5724.01 1.20313 5.38729 0
M  V30 60837 H 5726.49 -0.275583 4.15186 0
M  V30 60838 H 5725.36 -0.805492 5.42958 0
M  V30 60839 H 5725.62 -1.82802 4.02537 0
M  V30 60840 N 5724.68 -1.5483 0.294202 0
M  V30 60841 C 5725.61 -2.19425 -0.626743 0
M  V30 60842 C 5726.59 -1.1614 -1.138 0
M  V30 60843 O 5727.78 -1.44751 -1.20745 0
M  V30 60844 C 5724.9 -2.83269 -1.85679 0
M  V30 60845 C 5723.95 -4.00021 -1.47936 0
M  V30 60846 S 5724.78 -5.32759 -0.541119 0
M  V30 60847 C 5725.94 -6.00082 -1.77911 0
M  V30 60848 H 5726.17 -2.97198 -0.0779495 0
M  V30 60849 H 5723.7 -1.54201 0.0783673 0
M  V30 60850 H 5725.66 -3.2068 -2.56271 0
M  V30 60851 H 5724.32 -2.05353 -2.37674 0
M  V30 60852 H 5723.52 -4.43451 -2.39514 0
M  V30 60853 H 5723.12 -3.64132 -0.853445 0
M  V30 60854 H 5725.41 -6.20476 -2.72058 0
M  V30 60855 H 5726.35 -6.94373 -1.38749 0
M  V30 60856 H 5726.76 -5.29649 -1.95273 0
M  V30 60857 N 5726.16 -0.021802 -1.57585 0
M  V30 60858 C 5727.12 0.947473 -2.087 0
M  V30 60859 C 5728.12 1.25876 -1.0006 0
M  V30 60860 O 5729.31 1.20031 -1.26247 0
M  V30 60861 C 5726.44 2.26615 -2.54673 0
M  V30 60862 H 5727.64 0.504912 -2.95619 0
M  V30 60863 H 5725.19 0.226098 -1.54656 0
M  V30 60864 H 5725.93 2.75515 -1.71061 0
M  V30 60865 H 5725.71 2.05335 -3.34036 0
M  V30 60866 H 5727.2 2.96104 -2.94469 0
M  V30 60867 N 5727.64 1.55584 0.251256 0
M  V30 60868 C 5728.91 1.67958 1.00248 0
M  V30 60869 C 5729.29 0.560398 2.03526 0
M  V30 60870 O 5728.64 -0.436732 2.24288 0
M  V30 60871 C 5728.85 3.0808 1.63974 0
M  V30 60872 C 5730.2 3.66539 2.14323 0
M  V30 60873 O 5731.22 3.10853 1.73923 0
M  V30 60874 O 5730.08 4.64151 2.8849 0
M  V30 60875 H 5727.18 0.682968 0.466351 0
M  V30 60876 H 5729.72 1.67916 0.245387 0
M  V30 60877 H 5728.5 3.80986 0.892493 0
M  V30 60878 H 5728.12 3.12114 2.46314 0
M  V30 60879 N 5729.12 -0.516731 1.48888 0
M  V30 60880 C 5730.39 -1.27803 1.48073 0
M  V30 60881 C 5730.77 -2.10153 0.199704 0
M  V30 60882 O 5730.12 -2.13345 -0.818311 0
M  V30 60883 C 5730.33 -2.14819 2.75053 0
M  V30 60884 C 5731.68 -2.74525 3.23915 0
M  V30 60885 O 5732.7 -2.25097 2.76061 0
M  V30 60886 O 5731.56 -3.64466 4.07218 0
M  V30 60887 H 5728.66 -0.577514 0.591952 0
M  V30 60888 H 5731.2 -0.532294 1.61136 0
M  V30 60889 H 5729.97 -1.53839 3.59791 0
M  V30 60890 H 5729.6 -2.96614 2.64775 0
M  V30 60891 N 5730.59 -1.37698 -0.766611 0
M  V30 60892 C 5731.5 -1.36082 -1.91099 0
M  V30 60893 C 5732.52 -0.259677 -1.72051 0
M  V30 60894 O 5733.7 -0.495929 -1.95199 0
M  V30 60895 C 5730.76 -1.17187 -3.26294 0
M  V30 60896 C 5729.82 -2.36987 -3.5796 0
M  V30 60897 C 5729.05 -2.18985 -4.86704 0
M  V30 60898 O 5729.28 -1.17678 -5.58129 0
M  V30 60899 O 5728.21 -3.07287 -5.1755 0
M  V30 60900 H 5732.04 -2.32479 -1.95416 0
M  V30 60901 H 5729.62 -1.18482 -0.91008 0
M  V30 60902 H 5731.5 -1.08659 -4.0715 0
M  V30 60903 H 5730.18 -0.238672 -3.22819 0
M  V30 60904 H 5729.09 -2.51088 -2.77318 0
M  V30 60905 H 5730.42 -3.28893 -3.66184 0
M  V30 60906 N 5732.07 0.993354 -1.22353 0
M  V30 60907 C 5733.32 1.73283 -1.04781 0
M  V30 60908 C 5733.65 1.89974 0.417135 0
M  V30 60909 O 5732.9 1.4397 1.32556 0
M  V30 60910 C 5733.2 3.14185 -1.7036 0
M  V30 60911 C 5732.87 3.1741 -3.20253 0
M  V30 60912 C 5731.53 3.17997 -3.61153 0
M  V30 60913 C 5733.88 3.13736 -4.16196 0
M  V30 60914 C 5731.21 3.12611 -4.96479 0
M  V30 60915 C 5733.56 3.09892 -5.51498 0
M  V30 60916 C 5732.22 3.08794 -5.91779 0
M  V30 60917 H 5731.49 0.634088 -0.383423 0
M  V30 60918 H 5734.14 1.16341 -1.52109 0
M  V30 60919 H 5732.45 3.74433 -1.15356 0
M  V30 60920 H 5734.14 3.70144 -1.54255 0
M  V30 60921 H 5730.73 3.17703 -2.87686 0
M  V30 60922 H 5734.92 3.12433 -3.85616 0
M  V30 60923 H 5730.17 3.10106 -5.26919 0
M  V30 60924 H 5734.35 3.06004 -6.25567 0
M  V30 60925 H 5731.97 3.04375 -6.96606 0
M  V30 60926 N 5733.55 1.03315 1.19012 0
M  V30 60927 C 5734.78 0.751869 1.92755 0
M  V30 60928 C 5735.19 -0.68992 1.75743 0
M  V30 60929 O 5734.55 -1.46957 1.08212 0
M  V30 60930 C 5734.6 1.09904 3.44388 0
M  V30 60931 O 5734.32 2.48422 3.60858 0
M  V30 60932 C 5735.82 0.841182 4.35246 0
M  V30 60933 H 5733.04 0.274778 0.612158 0
M  V30 60934 H 5735.59 1.37879 1.51029 0
M  V30 60935 H 5733.74 0.517227 3.83932 0
M  V30 60936 H 5734.16 2.61484 4.54672 0
M  V30 60937 H 5735.63 1.13402 5.40226 0
M  V30 60938 H 5736.11 -0.22428 4.38627 0
M  V30 60939 H 5736.71 1.40593 4.0139 0
M  V30 60940 N 5735.03 -1.35096 0.811587 0
M  V30 60941 C 5735.96 -2.28468 0.183092 0
M  V30 60942 C 5736.97 -1.50511 -0.6205 0
M  V30 60943 O 5738.16 -1.72681 -0.45204 0
M  V30 60944 C 5735.26 -3.30203 -0.762817 0
M  V30 60945 C 5734.44 -4.374 -0.00451184 0
M  V30 60946 C 5733.49 -5.18964 -0.869649 0
M  V30 60947 O 5732.52 -5.68307 -0.318765 0
M  V30 60948 N 5733.72 -5.37562 -2.19105 0
M  V30 60949 H 5736.49 -2.83043 0.985232 0
M  V30 60950 H 5734.05 -1.47499 0.667501 0
M  V30 60951 H 5736.04 -3.81663 -1.34593 0
M  V30 60952 H 5734.61 -2.76106 -1.46574 0
M  V30 60953 H 5733.83 -3.86808 0.759838 0
M  V30 60954 H 5735.12 -5.06157 0.517917 0
M  V30 60955 H 5734.52 -4.99127 -2.66249 0
M  V30 60956 H 5733.07 -5.92183 -2.72327 0
M  V30 60957 N 5736.51 -0.565532 -1.47104 0
M  V30 60958 C 5737.78 0.021467 -1.95588 0
M  V30 60959 C 5738.16 1.47706 -1.50818 0
M  V30 60960 O 5737.51 2.15811 -0.750852 0
M  V30 60961 C 5737.72 -0.132675 -3.48748 0
M  V30 60962 C 5739.07 0.00838664 -4.24599 0
M  V30 60963 O 5740.09 -0.0606395 -3.56148 0
M  V30 60964 O 5738.95 0.158327 -5.46271 0
M  V30 60965 H 5736.05 0.0594721 -0.824859 0
M  V30 60966 H 5738.59 -0.632642 -1.57467 0
M  V30 60967 H 5737.36 -1.14524 -3.74166 0
M  V30 60968 H 5736.99 0.558663 -3.93656 0
M  V30 60969 N 5737.98 1.54671 -0.302409 0
M  V30 60970 C 5738.91 2.26532 0.566185 0
M  V30 60971 C 5739.9 1.26536 1.13678 0
M  V30 60972 O 5741.08 1.55311 1.16585 0
M  V30 60973 C 5738.21 3.00715 1.73746 0
M  V30 60974 C 5737.16 4.0787 1.29717 0
M  V30 60975 C 5736.49 4.69776 2.55372 0
M  V30 60976 C 5737.79 5.20548 0.427384 0
M  V30 60977 H 5739.48 2.99382 -0.0331763 0
M  V30 60978 H 5737.03 1.43989 -0.0173964 0
M  V30 60979 H 5738.98 3.49708 2.35122 0
M  V30 60980 H 5737.71 2.25446 2.36309 0
M  V30 60981 H 5736.37 3.59729 0.706459 0
M  V30 60982 H 5736.01 3.91145 3.16251 0
M  V30 60983 H 5735.71 5.42145 2.26612 0
M  V30 60984 H 5737.24 5.21532 3.17547 0
M  V30 60985 H 5738.65 5.65427 0.946854 0
M  V30 60986 H 5737.05 5.99646 0.233493 0
M  V30 60987 H 5738.12 4.81803 -0.547163 0
M  V30 60988 N 5739.46 0.0301588 1.57571 0
M  V30 60989 C 5740.71 -0.648255 1.91843 0
M  V30 60990 C 5741.04 -1.72075 0.906661 0
M  V30 60991 O 5740.29 -1.95519 -0.0842545 0
M  V30 60992 C 5740.59 -1.30195 3.32842 0
M  V30 60993 C 5740.26 -0.359717 4.49463 0
M  V30 60994 C 5738.92 -0.100383 4.81095 0
M  V30 60995 C 5741.27 0.287231 5.20408 0
M  V30 60996 C 5738.6 0.813688 5.8103 0
M  V30 60997 C 5740.95 1.18936 6.21319 0
M  V30 60998 C 5739.62 1.45758 6.51392 0
M  V30 60999 H 5738.89 -0.237213 0.702005 0
M  V30 61000 H 5741.53 0.0921477 1.91278 0
M  V30 61001 H 5739.84 -2.11712 3.29674 0
M  V30 61002 H 5741.53 -1.83344 3.56632 0
M  V30 61003 H 5738.12 -0.572023 4.24766 0
M  V30 61004 H 5742.31 0.0999355 4.96199 0
M  V30 61005 H 5737.56 1.02918 6.02676 0
M  V30 61006 H 5741.74 1.69685 6.75411 0
M  V30 61007 H 5739.37 2.16752 7.28644 0
M  V30 61008 N 5740.94 -1.55715 -0.243001 0
M  V30 61009 C 5742.36 -1.48226 -0.591702 0
M  V30 61010 C 5742.56 -0.721116 -1.88155 0
M  V30 61011 O 5741.61 -0.252055 -2.51239 0
M  V30 61012 C 5742.93 -2.92657 -0.690816 0
M  V30 61013 C 5744.47 -3.03051 -0.782882 0
M  V30 61014 C 5744.95 -4.48797 -0.913524 0
M  V30 61015 N 5746.44 -4.52751 -0.978295 0
M  V30 61016 C 5747.17 -5.62775 -1.09871 0
M  V30 61017 N 5746.67 -6.826 -1.18443 0
M  V30 61018 N 5748.46 -5.5058 -1.13218 0
M  V30 61019 H 5740.61 -2.0364 0.603685 0
M  V30 61020 H 5742.88 -0.924695 0.208911 0
M  V30 61021 H 5742.58 -3.51203 0.186994 0
M  V30 61022 H 5742.46 -3.43362 -1.56148 0
M  V30 61023 H 5744.84 -2.44584 -1.65114 0
M  V30 61024 H 5744.93 -2.5555 0.113011 0
M  V30 61025 H 5744.57 -5.07876 -0.0498049 0
M  V30 61026 H 5744.5 -4.93983 -1.82452 0
M  V30 61027 H 5746.99 -3.66449 -0.923241 0
M  V30 61028 H 5747.3 -7.62202 -1.27549 0
M  V30 61029 H 5745.65 -6.85353 -1.15393 0
M  V30 61030 H 5748.84 -4.559 -1.06172 0
M  V30 61031 H 5749.01 -6.36362 -1.22257 0
M  V30 61032 N 5742.42 0.508828 -1.4916 0
M  V30 61033 C 5743.67 1.26344 -1.58251 0
M  V30 61034 C 5743.99 1.92676 -0.265722 0
M  V30 61035 O 5743.25 1.80934 0.745754 0
M  V30 61036 C 5743.55 2.35866 -2.68519 0
M  V30 61037 C 5743.21 1.87044 -4.10275 0
M  V30 61038 C 5741.88 1.73448 -4.48853 0
M  V30 61039 C 5744.23 1.50411 -4.99025 0
M  V30 61040 C 5741.56 1.21586 -5.73963 0
M  V30 61041 C 5743.91 1.00004 -6.24645 0
M  V30 61042 C 5742.57 0.850413 -6.62061 0
M  V30 61043 H 5741.84 0.462325 -0.579082 0
M  V30 61044 H 5744.49 0.565464 -1.82961 0
M  V30 61045 H 5742.79 3.1142 -2.3775 0
M  V30 61046 H 5744.49 2.93941 -2.72763 0
M  V30 61047 H 5741.08 1.98583 -3.79819 0
M  V30 61048 H 5745.26 1.59766 -4.69881 0
M  V30 61049 H 5740.52 1.08707 -6.01658 0
M  V30 61050 H 5744.69 0.707364 -6.92798 0
M  V30 61051 H 5742.32 0.44636 -7.58888 0
M  V30 61052 N 5743.9 1.38103 0.759297 0
M  V30 61053 C 5744.83 1.37585 1.8866 0
M  V30 61054 C 5745.81 0.242588 1.68361 0
M  V30 61055 O 5746.99 0.444817 1.89037 0
M  V30 61056 C 5744.12 1.19448 3.26113 0
M  V30 61057 C 5743.08 2.29918 3.61001 0
M  V30 61058 C 5742.4 1.96892 4.9713 0
M  V30 61059 C 5743.7 3.72156 3.66465 0
M  V30 61060 H 5745.4 2.31919 1.89351 0
M  V30 61061 H 5742.94 1.11635 0.909591 0
M  V30 61062 H 5744.9 1.17712 4.04625 0
M  V30 61063 H 5743.62 0.215734 3.25887 0
M  V30 61064 H 5742.28 2.3083 2.84804 0
M  V30 61065 H 5741.93 0.975153 4.93457 0
M  V30 61066 H 5741.63 2.70874 5.21441 0
M  V30 61067 H 5743.15 1.96764 5.78028 0
M  V30 61068 H 5744.56 3.73306 4.35104 0
M  V30 61069 H 5742.96 4.45296 4.02283 0
M  V30 61070 H 5744.03 4.04883 2.66828 0
M  V30 61071 N 5745.37 -0.986851 1.22878 0
M  V30 61072 C 5746.31 -2.08032 0.962045 0
M  V30 61073 C 5747.32 -1.62683 -0.0615903 0
M  V30 61074 O 5748.51 -1.77658 0.173156 0
M  V30 61075 C 5745.61 -3.36207 0.42642 0
M  V30 61076 C 5744.78 -4.10557 1.5087 0
M  V30 61077 C 5743.84 -5.17011 0.979092 0
M  V30 61078 O 5742.87 -5.44253 1.66665 0
M  V30 61079 N 5744.07 -5.80168 -0.196409 0
M  V30 61080 H 5746.83 -2.31493 1.90344 0
M  V30 61081 H 5744.39 -1.15306 1.13649 0
M  V30 61082 H 5746.39 -4.04659 0.0573 0
M  V30 61083 H 5744.96 -3.09762 -0.420236 0
M  V30 61084 H 5744.18 -3.36649 2.05088 0
M  V30 61085 H 5745.46 -4.57 2.23671 0
M  V30 61086 H 5744.86 -5.60412 -0.771695 0
M  V30 61087 H 5743.42 -6.49826 -0.506855 0
M  V30 61088 N 5746.85 -1.03945 -1.18462 0
M  V30 61089 C 5747.78 -0.65026 -2.24263 0
M  V30 61090 C 5748.76 0.345909 -1.66546 0
M  V30 61091 O 5749.95 0.22628 -1.92877 0
M  V30 61092 C 5747.08 -0.0111672 -3.47298 0
M  V30 61093 C 5746.03 -0.930745 -4.17757 0
M  V30 61094 C 5745.36 -0.156193 -5.34472 0
M  V30 61095 C 5746.66 -2.2493 -4.71385 0
M  V30 61096 H 5748.35 -1.53474 -2.57072 0
M  V30 61097 H 5745.9 -0.739387 -1.23568 0
M  V30 61098 H 5747.85 0.272811 -4.20516 0
M  V30 61099 H 5746.58 0.908178 -3.13719 0
M  V30 61100 H 5745.23 -1.19909 -3.46435 0
M  V30 61101 H 5744.88 0.76552 -4.97141 0
M  V30 61102 H 5744.58 -0.768811 -5.82549 0
M  V30 61103 H 5746.11 0.120797 -6.10481 0
M  V30 61104 H 5747.52 -2.02611 -5.36304 0
M  V30 61105 H 5745.92 -2.81477 -5.29991 0
M  V30 61106 H 5746.99 -2.89664 -3.88874 0
M  V30 61107 N 5748.33 1.34664 -0.81874 0
M  V30 61108 C 5749.26 2.32133 -0.252321 0
M  V30 61109 C 5750.24 1.58046 0.628926 0
M  V30 61110 O 5751.43 1.8605 0.556674 0
M  V30 61111 C 5748.56 3.42251 0.590063 0
M  V30 61112 C 5747.51 4.27561 -0.193697 0
M  V30 61113 C 5746.84 5.2911 0.771163 0
M  V30 61114 C 5748.14 5.032 -1.39954 0
M  V30 61115 H 5749.83 2.79754 -1.06667 0
M  V30 61116 H 5747.38 1.345 -0.514373 0
M  V30 61117 H 5749.33 4.09449 0.996472 0
M  V30 61118 H 5748.05 2.93267 1.43742 0
M  V30 61119 H 5746.71 3.6196 -0.581425 0
M  V30 61120 H 5746.36 4.7639 1.61436 0
M  V30 61121 H 5746.06 5.87064 0.250995 0
M  V30 61122 H 5747.58 5.99178 1.17552 0
M  V30 61123 H 5749 5.63276 -1.06736 0
M  V30 61124 H 5747.4 5.70708 -1.85505 0
M  V30 61125 H 5748.47 4.33137 -2.17991 0
M  V30 61126 N 5749.81 0.573325 1.46802 0
M  V30 61127 C 5751.05 0.0578949 2.04318 0
M  V30 61128 C 5751.41 -1.27419 1.43626 0
M  V30 61129 O 5752.61 -1.87828 1.92286 0
M  V30 61130 C 5750.89 -0.0166974 3.57396 0
M  V30 61131 S 5752.44 -0.475914 4.36212 0
M  V30 61132 H 5749.26 0.0329275 0.710237 0
M  V30 61133 H 5751.86 0.763704 1.79966 0
M  V30 61134 H 5750.57 0.956897 3.99089 0
M  V30 61135 H 5750.1 -0.745566 3.8627 0
M  V30 61136 H 5752.11 -1.73252 4.64971 0
M  V30 61137 N 5751.29 -1.54509 0.310607 0
M  V30 61138 C 5752.2 -2.27559 -0.570438 0
M  V30 61139 C 5753.21 -1.3143 -1.14027 0
M  V30 61140 O 5754.39 -1.64427 -1.16301 0
M  V30 61141 C 5751.45 -3.00939 -1.72153 0
M  V30 61142 C 5750.52 -4.12627 -1.18481 0
M  V30 61143 C 5749.75 -4.82498 -2.28104 0
M  V30 61144 O 5749.97 -4.51793 -3.48195 0
M  V30 61145 O 5748.91 -5.69692 -1.94253 0
M  V30 61146 H 5752.73 -3.03692 0.0224262 0
M  V30 61147 H 5750.32 -1.49203 0.0767345 0
M  V30 61148 H 5752.2 -3.46934 -2.39196 0
M  V30 61149 H 5750.87 -2.27693 -2.30082 0
M  V30 61150 H 5749.78 -3.7101 -0.479825 0
M  V30 61151 H 5751.11 -4.87878 -0.650822 0
M  V30 61152 N 5752.77 -0.0385148 -1.57553 0
M  V30 61153 C 5754.01 0.636812 -1.91805 0
M  V30 61154 C 5754.33 1.72125 -0.916408 0
M  V30 61155 O 5753.6 1.95858 0.0406717 0
M  V30 61156 H 5752.18 0.238212 -0.708 0
M  V30 61157 H 5754.85 -0.0885335 -1.94699 0
M  V30 61158 H 5753.94 1.08354 -2.92687 0
M  V30 61159 N 5754.24 1.55842 0.23474 0
M  V30 61160 C 5755.19 1.87724 1.29397 0
M  V30 61161 C 5756.18 0.739137 1.42918 0
M  V30 61162 O 5757.37 1.00131 1.45955 0
M  V30 61163 C 5754.5 2.18601 2.64705 0
M  V30 61164 C 5753.58 3.3877 2.55139 0
M  V30 61165 N 5753.98 4.5773 2.15213 0
M  V30 61166 C 5752.27 3.42122 2.86126 0
M  V30 61167 C 5752.97 5.39879 2.16576 0
M  V30 61168 N 5751.95 4.79251 2.56553 0
M  V30 61169 H 5755.75 2.77222 0.975969 0
M  V30 61170 H 5753.27 1.56231 0.443341 0
M  V30 61171 H 5755.26 2.39611 3.41163 0
M  V30 61172 H 5753.92 1.30408 2.97361 0
M  V30 61173 H 5754.93 4.83132 1.86558 0
M  V30 61174 H 5751.61 2.64236 3.23242 0
M  V30 61175 H 5753 6.45079 1.87944 0
M  V30 61176 N 5755.72 -0.50091 1.49428 0
M  V30 61177 C 5756.67 -1.62329 1.66589 0
M  V30 61178 C 5757.66 -1.60835 0.53183 0
M  V30 61179 O 5758.87 -1.65343 0.711466 0
M  V30 61180 H 5755.24 -0.538112 0.525299 0
M  V30 61181 H 5757.22 -1.45007 2.60798 0
M  V30 61182 C 5755.96 -3.00463 1.74978 0
M  V30 61183 H 5755.29 -3.02318 2.61617 0
M  V30 61184 H 5756.73 -3.78533 1.91021 0
M  V30 61185 C 5755.19 -3.33249 0.494627 0
M  V30 61186 O 5755.72 -3.99902 -0.379643 0
M  V30 61187 N 5753.92 -2.88392 0.357546 0
M  V30 61188 H 5753.47 -2.34326 1.06999 0
M  V30 61189 H 5753.43 -3.10696 -0.481178 0
M  V30 61190 N 5757.2 -1.38504 -0.751963 0
M  V30 61191 C 5758.15 -1.35982 -1.88711 0
M  V30 61192 C 5759.14 -0.245451 -1.67612 0
M  V30 61193 O 5760.35 -0.414575 -1.75161 0
M  V30 61194 H 5756.72 -0.424242 -0.620904 0
M  V30 61195 H 5758.69 -2.31767 -1.87954 0
M  V30 61196 C 5757.44 -1.20337 -3.26212 0
M  V30 61197 H 5756.77 -2.05348 -3.43034 0
M  V30 61198 H 5758.21 -1.22627 -4.0588 0
M  V30 61199 C 5756.66 0.0895845 -3.36781 0
M  V30 61200 O 5757.19 1.06602 -3.87297 0
M  V30 61201 N 5755.4 0.146963 -2.90228 0
M  V30 61202 H 5754.95 -0.648303 -2.49309 0
M  V30 61203 H 5754.91 1.01163 -2.9768 0
M  V30 61204 N 5758.68 0.980321 -1.234 0
M  V30 61205 C 5759.95 1.69603 -0.974379 0
M  V30 61206 C 5760.33 2.04921 0.506992 0
M  V30 61207 O 5759.68 1.74245 1.47821 0
M  V30 61208 C 5759.89 2.93736 -1.88467 0
M  V30 61209 C 5761.24 3.66249 -2.14819 0
M  V30 61210 O 5762.26 3.03769 -1.86018 0
M  V30 61211 O 5761.12 4.78689 -2.63665 0
M  V30 61212 H 5758.22 0.740866 -0.367488 0
M  V30 61213 H 5760.76 1.03554 -1.34442 0
M  V30 61214 H 5759.54 2.64234 -2.88611 0
M  V30 61215 H 5759.16 3.67522 -1.51701 0
M  V30 61216 N 5760.16 1.04571 1.17909 0
M  V30 61217 C 5761.4 0.752089 1.88016 0
M  V30 61218 C 5761.73 -0.720503 1.80663 0
M  V30 61219 O 5760.99 -1.54203 1.20499 0
M  V30 61220 C 5761.28 1.17002 3.37706 0
M  V30 61221 C 5760.95 2.64375 3.65262 0
M  V30 61222 C 5759.61 3.04636 3.72492 0
M  V30 61223 C 5761.96 3.59639 3.77239 0
M  V30 61224 C 5759.29 4.39037 3.89183 0
M  V30 61225 C 5761.64 4.93765 3.95447 0
M  V30 61226 C 5760.31 5.33689 4.00915 0
M  V30 61227 H 5759.58 0.275209 0.687998 0
M  V30 61228 H 5762.23 1.31166 1.39527 0
M  V30 61229 H 5760.53 0.529339 3.88208 0
M  V30 61230 H 5762.23 0.920118 3.90301 0
M  V30 61231 H 5758.82 2.32194 3.60255 0
M  V30 61232 H 5763 3.29678 3.7098 0
M  V30 61233 H 5758.26 4.69479 3.91662 0
M  V30 61234 H 5762.43 5.67481 4.03656 0
M  V30 61235 H 5760.06 6.37839 4.136 0
M  V30 61236 N 5761.63 -1.34228 0.82587 0
M  V30 61237 C 5762.57 -2.2826 0.207314 0
M  V30 61238 C 5763.58 -1.51161 -0.604501 0
M  V30 61239 O 5764.77 -1.73151 -0.433699 0
M  V30 61240 C 5761.87 -3.30994 -0.727752 0
M  V30 61241 C 5761.04 -4.3738 0.0418805 0
M  V30 61242 C 5760.1 -5.19857 -0.814557 0
M  V30 61243 O 5759.13 -5.68613 -0.25847 0
M  V30 61244 N 5760.33 -5.39856 -2.13391 0
M  V30 61245 H 5763.09 -2.81982 1.0152 0
M  V30 61246 H 5760.65 -1.46783 0.683108 0
M  V30 61247 H 5762.65 -3.83069 -1.30537 0
M  V30 61248 H 5761.22 -2.77645 -1.43638 0
M  V30 61249 H 5760.44 -3.8598 0.800821 0
M  V30 61250 H 5761.72 -5.05579 0.571573 0
M  V30 61251 H 5761.12 -5.01923 -2.6094 0
M  V30 61252 H 5759.68 -5.95038 -2.66031 0
M  V30 61253 N 5763.11 -0.581102 -1.46496 0
M  V30 61254 C 5764.06 0.165863 -2.32008 0
M  V30 61255 C 5765.05 0.885965 -1.44385 0
M  V30 61256 O 5766.26 0.804535 -1.61019 0
M  V30 61257 H 5762.63 0.0723571 -0.748511 0
M  V30 61258 H 5764.61 -0.574192 -2.92823 0
M  V30 61259 C 5763.35 1.1673 -3.2752 0
M  V30 61260 H 5762.68 0.622617 -3.94922 0
M  V30 61261 H 5764.12 1.66038 -3.90138 0
M  V30 61262 C 5762.58 2.22746 -2.52756 0
M  V30 61263 O 5763.11 3.30073 -2.28943 0
M  V30 61264 N 5761.31 1.97311 -2.13347 0
M  V30 61265 H 5760.86 1.10041 -2.32914 0
M  V30 61266 H 5760.82 2.68456 -1.63643 0
M  V30 61267 N 5764.59 1.54342 -0.318797 0
M  V30 61268 C 5765.82 2.04598 0.286889 0
M  V30 61269 C 5766.23 1.19479 1.46701 0
M  V30 61270 O 5765.57 0.217146 1.82412 0
M  V30 61271 C 5765.63 3.50732 0.789139 0
M  V30 61272 C 5765.3 4.56213 -0.268049 0
M  V30 61273 C 5766.29 5.08075 -1.10253 0
M  V30 61274 C 5763.98 5.00584 -0.414867 0
M  V30 61275 C 5765.97 6.02865 -2.0696 0
M  V30 61276 C 5763.66 5.9519 -1.38536 0
M  V30 61277 C 5764.66 6.46216 -2.2112 0
M  V30 61278 O 5764.35 7.38965 -3.16521 0
M  V30 61279 H 5764.08 0.672996 0.0636607 0
M  V30 61280 H 5766.63 2.00145 -0.461639 0
M  V30 61281 H 5764.86 3.52567 1.5885 0
M  V30 61282 H 5766.55 3.84089 1.31265 0
M  V30 61283 H 5767.32 4.74578 -1.00006 0
M  V30 61284 H 5763.2 4.60484 0.218028 0
M  V30 61285 H 5766.74 6.42617 -2.71458 0
M  V30 61286 H 5762.64 6.28104 -1.48848 0
M  V30 61287 H 5763.41 7.56824 -3.11705 0
M  V30 61288 N 5766.07 0.0468696 1.5753 0
M  V30 61289 C 5767 -0.927017 2.1431 0
M  V30 61290 C 5767.98 -1.32741 1.06367 0
M  V30 61291 O 5769.16 -1.40289 1.34286 0
M  V30 61292 C 5766.29 -2.20334 2.68459 0
M  V30 61293 C 5765.25 -1.94314 3.81347 0
M  V30 61294 C 5764.57 -3.28364 4.21997 0
M  V30 61295 C 5765.87 -1.26817 5.0667 0
M  V30 61296 H 5767.57 -0.454095 2.95936 0
M  V30 61297 H 5765.11 -0.216979 1.42356 0
M  V30 61298 H 5767.07 -2.88859 3.0682 0
M  V30 61299 H 5765.79 -2.69824 1.84019 0
M  V30 61300 H 5764.45 -1.28202 3.43453 0
M  V30 61301 H 5764.1 -3.75647 3.34512 0
M  V30 61302 H 5763.8 -3.11755 4.98079 0
M  V30 61303 H 5765.32 -3.98128 4.62954 0
M  V30 61304 H 5766.74 -1.8537 5.42504 0
M  V30 61305 H 5765.13 -1.20548 5.87867 0
M  V30 61306 H 5766.2 -0.243589 4.84288 0
M  V30 61307 N 5767.55 -1.55964 -0.226472 0
M  V30 61308 C 5768.96 -1.48846 -0.575947 0
M  V30 61309 C 5769.16 -0.741032 -1.87379 0
M  V30 61310 O 5768.22 -0.278688 -2.50957 0
M  V30 61311 C 5769.53 -2.93373 -0.659736 0
M  V30 61312 C 5771.08 -3.03864 -0.750695 0
M  V30 61313 C 5771.55 -4.49741 -0.865872 0
M  V30 61314 N 5773.05 -4.53763 -0.93022 0
M  V30 61315 C 5773.78 -5.63909 -1.03896 0
M  V30 61316 N 5773.28 -6.83818 -1.11196 0
M  V30 61317 N 5775.07 -5.5175 -1.07372 0
M  V30 61318 H 5767.22 -2.02989 0.62525 0
M  V30 61319 H 5769.48 -0.922427 0.218707 0
M  V30 61320 H 5769.19 -3.50984 0.224234 0
M  V30 61321 H 5769.06 -3.44999 -1.52497 0
M  V30 61322 H 5771.45 -2.46321 -1.62511 0
M  V30 61323 H 5771.53 -2.55416 0.140109 0
M  V30 61324 H 5771.18 -5.079 0.00406487 0
M  V30 61325 H 5771.11 -4.9589 -1.77202 0
M  V30 61326 H 5773.6 -3.67407 -0.884322 0
M  V30 61327 H 5773.91 -7.63511 -1.19457 0
M  V30 61328 H 5772.25 -6.86539 -1.08118 0
M  V30 61329 H 5775.45 -4.57001 -1.01331 0
M  V30 61330 H 5775.62 -6.37623 -1.15501 0
M  V30 61331 N 5769.02 0.492978 -1.49691 0
M  V30 61332 C 5770.25 1.27041 -1.63304 0
M  V30 61333 C 5770.67 1.86277 -0.307599 0
M  V30 61334 O 5770.02 1.68211 0.707909 0
M  V30 61335 C 5770.08 2.39492 -2.70788 0
M  V30 61336 O 5769.8 1.82688 -3.98192 0
M  V30 61337 C 5771.3 3.30734 -2.95178 0
M  V30 61338 H 5768.52 0.385023 -0.549544 0
M  V30 61339 H 5771.06 0.590929 -1.95776 0
M  V30 61340 H 5769.22 3.03254 -2.41072 0
M  V30 61341 H 5769.63 2.56572 -4.57461 0
M  V30 61342 H 5771.1 4.05898 -3.741 0
M  V30 61343 H 5771.58 3.8821 -2.05401 0
M  V30 61344 H 5772.19 2.72729 -3.26342 0
M  V30 61345 N 5770.5 1.38901 0.744607 0
M  V30 61346 C 5771.43 1.32746 1.86846 0
M  V30 61347 C 5772.45 0.237987 1.61051 0
M  V30 61348 O 5773.64 0.496226 1.71464 0
M  V30 61349 C 5770.74 1.03613 3.22672 0
M  V30 61350 C 5769.91 2.23647 3.759 0
M  V30 61351 C 5768.97 1.9112 4.90265 0
M  V30 61352 O 5767.99 2.63707 5.04427 0
M  V30 61353 N 5769.2 0.871559 5.7392 0
M  V30 61354 H 5771.96 2.29592 1.92633 0
M  V30 61355 H 5769.52 1.32878 0.924932 0
M  V30 61356 H 5771.51 0.798895 3.96736 0
M  V30 61357 H 5770.08 0.155327 3.12214 0
M  V30 61358 H 5769.3 2.63382 2.93298 0
M  V30 61359 H 5770.59 3.03734 4.08195 0
M  V30 61360 H 5769.99 0.269789 5.65056 0
M  V30 61361 H 5768.55 0.694212 6.48093 0
M  V30 61362 N 5771.98 -0.973763 1.23918 0
M  V30 61363 C 5773.21 -1.75103 1.10212 0
M  V30 61364 C 5773.62 -1.85605 -0.34587 0
M  V30 61365 O 5772.98 -1.34001 -1.23895 0
M  V30 61366 C 5773.03 -3.1746 1.72921 0
M  V30 61367 O 5772.75 -3.07493 3.12057 0
M  V30 61368 C 5774.25 -4.11551 1.64744 0
M  V30 61369 H 5771.47 -0.549304 0.385365 0
M  V30 61370 H 5774.02 -1.22295 1.63903 0
M  V30 61371 H 5772.17 -3.67272 1.23247 0
M  V30 61372 H 5772.59 -3.97157 3.42589 0
M  V30 61373 H 5774.06 -5.09118 2.13313 0
M  V30 61374 H 5774.54 -4.34978 0.607505 0
M  V30 61375 H 5775.14 -3.67645 2.13815 0
M  V30 61376 N 5773.46 -1.05195 -1.17353 0
M  V30 61377 C 5774.71 -0.760544 -1.87244 0
M  V30 61378 C 5775.03 0.714554 -1.81436 0
M  V30 61379 O 5774.3 1.51632 -1.24034 0
M  V30 61380 H 5772.88 -0.278341 -0.693207 0
M  V30 61381 H 5775.54 -1.33111 -1.42364 0
M  V30 61382 H 5774.64 -1.07552 -2.92983 0
M  V30 61383 N 5774.94 1.33788 -0.832977 0
M  V30 61384 C 5775.88 2.31248 -0.250438 0
M  V30 61385 C 5776.88 1.57867 0.614348 0
M  V30 61386 O 5778.08 1.72783 0.504566 0
M  V30 61387 H 5774.46 0.749419 -0.0622531 0
M  V30 61388 H 5776.43 2.77895 -1.08706 0
M  V30 61389 C 5775.18 3.43084 0.564662 0
M  V30 61390 H 5774.5 3.99695 -0.0914594 0
M  V30 61391 H 5775.94 4.1349 0.938206 0
M  V30 61392 C 5774.4 2.8842 1.74114 0
M  V30 61393 O 5774.93 2.84123 2.83966 0
M  V30 61394 N 5773.14 2.45107 1.56112 0
M  V30 61395 H 5772.68 2.48801 0.66752 0
M  V30 61396 H 5772.64 2.08884 2.34979 0
M  V30 61397 N 5776.41 0.588863 1.46185 0
M  V30 61398 C 5777.64 0.0826028 2.06735 0
M  V30 61399 C 5778.06 -1.22502 1.43662 0
M  V30 61400 O 5777.41 -1.74201 0.544084 0
M  V30 61401 C 5777.47 -0.083374 3.61404 0
M  V30 61402 O 5777.19 1.1725 4.22119 0
M  V30 61403 C 5778.69 -0.623271 4.38897 0
M  V30 61404 H 5775.91 0.0602648 0.668288 0
M  V30 61405 H 5778.45 0.811281 1.87719 0
M  V30 61406 H 5776.61 -0.762298 3.79826 0
M  V30 61407 H 5777.02 0.990228 5.15068 0
M  V30 61408 H 5778.49 -0.688563 5.47689 0
M  V30 61409 H 5778.97 -1.64158 4.07368 0
M  V30 61410 H 5779.58 0.0209868 4.25295 0
M  V30 61411 N 5777.89 -1.54171 0.326977 0
M  V30 61412 C 5779.12 -2.05045 -0.276436 0
M  V30 61413 C 5779.54 -1.20293 -1.45517 0
M  V30 61414 O 5778.89 -0.234388 -1.80989 0
M  V30 61415 C 5778.94 -3.54507 -0.70759 0
M  V30 61416 O 5778.66 -4.36041 0.424251 0
M  V30 61417 C 5780.17 -4.21487 -1.37345 0
M  V30 61418 H 5777.39 -0.668634 -0.0563038 0
M  V30 61419 H 5779.93 -1.98927 0.474157 0
M  V30 61420 H 5778.08 -3.60901 -1.40815 0
M  V30 61421 H 5778.5 -5.24433 0.0838689 0
M  V30 61422 H 5779.97 -5.27507 -1.62605 0
M  V30 61423 H 5780.45 -3.72811 -2.32183 0
M  V30 61424 H 5781.06 -4.1924 -0.715378 0
M  V30 61425 N 5779.37 -0.0552232 -1.57503 0
M  V30 61426 C 5780.6 0.627131 -1.97167 0
M  V30 61427 C 5781.01 1.6414 -0.932933 0
M  V30 61428 O 5780.37 1.82314 0.0823824 0
M  V30 61429 C 5780.42 1.31045 -3.36912 0
M  V30 61430 O 5780.14 0.336797 -4.36803 0
M  V30 61431 C 5781.64 2.08219 -3.91356 0
M  V30 61432 H 5778.86 0.171173 -0.648799 0
M  V30 61433 H 5781.41 -0.122723 -2.04131 0
M  V30 61434 H 5779.56 2.01151 -3.31085 0
M  V30 61435 H 5779.98 0.825021 -5.17971 0
M  V30 61436 H 5781.45 2.51445 -4.91405 0
M  V30 61437 H 5781.93 2.93201 -3.27001 0
M  V30 61438 H 5782.53 1.43015 -4.00533 0
M  V30 61439 N 5780.85 1.56082 0.218198 0
M  V30 61440 C 5782.1 1.78449 0.940157 0
M  V30 61441 C 5782.41 0.624382 1.85367 0
M  V30 61442 O 5783.62 0.731761 2.61453 0
M  V30 61443 C 5782.07 3.16032 1.72197 0
M  V30 61444 C 5781.68 4.39777 0.854429 0
M  V30 61445 C 5783.43 3.47722 2.43494 0
M  V30 61446 C 5781.33 5.68385 1.63378 0
M  V30 61447 H 5780.26 0.665316 0.354783 0
M  V30 61448 H 5782.91 1.82472 0.193957 0
M  V30 61449 H 5781.3 3.06194 2.5112 0
M  V30 61450 H 5782.47 4.60679 0.105497 0
M  V30 61451 H 5780.78 4.15628 0.253416 0
M  V30 61452 H 5783.38 4.41036 3.0231 0
M  V30 61453 H 5783.72 2.70378 3.16546 0
M  V30 61454 H 5784.26 3.58905 1.71558 0
M  V30 61455 H 5781 6.48631 0.946476 0
M  V30 61456 H 5780.52 5.51538 2.35724 0
M  V30 61457 H 5782.2 6.08679 2.19359 0
M  V30 61458 N 5782.33 -0.485033 1.49951 0
M  V30 61459 C 5783.28 -1.60553 1.68302 0
M  V30 61460 C 5784.27 -1.60262 0.548859 0
M  V30 61461 O 5785.48 -1.64579 0.728963 0
M  V30 61462 H 5781.85 -0.53251 0.530977 0
M  V30 61463 H 5783.82 -1.42232 2.62321 0
M  V30 61464 C 5782.57 -2.9859 1.78155 0
M  V30 61465 H 5781.89 -2.99527 2.64809 0
M  V30 61466 H 5783.33 -3.76485 1.95025 0
M  V30 61467 C 5781.79 -3.32706 0.529944 0
M  V30 61468 O 5782.32 -4.00282 -0.337206 0
M  V30 61469 N 5780.53 -2.87997 0.388114 0
M  V30 61470 H 5780.08 -2.33178 1.09479 0
M  V30 61471 H 5780.03 -3.11189 -0.448197 0
M  V30 61472 N 5783.81 -1.39293 -0.73723 0
M  V30 61473 C 5785.05 -1.35708 -1.49219 0
M  V30 61474 C 5785.37 0.0449594 -1.95548 0
M  V30 61475 O 5786.57 0.2034 -2.70737 0
M  V30 61476 C 5785.03 -2.38396 -2.6962 0
M  V30 61477 C 5784.64 -3.84303 -2.3025 0
M  V30 61478 C 5786.38 -2.43882 -3.4745 0
M  V30 61479 C 5784.29 -4.78638 -3.4736 0
M  V30 61480 H 5783.22 -0.50451 -0.560344 0
M  V30 61481 H 5785.87 -1.64929 -0.804408 0
M  V30 61482 H 5784.25 -2.02242 -3.40462 0
M  V30 61483 H 5785.43 -4.29486 -1.66969 0
M  V30 61484 H 5783.74 -3.82091 -1.65516 0
M  V30 61485 H 5786.34 -3.11555 -4.34555 0
M  V30 61486 H 5786.68 -1.46267 -3.89758 0
M  V30 61487 H 5787.21 -2.78918 -2.83636 0
M  V30 61488 H 5783.95 -5.77508 -3.10104 0
M  V30 61489 H 5783.47 -4.38137 -4.09629 0
M  V30 61490 H 5785.15 -4.97434 -4.13725 0
M  V30 61491 N 5785.28 0.967178 -1.24432 0
M  V30 61492 C 5786.53 1.70454 -1.07835 0
M  V30 61493 C 5786.85 1.91819 0.382712 0
M  V30 61494 O 5788.05 2.63131 0.66889 0
M  V30 61495 C 5786.51 3.06811 -1.88136 0
M  V30 61496 C 5786.12 2.93286 -3.38655 0
M  V30 61497 C 5787.86 3.84416 -1.80069 0
M  V30 61498 C 5785.77 4.24956 -4.11299 0
M  V30 61499 H 5784.7 0.639203 -0.399919 0
M  V30 61500 H 5787.35 1.07771 -1.48518 0
M  V30 61501 H 5785.73 3.70326 -1.40267 0
M  V30 61502 H 5786.9 2.3878 -3.94108 0
M  V30 61503 H 5785.22 2.29146 -3.47679 0
M  V30 61504 H 5787.82 4.81917 -2.31646 0
M  V30 61505 H 5788.16 4.09191 -0.766051 0
M  V30 61506 H 5788.69 3.27628 -2.25621 0
M  V30 61507 H 5785.43 4.05373 -5.15124 0
M  V30 61508 H 5784.95 4.79275 -3.60632 0
M  V30 61509 H 5786.63 4.93571 -4.18326 0
M  V30 61510 N 5786.76 1.05816 1.16794 0
M  V30 61511 C 5788.01 0.767074 1.86545 0
M  V30 61512 C 5788.32 -0.708915 1.82301 0
M  V30 61513 O 5789.53 -1.11419 2.47584 0
M  V30 61514 C 5787.99 1.32198 3.34741 0
M  V30 61515 C 5787.59 2.82787 3.47471 0
M  V30 61516 C 5789.34 1.10822 4.09779 0
M  V30 61517 C 5787.24 3.31546 4.89726 0
M  V30 61518 H 5786.17 0.283259 0.698771 0
M  V30 61519 H 5788.83 1.27626 1.31848 0
M  V30 61520 H 5787.21 0.740589 3.89013 0
M  V30 61521 H 5788.38 3.46836 3.03384 0
M  V30 61522 H 5786.7 3.02775 2.85861 0
M  V30 61523 H 5789.29 1.44746 5.14736 0
M  V30 61524 H 5789.64 0.0463134 4.16274 0
M  V30 61525 H 5790.17 1.65515 3.61732 0
M  V30 61526 H 5786.91 4.37194 4.88407 0
M  V30 61527 H 5786.43 2.72243 5.34457 0
M  V30 61528 H 5788.11 3.26592 5.58522 0
M  V30 61529 N 5788.24 -1.33344 0.84006 0
M  V30 61530 C 5789.48 -1.99554 0.442433 0
M  V30 61531 C 5789.84 -1.65091 -0.980246 0
M  V30 61532 O 5791.04 -2.24277 -1.48166 0
M  V30 61533 C 5789.32 -3.51289 0.658063 0
M  V30 61534 S 5790.87 -4.37355 0.355834 0
M  V30 61535 H 5787.69 -0.691262 0.166368 0
M  V30 61536 H 5790.29 -1.6232 1.0896 0
M  V30 61537 H 5789 -3.7386 1.69284 0
M  V30 61538 H 5788.53 -3.934 -0.00321975 0
M  V30 61539 H 5790.54 -4.89312 -0.823919 0
M  V30 61540 N 5789.72 -0.596607 -1.45871 0
M  V30 61541 C 5790.95 -0.0935653 -2.06688 0
M  V30 61542 C 5791.36 1.21738 -1.44309 0
M  V30 61543 O 5790.72 1.7391 -0.553314 0
M  V30 61544 C 5790.77 0.0642067 -3.61443 0
M  V30 61545 O 5790.49 -1.19487 -4.21491 0
M  V30 61546 C 5791.99 0.599986 -4.39221 0
M  V30 61547 H 5789.21 -0.0638081 -0.667959 0
M  V30 61548 H 5791.75 -0.821224 -1.87286 0
M  V30 61549 H 5789.91 0.742144 -3.80225 0
M  V30 61550 H 5790.32 -1.01753 -5.14535 0
M  V30 61551 H 5791.8 0.659508 -5.48046 0
M  V30 61552 H 5792.27 1.61995 -4.08233 0
M  V30 61553 H 5792.88 -0.043541 -4.25278 0
M  V30 61554 N 5791.2 1.53995 -0.335149 0
M  V30 61555 C 5792.44 2.0107 0.264317 0
M  V30 61556 C 5792.77 1.22276 1.50871 0
M  V30 61557 O 5792.05 0.308127 1.92044 0
M  V30 61558 C 5792.33 3.55286 0.586875 0
M  V30 61559 C 5792.19 4.44797 -0.669034 0
M  V30 61560 C 5793.5 4.17243 1.39988 0
M  V30 61561 H 5790.62 0.730904 0.0945945 0
M  V30 61562 H 5793.27 1.84496 -0.454023 0
M  V30 61563 H 5791.42 3.6954 1.19886 0
M  V30 61564 H 5793.09 4.42393 -1.30713 0
M  V30 61565 H 5791.33 4.14 -1.29561 0
M  V30 61566 H 5792 5.50558 -0.398717 0
M  V30 61567 H 5794.48 4.06634 0.882477 0
M  V30 61568 H 5793.35 5.25236 1.59433 0
M  V30 61569 H 5793.61 3.71318 2.39949 0
M  V30 61570 N 5792.67 0.0635752 1.57472 0
M  V30 61571 C 5793.95 -0.647964 1.84556 0
M  V30 61572 C 5794.33 -1.88292 0.954437 0
M  V30 61573 O 5793.68 -2.28492 0.0186154 0
M  V30 61574 C 5793.89 -0.993456 3.34562 0
M  V30 61575 C 5795.24 -1.37046 4.01875 0
M  V30 61576 O 5796.26 -1.08543 3.39259 0
M  V30 61577 O 5795.12 -1.90291 5.123 0
M  V30 61578 H 5792.21 -0.32102 0.762152 0
M  V30 61579 H 5794.76 0.0938819 1.6944 0
M  V30 61580 H 5793.53 -0.116001 3.91128 0
M  V30 61581 H 5793.15 -1.79234 3.5491 0
M  V30 61582 N 5794.15 -1.56196 -0.209917 0
M  V30 61583 C 5795.38 -1.83577 -0.947787 0
M  V30 61584 C 5795.79 -0.64201 -1.77974 0
M  V30 61585 O 5795.13 0.398731 -1.7932 0
M  V30 61586 C 5795.2 -3.04857 -1.90533 0
M  V30 61587 C 5794.86 -4.3938 -1.25677 0
M  V30 61588 C 5795.86 -5.15934 -0.640926 0
M  V30 61589 C 5793.54 -4.86109 -1.26505 0
M  V30 61590 C 5795.54 -6.37386 -0.0420243 0
M  V30 61591 C 5793.22 -6.075 -0.662309 0
M  V30 61592 C 5794.22 -6.8298 -0.0518606 0
M  V30 61593 O 5793.91 -8.02074 0.541474 0
M  V30 61594 H 5793.64 -0.614011 -0.282783 0
M  V30 61595 H 5796.19 -2.04145 -0.226696 0
M  V30 61596 H 5794.42 -2.80136 -2.66572 0
M  V30 61597 H 5796.11 -3.1901 -2.50973 0
M  V30 61598 H 5796.88 -4.80933 -0.626769 0
M  V30 61599 H 5792.76 -4.27324 -1.72959 0
M  V30 61600 H 5796.3 -6.96242 0.435068 0
M  V30 61601 H 5792.2 -6.41972 -0.673918 0
M  V30 61602 H 5792.97 -8.17333 0.436927 0
M  V30 61603 N 5795.63 0.477074 -1.50206 0
M  V30 61604 C 5796.56 1.58399 -1.71558 0
M  V30 61605 C 5797.54 1.60461 -0.56447 0
M  V30 61606 O 5798.73 1.76823 -0.802955 0
M  V30 61607 C 5795.86 2.96759 -1.80421 0
M  V30 61608 C 5794.81 3.09563 -2.95559 0
M  V30 61609 C 5794.14 4.49511 -2.89558 0
M  V30 61610 C 5795.44 2.8734 -4.36157 0
M  V30 61611 H 5797.13 1.40783 -2.64236 0
M  V30 61612 H 5794.68 0.675841 -1.27155 0
M  V30 61613 H 5796.63 3.74118 -1.93943 0
M  V30 61614 H 5795.35 3.15517 -0.8436 0
M  V30 61615 H 5794.01 2.34635 -2.81677 0
M  V30 61616 H 5793.66 4.6518 -1.91356 0
M  V30 61617 H 5793.36 4.59015 -3.6685 0
M  V30 61618 H 5794.88 5.28899 -3.05121 0
M  V30 61619 H 5796.3 3.54453 -4.50595 0
M  V30 61620 H 5794.7 3.08295 -5.14854 0
M  V30 61621 H 5795.77 1.83248 -4.48941 0
M  V30 61622 N 5797.11 1.39683 0.729833 0
M  V30 61623 C 5798.04 1.41555 1.85699 0
M  V30 61624 C 5799.02 0.278245 1.67809 0
M  V30 61625 O 5800.2 0.484815 1.88051 0
M  V30 61626 C 5797.33 1.26339 3.23506 0
M  V30 61627 C 5796.29 2.37523 3.56043 0
M  V30 61628 C 5795.61 2.07392 4.92841 0
M  V30 61629 C 5796.91 3.79846 3.58489 0
M  V30 61630 H 5798.61 2.35883 1.84389 0
M  V30 61631 H 5796.15 1.1354 0.885707 0
M  V30 61632 H 5798.11 1.26269 4.02038 0
M  V30 61633 H 5796.83 0.284811 3.25356 0
M  V30 61634 H 5795.49 2.36819 2.79843 0
M  V30 61635 H 5795.14 1.0796 4.91277 0
M  V30 61636 H 5794.84 2.81873 5.15579 0
M  V30 61637 H 5796.36 2.08981 5.73724 0
M  V30 61638 H 5797.78 3.82451 4.27088 0
M  V30 61639 H 5796.17 4.53729 3.92747 0
M  V30 61640 H 5797.24 4.10452 2.5818 0
M  V30 61641 N 5798.59 -0.960565 1.24944 0
M  V30 61642 C 5800 -1.23053 1.01637 0
M  V30 61643 C 5800.2 -1.99677 -0.270456 0
M  V30 61644 O 5799.26 -2.32506 -0.984741 0
M  V30 61645 C 5800.57 -2.0107 2.23587 0
M  V30 61646 C 5802.12 -2.14136 2.28287 0
M  V30 61647 C 5802.59 -2.9555 3.49877 0
M  V30 61648 N 5804.09 -3.0313 3.50237 0
M  V30 61649 C 5804.82 -3.66503 4.4098 0
M  V30 61650 N 5804.32 -4.31534 5.41987 0
M  V30 61651 N 5806.11 -3.63585 4.28675 0
M  V30 61652 H 5798.26 -0.447803 2.07626 0
M  V30 61653 H 5800.52 -0.260549 0.911492 0
M  V30 61654 H 5800.23 -1.52161 3.1708 0
M  V30 61655 H 5800.1 -3.01789 2.26281 0
M  V30 61656 H 5802.49 -2.62245 1.35321 0
M  V30 61657 H 5802.57 -1.12742 2.29615 0
M  V30 61658 H 5802.22 -2.48133 4.43162 0
M  V30 61659 H 5802.15 -3.97158 3.45793 0
M  V30 61660 H 5804.64 -2.56878 2.77168 0
M  V30 61661 H 5804.95 -4.77729 6.0745 0
M  V30 61662 H 5803.29 -4.30181 5.45866 0
M  V30 61663 H 5806.49 -3.11961 3.48996 0
M  V30 61664 H 5806.66 -4.12688 4.99592 0
M  V30 61665 N 5800.06 -1.06434 -1.16231 0
M  V30 61666 C 5800.99 -0.697684 -2.22833 0
M  V30 61667 C 5801.98 0.310504 -1.67242 0
M  V30 61668 O 5803.16 0.185317 -1.93314 0
M  V30 61669 C 5800.29 -0.0848317 -3.47196 0
M  V30 61670 C 5799.24 -1.01915 -4.15689 0
M  V30 61671 C 5798.57 -0.269527 -5.3402 0
M  V30 61672 C 5799.87 -2.34878 -4.66508 0
M  V30 61673 H 5801.56 -1.58892 -2.53759 0
M  V30 61674 H 5799.11 -0.765431 -1.21972 0
M  V30 61675 H 5801.06 0.183552 -4.21 0
M  V30 61676 H 5799.79 0.841429 -3.15575 0
M  V30 61677 H 5798.45 -1.2723 -3.43814 0
M  V30 61678 H 5798.09 0.659897 -4.98653 0
M  V30 61679 H 5797.79 -0.892205 -5.80787 0
M  V30 61680 H 5799.32 -0.00872241 -6.10599 0
M  V30 61681 H 5800.73 -2.13941 -5.31885 0
M  V30 61682 H 5799.13 -2.92656 -5.23901 0
M  V30 61683 H 5800.2 -2.97847 -3.82642 0
M  V30 61684 N 5801.54 1.32897 -0.84712 0
M  V30 61685 C 5802.47 2.27902 -0.243602 0
M  V30 61686 C 5803.49 1.52104 0.580376 0
M  V30 61687 O 5804.68 1.73819 0.406097 0
M  V30 61688 C 5801.78 3.3211 0.675001 0
M  V30 61689 C 5800.95 4.37258 -0.111459 0
M  V30 61690 C 5800.01 5.21087 0.73175 0
M  V30 61691 O 5799.03 5.68952 0.167976 0
M  V30 61692 N 5800.24 5.43183 2.04775 0
M  V30 61693 H 5803 2.80331 -1.05993 0
M  V30 61694 H 5800.56 1.45678 -0.706373 0
M  V30 61695 H 5802.55 3.85098 1.24426 0
M  V30 61696 H 5801.12 2.79895 1.39202 0
M  V30 61697 H 5800.34 3.84657 -0.862126 0
M  V30 61698 H 5801.63 5.04606 -0.651934 0
M  V30 61699 H 5801.03 5.06011 2.52922 0
M  V30 61700 H 5799.59 5.99195 2.56531 0
M  V30 61701 N 5803.02 0.604335 1.45553 0
M  V30 61702 C 5803.93 -0.118326 2.34301 0
M  V30 61703 C 5804.95 -0.863754 1.51047 0
M  V30 61704 O 5806.12 -0.822073 1.83858 0
M  V30 61705 C 5803.19 -1.10527 3.2861 0
M  V30 61706 C 5802.25 -0.362151 4.2777 0
M  V30 61707 C 5801.48 -1.30208 5.17573 0
M  V30 61708 O 5801.7 -2.53973 5.10738 0
M  V30 61709 O 5800.64 -0.800906 5.96548 0
M  V30 61710 H 5804.46 0.61092 2.97492 0
M  V30 61711 H 5802.05 0.364612 1.44882 0
M  V30 61712 H 5803.93 -1.67378 3.86733 0
M  V30 61713 H 5802.61 -1.8156 2.67988 0
M  V30 61714 H 5801.51 0.248747 3.73272 0
M  V30 61715 H 5802.85 0.307627 4.91238 0
M  V30 61716 N 5804.5 -1.53815 0.343311 0
M  V30 61717 C 5805.72 -2.05797 -0.257346 0
M  V30 61718 C 5806.15 -1.21665 -1.43455 0
M  V30 61719 O 5805.51 -0.230341 -1.79831 0
M  V30 61720 C 5805.55 -3.54683 -0.650556 0
M  V30 61721 O 5804.66 -3.734 -1.75061 0
M  V30 61722 H 5804 -0.662623 -0.0427337 0
M  V30 61723 H 5806.53 -1.9846 0.497456 0
M  V30 61724 H 5806.54 -3.97311 -0.927775 0
M  V30 61725 H 5805.21 -4.15368 0.210345 0
M  V30 61726 H 5803.79 -3.42674 -1.47068 0
M  V30 61727 N 5805.98 -0.0719254 -1.57436 0
M  V30 61728 C 5807.23 0.596731 -1.92671 0
M  V30 61729 C 5807.54 1.70761 -0.953936 0
M  V30 61730 O 5808.74 2.43585 -1.19911 0
M  V30 61731 C 5807.2 1.11279 -3.42264 0
M  V30 61732 C 5806.81 0.0329107 -4.47988 0
M  V30 61733 C 5808.55 1.75551 -3.865 0
M  V30 61734 C 5806.46 0.563023 -5.88714 0
M  V30 61735 H 5805.39 0.22667 -0.719122 0
M  V30 61736 H 5808.04 -0.144181 -1.82933 0
M  V30 61737 H 5806.42 1.90667 -3.47076 0
M  V30 61738 H 5807.6 -0.741661 -4.54792 0
M  V30 61739 H 5805.91 -0.513583 -4.13221 0
M  V30 61740 H 5808.51 2.16244 -4.89022 0
M  V30 61741 H 5808.85 2.61555 -3.23875 0
M  V30 61742 H 5809.38 1.02784 -3.84292 0
M  V30 61743 H 5806.12 -0.259863 -6.54985 0
M  V30 61744 H 5805.64 1.30511 -5.85429 0
M  V30 61745 H 5807.32 1.03939 -6.38597 0
M  V30 61746 N 5807.45 1.56305 0.201631 0
M  V30 61747 C 5808.68 1.84696 0.943518 0
M  V30 61748 C 5809.1 0.654711 1.76338 0
M  V30 61749 O 5808.46 -0.396523 1.76911 0
M  V30 61750 C 5808.51 3.11258 1.82074 0
M  V30 61751 O 5807.61 2.91351 2.91871 0
M  V30 61752 H 5806.96 0.608361 0.26607 0
M  V30 61753 H 5809.49 2.03531 0.20892 0
M  V30 61754 H 5809.5 3.41881 2.22668 0
M  V30 61755 H 5808.17 3.97656 1.2183 0
M  V30 61756 H 5806.75 2.72009 2.55079 0
M  V30 61757 N 5808.93 -0.469102 1.50457 0
M  V30 61758 C 5810.21 -1.23027 1.52064 0
M  V30 61759 C 5810.59 -2.09412 0.266461 0
M  V30 61760 O 5809.94 -2.1584 -0.750023 0
M  V30 61761 C 5810.15 -2.05959 2.81748 0
M  V30 61762 C 5811.5 -2.64081 3.32485 0
M  V30 61763 O 5812.52 -2.162 2.83083 0
M  V30 61764 O 5811.38 -3.51326 4.18608 0
M  V30 61765 H 5808.47 -0.558389 0.610025 0
M  V30 61766 H 5811.02 -0.48076 1.62748 0
M  V30 61767 H 5809.79 -1.42315 3.64503 0
M  V30 61768 H 5809.41 -2.88041 2.74077 0
M  V30 61769 N 5810.41 -1.40068 -0.722415 0
M  V30 61770 C 5811.66 -1.37975 -1.4822 0
M  V30 61771 C 5811.99 0.0201905 -1.9449 0
M  V30 61772 O 5811.24 1.00345 -1.68016 0
M  V30 61773 C 5811.54 -2.30959 -2.72751 0
M  V30 61774 C 5811.21 -3.78348 -2.45282 0
M  V30 61775 C 5809.87 -4.18506 -2.37501 0
M  V30 61776 C 5812.22 -4.71517 -2.22083 0
M  V30 61777 C 5809.55 -5.49877 -2.04579 0
M  V30 61778 C 5811.9 -6.0318 -1.90676 0
M  V30 61779 C 5810.56 -6.42387 -1.81371 0
M  V30 61780 H 5809.83 -0.504888 -0.542374 0
M  V30 61781 H 5812.48 -1.7267 -0.828088 0
M  V30 61782 H 5810.79 -1.89425 -3.42966 0
M  V30 61783 H 5812.48 -2.26626 -3.30819 0
M  V30 61784 H 5809.07 -3.46528 -2.52222 0
M  V30 61785 H 5813.26 -4.41316 -2.27055 0
M  V30 61786 H 5808.51 -5.79163 -1.95907 0
M  V30 61787 H 5812.69 -6.74892 -1.71737 0
M  V30 61788 H 5810.31 -7.44099 -1.55628 0
M  V30 61789 N 5811.89 0.953925 -1.25451 0
M  V30 61790 C 5813.12 1.73076 -1.1282 0
M  V30 61791 C 5813.53 1.86462 0.320698 0
M  V30 61792 O 5812.87 1.36234 1.23231 0
M  V30 61793 C 5812.93 3.16233 -1.70988 0
M  V30 61794 C 5812.6 3.26274 -3.19991 0
M  V30 61795 C 5813.59 3.10532 -4.16972 0
M  V30 61796 C 5811.28 3.50073 -3.60214 0
M  V30 61797 C 5813.27 3.18436 -5.52157 0
M  V30 61798 C 5810.96 3.57613 -4.95536 0
M  V30 61799 C 5811.96 3.41809 -5.91317 0
M  V30 61800 O 5811.65 3.49032 -7.24177 0
M  V30 61801 H 5811.38 0.549129 -0.39425 0
M  V30 61802 H 5813.93 1.20532 -1.66317 0
M  V30 61803 H 5812.16 3.70144 -1.11939 0
M  V30 61804 H 5813.85 3.75778 -1.53445 0
M  V30 61805 H 5814.62 2.92015 -3.87236 0
M  V30 61806 H 5810.5 3.61435 -2.86157 0
M  V30 61807 H 5814.04 3.06018 -6.26896 0
M  V30 61808 H 5809.94 3.75647 -5.24938 0
M  V30 61809 H 5810.7 3.65659 -7.32281 0
M  V30 61810 N 5813.37 1.07049 1.15665 0
M  V30 61811 C 5814.61 0.802802 1.86887 0
M  V30 61812 C 5814.97 -0.663833 1.80585 0
M  V30 61813 O 5814.26 -1.48072 1.21595 0
M  V30 61814 C 5814.46 1.24139 3.35148 0
M  V30 61815 C 5814.28 2.74912 3.55884 0
M  V30 61816 C 5813.05 3.4248 3.71532 0
M  V30 61817 C 5815.25 3.73114 3.53963 0
M  V30 61818 N 5813.23 4.81925 3.80291 0
M  V30 61819 C 5814.61 4.98384 3.688 0
M  V30 61820 C 5816.66 3.66316 3.3722 0
M  V30 61821 C 5815.36 6.17664 3.68623 0
M  V30 61822 C 5817.39 4.85057 3.3834 0
M  V30 61823 C 5816.75 6.09158 3.53703 0
M  V30 61824 H 5812.85 0.346278 0.701153 0
M  V30 61825 H 5815.43 1.36614 1.38725 0
M  V30 61826 H 5813.61 0.705787 3.81934 0
M  V30 61827 H 5815.34 0.921568 3.94068 0
M  V30 61828 H 5812.09 2.92884 3.72177 0
M  V30 61829 H 5812.52 5.54489 3.88422 0
M  V30 61830 H 5817.16 2.71317 3.24264 0
M  V30 61831 H 5814.88 7.12989 3.80359 0
M  V30 61832 H 5818.46 4.81469 3.26617 0
M  V30 61833 H 5817.34 6.995 3.54499 0
M  V30 61834 N 5814.85 -1.32446 0.854156 0
M  V30 61835 C 5816.08 -2.01169 0.470575 0
M  V30 61836 C 5816.48 -1.64359 -0.93716 0
M  V30 61837 O 5815.83 -0.860622 -1.62293 0
M  V30 61838 C 5815.89 -3.55581 0.529366 0
M  V30 61839 C 5815.55 -4.15818 1.89591 0
M  V30 61840 C 5816.55 -4.34081 2.86129 0
M  V30 61841 C 5814.23 -4.51903 2.19292 0
M  V30 61842 C 5816.23 -4.87597 4.10521 0
M  V30 61843 C 5813.92 -5.05125 3.43937 0
M  V30 61844 C 5814.91 -5.2292 4.39367 0
M  V30 61845 O 5814.6 -5.75004 5.61805 0
M  V30 61846 H 5814.33 -0.650638 0.183428 0
M  V30 61847 H 5816.89 -1.70011 1.15263 0
M  V30 61848 H 5815.12 -3.86132 -0.209535 0
M  V30 61849 H 5816.81 -4.05579 0.161457 0
M  V30 61850 H 5817.57 -4.06536 2.64487 0
M  V30 61851 H 5813.45 -4.37338 1.45797 0
M  V30 61852 H 5817 -5.01403 4.85017 0
M  V30 61853 H 5812.89 -5.32102 3.65429 0
M  V30 61854 H 5813.66 -5.93398 5.63756 0
M  V30 61855 N 5816.32 -0.612045 -1.4523 0
M  V30 61856 C 5817.55 -0.115315 -2.06278 0
M  V30 61857 C 5817.96 1.20747 -1.4566 0
M  V30 61858 O 5817.3 1.74738 -0.566758 0
M  V30 61859 C 5817.37 0.0940186 -3.59377 0
M  V30 61860 C 5817.03 -1.14765 -4.42355 0
M  V30 61861 C 5818.03 -2.06686 -4.7705 0
M  V30 61862 C 5815.71 -1.37773 -4.83036 0
M  V30 61863 C 5817.71 -3.19939 -5.51288 0
M  V30 61864 C 5815.39 -2.51326 -5.57027 0
M  V30 61865 C 5816.39 -3.42237 -5.9107 0
M  V30 61866 O 5816.08 -4.53813 -6.63558 0
M  V30 61867 H 5815.81 -0.0680553 -0.672566 0
M  V30 61868 H 5818.37 -0.840998 -1.87394 0
M  V30 61869 H 5816.6 0.874643 -3.76679 0
M  V30 61870 H 5818.28 0.542906 -4.02253 0
M  V30 61871 H 5819.05 -1.90138 -4.46176 0
M  V30 61872 H 5814.93 -0.679083 -4.55971 0
M  V30 61873 H 5818.47 -3.90921 -5.77777 0
M  V30 61874 H 5814.37 -2.67825 -5.87316 0
M  V30 61875 H 5815.14 -4.52551 -6.82011 0
M  V30 61876 N 5817.8 1.53631 -0.351463 0
M  V30 61877 C 5819.03 2.05931 0.246428 0
M  V30 61878 C 5819.45 1.22424 1.42807 0
M  V30 61879 O 5818.81 0.239874 1.79706 0
M  V30 61880 C 5818.86 3.55023 0.631737 0
M  V30 61881 O 5817.96 3.74323 1.73078 0
M  V30 61882 H 5817.3 0.662841 0.0392191 0
M  V30 61883 H 5819.83 1.98194 -0.507974 0
M  V30 61884 H 5819.84 3.97798 0.906691 0
M  V30 61885 H 5818.52 4.1525 -0.23237 0
M  V30 61886 H 5817.09 3.43449 1.45248 0
M  V30 61887 N 5819.28 0.0802736 1.57395 0
M  V30 61888 C 5820.53 -0.585734 1.93426 0
M  V30 61889 C 5820.85 -1.69635 0.961721 0
M  V30 61890 O 5820.12 -1.95897 0.0112708 0
M  V30 61891 H 5818.7 -0.219357 0.714067 0
M  V30 61892 H 5821.36 0.140123 1.94396 0
M  V30 61893 H 5820.46 -1.00556 2.95457 0
M  V30 61894 N 5820.76 -1.5641 -0.193339 0
M  V30 61895 C 5821.7 -1.94685 -1.23961 0
M  V30 61896 C 5822.67 -0.807685 -1.4514 0
M  V30 61897 O 5823.86 -1.06599 -1.58245 0
M  V30 61898 C 5821 -2.29315 -2.57893 0
M  V30 61899 C 5820.11 -3.56304 -2.44277 0
M  V30 61900 C 5819.25 -3.80248 -3.70924 0
M  V30 61901 C 5818.29 -5.00657 -3.52149 0
M  V30 61902 N 5817.42 -5.20846 -4.70812 0
M  V30 61903 H 5822.26 -2.83887 -0.906198 0
M  V30 61904 H 5819.8 -1.40487 -0.436096 0
M  V30 61905 H 5821.76 -2.4741 -3.35923 0
M  V30 61906 H 5820.39 -1.43251 -2.89273 0
M  V30 61907 H 5819.44 -3.46247 -1.57535 0
M  V30 61908 H 5820.75 -4.44491 -2.26338 0
M  V30 61909 H 5819.91 -3.98591 -4.57394 0
M  V30 61910 H 5818.65 -2.90395 -3.91819 0
M  V30 61911 H 5817.65 -4.82235 -2.64064 0
M  V30 61912 H 5818.88 -5.92021 -3.32698 0
M  V30 61913 H 5816.82 -4.3394 -4.91967 0
M  V30 61914 H 5816.74 -6.03215 -4.55705 0
M  V30 61915 H 5818.01 -5.43649 -5.58628 0
M  V30 61916 N 5822.24 0.461116 -1.50703 0
M  V30 61917 C 5823.51 1.22219 -1.52715 0
M  V30 61918 C 5823.89 2.09267 -0.277563 0
M  V30 61919 O 5823.24 2.16235 0.738566 0
M  V30 61920 C 5823.45 2.04462 -2.82836 0
M  V30 61921 C 5824.8 2.62314 -3.33881 0
M  V30 61922 O 5825.82 2.14696 -2.84225 0
M  V30 61923 O 5824.68 3.49101 -4.20465 0
M  V30 61924 H 5821.78 0.555146 -0.612978 0
M  V30 61925 H 5824.32 0.472123 -1.63 0
M  V30 61926 H 5823.09 1.4038 -3.65252 0
M  V30 61927 H 5822.72 2.86583 -2.75601 0
M  V30 61928 N 5823.71 1.40449 0.714977 0
M  V30 61929 C 5824.96 1.38965 1.47704 0
M  V30 61930 C 5825.29 -0.00791871 1.94198 0
M  V30 61931 O 5824.57 -0.976672 1.682 0
M  V30 61932 C 5824.85 2.37964 2.70268 0
M  V30 61933 C 5824.7 3.86748 2.29665 0
M  V30 61934 C 5826.02 2.34491 3.72427 0
M  V30 61935 H 5823.14 0.506089 0.535764 0
M  V30 61936 H 5825.78 1.71588 0.815938 0
M  V30 61937 H 5823.93 2.10275 3.26675 0
M  V30 61938 H 5825.61 4.25266 1.78735 0
M  V30 61939 H 5823.85 4.02552 1.6166 0
M  V30 61940 H 5824.52 4.51535 3.17522 0
M  V30 61941 H 5827 2.59019 3.25651 0
M  V30 61942 H 5825.87 3.05807 4.55821 0
M  V30 61943 H 5826.13 1.35676 4.20767 0
M  V30 61944 N 5825.19 -0.947259 1.25955 0
M  V30 61945 C 5826.44 -1.68717 1.10533 0
M  V30 61946 C 5826.75 -1.92404 -0.352147 0
M  V30 61947 O 5827.96 -2.64162 -0.626943 0
M  V30 61948 C 5826.42 -3.03779 1.92994 0
M  V30 61949 C 5826.02 -2.87861 3.43278 0
M  V30 61950 C 5827.77 -3.81502 1.86162 0
M  V30 61951 C 5825.68 -4.18358 4.18008 0
M  V30 61952 H 5824.61 -0.63276 0.410038 0
M  V30 61953 H 5827.26 -1.05394 1.50214 0
M  V30 61954 H 5825.64 -3.68047 1.46141 0
M  V30 61955 H 5826.81 -2.3248 3.97857 0
M  V30 61956 H 5825.13 -2.23586 3.51281 0
M  V30 61957 H 5827.72 -4.78171 2.39283 0
M  V30 61958 H 5828.07 -4.07921 0.831053 0
M  V30 61959 H 5828.6 -3.23997 2.30805 0
M  V30 61960 H 5825.34 -3.97126 5.21508 0
M  V30 61961 H 5824.86 -4.73477 3.68211 0
M  V30 61962 H 5826.54 -4.86854 4.26125 0
M  V30 61963 N 5826.67 -1.07661 -1.15095 0
M  V30 61964 C 5827.58 -0.711276 -2.23558 0
M  V30 61965 C 5828.6 0.278871 -1.71751 0
M  V30 61966 O 5829.77 0.124718 -2.01013 0
M  V30 61967 C 5826.84 -0.117977 -3.46499 0
M  V30 61968 C 5825.9 -1.16176 -4.13281 0
M  V30 61969 C 5825.13 -0.596681 -5.30354 0
M  V30 61970 O 5825.35 0.586275 -5.67379 0
M  V30 61971 O 5824.29 -1.34308 -5.86724 0
M  V30 61972 H 5828.11 -1.61587 -2.57144 0
M  V30 61973 H 5825.7 -0.849774 -1.22879 0
M  V30 61974 H 5827.58 0.210465 -4.20874 0
M  V30 61975 H 5826.26 0.759897 -3.14654 0
M  V30 61976 H 5825.16 -1.54261 -3.40814 0
M  V30 61977 H 5826.5 -2.01165 -4.49214 0
M  V30 61978 N 5828.15 1.31991 -0.861168 0
M  V30 61979 C 5829.06 2.32494 -0.313636 0
M  V30 61980 C 5830.07 1.64333 0.571908 0
M  V30 61981 O 5831.25 1.95822 0.470725 0
M  V30 61982 C 5828.32 3.43312 0.483482 0
M  V30 61983 C 5827.38 4.27151 -0.428975 0
M  V30 61984 C 5826.61 5.32678 0.330195 0
M  V30 61985 O 5826.83 5.48671 1.55938 0
M  V30 61986 O 5825.77 6.01115 -0.307385 0
M  V30 61987 H 5829.59 2.8123 -1.14646 0
M  V30 61988 H 5827.18 1.35731 -0.624287 0
M  V30 61989 H 5829.06 4.10881 0.935687 0
M  V30 61990 H 5827.73 2.96755 1.293 0
M  V30 61991 H 5826.64 3.62369 -0.929494 0
M  V30 61992 H 5827.97 4.77251 -1.20385 0
M  V30 61993 N 5829.63 0.619739 1.44903 0
M  V30 61994 C 5830.56 -0.130235 2.2883 0
M  V30 61995 C 5831.57 -0.81999 1.40641 0
M  V30 61996 O 5832.76 -0.683343 1.64902 0
M  V30 61997 C 5829.86 -1.20607 3.16713 0
M  V30 61998 C 5829.03 -0.601058 4.33251 0
M  V30 61999 C 5828.09 -1.56936 5.02252 0
M  V30 62000 O 5827.12 -1.09092 5.58648 0
M  V30 62001 N 5828.32 -2.90377 5.02654 0
M  V30 62002 H 5831.09 0.58997 2.93836 0
M  V30 62003 H 5828.65 0.460082 1.55225 0
M  V30 62004 H 5830.64 -1.85392 3.59739 0
M  V30 62005 H 5829.21 -1.82864 2.53534 0
M  V30 62006 H 5828.43 0.225154 3.93556 0
M  V30 62007 H 5829.72 -0.177293 5.08491 0
M  V30 62008 H 5829.11 -3.31839 4.58148 0
M  V30 62009 H 5827.67 -3.50553 5.49505 0
M  V30 62010 N 5831.1 -1.53442 0.359606 0
M  V30 62011 C 5832.35 -2.0077 -0.231493 0
M  V30 62012 C 5832.67 -1.24875 -1.4977 0
M  V30 62013 O 5831.94 -0.360352 -1.92557 0
M  V30 62014 H 5830.52 -0.741735 -0.088532 0
M  V30 62015 H 5833.19 -1.88783 0.484464 0
M  V30 62016 H 5832.28 -3.08651 -0.462681 0
M  V30 62017 N 5832.58 -0.0886195 -1.57351 0
M  V30 62018 C 5833.53 0.872647 -2.13667 0
M  V30 62019 C 5834.5 1.28415 -1.05351 0
M  V30 62020 O 5835.68 1.36704 -1.33104 0
M  V30 62021 C 5832.82 2.12876 -2.7162 0
M  V30 62022 C 5831.94 1.76838 -3.94147 0
M  V30 62023 C 5831.07 2.97188 -4.40287 0
M  V30 62024 C 5830.11 2.57245 -5.5542 0
M  V30 62025 N 5829.25 3.70408 -5.96441 0
M  V30 62026 H 5834.09 0.38554 -2.95495 0
M  V30 62027 H 5831.63 0.178637 -1.46011 0
M  V30 62028 H 5833.58 2.86431 -3.03337 0
M  V30 62029 H 5832.21 2.59098 -1.9253 0
M  V30 62030 H 5831.27 0.932791 -3.68786 0
M  V30 62031 H 5832.58 1.43464 -4.77723 0
M  V30 62032 H 5831.73 3.79002 -4.73754 0
M  V30 62033 H 5830.47 3.33767 -3.55599 0
M  V30 62034 H 5829.48 1.73856 -5.21588 0
M  V30 62035 H 5830.7 2.21817 -6.41852 0
M  V30 62036 H 5828.65 4.06718 -5.147 0
M  V30 62037 H 5828.56 3.40858 -6.74798 0
M  V30 62038 H 5829.83 4.52752 -6.34536 0
M  V30 62039 N 5834.06 1.5651 0.185041 0
M  V30 62040 C 5835.48 1.5032 0.536281 0
M  V30 62041 C 5835.68 0.790452 1.85349 0
M  V30 62042 O 5834.73 0.345127 2.5013 0
M  V30 62043 C 5836.05 2.95019 0.581722 0
M  V30 62044 C 5837.59 3.05748 0.669867 0
M  V30 62045 C 5838.07 4.51878 0.746327 0
M  V30 62046 N 5839.56 4.5607 0.809586 0
M  V30 62047 C 5840.29 5.66465 0.889087 0
M  V30 62048 N 5839.79 6.86526 0.930268 0
M  V30 62049 N 5841.58 5.54403 0.927051 0
M  V30 62050 H 5833.73 2.0126 -0.678849 0
M  V30 62051 H 5836 0.916304 -0.243086 0
M  V30 62052 H 5835.7 3.50267 -0.317212 0
M  V30 62053 H 5835.58 3.48921 1.43297 0
M  V30 62054 H 5837.96 2.50544 1.55923 0
M  V30 62055 H 5838.05 2.54955 -0.207779 0
M  V30 62056 H 5837.69 5.07711 -0.138724 0
M  V30 62057 H 5837.62 5.00414 1.63992 0
M  V30 62058 H 5840.11 3.69623 0.7866 0
M  V30 62059 H 5840.42 7.6641 0.991722 0
M  V30 62060 H 5838.77 6.89164 0.898775 0
M  V30 62061 H 5841.96 4.59527 0.891785 0
M  V30 62062 H 5842.13 6.40462 0.985548 0
M  V30 62063 N 5835.54 -0.453117 1.50946 0
M  V30 62064 C 5836.49 -1.56947 1.71669 0
M  V30 62065 C 5837.48 -1.59062 0.582729 0
M  V30 62066 O 5838.69 -1.62995 0.763708 0
M  V30 62067 H 5835.06 -0.521128 0.542153 0
M  V30 62068 H 5837.03 -1.36636 2.65279 0
M  V30 62069 C 5835.78 -2.94744 1.84449 0
M  V30 62070 H 5835.1 -2.93842 2.71103 0
M  V30 62071 H 5836.54 -3.72264 2.02967 0
M  V30 62072 C 5835 -3.31507 0.600397 0
M  V30 62073 O 5835.53 -4.00907 -0.252225 0
M  V30 62074 N 5833.74 -2.87109 0.449115 0
M  V30 62075 H 5833.29 -2.30804 1.144 0
M  V30 62076 H 5833.24 -3.1207 -0.382089 0
M  V30 62077 N 5837.02 -1.40826 -0.707518 0
M  V30 62078 C 5838.26 -1.3954 -1.46748 0
M  V30 62079 C 5838.59 -0.000438887 -1.945 0
M  V30 62080 O 5837.85 0.985568 -1.69071 0
M  V30 62081 C 5838.15 -2.33838 -2.70286 0
M  V30 62082 C 5837.81 -3.80929 -2.41255 0
M  V30 62083 C 5836.47 -4.21001 -2.33048 0
M  V30 62084 C 5838.83 -4.73846 -2.1707 0
M  V30 62085 C 5836.15 -5.52016 -1.98735 0
M  V30 62086 C 5838.51 -6.05168 -1.84267 0
M  V30 62087 C 5837.17 -6.44274 -1.74548 0
M  V30 62088 H 5836.44 -0.510612 -0.536988 0
M  V30 62089 H 5839.09 -1.73539 -0.809728 0
M  V30 62090 H 5837.39 -1.93052 -3.40937 0
M  V30 62091 H 5839.09 -2.30123 -3.28397 0
M  V30 62092 H 5835.68 -3.49184 -2.48533 0
M  V30 62093 H 5839.86 -4.43699 -2.22362 0
M  V30 62094 H 5835.12 -5.81209 -1.89754 0
M  V30 62095 H 5839.29 -6.76676 -1.64569 0
M  V30 62096 H 5836.92 -7.45708 -1.47727 0
M  V30 62097 N 5838.5 0.940566 -1.26456 0
M  V30 62098 C 5839.72 1.7265 -1.1492 0
M  V30 62099 C 5840.15 1.85824 0.291723 0
M  V30 62100 O 5839.5 1.34892 1.21135 0
M  V30 62101 C 5839.55 3.11077 -1.82383 0
M  V30 62102 O 5838.66 3.97096 -1.11304 0
M  V30 62103 H 5838 0.52969 -0.400406 0
M  V30 62104 H 5840.53 1.17797 -1.67287 0
M  V30 62105 H 5840.54 3.61463 -1.89231 0
M  V30 62106 H 5839.21 3.00805 -2.8721 0
M  V30 62107 H 5837.79 3.55546 -1.12435 0
M  V30 62108 N 5839.97 1.0827 1.14523 0
M  V30 62109 C 5840.92 0.711409 2.19562 0
M  V30 62110 C 5841.89 -0.301717 1.63337 0
M  V30 62111 O 5843.08 -0.186042 1.89891 0
M  V30 62112 C 5840.22 0.125376 3.44872 0
M  V30 62113 C 5839.33 1.19111 4.15255 0
M  V30 62114 C 5838.46 0.569087 5.28143 0
M  V30 62115 C 5837.5 1.61696 5.90357 0
M  V30 62116 N 5836.64 1.01683 6.94698 0
M  V30 62117 H 5841.48 1.61146 2.50671 0
M  V30 62118 H 5839.02 0.805329 1.23097 0
M  V30 62119 H 5840.97 -0.232101 4.16554 0
M  V30 62120 H 5839.6 -0.737991 3.14251 0
M  V30 62121 H 5838.66 1.66603 3.41976 0
M  V30 62122 H 5839.97 1.98524 4.57591 0
M  V30 62123 H 5839.12 0.159776 6.0649 0
M  V30 62124 H 5837.86 -0.256712 4.87024 0
M  V30 62125 H 5836.87 2.03594 5.10715 0
M  V30 62126 H 5838.09 2.44521 6.33551 0
M  V30 62127 H 5836.04 0.212102 6.55657 0
M  V30 62128 H 5835.95 1.74807 7.35512 0
M  V30 62129 H 5837.22 0.633333 7.76923 0
M  V30 62130 N 5841.45 -1.31533 0.868156 0
M  V30 62131 C 5842.41 -2.26848 0.327535 0
M  V30 62132 C 5843.41 -1.52144 -0.520461 0
M  V30 62133 O 5844.6 -1.71045 -0.330028 0
M  V30 62134 C 5841.74 -3.36675 -0.535055 0
M  V30 62135 H 5842.93 -2.7618 1.16896 0
M  V30 62136 H 5840.48 -1.42434 0.643595 0
M  V30 62137 H 5841.22 -2.92632 -1.39775 0
M  V30 62138 H 5841 -3.92034 0.0721213 0
M  V30 62139 H 5842.49 -4.07661 -0.905642 0
M  V30 62140 N 5842.93 -0.627415 -1.44573 0
M  V30 62141 C 5843.86 0.128976 -2.27835 0
M  V30 62142 C 5844.84 0.854804 -1.38318 0
M  V30 62143 O 5846.02 0.85965 -1.67757 0
M  V30 62144 C 5843.15 1.18855 -3.17161 0
M  V30 62145 C 5842.2 0.563668 -4.22759 0
M  V30 62146 S 5843.03 -0.643456 -5.3162 0
M  V30 62147 C 5844.19 0.416223 -6.24515 0
M  V30 62148 H 5844.42 -0.577383 -2.91639 0
M  V30 62149 H 5841.95 -0.415479 -1.48705 0
M  V30 62150 H 5843.91 1.79495 -3.69177 0
M  V30 62151 H 5842.57 1.86709 -2.52584 0
M  V30 62152 H 5841.76 1.36156 -4.8526 0
M  V30 62153 H 5841.37 0.031973 -3.73986 0
M  V30 62154 H 5843.66 1.28982 -6.65109 0
M  V30 62155 H 5844.6 -0.17312 -7.07888 0
M  V30 62156 H 5845.01 0.740454 -5.59623 0
M  V30 62157 N 5844.41 1.5325 -0.367738 0
M  V30 62158 C 5845.63 2.06181 0.224573 0
M  V30 62159 C 5846.06 1.23932 1.41501 0
M  V30 62160 O 5845.42 0.258921 1.79442 0
M  V30 62161 C 5845.46 3.55673 0.594046 0
M  V30 62162 O 5844.57 3.76138 1.69099 0
M  V30 62163 H 5843.91 0.663219 0.0321865 0
M  V30 62164 H 5846.44 1.97644 -0.528966 0
M  V30 62165 H 5846.45 3.98737 0.864448 0
M  V30 62166 H 5845.12 4.14981 -0.2764 0
M  V30 62167 H 5843.7 3.4497 1.41597 0
M  V30 62168 N 5845.89 0.096963 1.57301 0
M  V30 62169 C 5847.13 -0.567144 1.94708 0
M  V30 62170 C 5847.46 -1.67718 0.978996 0
M  V30 62171 O 5846.74 -1.94496 0.01237 0
M  V30 62172 C 5847.02 -1.12057 3.42221 0
M  V30 62173 C 5846.88 -0.0154569 4.49797 0
M  V30 62174 C 5848.19 -2.01837 3.91088 0
M  V30 62175 H 5845.31 -0.204691 0.708005 0
M  V30 62176 H 5847.96 0.168051 1.89255 0
M  V30 62177 H 5846.11 -1.74711 3.46999 0
M  V30 62178 H 5847.78 0.61887 4.5713 0
M  V30 62179 H 5846.02 0.65068 4.28892 0
M  V30 62180 H 5846.69 -0.44353 5.50215 0
M  V30 62181 H 5849.17 -1.49085 3.88475 0
M  V30 62182 H 5848.04 -2.37485 4.94866 0
M  V30 62183 H 5848.3 -2.93647 3.3049 0
M  V30 62184 N 5847.36 -1.56606 -0.176738 0
M  V30 62185 C 5848.33 -1.95113 -1.20265 0
M  V30 62186 C 5849.33 -0.834189 -1.3747 0
M  V30 62187 O 5850.52 -1.10133 -1.34968 0
M  V30 62188 C 5847.65 -2.24121 -2.56871 0
M  V30 62189 H 5848.84 -2.86912 -0.873019 0
M  V30 62190 H 5846.39 -1.5058 -0.41898 0
M  V30 62191 H 5847.13 -1.35019 -2.94856 0
M  V30 62192 H 5846.91 -3.05531 -2.4575 0
M  V30 62193 H 5848.4 -2.54854 -3.30816 0
M  V30 62194 N 5848.84 0.445106 -1.51184 0
M  V30 62195 C 5849.79 1.53969 -1.71936 0
M  V30 62196 C 5850.76 1.56342 -0.56092 0
M  V30 62197 O 5851.94 1.73473 -0.794475 0
M  V30 62198 C 5849.08 2.91749 -1.84327 0
M  V30 62199 C 5848.2 2.98965 -3.11839 0
M  V30 62200 C 5847.33 4.2782 -3.1487 0
M  V30 62201 C 5846.37 4.28875 -4.3673 0
M  V30 62202 N 5845.51 5.49241 -4.37354 0
M  V30 62203 H 5850.35 1.35577 -2.65373 0
M  V30 62204 H 5847.88 0.658741 -1.31526 0
M  V30 62205 H 5849.84 3.71684 -1.89492 0
M  V30 62206 H 5848.47 3.08717 -0.943055 0
M  V30 62207 H 5847.52 2.11742 -3.16021 0
M  V30 62208 H 5848.84 2.95605 -4.0177 0
M  V30 62209 H 5847.99 5.16122 -3.18909 0
M  V30 62210 H 5846.73 4.33826 -2.22815 0
M  V30 62211 H 5845.73 3.38966 -4.32876 0
M  V30 62212 H 5846.96 4.24539 -5.30041 0
M  V30 62213 H 5844.91 5.55983 -3.48165 0
M  V30 62214 H 5844.82 5.4773 -5.21084 0
M  V30 62215 H 5846.09 6.39597 -4.45574 0
M  V30 62216 N 5850.32 1.41199 0.70004 0
M  V30 62217 C 5851.25 1.38623 1.82528 0
M  V30 62218 C 5852.26 0.289104 1.60212 0
M  V30 62219 O 5853.45 0.550525 1.69798 0
M  V30 62220 C 5850.55 1.13826 3.19213 0
M  V30 62221 C 5849.73 2.35493 3.68594 0
M  V30 62222 C 5848.79 2.06621 4.83936 0
M  V30 62223 O 5847.81 2.79622 4.95783 0
M  V30 62224 N 5849.01 1.05371 5.70857 0
M  V30 62225 H 5851.78 2.35604 1.85231 0
M  V30 62226 H 5849.34 1.35754 0.88219 0
M  V30 62227 H 5851.33 0.924709 3.93994 0
M  V30 62228 H 5849.9 0.254577 3.11562 0
M  V30 62229 H 5849.12 2.72579 2.8477 0
M  V30 62230 H 5850.41 3.16567 3.98325 0
M  V30 62231 H 5849.81 0.449421 5.63912 0
M  V30 62232 H 5848.36 0.900046 6.45556 0
M  V30 62233 N 5851.8 -0.933846 1.26953 0
M  V30 62234 C 5853.04 -1.68336 1.13097 0
M  V30 62235 C 5853.38 -1.91485 -0.323603 0
M  V30 62236 O 5852.65 -1.5008 -1.23719 0
M  V30 62237 C 5852.93 -3.05367 1.90848 0
M  V30 62238 C 5852.79 -2.89498 3.44255 0
M  V30 62239 C 5854.11 -4.05601 1.70809 0
M  V30 62240 H 5851.23 -0.610929 0.412231 0
M  V30 62241 H 5853.87 -1.0841 1.56036 0
M  V30 62242 H 5852.02 -3.5652 1.54355 0
M  V30 62243 H 5853.69 -2.45509 3.90542 0
M  V30 62244 H 5851.93 -2.24968 3.70907 0
M  V30 62245 H 5852.6 -3.86721 3.93892 0
M  V30 62246 H 5855.08 -3.63436 2.02617 0
M  V30 62247 H 5853.96 -4.99482 2.27615 0
M  V30 62248 H 5854.22 -4.37229 0.654481 0
M  V30 62249 N 5853.28 -1.08875 -1.13947 0
M  V30 62250 C 5854.52 -0.821352 -1.85095 0
M  V30 62251 C 5854.85 0.652955 -1.83212 0
M  V30 62252 O 5854.11 1.49624 -1.26139 0
M  V30 62253 C 5854.41 -1.29455 -3.33131 0
M  V30 62254 C 5854.07 -2.7775 -3.55198 0
M  V30 62255 C 5852.73 -3.1825 -3.60929 0
M  V30 62256 C 5855.09 -3.73392 -3.63631 0
M  V30 62257 C 5852.41 -4.53178 -3.72621 0
M  V30 62258 C 5854.77 -5.08102 -3.76849 0
M  V30 62259 C 5853.43 -5.48201 -3.80831 0
M  V30 62260 H 5852.7 -0.300554 -0.67731 0
M  V30 62261 H 5855.35 -1.36254 -1.34563 0
M  V30 62262 H 5853.65 -0.673055 -3.85976 0
M  V30 62263 H 5855.35 -1.06434 -3.86617 0
M  V30 62264 H 5851.94 -2.45405 -3.51389 0
M  V30 62265 H 5856.12 -3.43219 -3.58489 0
M  V30 62266 H 5851.38 -4.83692 -3.73968 0
M  V30 62267 H 5855.55 -5.82071 -3.82316 0
M  V30 62268 H 5853.18 -6.5275 -3.89642 0
M  V30 62269 N 5854.75 1.3107 -0.875119 0
M  V30 62270 C 5855.7 2.30334 -0.323881 0
M  V30 62271 C 5856.7 1.59742 0.563812 0
M  V30 62272 O 5857.9 1.74301 0.449341 0
M  V30 62273 H 5854.28 0.747059 -0.0860638 0
M  V30 62274 H 5856.25 2.74296 -1.17492 0
M  V30 62275 C 5855 3.44707 0.455227 0
M  V30 62276 H 5854.32 3.99202 -0.218573 0
M  V30 62277 H 5855.76 4.16265 0.806183 0
M  V30 62278 C 5854.22 2.93813 1.6485 0
M  V30 62279 O 5854.75 2.93014 2.74783 0
M  V30 62280 N 5852.96 2.49949 1.48235 0
M  V30 62281 H 5852.5 2.50799 0.588028 0
M  V30 62282 H 5852.46 2.16254 2.28214 0
M  V30 62283 N 5856.23 0.635073 1.44238 0
M  V30 62284 C 5857.46 0.146622 2.06881 0
M  V30 62285 C 5857.88 -1.17138 1.47174 0
M  V30 62286 O 5857.24 -1.7195 0.574697 0
M  V30 62287 C 5857.29 0.0495962 3.60566 0
M  V30 62288 O 5856.39 -0.993282 4.00259 0
M  V30 62289 H 5855.73 0.0865736 0.658332 0
M  V30 62290 H 5858.26 0.872868 1.85046 0
M  V30 62291 H 5858.27 -0.139695 4.07761 0
M  V30 62292 H 5856.95 1.01183 4.03404 0
M  V30 62293 H 5855.53 -0.778243 3.64689 0
M  V30 62294 N 5857.71 -1.53052 0.37586 0
M  V30 62295 C 5858.64 -2.28975 -0.457459 0
M  V30 62296 C 5859.62 -1.31816 -1.07511 0
M  V30 62297 O 5860.81 -1.60697 -1.09042 0
M  V30 62298 C 5857.94 -3.08662 -1.59201 0
M  V30 62299 C 5856.89 -4.13594 -1.10109 0
M  V30 62300 C 5856.22 -4.81425 -2.32667 0
M  V30 62301 C 5857.52 -5.21995 -0.178537 0
M  V30 62302 H 5859.21 -2.98882 0.175977 0
M  V30 62303 H 5856.76 -1.43743 0.0860759 0
M  V30 62304 H 5858.71 -3.60528 -2.18169 0
M  V30 62305 H 5857.43 -2.36464 -2.25283 0
M  V30 62306 H 5856.09 -3.6269 -0.534024 0
M  V30 62307 H 5855.74 -4.05788 -2.97229 0
M  V30 62308 H 5855.44 -5.52339 -2.00487 0
M  V30 62309 H 5856.96 -5.36089 -2.92303 0
M  V30 62310 H 5858.38 -5.69301 -0.676004 0
M  V30 62311 H 5856.78 -6.00077 0.0528714 0
M  V30 62312 H 5857.85 -4.78644 0.776414 0
M  V30 62313 N 5859.19 -0.105304 -1.57248 0
M  V30 62314 C 5860.42 0.564087 -1.99062 0
M  V30 62315 C 5860.83 1.61088 -0.984681 0
M  V30 62316 O 5860.19 1.82484 0.0243389 0
M  V30 62317 C 5860.24 1.2026 -3.4091 0
M  V30 62318 O 5859.96 0.197661 -4.37654 0
M  V30 62319 C 5861.46 1.95663 -3.97783 0
M  V30 62320 H 5858.68 0.150445 -0.653917 0
M  V30 62321 H 5861.23 -0.187604 -2.03638 0
M  V30 62322 H 5859.38 1.90516 -3.37317 0
M  V30 62323 H 5859.79 0.659815 -5.20333 0
M  V30 62324 H 5861.27 2.35684 -4.99156 0
M  V30 62325 H 5861.75 2.82649 -3.36164 0
M  V30 62326 H 5862.35 1.302 -4.0488 0
M  V30 62327 N 5860.67 1.56697 0.168431 0
M  V30 62328 C 5861.58 1.9987 1.22838 0
M  V30 62329 C 5862.59 0.910543 1.48274 0
M  V30 62330 O 5863.77 1.2184 1.60365 0
M  V30 62331 C 5860.83 2.35236 2.54686 0
M  V30 62332 C 5859.89 3.57894 2.37087 0
M  V30 62333 C 5859.13 3.91564 3.62648 0
M  V30 62334 O 5859.35 3.26165 4.67945 0
M  V30 62335 O 5858.28 4.84902 3.56586 0
M  V30 62336 H 5862.11 2.90308 0.891913 0
M  V30 62337 H 5859.7 1.44604 0.37552 0
M  V30 62338 H 5861.58 2.58939 3.32458 0
M  V30 62339 H 5860.25 1.4796 2.87906 0
M  V30 62340 H 5859.16 3.39405 1.57336 0
M  V30 62341 H 5860.49 4.45721 2.08791 0
M  V30 62342 N 5862.14 -0.437082 1.51418 0
M  V30 62343 C 5863.37 -1.20717 1.67663 0
M  V30 62344 C 5863.78 -1.85474 0.373612 0
M  V30 62345 O 5863.13 -1.71518 -0.657816 0
M  V30 62346 C 5863.19 -2.33247 2.73561 0
M  V30 62347 C 5862.85 -1.88855 4.16152 0
M  V30 62348 C 5863.85 -1.39185 5.00923 0
M  V30 62349 C 5861.53 -1.96539 4.62253 0
M  V30 62350 C 5863.53 -0.97785 6.29855 0
M  V30 62351 C 5861.21 -1.54751 5.91181 0
M  V30 62352 C 5862.21 -1.05455 6.7481 0
M  V30 62353 O 5861.9 -0.642598 8.01328 0
M  V30 62354 H 5861.63 -0.36991 0.565811 0
M  V30 62355 H 5864.19 -0.524113 1.98601 0
M  V30 62356 H 5862.42 -3.04831 2.37939 0
M  V30 62357 H 5864.11 -2.95111 2.78683 0
M  V30 62358 H 5864.87 -1.32643 4.66509 0
M  V30 62359 H 5860.75 -2.33854 3.97282 0
M  V30 62360 H 5864.29 -0.592389 6.9508 0
M  V30 62361 H 5860.19 -1.60963 6.25109 0
M  V30 62362 H 5860.96 -0.768424 8.14885 0
M  V30 62363 N 5863.62 -1.41568 -0.692542 0
M  V30 62364 C 5864.87 -1.40386 -1.44826 0
M  V30 62365 C 5865.18 -0.0172755 -1.95592 0
M  V30 62366 O 5866.39 0.117164 -2.71247 0
M  V30 62367 C 5864.85 -2.46853 -2.619 0
M  V30 62368 C 5864.45 -3.91434 -2.17907 0
M  V30 62369 C 5866.2 -2.54812 -3.39516 0
M  V30 62370 C 5864.11 -4.89447 -3.31957 0
M  V30 62371 H 5863.04 -0.522082 -0.54401 0
M  V30 62372 H 5865.69 -1.67405 -0.75153 0
M  V30 62373 H 5864.07 -2.12971 -3.33855 0
M  V30 62374 H 5865.24 -4.3458 -1.53221 0
M  V30 62375 H 5863.56 -3.87163 -1.53277 0
M  V30 62376 H 5866.15 -3.25222 -4.24423 0
M  V30 62377 H 5866.5 -1.58593 -3.84908 0
M  V30 62378 H 5867.03 -2.87801 -2.74619 0
M  V30 62379 H 5863.77 -5.87082 -2.91574 0
M  V30 62380 H 5863.29 -4.50947 -3.95483 0
M  V30 62381 H 5864.97 -5.10345 -3.9769 0
M  V30 62382 N 5865.1 0.927101 -1.27446 0
M  V30 62383 C 5866.03 2.03205 -1.0602 0
M  V30 62384 C 5867.05 1.62792 -0.0160982 0
M  V30 62385 O 5868.23 1.7663 -0.257722 0
M  V30 62386 C 5865.33 3.33789 -0.586343 0
M  V30 62387 C 5864.51 4.02891 -1.70287 0
M  V30 62388 C 5863.57 5.11751 -1.22465 0
M  V30 62389 O 5862.59 5.35682 -1.92442 0
M  V30 62390 N 5863.79 5.80444 -0.0806202 0
M  V30 62391 H 5866.56 2.22148 -2.01172 0
M  V30 62392 H 5864.12 1.09753 -1.19021 0
M  V30 62393 H 5866.11 4.03925 -0.250303 0
M  V30 62394 H 5864.68 3.11415 0.271966 0
M  V30 62395 H 5863.9 3.26481 -2.20916 0
M  V30 62396 H 5865.19 4.45808 -2.4522 0
M  V30 62397 H 5864.59 5.63455 0.503437 0
M  V30 62398 H 5863.15 6.51505 0.196237 0
M  V30 62399 N 5866.58 1.09478 1.13368 0
M  V30 62400 C 5867.83 0.829515 1.84292 0
M  V30 62401 C 5868.15 -0.646723 1.83963 0
M  V30 62402 O 5867.42 -1.46924 1.29577 0
M  V30 62403 H 5866 0.303877 0.682398 0
M  V30 62404 H 5868.66 1.38303 1.37325 0
M  V30 62405 H 5867.76 1.18352 2.88789 0
M  V30 62406 N 5868.06 -1.30604 0.882058 0
M  V30 62407 C 5869.47 -1.78416 0.549954 0
M  V30 62408 C 5869.82 -1.72557 -0.933736 0
M  V30 62409 O 5868.94 -1.30064 -1.72952 0
M  V30 62410 C 5869.54 -3.23967 0.991512 0
M  V30 62411 C 5868.1 -3.69626 0.710869 0
M  V30 62412 C 5867.25 -2.51123 1.17611 0
M  V30 62413 H 5870.2 -1.17515 1.06658 0
M  V30 62414 H 5870.22 -3.79158 0.319249 0
M  V30 62415 H 5869.73 -3.282 2.07139 0
M  V30 62416 H 5867.83 -3.70884 -0.357143 0
M  V30 62417 H 5867.94 -4.61228 1.29638 0
M  V30 62418 H 5866.31 -2.4764 0.595531 0
M  V30 62419 H 5867.09 -2.58095 2.26367 0
M  V30 62420 N 5869.54 -0.642713 -1.43899 0
M  V30 62421 C 5870.78 -0.155312 -2.03809 0
M  V30 62422 C 5871.14 1.20421 -1.49542 0
M  V30 62423 O 5872.34 1.7844 -2.01029 0
M  V30 62424 C 5870.61 -0.15384 -3.57069 0
M  V30 62425 S 5872.17 0.26725 -4.37985 0
M  V30 62426 H 5868.99 -0.0667763 -0.707857 0
M  V30 62427 H 5871.59 -0.848698 -1.76117 0
M  V30 62428 H 5870.29 -1.14622 -3.94069 0
M  V30 62429 H 5869.83 0.560423 -3.89388 0
M  V30 62430 H 5871.84 1.5087 -4.72708 0
M  V30 62431 N 5871.01 1.52851 -0.383971 0
M  V30 62432 C 5872.24 2.0593 0.200144 0
M  V30 62433 C 5872.66 1.25611 1.40952 0
M  V30 62434 O 5872.01 0.301399 1.79994 0
M  V30 62435 C 5872.06 3.56889 0.575529 0
M  V30 62436 O 5871.79 4.34166 -0.585793 0
M  V30 62437 C 5873.29 4.26294 1.21608 0
M  V30 62438 H 5870.51 0.670263 0.0314491 0
M  V30 62439 H 5873.05 1.9703 -0.547661 0
M  V30 62440 H 5871.21 3.65879 1.27324 0
M  V30 62441 H 5871.62 5.2376 -0.278451 0
M  V30 62442 H 5873.09 5.33179 1.42914 0
M  V30 62443 H 5873.57 3.81171 2.18186 0
M  V30 62444 H 5874.18 4.21607 0.559287 0
M  V30 62445 N 5872.49 0.113641 1.5719 0
M  V30 62446 C 5873.74 -0.544574 1.94625 0
M  V30 62447 C 5874.06 -1.67557 0.997487 0
M  V30 62448 O 5873.33 -1.95829 0.0528209 0
M  V30 62449 H 5871.91 -0.204161 0.718559 0
M  V30 62450 H 5874.57 0.181326 1.94055 0
M  V30 62451 H 5873.67 -0.942661 2.97524 0
M  V30 62452 N 5873.97 -1.56785 -0.160118 0
M  V30 62453 C 5874.92 -1.98203 -1.2173 0
M  V30 62454 C 5875.91 -0.872432 -1.45207 0
M  V30 62455 O 5877.12 -1.05758 -1.45654 0
M  V30 62456 H 5873.49 -0.630756 -0.409452 0
M  V30 62457 H 5875.46 -2.86298 -0.841189 0
M  V30 62458 C 5874.21 -2.36757 -2.5464 0
M  V30 62459 H 5873.54 -3.21684 -2.37401 0
M  V30 62460 H 5874.98 -2.69572 -3.27272 0
M  V30 62461 C 5873.43 -1.21521 -3.1422 0
M  V30 62462 O 5873.96 -0.50888 -3.98464 0
M  V30 62463 N 5872.17 -0.982862 -2.73474 0
M  V30 62464 H 5871.72 -1.55901 -2.05068 0
M  V30 62465 H 5871.68 -0.213699 -3.13673 0
M  V30 62466 N 5875.45 0.429046 -1.51647 0
M  V30 62467 C 5876.38 1.5399 -1.69763 0
M  V30 62468 C 5877.39 1.52187 -0.578191 0
M  V30 62469 O 5878.58 1.56813 -0.852764 0
M  V30 62470 C 5875.68 2.92904 -1.7047 0
M  V30 62471 C 5874.85 3.19121 -2.99133 0
M  V30 62472 C 5873.91 4.37803 -2.91917 0
M  V30 62473 O 5872.94 4.36052 -3.65852 0
M  V30 62474 N 5874.14 5.41827 -2.08336 0
M  V30 62475 H 5876.91 1.38852 -2.65594 0
M  V30 62476 H 5874.47 0.618096 -1.49637 0
M  V30 62477 H 5876.46 3.70335 -1.632 0
M  V30 62478 H 5875.03 3.01599 -0.821983 0
M  V30 62479 H 5874.25 2.29915 -3.20207 0
M  V30 62480 H 5875.54 3.33469 -3.84286 0
M  V30 62481 H 5874.94 5.46089 -1.47659 0
M  V30 62482 H 5873.49 6.18077 -2.06939 0
M  V30 62483 N 5876.93 1.41934 0.685024 0
M  V30 62484 C 5877.86 1.40551 1.81047 0
M  V30 62485 C 5878.87 0.30608 1.59897 0
M  V30 62486 O 5880.06 0.568504 1.69205 0
M  V30 62487 C 5877.16 1.17206 3.17987 0
M  V30 62488 C 5876.33 2.39389 3.66076 0
M  V30 62489 C 5875.39 2.11742 4.81717 0
M  V30 62490 O 5874.42 2.84865 4.92789 0
M  V30 62491 N 5875.62 1.11419 5.69707 0
M  V30 62492 H 5878.38 2.37556 1.82722 0
M  V30 62493 H 5875.95 1.36682 0.867742 0
M  V30 62494 H 5877.94 0.966445 3.92991 0
M  V30 62495 H 5876.51 0.287608 3.11274 0
M  V30 62496 H 5875.73 2.75584 2.81863 0
M  V30 62497 H 5877.02 3.20774 3.94945 0
M  V30 62498 H 5876.41 0.509206 5.63404 0
M  V30 62499 H 5874.97 0.968466 6.44565 0
M  V30 62500 N 5878.4 -0.920329 1.27936 0
M  V30 62501 C 5879.63 -1.708 1.17653 0
M  V30 62502 C 5880.05 -1.86265 -0.262123 0
M  V30 62503 O 5879.41 -1.36802 -1.18974 0
M  V30 62504 C 5879.46 -3.08136 1.87309 0
M  V30 62505 O 5878.56 -3.95275 1.17607 0
M  V30 62506 H 5877.9 -0.523253 0.408782 0
M  V30 62507 H 5880.43 -1.15121 1.6914 0
M  V30 62508 H 5880.44 -3.58407 1.94958 0
M  V30 62509 H 5879.12 -2.96197 2.91959 0
M  V30 62510 H 5877.7 -3.53712 1.18077 0
M  V30 62511 N 5879.88 -1.10078 -1.12786 0
M  V30 62512 C 5880.81 -0.768223 -2.20501 0
M  V30 62513 C 5881.79 0.25714 -1.68145 0
M  V30 62514 O 5882.98 0.123722 -1.93805 0
M  V30 62515 C 5880.11 -0.195247 -3.46751 0
M  V30 62516 C 5879.06 -1.15088 -4.12236 0
M  V30 62517 C 5878.39 -0.439285 -5.32892 0
M  V30 62518 C 5879.69 -2.49601 -4.58799 0
M  V30 62519 H 5881.38 -1.66885 -2.48576 0
M  V30 62520 H 5878.93 -0.803848 -1.19475 0
M  V30 62521 H 5880.88 0.0495213 -4.21371 0
M  V30 62522 H 5879.6 0.740605 -3.18092 0
M  V30 62523 H 5878.26 -1.38104 -3.39592 0
M  V30 62524 H 5877.91 0.50092 -5.005 0
M  V30 62525 H 5877.61 -1.07653 -5.77654 0
M  V30 62526 H 5879.14 -0.202976 -6.10263 0
M  V30 62527 H 5880.55 -2.30754 -5.2481 0
M  V30 62528 H 5878.95 -3.09175 -5.14325 0
M  V30 62529 H 5880.02 -3.0987 -3.72973 0
M  V30 62530 N 5881.36 1.30135 -0.888972 0
M  V30 62531 C 5882.32 2.26298 -0.363583 0
M  V30 62532 C 5883.32 1.52953 0.49619 0
M  V30 62533 O 5884.51 1.71549 0.302774 0
M  V30 62534 C 5881.64 3.37483 0.481425 0
M  V30 62535 H 5882.84 2.74285 -1.21275 0
M  V30 62536 H 5880.39 1.41392 -0.666174 0
M  V30 62537 H 5881.13 2.94819 1.35101 0
M  V30 62538 H 5880.91 3.91869 -0.134481 0
M  V30 62539 H 5882.4 4.09051 0.840672 0
M  V30 62540 N 5882.84 0.650335 1.43556 0
M  V30 62541 C 5883.79 -0.0652885 2.27907 0
M  V30 62542 C 5884.77 -0.797579 1.39741 0
M  V30 62543 O 5885.96 -0.680521 1.63395 0
M  V30 62544 C 5883.09 -1.033 3.2739 0
M  V30 62545 C 5882.18 -0.299332 4.23042 0
M  V30 62546 N 5882.57 0.682566 5.01173 0
M  V30 62547 C 5880.87 -0.541174 4.42705 0
M  V30 62548 C 5881.57 1.11778 5.70859 0
M  V30 62549 N 5880.55 0.452624 5.41712 0
M  V30 62550 H 5884.35 0.688214 2.85729 0
M  V30 62551 H 5881.86 0.477381 1.55225 0
M  V30 62552 H 5883.86 -1.56045 3.86595 0
M  V30 62553 H 5882.52 -1.7866 2.71129 0
M  V30 62554 H 5883.53 1.06117 5.06912 0
M  V30 62555 H 5880.21 -1.27616 3.97518 0
M  V30 62556 H 5881.6 1.93007 6.43582 0
M  V30 62557 N 5884.32 -1.52645 0.392072 0
M  V30 62558 C 5885.54 -2.06512 -0.191743 0
M  V30 62559 C 5885.97 -1.26167 -1.39511 0
M  V30 62560 O 5885.32 -0.287436 -1.79007 0
M  V30 62561 C 5885.37 -3.56573 -0.537387 0
M  V30 62562 O 5884.48 -3.7878 -1.63093 0
M  V30 62563 H 5883.82 -0.663648 -0.0216312 0
M  V30 62564 H 5886.35 -1.96777 0.560343 0
M  V30 62565 H 5886.36 -4.00062 -0.800903 0
M  V30 62566 H 5885.03 -4.14488 0.342385 0
M  V30 62567 H 5883.61 -3.47179 -1.36091 0
M  V30 62568 N 5885.79 -0.121976 -1.57127 0
M  V30 62569 C 5887.21 0.234599 -1.57866 0
M  V30 62570 C 5887.41 1.66502 -1.13488 0
M  V30 62571 O 5886.47 2.38689 -0.823628 0
M  V30 62572 C 5887.78 -0.00142355 -3.007 0
M  V30 62573 C 5889.33 0.0642437 -3.12934 0
M  V30 62574 C 5889.8 -0.144124 -4.57773 0
M  V30 62575 N 5891.29 -0.0901952 -4.63112 0
M  V30 62576 C 5892.03 -0.226282 -5.72953 0
M  V30 62577 N 5891.52 -0.418704 -6.91534 0
M  V30 62578 N 5893.32 -0.165646 -5.61856 0
M  V30 62579 H 5885.47 -1.05625 -1.84275 0
M  V30 62580 H 5887.73 -0.416162 -0.851771 0
M  V30 62581 H 5887.44 -0.990428 -3.37466 0
M  V30 62582 H 5887.31 0.729135 -3.70086 0
M  V30 62583 H 5889.7 1.04378 -2.76024 0
M  V30 62584 H 5889.78 -0.698244 -2.46086 0
M  V30 62585 H 5889.42 -1.12064 -4.95383 0
M  V30 62586 H 5889.35 0.638385 -5.22716 0
M  V30 62587 H 5891.84 0.054894 -3.7786 0
M  V30 62588 H 5892.16 -0.513328 -7.71093 0
M  V30 62589 H 5890.5 -0.454715 -6.93511 0
M  V30 62590 H 5893.69 -0.016259 -4.68097 0
M  V30 62591 H 5893.87 -0.275145 -6.47416 0
M  V30 62592 N 5887.27 1.56867 0.151801 0
M  V30 62593 C 5888.2 2.00936 1.18941 0
M  V30 62594 C 5889.18 0.888113 1.45074 0
M  V30 62595 O 5890.37 1.15558 1.56077 0
M  V30 62596 C 5887.5 2.38588 2.52374 0
M  V30 62597 C 5886.45 3.53854 2.40773 0
M  V30 62598 C 5885.78 3.77306 3.78873 0
M  V30 62599 C 5887.08 4.86676 1.89587 0
M  V30 62600 H 5888.77 2.87866 0.823006 0
M  V30 62601 H 5886.32 1.38492 0.39445 0
M  V30 62602 H 5888.27 2.68018 3.25184 0
M  V30 62603 H 5887 1.4859 2.90841 0
M  V30 62604 H 5885.65 3.24583 1.70416 0
M  V30 62605 H 5885.3 2.84565 4.14767 0
M  V30 62606 H 5885 4.54874 3.71973 0
M  V30 62607 H 5886.53 4.09155 4.53238 0
M  V30 62608 H 5887.94 5.14855 2.52186 0
M  V30 62609 H 5886.34 5.68017 1.9359 0
M  V30 62610 H 5887.41 4.77369 0.85127 0
M  V30 62611 N 5888.75 -0.420997 1.51873 0
M  V30 62612 C 5890 -1.16757 1.66551 0
M  V30 62613 C 5890.35 -1.88512 0.384846 0
M  V30 62614 O 5889.64 -1.81285 -0.620173 0
M  V30 62615 C 5889.84 -2.19809 2.81813 0
M  V30 62616 C 5889.67 -1.58171 4.20966 0
M  V30 62617 C 5888.44 -1.35955 4.86667 0
M  V30 62618 C 5890.64 -1.04903 5.03488 0
M  V30 62619 N 5888.62 -0.700856 6.09886 0
M  V30 62620 C 5889.99 -0.516567 6.17844 0
M  V30 62621 C 5892.04 -0.942352 4.88901 0
M  V30 62622 C 5890.75 0.112106 7.19213 0
M  V30 62623 C 5892.77 -0.32755 5.90492 0
M  V30 62624 C 5892.13 0.194292 7.04132 0
M  V30 62625 H 5888.23 -0.414336 0.663211 0
M  V30 62626 H 5890.82 -0.461699 1.89147 0
M  V30 62627 H 5888.99 -2.87767 2.60854 0
M  V30 62628 H 5890.72 -2.86742 2.85589 0
M  V30 62629 H 5887.48 -1.62581 4.4482 0
M  V30 62630 H 5887.9 -0.388479 6.75884 0
M  V30 62631 H 5892.54 -1.33165 4.01282 0
M  V30 62632 H 5890.26 0.513493 8.06467 0
M  V30 62633 H 5893.85 -0.24669 5.81277 0
M  V30 62634 H 5892.73 0.662533 7.81396 0
M  V30 62635 N 5890.23 -1.42295 -0.677488 0
M  V30 62636 C 5891.51 -1.33105 -1.43326 0
M  V30 62637 C 5891.89 0.0328485 -2.11074 0
M  V30 62638 O 5891.23 1.04819 -2.0304 0
M  V30 62639 C 5891.44 -2.49734 -2.43791 0
M  V30 62640 C 5892.79 -2.91727 -3.08514 0
M  V30 62641 O 5893.82 -2.49605 -2.54118 0
M  V30 62642 O 5892.67 -3.64623 -4.07078 0
M  V30 62643 H 5889.77 -0.524781 -0.639167 0
M  V30 62644 H 5892.31 -1.54297 -0.706439 0
M  V30 62645 H 5891.09 -3.40669 -1.9251 0
M  V30 62646 H 5890.71 -2.30514 -3.23958 0
M  V30 62647 N 5891.71 0.913531 -1.28423 0
M  V30 62648 C 5892.67 1.99753 -1.12389 0
M  V30 62649 C 5893.67 1.60675 -0.0634915 0
M  V30 62650 O 5894.86 1.71432 -0.30929 0
M  V30 62651 C 5891.99 3.33304 -0.715624 0
M  V30 62652 H 5893.18 2.15407 -2.08662 0
M  V30 62653 H 5890.74 1.09622 -1.11412 0
M  V30 62654 H 5891.47 3.23351 0.247864 0
M  V30 62655 H 5891.26 3.63029 -1.48163 0
M  V30 62656 H 5892.75 4.1288 -0.626098 0
M  V30 62657 N 5893.18 1.10674 1.122 0
M  V30 62658 C 5894.43 0.851955 1.84037 0
M  V30 62659 C 5894.76 -0.620923 1.84006 0
M  V30 62660 O 5894.04 -1.45796 1.28739 0
M  V30 62661 C 5894.32 1.40412 3.31597 0
M  V30 62662 C 5894.17 2.94404 3.40068 0
M  V30 62663 C 5895.49 1.04849 4.27428 0
M  V30 62664 H 5892.61 0.310948 0.668192 0
M  V30 62665 H 5895.25 1.3703 1.31616 0
M  V30 62666 H 5893.4 0.96324 3.76369 0
M  V30 62667 H 5895.08 3.47038 3.03912 0
M  V30 62668 H 5893.32 3.3088 2.80537 0
M  V30 62669 H 5893.99 3.28123 4.43891 0
M  V30 62670 H 5896.47 1.42895 3.90794 0
M  V30 62671 H 5895.34 1.46172 5.29079 0
M  V30 62672 H 5895.6 -0.0417718 4.4208 0
M  V30 62673 N 5894.66 -1.29661 0.89586 0
M  V30 62674 C 5895.91 -1.96004 0.52059 0
M  V30 62675 C 5896.24 -1.70483 -0.930009 0
M  V30 62676 O 5895.52 -1.01564 -1.65877 0
M  V30 62677 C 5895.8 -3.50894 0.809048 0
M  V30 62678 C 5895.65 -3.85888 2.31107 0
M  V30 62679 C 5896.97 -4.39124 0.292924 0
M  V30 62680 H 5894.09 -0.711924 0.190613 0
M  V30 62681 H 5896.73 -1.53345 1.12184 0
M  V30 62682 H 5894.88 -3.87361 0.29733 0
M  V30 62683 H 5896.55 -3.59387 2.89203 0
M  V30 62684 H 5894.8 -3.33568 2.77335 0
M  V30 62685 H 5895.47 -4.9398 2.46348 0
M  V30 62686 H 5897.94 -4.09628 0.73105 0
M  V30 62687 H 5896.82 -5.46393 0.523992 0
M  V30 62688 H 5897.08 -4.34686 -0.80624 0
M  V30 62689 N 5896.14 -0.657939 -1.43209 0
M  V30 62690 C 5897.39 -0.172915 -2.01359 0
M  V30 62691 C 5897.71 1.21906 -1.52197 0
M  V30 62692 O 5896.98 1.81526 -0.736556 0
M  V30 62693 H 5895.56 -0.0609352 -0.744511 0
M  V30 62694 H 5898.22 -0.850667 -1.75356 0
M  V30 62695 H 5897.32 -0.161172 -3.11684 0
M  V30 62696 N 5897.62 1.52435 -0.400162 0
M  V30 62697 C 5898.87 2.01711 0.178534 0
M  V30 62698 C 5899.19 1.28618 1.45903 0
M  V30 62699 O 5898.45 0.378273 1.92009 0
M  V30 62700 C 5898.75 3.54135 0.482016 0
M  V30 62701 C 5898.41 4.45303 -0.708216 0
M  V30 62702 C 5897.08 4.69944 -1.03471 0
M  V30 62703 C 5899.43 4.99029 -1.50396 0
M  V30 62704 C 5896.76 5.45558 -2.15831 0
M  V30 62705 C 5899.11 5.75874 -2.61825 0
M  V30 62706 C 5897.77 5.98789 -2.94971 0
M  V30 62707 H 5897.04 0.738114 0.0653303 0
M  V30 62708 H 5899.69 1.83736 -0.53974 0
M  V30 62709 H 5897.99 3.70241 1.28175 0
M  V30 62710 H 5899.69 3.89764 0.942588 0
M  V30 62711 H 5896.28 4.26297 -0.443749 0
M  V30 62712 H 5900.47 4.79909 -1.26495 0
M  V30 62713 H 5895.72 5.61524 -2.41869 0
M  V30 62714 H 5899.9 6.16503 -3.23879 0
M  V30 62715 H 5897.52 6.57163 -3.82153 0
M  V30 62716 N 5899.1 0.130307 1.5706 0
M  V30 62717 C 5900.03 -0.812112 2.18922 0
M  V30 62718 C 5901.01 -1.26916 1.13254 0
M  V30 62719 O 5902.19 -1.32973 1.41534 0
M  V30 62720 C 5899.32 -2.05793 2.79761 0
M  V30 62721 C 5898.28 -1.73827 3.91112 0
M  V30 62722 C 5897.6 -3.05533 4.38809 0
M  V30 62723 C 5898.9 -0.997811 5.1268 0
M  V30 62724 H 5900.6 -0.296587 2.97927 0
M  V30 62725 H 5898.14 -0.141214 1.43306 0
M  V30 62726 H 5900.1 -2.72189 3.217 0
M  V30 62727 H 5898.82 -2.5969 1.98063 0
M  V30 62728 H 5897.48 -1.09816 3.49766 0
M  V30 62729 H 5897.13 -3.57387 3.53954 0
M  V30 62730 H 5896.83 -2.84914 5.13904 0
M  V30 62731 H 5898.35 -3.73028 4.83407 0
M  V30 62732 H 5899.77 -1.56353 5.51568 0
M  V30 62733 H 5898.16 -0.892169 5.93431 0
M  V30 62734 H 5899.23 0.0134641 4.84898 0
M  V30 62735 N 5900.58 -1.56946 -0.14348 0
M  V30 62736 C 5901.53 -1.94949 -1.18232 0
M  V30 62737 C 5902.51 -0.821205 -1.38366 0
M  V30 62738 O 5903.7 -1.0847 -1.39869 0
M  V30 62739 C 5900.83 -2.33662 -2.51509 0
M  V30 62740 C 5899.92 -3.53069 -2.34953 0
M  V30 62741 N 5900.31 -4.69499 -1.8816 0
M  V30 62742 C 5898.61 -3.58222 -2.65693 0
M  V30 62743 C 5899.31 -5.51588 -1.84731 0
M  V30 62744 N 5898.28 -4.93394 -2.28175 0
M  V30 62745 H 5902.08 -2.82441 -0.812681 0
M  V30 62746 H 5899.6 -1.5855 -0.351499 0
M  V30 62747 H 5901.6 -2.59095 -3.26612 0
M  V30 62748 H 5900.26 -1.47524 -2.89252 0
M  V30 62749 H 5901.27 -4.93187 -1.58072 0
M  V30 62750 H 5897.94 -2.82632 -3.07287 0
M  V30 62751 H 5899.33 -6.54939 -1.50015 0
M  V30 62752 N 5902.05 0.412937 -1.52094 0
M  V30 62753 C 5903.3 1.16196 -1.66212 0
M  V30 62754 C 5903.63 1.90264 -0.389024 0
M  V30 62755 O 5902.91 1.84607 0.612412 0
M  V30 62756 C 5903.19 2.15948 -2.88164 0
M  V30 62757 C 5903.04 1.45802 -4.25514 0
M  V30 62758 C 5904.36 3.16661 -3.05637 0
M  V30 62759 H 5901.48 0.421061 -0.604877 0
M  V30 62760 H 5904.12 0.448147 -1.84639 0
M  V30 62761 H 5902.27 2.76822 -2.72584 0
M  V30 62762 H 5903.95 0.880765 -4.52814 0
M  V30 62763 H 5902.19 0.760025 -4.2709 0
M  V30 62764 H 5902.86 2.18569 -5.06884 0
M  V30 62765 H 5905.34 2.6586 -3.2009 0
M  V30 62766 H 5904.21 3.83725 -3.92487 0
M  V30 62767 H 5904.47 3.8417 -2.18782 0
M  V30 62768 N 5903.53 1.42652 0.669932 0
M  V30 62769 C 5904.78 1.43381 1.42997 0
M  V30 62770 C 5905.11 0.052007 1.9443 0
M  V30 62771 O 5904.36 -0.940396 1.71625 0
M  V30 62772 C 5904.66 2.40922 2.63991 0
M  V30 62773 C 5904.33 3.87191 2.31071 0
M  V30 62774 C 5902.99 4.27032 2.21804 0
M  V30 62775 C 5905.34 4.79435 2.0443 0
M  V30 62776 C 5902.67 5.57091 1.84029 0
M  V30 62777 C 5905.02 6.09841 1.68158 0
M  V30 62778 C 5903.68 6.48676 1.57405 0
M  V30 62779 H 5902.95 0.52467 0.523262 0
M  V30 62780 H 5905.6 1.75624 0.763432 0
M  V30 62781 H 5903.91 2.02024 3.35699 0
M  V30 62782 H 5905.6 2.38748 3.2218 0
M  V30 62783 H 5902.19 3.55651 2.39187 0
M  V30 62784 H 5906.38 4.49439 2.1052 0
M  V30 62785 H 5901.63 5.86035 1.74277 0
M  V30 62786 H 5905.81 6.80801 1.4657 0
M  V30 62787 H 5903.43 7.49363 1.27904 0
M  V30 62788 N 5905.01 -0.906708 1.28905 0
M  V30 62789 C 5905.97 -1.99154 1.13447 0
M  V30 62790 C 5906.97 -1.60639 0.0720116 0
M  V30 62791 O 5908.16 -1.71266 0.318377 0
M  V30 62792 C 5905.29 -3.3292 0.73329 0
M  V30 62793 H 5906.49 -2.14297 2.09802 0
M  V30 62794 H 5904.04 -1.0903 1.11992 0
M  V30 62795 H 5904.78 -3.23478 -0.230712 0
M  V30 62796 H 5904.56 -3.62238 1.50086 0
M  V30 62797 H 5906.05 -4.12542 0.647985 0
M  V30 62798 N 5906.49 -1.11268 -1.11612 0
M  V30 62799 C 5907.44 -0.738505 -2.15708 0
M  V30 62800 C 5908.42 0.256574 -1.58841 0
M  V30 62801 O 5909.61 0.0639634 -1.76884 0
M  V30 62802 C 5906.74 -0.181366 -3.42821 0
M  V30 62803 C 5905.83 -1.204 -4.0665 0
M  V30 62804 N 5906.22 -2.39761 -4.45363 0
M  V30 62805 C 5904.52 -1.04652 -4.33548 0
M  V30 62806 C 5905.22 -3.04966 -4.95349 0
M  V30 62807 N 5904.19 -2.32452 -4.91393 0
M  V30 62808 H 5908 -1.64698 -2.43417 0
M  V30 62809 H 5905.51 -0.991662 -1.28607 0
M  V30 62810 H 5907.51 0.10482 -4.16768 0
M  V30 62811 H 5906.17 0.721721 -3.16577 0
M  V30 62812 H 5907.18 -2.77228 -4.37453 0
M  V30 62813 H 5903.86 -0.199717 -4.17022 0
M  V30 62814 H 5905.25 -4.06547 -5.34948 0
M  V30 62815 N 5907.97 1.29185 -0.902724 0
M  V30 62816 C 5908.9 2.25841 -0.327272 0
M  V30 62817 C 5909.88 1.52569 0.562267 0
M  V30 62818 O 5911.06 1.81515 0.508398 0
M  V30 62819 C 5908.19 3.34476 0.53322 0
M  V30 62820 C 5907.23 4.25517 -0.289418 0
M  V30 62821 S 5908.07 5.08162 -1.68913 0
M  V30 62822 C 5909.22 6.20297 -0.835646 0
M  V30 62823 H 5909.46 2.74303 -1.14653 0
M  V30 62824 H 5906.99 1.37454 -0.703261 0
M  V30 62825 H 5908.95 3.97526 1.0239 0
M  V30 62826 H 5907.61 2.84704 1.32675 0
M  V30 62827 H 5906.8 5.02654 0.368041 0
M  V30 62828 H 5906.4 3.67134 -0.713349 0
M  V30 62829 H 5908.69 6.77473 -0.060371 0
M  V30 62830 H 5909.64 6.90266 -1.5792 0
M  V30 62831 H 5910.05 5.6316 -0.388695 0
M  V30 62832 N 5909.44 0.665525 1.42858 0
M  V30 62833 C 5910.38 -0.0685243 2.28097 0
M  V30 62834 C 5911.35 -0.817831 1.40536 0
M  V30 62835 O 5912.54 -0.81487 1.69977 0
M  V30 62836 C 5909.67 -1.10404 3.20201 0
M  V30 62837 C 5908.71 -0.451383 4.24105 0
M  V30 62838 S 5909.54 0.78418 5.29727 0
M  V30 62839 C 5910.7 -0.250498 6.25399 0
M  V30 62840 H 5910.93 0.654503 2.90006 0
M  V30 62841 H 5908.47 0.45476 1.47551 0
M  V30 62842 H 5910.42 -1.69644 3.73806 0
M  V30 62843 H 5909.09 -1.79946 2.57446 0
M  V30 62844 H 5908.28 -1.23242 4.887 0
M  V30 62845 H 5907.88 0.0671941 3.7394 0
M  V30 62846 H 5910.17 -1.11303 6.68295 0
M  V30 62847 H 5911.12 0.360743 7.0718 0
M  V30 62848 H 5911.52 -0.59182 5.61389 0
M  V30 62849 N 5910.92 -1.52221 0.40824 0
M  V30 62850 C 5911.85 -2.23469 -0.462253 0
M  V30 62851 C 5912.83 -1.24261 -1.04871 0
M  V30 62852 O 5914.02 -1.53309 -1.09675 0
M  V30 62853 C 5911.14 -2.96261 -1.64155 0
M  V30 62854 C 5910.19 -4.09893 -1.17856 0
M  V30 62855 S 5911.02 -5.35305 -0.144441 0
M  V30 62856 C 5912.18 -6.11626 -1.32908 0
M  V30 62857 H 5912.41 -2.96957 0.142719 0
M  V30 62858 H 5909.94 -1.53195 0.192534 0
M  V30 62859 H 5911.9 -3.38806 -2.31778 0
M  V30 62860 H 5910.56 -2.22418 -2.21786 0
M  V30 62861 H 5909.76 -4.59996 -2.0596 0
M  V30 62862 H 5909.36 -3.6946 -0.580989 0
M  V30 62863 H 5911.65 -6.38947 -2.25284 0
M  V30 62864 H 5912.59 -7.02752 -0.868603 0
M  V30 62865 H 5913 -5.42675 -1.55447 0
M  V30 62866 N 5912.4 -0.138635 -1.56989 0
M  V30 62867 C 5913.35 0.804229 -2.16335 0
M  V30 62868 C 5914.32 1.24998 -1.09383 0
M  V30 62869 O 5915.5 1.324 -1.37386 0
M  V30 62870 C 5912.64 2.04127 -2.78255 0
M  V30 62871 C 5911.76 1.64209 -3.99574 0
M  V30 62872 C 5910.89 2.8303 -4.49519 0
M  V30 62873 C 5909.93 2.39445 -5.63323 0
M  V30 62874 N 5909.07 3.51245 -6.07924 0
M  V30 62875 H 5913.91 0.291336 -2.96572 0
M  V30 62876 H 5911.44 0.132094 -1.46506 0
M  V30 62877 H 5913.4 2.76635 -3.12296 0
M  V30 62878 H 5912.03 2.52842 -2.00676 0
M  V30 62879 H 5911.08 0.814993 -3.71567 0
M  V30 62880 H 5912.4 1.28193 -4.82046 0
M  V30 62881 H 5911.55 3.63738 -4.85571 0
M  V30 62882 H 5910.29 3.22285 -3.66038 0
M  V30 62883 H 5909.29 1.57174 -5.26855 0
M  V30 62884 H 5910.52 2.01285 -6.48584 0
M  V30 62885 H 5908.46 3.90138 -5.27379 0
M  V30 62886 H 5908.38 3.19217 -6.853 0
M  V30 62887 H 5909.65 4.32335 -6.48619 0
M  V30 62888 N 5913.88 1.57019 0.135155 0
M  V30 62889 C 5914.81 2.02186 1.16804 0
M  V30 62890 C 5915.79 0.903451 1.44124 0
M  V30 62891 O 5916.97 1.17207 1.54842 0
M  V30 62892 C 5914.1 2.41252 2.4983 0
M  V30 62893 C 5913.06 3.56388 2.37006 0
M  V30 62894 C 5912.38 3.81303 3.74849 0
M  V30 62895 C 5913.68 4.8866 1.84415 0
M  V30 62896 H 5915.38 2.88723 0.792428 0
M  V30 62897 H 5912.92 1.38903 0.379739 0
M  V30 62898 H 5914.88 2.71452 3.22323 0
M  V30 62899 H 5913.6 1.51666 2.89249 0
M  V30 62900 H 5912.26 3.26372 1.66963 0
M  V30 62901 H 5911.91 2.88949 4.11725 0
M  V30 62902 H 5911.61 4.58793 3.67127 0
M  V30 62903 H 5913.13 4.13939 4.48873 0
M  V30 62904 H 5914.55 5.175 2.46711 0
M  V30 62905 H 5912.94 5.70038 1.87554 0
M  V30 62906 H 5914.01 4.78245 0.800591 0
M  V30 62907 N 5915.36 -0.404866 1.52311 0
M  V30 62908 C 5916.32 -1.47621 1.7533 0
M  V30 62909 C 5917.32 -1.48232 0.623205 0
M  V30 62910 O 5918.51 -1.49682 0.891122 0
M  V30 62911 C 5915.64 -2.87006 1.83957 0
M  V30 62912 H 5916.83 -1.285 2.70975 0
M  V30 62913 H 5914.39 -0.635627 1.42792 0
M  V30 62914 H 5915.12 -3.11491 0.902418 0
M  V30 62915 H 5914.91 -2.87965 2.66118 0
M  V30 62916 H 5916.4 -3.64664 2.03494 0
M  V30 62917 N 5916.83 -1.43006 -0.662357 0
M  V30 62918 C 5917.77 -1.43413 -1.78788 0
M  V30 62919 C 5918.78 -0.331479 -1.5939 0
M  V30 62920 O 5919.97 -0.595351 -1.68279 0
M  V30 62921 C 5917.07 -1.2225 -3.16083 0
M  V30 62922 C 5916.24 -2.45183 -3.62221 0
M  V30 62923 C 5915.3 -2.19379 -4.78288 0
M  V30 62924 O 5914.33 -2.92668 -4.88195 0
M  V30 62925 N 5915.53 -1.20469 -5.67862 0
M  V30 62926 H 5918.29 -2.40433 -1.7892 0
M  V30 62927 H 5915.85 -1.38045 -0.845887 0
M  V30 62928 H 5917.85 -1.02884 -3.91404 0
M  V30 62929 H 5916.42 -0.337093 -3.10777 0
M  V30 62930 H 5915.64 -2.80034 -2.77443 0
M  V30 62931 H 5916.92 -3.27017 -3.89792 0
M  V30 62932 H 5916.32 -0.598774 -5.62522 0
M  V30 62933 H 5914.88 -1.07089 -6.42943 0
M  V30 62934 N 5918.31 0.899859 -1.29384 0
M  V30 62935 C 5919.59 1.63063 -1.08027 0
M  V30 62936 C 5919.97 2.07731 0.375643 0
M  V30 62937 O 5919.32 1.83293 1.36441 0
M  V30 62938 C 5919.53 2.81156 -2.06766 0
M  V30 62939 C 5920.88 3.51846 -2.37676 0
M  V30 62940 O 5921.9 2.91324 -2.0496 0
M  V30 62941 O 5920.76 4.60952 -2.93574 0
M  V30 62942 H 5917.85 0.715995 -0.41386 0
M  V30 62943 H 5920.4 0.947941 -1.40756 0
M  V30 62944 H 5919.17 2.45345 -3.04831 0
M  V30 62945 H 5918.79 3.57131 -1.74766 0
M  V30 62946 N 5919.79 1.11858 1.1102 0
M  V30 62947 C 5921.02 0.893065 1.87187 0
M  V30 62948 C 5921.44 -0.551994 1.79818 0
M  V30 62949 O 5920.8 -1.39021 1.16374 0
M  V30 62950 C 5920.85 1.36481 3.33774 0
M  V30 62951 O 5919.95 0.539346 4.08858 0
M  V30 62952 H 5919.29 0.32134 0.581065 0
M  V30 62953 H 5921.82 1.48915 1.40305 0
M  V30 62954 H 5921.83 1.36123 3.84622 0
M  V30 62955 H 5920.51 2.41706 3.38454 0
M  V30 62956 H 5919.08 0.609399 3.67887 0
M  V30 62957 N 5921.27 -1.28704 0.909562 0
M  V30 62958 C 5922.49 -1.99819 0.555628 0
M  V30 62959 C 5922.92 -1.67552 -0.854873 0
M  V30 62960 O 5922.28 -0.905576 -1.57064 0
M  V30 62961 C 5922.32 -3.52358 0.766562 0
M  V30 62962 O 5921.43 -4.12023 -0.176395 0
M  V30 62963 H 5920.77 -0.62791 0.215927 0
M  V30 62964 H 5923.3 -1.6396 1.22385 0
M  V30 62965 H 5923.31 -4.02377 0.675036 0
M  V30 62966 H 5921.98 -3.75178 1.79483 0
M  V30 62967 H 5920.56 -3.72882 -0.0364905 0
M  V30 62968 N 5922.75 -0.673092 -1.42503 0
M  V30 62969 C 5923.68 0.0452169 -2.29155 0
M  V30 62970 C 5924.69 0.767227 -1.43588 0
M  V30 62971 O 5925.88 0.621669 -1.67325 0
M  V30 62972 C 5922.98 1.08769 -3.20971 0
M  V30 62973 C 5922.15 0.439846 -4.35183 0
M  V30 62974 C 5921.21 1.38187 -5.07731 0
M  V30 62975 O 5920.24 0.882833 -5.62312 0
M  V30 62976 N 5921.44 2.71522 -5.13085 0
M  V30 62977 H 5924.21 -0.698619 -2.91444 0
M  V30 62978 H 5921.77 -0.517376 -1.53411 0
M  V30 62979 H 5923.76 1.71912 -3.66372 0
M  V30 62980 H 5922.33 1.73328 -2.60146 0
M  V30 62981 H 5921.55 -0.371064 -3.9245 0
M  V30 62982 H 5922.84 -0.0115526 -5.08799 0
M  V30 62983 H 5922.23 3.14606 -4.70148 0
M  V30 62984 H 5920.79 3.29917 -5.62137 0
M  V30 62985 N 5924.22 1.52002 -0.416307 0
M  V30 62986 C 5925.47 2.01076 0.15852 0
M  V30 62987 C 5925.79 1.30603 1.4561 0
M  V30 62988 O 5926.99 1.70532 2.11261 0
M  V30 62989 C 5925.45 3.58356 0.333053 0
M  V30 62990 C 5925.06 4.3775 -0.95285 0
M  V30 62991 C 5926.8 4.1564 0.862784 0
M  V30 62992 C 5924.71 5.86687 -0.745112 0
M  V30 62993 H 5923.64 0.751362 0.0630159 0
M  V30 62994 H 5926.29 1.75287 -0.542853 0
M  V30 62995 H 5924.67 3.80504 1.09693 0
M  V30 62996 H 5925.84 4.27358 -1.72343 0
M  V30 62997 H 5924.16 3.91818 -1.40953 0
M  V30 62998 H 5926.76 5.246 1.03435 0
M  V30 62999 H 5927.1 3.73456 1.83947 0
M  V30 63000 H 5927.63 3.97487 0.157778 0
M  V30 63001 H 5924.37 6.33244 -1.69357 0
M  V30 63002 H 5923.89 5.99798 -0.0139567 0
M  V30 63003 H 5925.57 6.45823 -0.390078 0
M  V30 63004 N 5925.7 0.146958 1.56913 0
M  V30 63005 C 5926.61 -0.805797 2.20327 0
M  V30 63006 C 5927.63 -1.27174 1.18755 0
M  V30 63007 O 5928.8 -1.32893 1.51332 0
M  V30 63008 C 5925.87 -2.02745 2.81239 0
M  V30 63009 C 5924.93 -1.61075 3.97936 0
M  V30 63010 C 5924.16 -2.77417 4.55934 0
M  V30 63011 O 5924.39 -3.93629 4.12811 0
M  V30 63012 O 5923.32 -2.52892 5.46195 0
M  V30 63013 H 5927.15 -0.295992 3.02254 0
M  V30 63014 H 5924.73 -0.0800651 1.49185 0
M  V30 63015 H 5926.61 -2.7424 3.19953 0
M  V30 63016 H 5925.29 -2.52679 2.02325 0
M  V30 63017 H 5924.2 -0.866032 3.63938 0
M  V30 63018 H 5925.53 -1.15858 4.7837 0
M  V30 63019 N 5927.18 -1.57089 -0.126826 0
M  V30 63020 C 5928.11 -2.02803 -1.1573 0
M  V30 63021 C 5929.09 -0.911081 -1.43643 0
M  V30 63022 O 5930.28 -1.18027 -1.54218 0
M  V30 63023 C 5927.41 -2.42573 -2.48547 0
M  V30 63024 C 5926.36 -3.5764 -2.35113 0
M  V30 63025 C 5925.69 -3.83286 -3.72822 0
M  V30 63026 C 5926.99 -4.89631 -1.81821 0
M  V30 63027 H 5928.68 -2.89139 -0.777105 0
M  V30 63028 H 5926.23 -1.39102 -0.372367 0
M  V30 63029 H 5928.18 -2.73157 -3.20879 0
M  V30 63030 H 5926.9 -1.53198 -2.88441 0
M  V30 63031 H 5925.56 -3.27253 -1.6523 0
M  V30 63032 H 5925.21 -2.91128 -4.10187 0
M  V30 63033 H 5924.91 -4.60734 -3.64689 0
M  V30 63034 H 5926.44 -4.16314 -4.46671 0
M  V30 63035 H 5927.85 -5.18801 -2.43963 0
M  V30 63036 H 5926.25 -5.71025 -1.84528 0
M  V30 63037 H 5927.32 -4.78663 -0.775217 0
M  V30 63038 N 5928.66 0.396782 -1.52523 0
M  V30 63039 C 5929.59 1.49082 -1.79713 0
M  V30 63040 C 5930.57 1.57243 -0.648733 0
M  V30 63041 O 5931.76 1.72318 -0.895556 0
M  V30 63042 C 5928.89 2.86778 -1.95897 0
M  V30 63043 C 5927.84 2.93461 -3.11552 0
M  V30 63044 C 5927.17 4.33531 -3.12978 0
M  V30 63045 C 5928.47 2.63817 -4.50775 0
M  V30 63046 H 5930.16 1.26579 -2.71327 0
M  V30 63047 H 5927.71 0.607489 -1.30559 0
M  V30 63048 H 5929.66 3.63311 -2.13501 0
M  V30 63049 H 5928.38 3.10602 -1.00966 0
M  V30 63050 H 5927.04 2.19374 -2.93719 0
M  V30 63051 H 5926.69 4.54382 -2.15745 0
M  V30 63052 H 5926.39 4.38924 -3.90666 0
M  V30 63053 H 5927.91 5.11981 -3.32727 0
M  V30 63054 H 5929.33 3.3007 -4.6875 0
M  V30 63055 H 5927.72 2.8057 -5.30472 0
M  V30 63056 H 5928.79 1.59193 -4.58024 0
M  V30 63057 N 5930.14 1.43355 0.654764 0
M  V30 63058 C 5931.08 1.48394 1.76771 0
M  V30 63059 C 5932.05 0.333812 1.62711 0
M  V30 63060 O 5933.24 0.540747 1.82977 0
M  V30 63061 C 5930.38 1.41143 3.14917 0
M  V30 63062 C 5929.49 2.66348 3.40122 0
M  V30 63063 C 5928.63 2.51097 4.68107 0
M  V30 63064 C 5927.67 3.71578 4.86412 0
M  V30 63065 N 5926.8 3.55146 6.05653 0
M  V30 63066 H 5931.64 2.43493 1.71799 0
M  V30 63067 H 5929.18 1.20869 0.8384 0
M  V30 63068 H 5931.14 1.34934 3.94777 0
M  V30 63069 H 5929.77 0.496261 3.18963 0
M  V30 63070 H 5928.82 2.82843 2.5437 0
M  V30 63071 H 5930.13 3.55848 3.49534 0
M  V30 63072 H 5929.29 2.42586 5.56091 0
M  V30 63073 H 5928.03 1.59119 4.61012 0
M  V30 63074 H 5927.03 3.80498 3.96864 0
M  V30 63075 H 5928.26 4.64562 4.95337 0
M  V30 63076 H 5926.2 2.65902 5.99693 0
M  V30 63077 H 5926.12 4.38246 6.16017 0
M  V30 63078 H 5927.39 3.50485 6.96262 0
M  V30 63079 N 5931.62 -0.892985 1.2986 0
M  V30 63080 C 5932.53 -2.03075 1.17464 0
M  V30 63081 C 5933.54 -1.73733 0.0963551 0
M  V30 63082 O 5934.72 -1.99004 0.309737 0
M  V30 63083 C 5931.78 -3.35887 0.859109 0
M  V30 63084 C 5930.84 -3.78704 2.02193 0
M  V30 63085 C 5930.08 -5.05178 1.72136 0
M  V30 63086 O 5930.3 -5.66736 0.645476 0
M  V30 63087 O 5929.23 -5.44209 2.57138 0
M  V30 63088 H 5933.06 -2.16458 2.13025 0
M  V30 63089 H 5930.64 -1.0177 1.09376 0
M  V30 63090 H 5932.53 -4.15579 0.697998 0
M  V30 63091 H 5931.2 -3.23631 -0.0666618 0
M  V30 63092 H 5930.11 -2.9975 2.23832 0
M  V30 63093 H 5931.44 -3.95553 2.92914 0
M  V30 63094 N 5933.09 -1.12445 -1.10425 0
M  V30 63095 C 5934.02 -0.814822 -2.18822 0
M  V30 63096 C 5935 0.221416 -1.68653 0
M  V30 63097 O 5936.19 0.0825855 -1.94024 0
M  V30 63098 C 5933.32 -0.268754 -3.46259 0
M  V30 63099 C 5932.27 -1.23806 -4.09702 0
M  V30 63100 C 5931.6 -0.552221 -5.31841 0
M  V30 63101 C 5932.9 -2.59276 -4.53402 0
M  V30 63102 H 5934.59 -1.7212 -2.4498 0
M  V30 63103 H 5932.14 -0.829009 -1.17743 0
M  V30 63104 H 5934.09 -0.0398688 -4.21381 0
M  V30 63105 H 5932.82 0.672966 -3.19591 0
M  V30 63106 H 5931.48 -1.45276 -3.36586 0
M  V30 63107 H 5931.12 0.394644 -5.01449 0
M  V30 63108 H 5930.82 -1.19881 -5.75241 0
M  V30 63109 H 5932.35 -0.332376 -6.09695 0
M  V30 63110 H 5933.76 -2.41834 -5.19797 0
M  V30 63111 H 5932.16 -3.20015 -5.07652 0
M  V30 63112 H 5933.23 -3.17712 -3.66316 0
M  V30 63113 N 5934.57 1.2822 -0.916375 0
M  V30 63114 C 5935.5 2.29622 -0.423816 0
M  V30 63115 C 5936.48 1.62276 0.509959 0
M  V30 63116 O 5937.67 1.89667 0.417133 0
M  V30 63117 C 5934.8 3.45685 0.334564 0
M  V30 63118 C 5933.75 4.24947 -0.510318 0
M  V30 63119 C 5933.08 5.33372 0.376558 0
M  V30 63120 C 5934.38 4.91432 -1.76894 0
M  V30 63121 H 5936.07 2.71071 -1.27125 0
M  V30 63122 H 5933.62 1.30314 -0.612724 0
M  V30 63123 H 5935.57 4.15712 0.690008 0
M  V30 63124 H 5934.29 3.03122 1.21592 0
M  V30 63125 H 5932.95 3.5665 -0.848316 0
M  V30 63126 H 5932.6 4.87053 1.25654 0
M  V30 63127 H 5932.3 5.87308 -0.185166 0
M  V30 63128 H 5933.83 6.06247 0.727825 0
M  V30 63129 H 5935.24 5.53807 -1.48225 0
M  V30 63130 H 5933.64 5.55376 -2.27328 0
M  V30 63131 H 5934.71 4.15774 -2.4952 0
M  V30 63132 N 5936.05 0.68064 1.42144 0
M  V30 63133 C 5937.33 0.134025 1.9514 0
M  V30 63134 C 5937.71 -1.35254 1.62079 0
M  V30 63135 O 5937.05 -2.09162 0.919972 0
M  V30 63136 C 5937.26 0.409388 3.46591 0
M  V30 63137 C 5938.61 0.329048 4.23323 0
M  V30 63138 O 5939.64 0.343462 3.5454 0
M  V30 63139 O 5938.5 0.276268 5.45801 0
M  V30 63140 H 5935.59 0.0062635 0.826976 0
M  V30 63141 H 5938.14 0.755772 1.51941 0
M  V30 63142 H 5936.91 1.43895 3.63882 0
M  V30 63143 H 5936.53 -0.244077 3.9685 0
M  V30 63144 N 5937.53 -1.51779 0.424362 0
M  V30 63145 C 5938.46 -2.30314 -0.384381 0
M  V30 63146 C 5939.44 -1.3517 -1.03263 0
M  V30 63147 O 5940.62 -1.64085 -1.03874 0
M  V30 63148 C 5937.75 -3.13571 -1.493 0
M  V30 63149 C 5936.71 -4.16888 -0.968949 0
M  V30 63150 C 5936.03 -4.88583 -2.17233 0
M  V30 63151 C 5937.33 -5.22299 -0.0123777 0
M  V30 63152 H 5939.03 -2.98171 0.270975 0
M  V30 63153 H 5936.57 -1.43396 0.131763 0
M  V30 63154 H 5938.53 -3.67286 -2.06589 0
M  V30 63155 H 5937.25 -2.43511 -2.17646 0
M  V30 63156 H 5935.91 -3.64205 -0.418366 0
M  V30 63157 H 5935.56 -4.15039 -2.84169 0
M  V30 63158 H 5935.26 -5.58438 -1.82813 0
M  V30 63159 H 5936.78 -5.45117 -2.751 0
M  V30 63160 H 5938.2 -5.71163 -0.494543 0
M  V30 63161 H 5936.59 -5.99605 0.243755 0
M  V30 63162 H 5937.66 -4.75931 0.928298 0
M  V30 63163 N 5939.01 -0.155278 -1.56833 0
M  V30 63164 C 5939.94 0.812373 -2.1432 0
M  V30 63165 C 5940.95 1.20499 -1.09471 0
M  V30 63166 O 5942.14 1.14762 -1.36718 0
M  V30 63167 C 5939.24 2.1027 -2.65782 0
M  V30 63168 C 5938.41 1.87616 -3.95119 0
M  V30 63169 C 5937.47 3.00715 -4.31807 0
M  V30 63170 O 5936.5 2.72046 -4.9998 0
M  V30 63171 N 5937.7 4.281 -3.92059 0
M  V30 63172 H 5940.46 0.321002 -2.97976 0
M  V30 63173 H 5938.03 0.0280292 -1.61876 0
M  V30 63174 H 5940.02 2.84995 -2.87333 0
M  V30 63175 H 5938.59 2.50645 -1.86804 0
M  V30 63176 H 5937.81 0.968824 -3.82109 0
M  V30 63177 H 5939.1 1.69829 -4.7962 0
M  V30 63178 H 5938.49 4.54258 -3.37145 0
M  V30 63179 H 5937.05 4.9958 -4.18645 0
M  V30 63180 N 5940.48 1.57154 0.118493 0
M  V30 63181 C 5941.43 2.00378 1.14531 0
M  V30 63182 C 5942.4 0.876014 1.41121 0
M  V30 63183 O 5943.59 1.14027 1.52978 0
M  V30 63184 C 5940.73 2.41358 2.46658 0
M  V30 63185 C 5939.84 3.67553 2.26999 0
M  V30 63186 C 5938.97 3.97512 3.5236 0
M  V30 63187 C 5938.01 5.16888 3.27861 0
M  V30 63188 N 5937.15 5.42716 4.45426 0
M  V30 63189 H 5941.99 2.87888 0.76972 0
M  V30 63190 H 5939.53 1.42408 0.368572 0
M  V30 63191 H 5941.48 2.63155 3.23736 0
M  V30 63192 H 5940.11 1.5689 2.82109 0
M  V30 63193 H 5939.17 3.53369 1.40836 0
M  V30 63194 H 5940.48 4.54784 2.04873 0
M  V30 63195 H 5939.63 4.1996 4.37856 0
M  V30 63196 H 5938.37 3.08758 3.77518 0
M  V30 63197 H 5937.38 4.94284 2.40755 0
M  V30 63198 H 5938.6 6.0722 3.04073 0
M  V30 63199 H 5936.55 4.56919 4.70703 0
M  V30 63200 H 5936.46 6.24271 4.26406 0
M  V30 63201 H 5937.73 5.69683 5.32054 0
M  V30 63202 N 5941.96 -0.388688 1.52732 0
M  V30 63203 C 5943.24 -1.14794 1.58372 0
M  V30 63204 C 5943.62 -2.07705 0.377091 0
M  V30 63205 O 5942.97 -2.19512 -0.634556 0
M  V30 63206 C 5943.18 -1.90735 2.92269 0
M  V30 63207 C 5944.53 -2.46085 3.46016 0
M  V30 63208 O 5945.55 -2.00891 2.94145 0
M  V30 63209 O 5944.41 -3.28643 4.36642 0
M  V30 63210 H 5941.5 -0.525268 0.638767 0
M  V30 63211 H 5944.05 -0.393816 1.65067 0
M  V30 63212 H 5942.82 -1.22793 3.71534 0
M  V30 63213 H 5942.44 -2.73107 2.8896 0
M  V30 63214 N 5943.44 -1.437 -0.647152 0
M  V30 63215 C 5944.37 -1.43783 -1.77205 0
M  V30 63216 C 5945.35 -0.298541 -1.59836 0
M  V30 63217 O 5946.54 -0.493065 -1.81937 0
M  V30 63218 C 5943.66 -1.25521 -3.14582 0
M  V30 63219 C 5942.71 -2.42806 -3.50639 0
M  V30 63220 S 5943.54 -4.05353 -3.49927 0
M  V30 63221 C 5944.7 -3.89485 -4.89951 0
M  V30 63222 H 5944.93 -2.38969 -1.76865 0
M  V30 63223 H 5942.46 -1.30804 -0.820341 0
M  V30 63224 H 5944.42 -1.15672 -3.93866 0
M  V30 63225 H 5943.08 -0.318739 -3.12479 0
M  V30 63226 H 5942.28 -2.25848 -4.50565 0
M  V30 63227 H 5941.88 -2.49312 -2.78782 0
M  V30 63228 H 5944.17 -3.52185 -5.78768 0
M  V30 63229 H 5945.11 -4.89185 -5.11961 0
M  V30 63230 H 5945.52 -3.21833 -4.63771 0
M  V30 63231 N 5944.92 0.886085 -1.30331 0
M  V30 63232 C 5946.16 1.64022 -1.19267 0
M  V30 63233 C 5946.5 1.92554 0.252312 0
M  V30 63234 O 5945.77 1.54568 1.18063 0
M  V30 63235 C 5946.06 2.98073 -2.0205 0
M  V30 63236 C 5945.91 2.76521 -3.54762 0
M  V30 63237 C 5947.23 3.98982 -1.85745 0
M  V30 63238 H 5944.35 0.595209 -0.434621 0
M  V30 63239 H 5946.99 1.02544 -1.59952 0
M  V30 63240 H 5945.14 3.50546 -1.67481 0
M  V30 63241 H 5946.81 2.30845 -3.99385 0
M  V30 63242 H 5945.05 2.11047 -3.79001 0
M  V30 63243 H 5945.72 3.71835 -4.07974 0
M  V30 63244 H 5948.2 3.55666 -2.15966 0
M  V30 63245 H 5947.08 4.9069 -2.45996 0
M  V30 63246 H 5947.34 4.34498 -0.816305 0
M  V30 63247 N 5946.4 1.13029 1.09828 0
M  V30 63248 C 5947.64 0.8908 1.82188 0
M  V30 63249 C 5947.98 -0.581753 1.85282 0
M  V30 63250 O 5947.25 -1.43033 1.31803 0
M  V30 63251 C 5947.53 1.47414 3.28544 0
M  V30 63252 C 5947.39 3.01551 3.33747 0
M  V30 63253 C 5948.71 1.13891 4.25108 0
M  V30 63254 H 5945.82 0.325051 0.661446 0
M  V30 63255 H 5948.47 1.39791 1.28679 0
M  V30 63256 H 5946.62 1.04286 3.74242 0
M  V30 63257 H 5948.29 3.53406 2.96483 0
M  V30 63258 H 5946.53 3.36756 2.73455 0
M  V30 63259 H 5947.2 3.37465 4.36831 0
M  V30 63260 H 5949.68 1.51152 3.87675 0
M  V30 63261 H 5948.55 1.57361 5.2586 0
M  V30 63262 H 5948.82 0.0520094 4.42069 0
M  V30 63263 N 5947.87 -1.27732 0.923162 0
M  V30 63264 C 5948.81 -2.25292 0.36316 0
M  V30 63265 C 5949.79 -1.53444 -0.537924 0
M  V30 63266 O 5950.97 -1.823 -0.479456 0
M  V30 63267 C 5948.1 -3.35282 -0.47994 0
M  V30 63268 C 5947.14 -4.25003 0.357077 0
M  V30 63269 S 5947.98 -5.0541 1.76976 0
M  V30 63270 C 5949.13 -6.18889 0.934224 0
M  V30 63271 H 5949.36 -2.72444 1.19003 0
M  V30 63272 H 5946.9 -1.36318 0.725039 0
M  V30 63273 H 5948.86 -3.99104 -0.960527 0
M  V30 63274 H 5947.52 -2.86778 -1.28129 0
M  V30 63275 H 5946.71 -5.03176 -0.288026 0
M  V30 63276 H 5946.31 -3.65953 0.771667 0
M  V30 63277 H 5948.6 -6.77291 0.168143 0
M  V30 63278 H 5949.55 -6.87666 1.68882 0
M  V30 63279 H 5949.95 -5.62471 0.478239 0
M  V30 63280 N 5949.35 -0.688168 -1.41782 0
M  V30 63281 C 5950.28 -0.032402 -2.33478 0
M  V30 63282 C 5951.26 0.775092 -1.51414 0
M  V30 63283 O 5952.45 0.729557 -1.79975 0
M  V30 63284 C 5949.58 0.910023 -3.35165 0
M  V30 63285 C 5948.53 0.210161 -4.27484 0
M  V30 63286 C 5947.86 1.26644 -5.19486 0
M  V30 63287 C 5949.16 -0.91902 -5.14151 0
M  V30 63288 H 5950.85 -0.798239 -2.88563 0
M  V30 63289 H 5948.4 -0.38531 -1.38749 0
M  V30 63290 H 5950.35 1.37796 -3.98234 0
M  V30 63291 H 5949.08 1.70744 -2.78414 0
M  V30 63292 H 5947.73 -0.237673 -3.65829 0
M  V30 63293 H 5947.38 2.05619 -4.59053 0
M  V30 63294 H 5947.08 0.803212 -5.82084 0
M  V30 63295 H 5948.61 1.73504 -5.8543 0
M  V30 63296 H 5950.02 -0.531699 -5.70829 0
M  V30 63297 H 5948.42 -1.30888 -5.85652 0
M  V30 63298 H 5949.49 -1.76196 -4.51756 0
M  V30 63299 N 5950.83 1.51552 -0.432405 0
M  V30 63300 C 5951.76 2.30515 0.372161 0
M  V30 63301 C 5952.74 1.35715 1.02545 0
M  V30 63302 O 5953.93 1.64633 1.03003 0
M  V30 63303 C 5951.06 3.14358 1.47635 0
M  V30 63304 C 5950.01 4.17396 0.946827 0
M  V30 63305 C 5949.34 4.89729 2.14639 0
M  V30 63306 C 5950.64 5.22298 -0.0153213 0
M  V30 63307 H 5952.33 2.98023 -0.286784 0
M  V30 63308 H 5949.88 1.43324 -0.139366 0
M  V30 63309 H 5951.83 3.68376 2.04638 0
M  V30 63310 H 5950.55 2.44662 2.16352 0
M  V30 63311 H 5949.21 3.64422 0.399046 0
M  V30 63312 H 5948.86 4.1654 2.81964 0
M  V30 63313 H 5948.56 5.594 1.79849 0
M  V30 63314 H 5950.08 5.46568 2.72205 0
M  V30 63315 H 5951.5 5.71417 0.464246 0
M  V30 63316 H 5949.9 5.99467 -0.27555 0
M  V30 63317 H 5950.97 4.75432 -0.953524 0
M  V30 63318 N 5952.31 0.163593 1.56749 0
M  V30 63319 C 5953.53 -0.493016 2.01455 0
M  V30 63320 C 5953.96 -1.56531 1.04305 0
M  V30 63321 O 5953.32 -1.81287 0.0213677 0
M  V30 63322 C 5953.36 -1.05534 3.44811 0
M  V30 63323 O 5952.47 -2.16964 3.50714 0
M  V30 63324 H 5951.81 -0.118882 0.653271 0
M  V30 63325 H 5954.34 0.265211 2.02874 0
M  V30 63326 H 5954.35 -1.37988 3.83957 0
M  V30 63327 H 5953.02 -0.270187 4.15021 0
M  V30 63328 H 5951.6 -1.85613 3.23422 0
M  V30 63329 N 5953.79 -1.57215 -0.110157 0
M  V30 63330 C 5954.72 -2.04019 -1.13572 0
M  V30 63331 C 5955.7 -0.926265 -1.42669 0
M  V30 63332 O 5956.88 -1.19656 -1.52958 0
M  V30 63333 C 5954.01 -2.45196 -2.4596 0
M  V30 63334 C 5952.97 -3.60113 -2.31306 0
M  V30 63335 C 5952.29 -3.87218 -3.68736 0
M  V30 63336 C 5953.59 -4.91532 -1.76617 0
M  V30 63337 H 5955.29 -2.89947 -0.746394 0
M  V30 63338 H 5952.83 -1.39489 -0.357592 0
M  V30 63339 H 5954.79 -2.76545 -3.17963 0
M  V30 63340 H 5953.51 -1.56248 -2.868 0
M  V30 63341 H 5952.17 -3.28987 -1.6175 0
M  V30 63342 H 5951.82 -2.95462 -4.07076 0
M  V30 63343 H 5951.52 -4.64576 -3.59782 0
M  V30 63344 H 5953.04 -4.21028 -4.4223 0
M  V30 63345 H 5954.45 -5.2136 -2.38447 0
M  V30 63346 H 5952.85 -5.7295 -1.78462 0
M  V30 63347 H 5953.92 -4.79458 -0.724405 0
M  V30 63348 N 5955.26 0.380583 -1.52936 0
M  V30 63349 C 5956.19 1.47167 -1.81284 0
M  V30 63350 C 5957.18 1.56546 -0.665374 0
M  V30 63351 O 5958.36 1.71358 -0.913782 0
M  V30 63352 C 5955.49 2.84684 -1.98928 0
M  V30 63353 C 5954.44 2.9014 -3.14647 0
M  V30 63354 C 5953.77 4.30187 -3.17559 0
M  V30 63355 C 5955.07 2.59021 -4.53548 0
M  V30 63356 H 5956.76 1.23694 -2.72654 0
M  V30 63357 H 5954.31 0.593608 -1.31196 0
M  V30 63358 H 5956.26 3.61026 -2.17343 0
M  V30 63359 H 5954.99 3.09513 -1.04255 0
M  V30 63360 H 5953.65 2.16246 -2.96029 0
M  V30 63361 H 5953.29 4.52068 -2.20552 0
M  V30 63362 H 5952.99 4.34756 -3.95299 0
M  V30 63363 H 5954.52 5.08423 -3.38139 0
M  V30 63364 H 5955.93 3.25079 -4.72225 0
M  V30 63365 H 5954.33 2.74928 -5.33418 0
M  V30 63366 H 5955.4 1.54326 -4.59686 0
M  V30 63367 N 5956.74 1.44041 0.639523 0
M  V30 63368 C 5957.65 1.52734 1.78071 0
M  V30 63369 C 5958.67 0.413527 1.69015 0
M  V30 63370 O 5959.85 0.669659 1.89941 0
M  V30 63371 C 5956.91 1.46089 3.14418 0
M  V30 63372 C 5955.97 2.68253 3.3517 0
M  V30 63373 C 5955.2 2.61915 4.65012 0
M  V30 63374 O 5955.43 1.6745 5.45267 0
M  V30 63375 O 5954.36 3.52636 4.87782 0
M  V30 63376 H 5958.19 2.49129 1.73691 0
M  V30 63377 H 5955.77 1.26194 0.799711 0
M  V30 63378 H 5957.65 1.44875 3.95713 0
M  V30 63379 H 5956.33 0.528348 3.19359 0
M  V30 63380 H 5955.24 2.75037 2.53586 0
M  V30 63381 H 5956.57 3.60526 3.35085 0
M  V30 63382 N 5958.22 -0.879161 1.308 0
M  V30 63383 C 5959.47 -1.62823 1.1972 0
M  V30 63384 C 5959.79 -1.9343 -0.246963 0
M  V30 63385 O 5959.06 -1.57482 -1.16517 0
M  V30 63386 H 5957.64 -0.603592 0.440098 0
M  V30 63387 H 5960.3 -1.05303 1.64004 0
M  V30 63388 H 5959.4 -2.57585 1.76228 0
M  V30 63389 N 5959.7 -1.1361 -1.09227 0
M  V30 63390 C 5960.65 -0.810823 -2.1801 0
M  V30 63391 C 5961.64 0.207723 -1.68122 0
M  V30 63392 O 5962.85 0.0646642 -1.79884 0
M  V30 63393 H 5959.22 -0.24444 -0.711163 0
M  V30 63394 H 5961.19 -1.7364 -2.42676 0
M  V30 63395 C 5959.94 -0.295424 -3.46443 0
M  V30 63396 H 5959.27 -1.07051 -3.85202 0
M  V30 63397 H 5960.71 -0.106276 -4.23867 0
M  V30 63398 C 5959.16 0.979284 -3.22353 0
M  V30 63399 O 5959.69 2.05471 -3.45174 0
M  V30 63400 N 5957.9 0.911185 -2.75945 0
M  V30 63401 H 5957.45 0.0358884 -2.57575 0
M  V30 63402 H 5957.41 1.76467 -2.60205 0
M  V30 63403 N 5961.18 1.27241 -0.929923 0
M  V30 63404 C 5962.42 1.94555 -0.572375 0
M  V30 63405 C 5962.76 1.72889 0.884481 0
M  V30 63406 O 5962.03 1.05926 1.63125 0
M  V30 63407 C 5962.31 3.48625 -0.901797 0
M  V30 63408 C 5962.17 3.79625 -2.41257 0
M  V30 63409 C 5963.49 4.38193 -0.409247 0
M  V30 63410 H 5960.61 0.70662 -0.209422 0
M  V30 63411 H 5963.25 1.50317 -1.1621 0
M  V30 63412 H 5961.4 3.86436 -0.399927 0
M  V30 63413 H 5963.07 3.51593 -2.9863 0
M  V30 63414 H 5961.31 3.26098 -2.86082 0
M  V30 63415 H 5961.98 4.87275 -2.59359 0
M  V30 63416 H 5964.46 4.07545 -0.839399 0
M  V30 63417 H 5963.34 5.44812 -0.668674 0
M  V30 63418 H 5963.6 4.36671 0.690707 0
M  V30 63419 N 5962.66 0.695678 1.41415 0
M  V30 63420 C 5963.9 0.227025 2.01525 0
M  V30 63421 C 5964.23 -1.17035 1.54972 0
M  V30 63422 O 5963.51 -1.78996 0.760958 0
M  V30 63423 C 5963.79 0.284831 3.58972 0
M  V30 63424 C 5963.65 1.71915 4.1565 0
M  V30 63425 C 5964.96 -0.3553 4.38663 0
M  V30 63426 H 5962.08 0.0839682 0.732201 0
M  V30 63427 H 5964.73 0.884418 1.68161 0
M  V30 63428 H 5962.88 -0.274904 3.87526 0
M  V30 63429 H 5964.55 2.33274 3.97971 0
M  V30 63430 H 5962.79 2.25327 3.70689 0
M  V30 63431 H 5963.46 1.71113 5.24809 0
M  V30 63432 H 5965.94 0.121402 4.15923 0
M  V30 63433 H 5964.81 -0.284311 5.48163 0
M  V30 63434 H 5965.07 -1.43602 4.18128 0
M  V30 63435 N 5964.13 -1.51321 0.440437 0
M  V30 63436 C 5965.08 -2.29412 -0.383802 0
M  V30 63437 C 5966.08 -1.35392 -1.01811 0
M  V30 63438 O 5967.28 -1.52719 -0.952722 0
M  V30 63439 H 5963.66 -0.738359 -0.142586 0
M  V30 63440 H 5965.63 -2.96932 0.295637 0
M  V30 63441 C 5964.38 -3.1506 -1.4708 0
M  V30 63442 H 5963.7 -3.87296 -0.992078 0
M  V30 63443 H 5965.14 -3.72751 -2.02071 0
M  V30 63444 C 5963.6 -2.30636 -2.45578 0
M  V30 63445 O 5964.13 -1.96813 -3.50182 0
M  V30 63446 N 5962.33 -1.93799 -2.16541 0
M  V30 63447 H 5961.88 -2.21505 -1.31504 0
M  V30 63448 H 5961.84 -1.37611 -2.82684 0
M  V30 63449 N 5965.61 -0.171903 -1.5666 0
M  V30 63450 C 5966.86 0.471965 -1.96512 0
M  V30 63451 C 5967.18 1.63739 -1.05899 0
M  V30 63452 O 5966.45 1.95498 -0.125465 0
M  V30 63453 H 5965.03 0.177351 -0.725641 0
M  V30 63454 H 5967.69 -0.253223 -1.93248 0
M  V30 63455 H 5966.79 0.831587 -3.00817 0
M  V30 63456 N 5967.09 1.57271 0.101818 0
M  V30 63457 C 5968.02 1.96817 1.15491 0
M  V30 63458 C 5969 0.840368 1.392 0
M  V30 63459 O 5970.18 1.10007 1.53071 0
M  V30 63460 C 5967.31 2.27917 2.50542 0
M  V30 63461 C 5966.36 3.50396 2.43156 0
M  V30 63462 S 5967.19 5.0236 1.85457 0
M  V30 63463 C 5968.35 5.3663 3.22147 0
M  V30 63464 H 5968.58 2.85832 0.817749 0
M  V30 63465 H 5966.11 1.51271 0.309243 0
M  V30 63466 H 5968.07 2.46512 3.28241 0
M  V30 63467 H 5966.73 1.39485 2.8143 0
M  V30 63468 H 5965.92 3.69577 3.42679 0
M  V30 63469 H 5965.53 3.31277 1.73584 0
M  V30 63470 H 5967.82 5.32864 4.18404 0
M  V30 63471 H 5968.76 6.37714 3.07776 0
M  V30 63472 H 5969.17 4.64093 3.21368 0
M  V30 63473 N 5968.57 -0.372467 1.53135 0
M  V30 63474 C 5969.82 -1.1131 1.68205 0
M  V30 63475 C 5970.13 -1.90661 0.436781 0
M  V30 63476 O 5971.34 -2.67438 0.467896 0
M  V30 63477 C 5969.79 -2.02797 2.97324 0
M  V30 63478 C 5969.4 -1.28791 4.29088 0
M  V30 63479 C 5971.14 -2.76895 3.2176 0
M  V30 63480 C 5969.05 -2.1914 5.49301 0
M  V30 63481 H 5967.98 -0.419242 0.626699 0
M  V30 63482 H 5970.63 -0.374613 1.79635 0
M  V30 63483 H 5969.01 -2.80349 2.79679 0
M  V30 63484 H 5970.19 -0.563501 4.57342 0
M  V30 63485 H 5968.5 -0.665844 4.11042 0
M  V30 63486 H 5971.1 -3.44706 4.08756 0
M  V30 63487 H 5971.44 -3.41885 2.37529 0
M  V30 63488 H 5971.98 -2.06429 3.40047 0
M  V30 63489 H 5968.71 -1.58738 6.35989 0
M  V30 63490 H 5968.23 -2.8945 5.25337 0
M  V30 63491 H 5969.91 -2.78853 5.83823 0
M  V30 63492 N 5970.05 -1.44378 -0.631875 0
M  V30 63493 C 5971.01 -1.50831 -1.72577 0
M  V30 63494 C 5972.01 -0.390434 -1.55988 0
M  V30 63495 O 5973.2 -0.653026 -1.61497 0
M  V30 63496 C 5970.33 -1.38152 -3.11652 0
M  V30 63497 H 5971.52 -2.48271 -1.6823 0
M  V30 63498 H 5969.08 -1.31459 -0.845468 0
M  V30 63499 H 5969.81 -0.418018 -3.21595 0
M  V30 63500 H 5969.6 -2.1921 -3.25099 0
M  V30 63501 H 5971.09 -1.45646 -3.91378 0
M  V30 63502 N 5971.52 0.872212 -1.31264 0
M  V30 63503 C 5972.94 1.15759 -1.09873 0
M  V30 63504 C 5973.14 2.01065 0.132261 0
M  V30 63505 O 5972.2 2.38737 0.822233 0
M  V30 63506 C 5973.51 1.8519 -2.36907 0
M  V30 63507 C 5975.06 1.97901 -2.42496 0
M  V30 63508 C 5975.53 2.70746 -3.69406 0
M  V30 63509 N 5977.02 2.78283 -3.70287 0
M  V30 63510 C 5977.76 3.35254 -4.6518 0
M  V30 63511 N 5977.25 3.93173 -5.70427 0
M  V30 63512 N 5979.05 3.3319 -4.52704 0
M  V30 63513 H 5971.2 0.30371 -2.10217 0
M  V30 63514 H 5973.46 0.197139 -0.927276 0
M  V30 63515 H 5973.17 1.29957 -3.26809 0
M  V30 63516 H 5973.04 2.85484 -2.46533 0
M  V30 63517 H 5975.43 2.523 -1.53065 0
M  V30 63518 H 5975.51 0.966561 -2.36836 0
M  V30 63519 H 5975.15 2.17015 -4.59202 0
M  V30 63520 H 5975.08 3.72394 -3.72331 0
M  V30 63521 H 5977.57 2.37174 -2.94205 0
M  V30 63522 H 5977.89 4.34748 -6.38916 0
M  V30 63523 H 5976.23 3.91555 -5.74203 0
M  V30 63524 H 5979.42 2.87178 -3.69657 0
M  V30 63525 H 5979.6 3.77292 -5.26835 0
M  V30 63526 N 5973 1.14188 1.08623 0
M  V30 63527 C 5973.93 0.784567 2.15354 0
M  V30 63528 C 5974.95 -0.197524 1.61597 0
M  V30 63529 O 5976.14 0.0238665 1.78484 0
M  V30 63530 C 5973.24 0.143552 3.38596 0
M  V30 63531 C 5972.41 1.15981 4.21743 0
M  V30 63532 C 5971.47 0.54297 5.23391 0
M  V30 63533 O 5970.49 1.20531 5.56292 0
M  V30 63534 N 5971.7 -0.681263 5.76489 0
M  V30 63535 H 5974.46 1.70303 2.46611 0
M  V30 63536 H 5972.02 1.036 1.24413 0
M  V30 63537 H 5974.01 -0.281561 4.03719 0
M  V30 63538 H 5972.58 -0.678003 3.05159 0
M  V30 63539 H 5971.8 1.76194 3.52632 0
M  V30 63540 H 5973.09 1.8464 4.74115 0
M  V30 63541 H 5972.49 -1.238 5.51987 0
M  V30 63542 H 5971.05 -1.04892 6.43305 0
M  V30 63543 N 5974.48 -1.26746 0.936658 0
M  V30 63544 C 5975.41 -2.24894 0.387035 0
M  V30 63545 C 5976.39 -1.54006 -0.521619 0
M  V30 63546 O 5977.58 -1.82799 -0.460094 0
M  V30 63547 C 5974.7 -3.35773 -0.444352 0
M  V30 63548 C 5973.75 -4.246 0.402134 0
M  V30 63549 S 5974.58 -5.03505 1.82327 0
M  V30 63550 C 5975.74 -6.17863 0.999813 0
M  V30 63551 H 5975.97 -2.71166 1.21886 0
M  V30 63552 H 5973.5 -1.35541 0.739457 0
M  V30 63553 H 5975.46 -4.001 -0.918143 0
M  V30 63554 H 5974.12 -2.88121 -1.2508 0
M  V30 63555 H 5973.32 -5.03454 -0.234642 0
M  V30 63556 H 5972.92 -3.65114 0.810438 0
M  V30 63557 H 5975.21 -6.77075 0.23997 0
M  V30 63558 H 5976.15 -6.85836 1.76166 0
M  V30 63559 H 5976.56 -5.61932 0.53787 0
M  V30 63560 N 5975.96 -0.703167 -1.41044 0
M  V30 63561 C 5977.2 -0.237709 -2.01402 0
M  V30 63562 C 5977.54 1.16211 -1.55591 0
M  V30 63563 O 5976.81 1.7859 -0.77044 0
M  V30 63564 C 5977.1 -0.303864 -3.58816 0
M  V30 63565 C 5976.95 -1.74117 -4.14733 0
M  V30 63566 C 5978.27 0.332032 -4.38846 0
M  V30 63567 H 5975.39 -0.0878501 -0.731745 0
M  V30 63568 H 5978.03 -0.893323 -1.67689 0
M  V30 63569 H 5976.18 0.254349 -3.87667 0
M  V30 63570 H 5977.85 -2.35382 -3.96728 0
M  V30 63571 H 5976.09 -2.2729 -3.69488 0
M  V30 63572 H 5976.76 -1.73894 -5.23894 0
M  V30 63573 H 5979.24 -0.143458 -4.15853 0
M  V30 63574 H 5978.12 0.255236 -5.48306 0
M  V30 63575 H 5978.38 1.41383 -4.18883 0
M  V30 63576 N 5977.44 1.51085 -0.448455 0
M  V30 63577 C 5978.71 1.94818 0.174751 0
M  V30 63578 C 5979.09 1.38773 1.59076 0
M  V30 63579 O 5978.44 0.579335 2.21034 0
M  V30 63580 C 5978.65 3.48714 0.141167 0
M  V30 63581 C 5980 4.23226 0.341265 0
M  V30 63582 O 5981.02 3.55527 0.218783 0
M  V30 63583 O 5979.88 5.43348 0.586139 0
M  V30 63584 H 5976.98 0.817657 0.123962 0
M  V30 63585 H 5979.52 1.61942 -0.507234 0
M  V30 63586 H 5978.29 3.81993 -0.848356 0
M  V30 63587 H 5977.92 3.88064 0.865586 0
M  V30 63588 N 5978.91 0.180209 1.56566 0
M  V30 63589 C 5979.85 -0.785501 2.14255 0
M  V30 63590 C 5980.83 -1.21987 1.07508 0
M  V30 63591 O 5982.01 -1.31005 1.35535 0
M  V30 63592 C 5979.14 -2.05893 2.68934 0
M  V30 63593 C 5978.18 -1.76788 3.88134 0
M  V30 63594 S 5979.02 -0.929205 5.27377 0
M  V30 63595 C 5980.17 -2.2131 5.85468 0
M  V30 63596 H 5980.4 -0.295041 2.95832 0
M  V30 63597 H 5977.94 -0.0345884 1.54361 0
M  V30 63598 H 5979.9 -2.79032 3.01084 0
M  V30 63599 H 5978.56 -2.52052 1.87426 0
M  V30 63600 H 5977.75 -2.71297 4.24752 0
M  V30 63601 H 5977.35 -1.1174 3.56918 0
M  V30 63602 H 5979.64 -3.16697 5.98923 0
M  V30 63603 H 5980.59 -1.89148 6.8237 0
M  V30 63604 H 5980.99 -2.33477 5.13954 0
M  V30 63605 N 5980.39 -1.57323 -0.0934766 0
M  V30 63606 C 5981.32 -2.05212 -1.11402 0
M  V30 63607 C 5982.3 -0.941345 -1.41678 0
M  V30 63608 O 5983.49 -1.21271 -1.5168 0
M  V30 63609 C 5980.62 -2.47791 -2.43345 0
M  V30 63610 C 5979.57 -3.62546 -2.27474 0
M  V30 63611 C 5978.9 -3.91107 -3.64608 0
M  V30 63612 C 5980.2 -4.93377 -1.71394 0
M  V30 63613 H 5981.89 -2.90722 -0.715599 0
M  V30 63614 H 5979.44 -1.39861 -0.342778 0
M  V30 63615 H 5981.39 -2.79902 -3.15012 0
M  V30 63616 H 5980.12 -1.59282 -2.85126 0
M  V30 63617 H 5978.77 -3.30684 -1.58252 0
M  V30 63618 H 5978.42 -2.99763 -4.0392 0
M  V30 63619 H 5978.12 -4.68366 -3.54834 0
M  V30 63620 H 5979.65 -4.25695 -4.3774 0
M  V30 63621 H 5981.06 -5.2386 -2.32904 0
M  V30 63622 H 5979.46 -5.7481 -1.72375 0
M  V30 63623 H 5980.53 -4.802 -0.673511 0
M  V30 63624 N 5981.87 0.364341 -1.53331 0
M  V30 63625 C 5983.12 1.10849 -1.69824 0
M  V30 63626 C 5983.45 1.8893 -0.449358 0
M  V30 63627 O 5982.72 1.86462 0.553371 0
M  V30 63628 C 5983.01 2.0667 -2.94889 0
M  V30 63629 C 5982.86 1.3219 -4.29937 0
M  V30 63630 C 5984.18 3.06777 -3.15557 0
M  V30 63631 H 5981.3 0.401604 -0.617967 0
M  V30 63632 H 5983.94 0.389179 -1.85971 0
M  V30 63633 H 5982.09 2.68009 -2.81253 0
M  V30 63634 H 5983.76 0.73626 -4.55387 0
M  V30 63635 H 5982.01 0.623765 -4.29292 0
M  V30 63636 H 5982.68 2.02332 -5.13581 0
M  V30 63637 H 5985.15 2.55542 -3.28386 0
M  V30 63638 H 5984.03 3.71044 -4.04496 0
M  V30 63639 H 5984.29 3.77015 -2.30894 0
M  V30 63640 N 5983.35 1.44711 0.624209 0
M  V30 63641 C 5984.26 1.54614 1.76441 0
M  V30 63642 C 5985.27 0.43143 1.68567 0
M  V30 63643 O 5986.45 0.689767 1.8922 0
M  V30 63644 C 5983.52 1.49415 3.12851 0
M  V30 63645 C 5982.58 2.71793 3.32306 0
M  V30 63646 C 5981.81 2.66833 4.62208 0
M  V30 63647 O 5982.03 1.73224 5.43461 0
M  V30 63648 O 5980.97 3.5779 4.84015 0
M  V30 63649 H 5984.79 2.50957 1.71039 0
M  V30 63650 H 5982.38 1.27035 0.786281 0
M  V30 63651 H 5984.26 1.49064 3.94155 0
M  V30 63652 H 5982.93 0.562191 3.18781 0
M  V30 63653 H 5981.84 2.77711 2.50654 0
M  V30 63654 H 5983.17 3.6406 3.31242 0
M  V30 63655 N 5984.83 -0.865239 1.31725 0
M  V30 63656 C 5986.05 -1.65656 1.24791 0
M  V30 63657 C 5986.48 -1.87209 -0.182886 0
M  V30 63658 O 5985.83 -1.41725 -1.13065 0
M  V30 63659 C 5985.88 -2.99914 2.00209 0
M  V30 63660 O 5984.99 -3.89931 1.34266 0
M  V30 63661 H 5984.33 -0.505444 0.430607 0
M  V30 63662 H 5986.86 -1.07844 1.7387 0
M  V30 63663 H 5986.87 -3.49815 2.09984 0
M  V30 63664 H 5985.54 -2.83548 3.04259 0
M  V30 63665 H 5984.12 -3.48386 1.32973 0
M  V30 63666 N 5986.31 -1.14762 -1.08016 0
M  V30 63667 C 5987.53 -0.942381 -1.84754 0
M  V30 63668 C 5987.96 0.504125 -1.81219 0
M  V30 63669 O 5987.31 1.35887 -1.20019 0
M  V30 63670 C 5987.36 -1.45283 -3.30038 0
M  V30 63671 O 5986.47 -0.647558 -4.07284 0
M  V30 63672 H 5985.81 -0.336633 -0.572341 0
M  V30 63673 H 5988.34 -1.52582 -1.36308 0
M  V30 63674 H 5988.35 -1.46273 -3.80878 0
M  V30 63675 H 5987.02 -2.50595 -3.31927 0
M  V30 63676 H 5985.6 -0.706724 -3.66142 0
M  V30 63677 N 5987.78 1.26247 -0.943366 0
M  V30 63678 C 5989.01 1.98275 -0.608411 0
M  V30 63679 C 5989.43 1.69759 0.810149 0
M  V30 63680 O 5988.79 0.946901 1.54608 0
M  V30 63681 C 5988.84 3.50202 -0.859714 0
M  V30 63682 O 5987.94 4.12345 0.0670921 0
M  V30 63683 H 5987.28 0.621965 -0.232499 0
M  V30 63684 H 5989.81 1.60658 -1.26689 0
M  V30 63685 H 5989.82 4.00446 -0.781482 0
M  V30 63686 H 5988.5 3.70288 -1.89367 0
M  V30 63687 H 5987.08 3.72848 -0.0623854 0
M  V30 63688 N 5989.26 0.710637 1.40669 0
M  V30 63689 C 5990.21 0.0436958 2.32559 0
M  V30 63690 C 5991.2 -0.752372 1.51775 0
M  V30 63691 O 5992.41 -0.656297 1.67609 0
M  V30 63692 H 5988.78 -0.00467222 0.751985 0
M  V30 63693 H 5990.76 0.835499 2.86465 0
M  V30 63694 C 5989.5 -0.867677 3.367 0
M  V30 63695 H 5988.83 -0.264527 3.98924 0
M  V30 63696 H 5990.27 -1.30238 4.03502 0
M  V30 63697 C 5988.73 -1.99085 2.71785 0
M  V30 63698 O 5989.26 -3.0812 2.57731 0
M  V30 63699 N 5987.46 -1.77301 2.30245 0
M  V30 63700 H 5987.01 -0.88624 2.41875 0
M  V30 63701 H 5986.97 -2.52632 1.87148 0
M  V30 63702 N 5990.74 -1.50845 0.456461 0
M  V30 63703 C 5991.99 -2.02535 -0.103701 0
M  V30 63704 C 5992.32 -1.33879 -1.40678 0
M  V30 63705 O 5991.59 -0.459761 -1.88988 0
M  V30 63706 C 5991.88 -3.58826 -0.302691 0
M  V30 63707 C 5991.73 -4.38073 1.02038 0
M  V30 63708 C 5993.05 -4.27047 -1.06389 0
M  V30 63709 H 5990.17 -0.73611 -0.036214 0
M  V30 63710 H 5992.81 -1.80304 0.599197 0
M  V30 63711 H 5990.96 -3.77898 -0.901409 0
M  V30 63712 H 5992.63 -4.30607 1.65455 0
M  V30 63713 H 5990.87 -4.02396 1.6205 0
M  V30 63714 H 5991.55 -5.45649 0.834957 0
M  V30 63715 H 5994.02 -4.12361 -0.556553 0
M  V30 63716 H 5992.9 -5.36244 -1.1719 0
M  V30 63717 H 5993.16 -3.89211 -2.09683 0
M  V30 63718 N 5992.22 -0.188509 -1.56469 0
M  V30 63719 C 5993.13 0.747098 -2.22386 0
M  V30 63720 C 5994.14 1.23981 -1.22085 0
M  V30 63721 O 5995.32 1.28834 -1.54802 0
M  V30 63722 C 5992.38 1.95218 -2.86515 0
M  V30 63723 C 5991.45 1.50468 -4.02067 0
M  V30 63724 C 5990.68 2.65231 -4.63128 0
M  V30 63725 O 5990.9 3.82545 -4.23102 0
M  V30 63726 O 5989.84 2.38321 -5.52708 0
M  V30 63727 H 5993.66 0.21575 -3.02933 0
M  V30 63728 H 5991.25 0.0404831 -1.49345 0
M  V30 63729 H 5993.13 2.65661 -3.27112 0
M  V30 63730 H 5991.8 2.47225 -2.08953 0
M  V30 63731 H 5990.71 0.769236 -3.66106 0
M  V30 63732 H 5992.04 1.03134 -4.81274 0
M  V30 63733 N 5993.7 1.5737 0.0851321 0
M  V30 63734 C 5994.63 1.98031 1.13397 0
M  V30 63735 C 5995.61 0.855085 1.38301 0
M  V30 63736 O 5996.79 1.11625 1.51895 0
M  V30 63737 C 5993.92 2.30562 2.48111 0
M  V30 63738 C 5992.96 3.52956 2.39426 0
M  V30 63739 S 5993.8 5.04299 1.80118 0
M  V30 63740 C 5994.95 5.40017 3.16437 0
M  V30 63741 H 5995.19 2.86684 0.787387 0
M  V30 63742 H 5992.72 1.51591 0.293181 0
M  V30 63743 H 5994.68 2.49979 3.25608 0
M  V30 63744 H 5993.34 1.42462 2.79935 0
M  V30 63745 H 5992.53 3.73191 3.38739 0
M  V30 63746 H 5992.13 3.331 1.70061 0
M  V30 63747 H 5994.42 5.37272 4.12729 0
M  V30 63748 H 5995.37 6.40943 3.00995 0
M  V30 63749 H 5995.78 4.67476 3.16428 0
M  V30 63750 N 5995.17 -0.356204 1.53522 0
M  V30 63751 C 5996.42 -1.0952 1.69376 0
M  V30 63752 C 5996.74 -1.90187 0.456979 0
M  V30 63753 O 5997.94 -2.66927 0.496235 0
M  V30 63754 C 5996.4 -1.99632 2.99458 0
M  V30 63755 C 5996.01 -1.24233 4.3043 0
M  V30 63756 C 5997.75 -2.73466 3.24679 0
M  V30 63757 C 5995.66 -2.13301 5.51595 0
M  V30 63758 H 5994.59 -0.412571 0.631111 0
M  V30 63759 H 5997.24 -0.35554 1.80023 0
M  V30 63760 H 5995.62 -2.77367 2.82637 0
M  V30 63761 H 5996.79 -0.514962 4.57914 0
M  V30 63762 H 5995.11 -0.62221 4.11725 0
M  V30 63763 H 5997.71 -3.40351 4.12389 0
M  V30 63764 H 5998.05 -3.39347 2.41142 0
M  V30 63765 H 5998.58 -2.02811 3.42217 0
M  V30 63766 H 5995.32 -1.51983 6.37637 0
M  V30 63767 H 5994.84 -2.83861 5.28377 0
M  V30 63768 H 5996.52 -2.72645 5.86748 0
M  V30 63769 N 5996.65 -1.4504 -0.616526 0
M  V30 63770 C 5997.58 -1.55864 -1.73863 0
M  V30 63771 C 5998.56 -0.410715 -1.65067 0
M  V30 63772 O 5999.75 -0.632717 -1.83604 0
M  V30 63773 C 5996.88 -1.51646 -3.12443 0
M  V30 63774 C 5995.83 -2.65065 -3.36042 0
M  V30 63775 C 5995.16 -2.459 -4.74802 0
M  V30 63776 C 5996.46 -4.07132 -3.27171 0
M  V30 63777 H 5998.15 -2.4979 -1.65062 0
M  V30 63778 H 5995.7 -1.20219 -0.792682 0
M  V30 63779 H 5997.65 -1.57817 -3.90732 0
M  V30 63780 H 5996.37 -0.542455 -3.22064 0
M  V30 63781 H 5995.03 -2.58308 -2.6014 0
M  V30 63782 H 5994.68 -1.46658 -4.81145 0
M  V30 63783 H 5994.38 -3.21952 -4.91549 0
M  V30 63784 H 5995.91 -2.53911 -5.55303 0
M  V30 63785 H 5997.32 -4.1518 -3.95346 0
M  V30 63786 H 5995.72 -4.83504 -3.55449 0
M  V30 63787 H 5996.79 -4.29671 -2.24747 0
M  V30 63788 N 5998.13 0.858241 -1.32182 0
M  V30 63789 C 5999.08 1.96651 -1.20817 0
M  V30 63790 C 6000.05 1.6585 -0.0911782 0
M  V30 63791 O 6001.23 1.88935 -0.266099 0
M  V30 63792 C 5998.37 3.32234 -0.933525 0
M  V30 63793 C 5997.48 3.75557 -2.13497 0
M  V30 63794 C 5996.62 4.99913 -1.79611 0
M  V30 63795 C 5995.66 5.35718 -2.96096 0
M  V30 63796 N 5994.8 6.51252 -2.62327 0
M  V30 63797 H 5999.64 2.05703 -2.15616 0
M  V30 63798 H 5997.17 1.00685 -1.07242 0
M  V30 63799 H 5999.13 4.10315 -0.754796 0
M  V30 63800 H 5997.76 3.22792 -0.0223414 0
M  V30 63801 H 5996.81 2.93159 -2.42409 0
M  V30 63802 H 5998.12 3.98014 -3.00643 0
M  V30 63803 H 5997.28 5.85693 -1.58269 0
M  V30 63804 H 5996.02 4.79385 -0.896729 0
M  V30 63805 H 5995.02 4.48452 -3.18074 0
M  V30 63806 H 5996.25 5.58205 -3.86761 0
M  V30 63807 H 5994.19 6.32247 -1.74926 0
M  V30 63808 H 5994.11 6.7371 -3.43003 0
M  V30 63809 H 5995.38 7.40193 -2.44406 0
M  V30 63810 N 5999.61 1.15334 1.07405 0
M  V30 63811 C 6000.85 0.92787 1.79991 0
M  V30 63812 C 6001.18 -0.545026 1.86708 0
M  V30 63813 O 6000.44 -1.42016 1.34648 0
M  V30 63814 C 6000.74 1.48657 3.25017 0
M  V30 63815 C 6000.4 2.97986 3.38401 0
M  V30 63816 C 5999.06 3.38752 3.41761 0
M  V30 63817 C 6001.42 3.93958 3.41243 0
M  V30 63818 C 5998.74 4.74132 3.45565 0
M  V30 63819 C 6001.1 5.29209 3.46584 0
M  V30 63820 C 5999.76 5.69472 3.48221 0
M  V30 63821 H 5999.03 0.339532 0.658634 0
M  V30 63822 H 6001.68 1.43867 1.2639 0
M  V30 63823 H 5999.98 0.896945 3.81395 0
M  V30 63824 H 6001.68 1.28794 3.79754 0
M  V30 63825 H 5998.27 2.65475 3.36484 0
M  V30 63826 H 6002.45 3.63537 3.37868 0
M  V30 63827 H 5997.71 5.04673 3.45131 0
M  V30 63828 H 6001.88 6.03371 3.47729 0
M  V30 63829 H 5999.51 6.74357 3.50922 0
M  V30 63830 N 6001.09 -1.25745 0.950048 0
M  V30 63831 C 6002.33 -1.93334 0.602362 0
M  V30 63832 C 6002.66 -1.74457 -0.859933 0
M  V30 63833 O 6001.92 -1.08038 -1.63176 0
M  V30 63834 C 6002.22 -3.4584 0.901642 0
M  V30 63835 C 6001.88 -3.84866 2.34923 0
M  V30 63836 C 6000.54 -3.95231 2.74493 0
M  V30 63837 C 6002.9 -4.04275 3.28955 0
M  V30 63838 C 6000.22 -4.22408 4.07171 0
M  V30 63839 C 6002.58 -4.32943 4.61241 0
M  V30 63840 C 6001.24 -4.41524 5.00613 0
M  V30 63841 H 6000.51 -0.707458 0.22042 0
M  V30 63842 H 6003.16 -1.49382 1.19822 0
M  V30 63843 H 6001.46 -3.91163 0.223337 0
M  V30 63844 H 6003.16 -3.96314 0.611273 0
M  V30 63845 H 5999.75 -3.77351 2.03234 0
M  V30 63846 H 6003.93 -3.95686 2.99577 0
M  V30 63847 H 5999.19 -4.27266 4.37326 0
M  V30 63848 H 6003.36 -4.46906 5.34086 0
M  V30 63849 H 6000.99 -4.62336 6.03448 0
M  V30 63850 N 6002.56 -0.718087 -1.4029 0
M  V30 63851 C 6003.84 -0.185716 -1.94716 0
M  V30 63852 C 6004.22 1.3091 -1.65608 0
M  V30 63853 O 6003.57 2.06649 -0.975104 0
M  V30 63854 C 6003.78 -0.501136 -3.45383 0
M  V30 63855 C 6005.13 -0.441169 -4.22302 0
M  V30 63856 O 6006.15 -0.437341 -3.53505 0
M  V30 63857 O 6005.01 -0.420881 -5.44877 0
M  V30 63858 H 6002.1 -0.0281871 -0.82652 0
M  V30 63859 H 6004.65 -0.795791 -1.49884 0
M  V30 63860 H 6003.42 -1.53492 -3.59939 0
M  V30 63861 H 6003.05 0.138773 -3.97358 0
M  V30 63862 N 6004.04 1.50601 -0.464455 0
M  V30 63863 C 6004.98 2.25031 0.378995 0
M  V30 63864 C 6005.95 1.28068 1.00187 0
M  V30 63865 O 6007.14 1.57274 1.03909 0
M  V30 63866 C 6004.26 3.0215 1.53046 0
M  V30 63867 C 6003.31 4.13985 1.02562 0
M  V30 63868 S 6004.14 5.35472 -0.0543336 0
M  V30 63869 C 6005.3 6.16137 1.10116 0
M  V30 63870 H 6005.53 2.96223 -0.252835 0
M  V30 63871 H 6003.07 1.52375 -0.249259 0
M  V30 63872 H 6005.02 3.47175 2.19043 0
M  V30 63873 H 6003.68 2.30496 2.13379 0
M  V30 63874 H 6002.88 4.67323 1.88746 0
M  V30 63875 H 6002.48 3.71362 0.443466 0
M  V30 63876 H 6004.77 6.46868 2.01414 0
M  V30 63877 H 6005.71 7.05492 0.607182 0
M  V30 63878 H 6006.12 5.48071 1.35199 0
M  V30 63879 N 6005.52 0.196805 1.56366 0
M  V30 63880 C 6006.77 -0.441514 1.97628 0
M  V30 63881 C 6007.1 -1.6151 1.08374 0
M  V30 63882 O 6006.35 -1.95312 0.123208 0
M  V30 63883 C 6006.65 -0.942261 3.44755 0
M  V30 63884 C 6006.32 0.118135 4.50745 0
M  V30 63885 C 6004.98 0.4095 4.79454 0
M  V30 63886 C 6007.33 0.836555 5.14443 0
M  V30 63887 C 6004.66 1.42423 5.69151 0
M  V30 63888 C 6007.01 1.84045 6.05236 0
M  V30 63889 C 6005.67 2.13899 6.323 0
M  V30 63890 H 6004.94 -0.161561 0.723173 0
M  V30 63891 H 6007.59 0.29413 1.89228 0
M  V30 63892 H 6005.9 -1.75621 3.50235 0
M  V30 63893 H 6007.59 -1.44558 3.74037 0
M  V30 63894 H 6004.18 -0.119123 4.28434 0
M  V30 63895 H 6008.37 0.624683 4.92353 0
M  V30 63896 H 6003.62 1.66143 5.88393 0
M  V30 63897 H 6007.8 2.40234 6.53652 0
M  V30 63898 H 6005.42 2.92673 7.01603 0
M  V30 63899 N 6007 -1.57413 -0.0767852 0
M  V30 63900 C 6007.93 -2.06382 -1.09219 0
M  V30 63901 C 6008.91 -0.956319 -1.40672 0
M  V30 63902 O 6010.09 -1.22873 -1.50385 0
M  V30 63903 C 6007.22 -2.50358 -2.40704 0
M  V30 63904 C 6006.18 -3.64938 -2.23616 0
M  V30 63905 C 6005.5 -3.94953 -3.60439 0
M  V30 63906 C 6006.8 -4.95168 -1.66152 0
M  V30 63907 H 6008.5 -2.91465 -0.684724 0
M  V30 63908 H 6006.04 -1.40216 -0.327924 0
M  V30 63909 H 6008 -2.83227 -3.12026 0
M  V30 63910 H 6006.72 -1.62297 -2.83421 0
M  V30 63911 H 6005.38 -3.32344 -1.54735 0
M  V30 63912 H 6005.03 -3.0403 -4.00717 0
M  V30 63913 H 6004.73 -4.72103 -3.49846 0
M  V30 63914 H 6006.25 -4.30314 -4.332 0
M  V30 63915 H 6007.67 -5.263 -2.27334 0
M  V30 63916 H 6006.06 -5.76606 -1.66268 0
M  V30 63917 H 6007.13 -4.80887 -0.622541 0
M  V30 63918 N 6008.48 0.348057 -1.53709 0
M  V30 63919 C 6009.42 1.42723 -1.8138 0
M  V30 63920 C 6010.39 1.52459 -0.659213 0
M  V30 63921 O 6011.58 1.68069 -0.903189 0
M  V30 63922 C 6008.72 2.79436 -2.02508 0
M  V30 63923 C 6007.83 2.78528 -3.30221 0
M  V30 63924 C 6006.97 4.0693 -3.41441 0
M  V30 63925 C 6006.01 4.00232 -4.63121 0
M  V30 63926 N 6005.14 5.20316 -4.71398 0
M  V30 63927 H 6009.98 1.18426 -2.73458 0
M  V30 63928 H 6007.52 0.573762 -1.35449 0
M  V30 63929 H 6009.48 3.5888 -2.12746 0
M  V30 63930 H 6008.11 3.02095 -1.13748 0
M  V30 63931 H 6007.16 1.91216 -3.28848 0
M  V30 63932 H 6008.47 2.69456 -4.19756 0
M  V30 63933 H 6007.63 4.94796 -3.51086 0
M  V30 63934 H 6006.36 4.18777 -2.49954 0
M  V30 63935 H 6005.37 3.10751 -4.53557 0
M  V30 63936 H 6006.59 3.89971 -5.55967 0
M  V30 63937 H 6004.54 5.32716 -3.82819 0
M  V30 63938 H 6004.46 5.13482 -5.54862 0
M  V30 63939 H 6005.73 6.09965 -4.85348 0
M  V30 63940 N 6009.95 1.45365 0.608825 0
M  V30 63941 C 6010.88 1.56784 1.73034 0
M  V30 63942 C 6011.87 0.419463 1.64847 0
M  V30 63943 O 6013.05 0.642445 1.83266 0
M  V30 63944 C 6010.18 1.53301 3.11634 0
M  V30 63945 C 6009.13 2.66843 3.34632 0
M  V30 63946 C 6008.46 2.48415 4.73492 0
M  V30 63947 C 6009.76 4.08861 3.25007 0
M  V30 63948 H 6011.45 2.50662 1.63735 0
M  V30 63949 H 6009 1.20637 0.786295 0
M  V30 63950 H 6010.95 1.59887 3.8989 0
M  V30 63951 H 6009.68 0.559527 3.21771 0
M  V30 63952 H 6008.34 2.59684 2.58766 0
M  V30 63953 H 6007.98 1.49208 4.8036 0
M  V30 63954 H 6007.68 3.24555 4.89835 0
M  V30 63955 H 6009.21 2.56852 5.53949 0
M  V30 63956 H 6010.62 4.17271 3.93138 0
M  V30 63957 H 6009.02 4.85382 3.5288 0
M  V30 63958 H 6010.09 4.30856 2.22465 0
M  V30 63959 N 6011.43 -0.851219 1.32635 0
M  V30 63960 C 6012.38 -1.96008 1.21859 0
M  V30 63961 C 6013.35 -1.65799 0.0999724 0
M  V30 63962 O 6014.53 -1.88792 0.276115 0
M  V30 63963 C 6011.67 -3.31734 0.951131 0
M  V30 63964 C 6010.79 -3.74419 2.15486 0
M  V30 63965 C 6009.92 -4.98954 1.82259 0
M  V30 63966 C 6008.96 -5.3414 2.98933 0
M  V30 63967 N 6008.1 -6.49852 2.65777 0
M  V30 63968 H 6012.94 -2.04557 2.16704 0
M  V30 63969 H 6010.48 -1.00115 1.07775 0
M  V30 63970 H 6012.43 -4.09909 0.776545 0
M  V30 63971 H 6011.06 -3.22776 0.0394596 0
M  V30 63972 H 6010.12 -2.91869 2.4396 0
M  V30 63973 H 6011.43 -3.96414 3.0275 0
M  V30 63974 H 6010.58 -5.84845 1.61372 0
M  V30 63975 H 6009.32 -4.78903 0.92214 0
M  V30 63976 H 6008.33 -4.46759 3.20448 0
M  V30 63977 H 6009.55 -5.56146 3.89716 0
M  V30 63978 H 6007.5 -6.31311 1.78276 0
M  V30 63979 H 6007.41 -6.71881 3.46571 0
M  V30 63980 H 6008.68 -7.38887 2.48328 0
M  V30 63981 N 6012.91 -1.15902 -1.06792 0
M  V30 63982 C 6014.19 -0.847763 -1.76273 0
M  V30 63983 C 6014.57 0.655466 -2.00666 0
M  V30 63984 O 6013.92 1.60166 -1.6297 0
M  V30 63985 C 6014.13 -1.66486 -3.0673 0
M  V30 63986 C 6015.47 -1.87465 -3.80975 0
M  V30 63987 O 6016.5 -1.6331 -3.16557 0
M  V30 63988 O 6015.36 -2.27959 -4.96686 0
M  V30 63989 H 6012.45 -0.312335 -0.765752 0
M  V30 63990 H 6015 -1.26511 -1.13107 0
M  V30 63991 H 6013.77 -2.68518 -2.84629 0
M  V30 63992 H 6013.39 -1.24423 -3.7763 0
M  V30 63993 N 6014.39 1.2524 -0.956703 0
M  V30 63994 C 6015.64 1.9231 -0.608263 0
M  V30 63995 C 6015.95 1.75729 0.858996 0
M  V30 63996 O 6017.16 2.37391 1.31749 0
M  V30 63997 C 6015.61 3.44631 -1.0372 0
M  V30 63998 C 6015.22 3.69918 -2.52715 0
M  V30 63999 C 6016.96 4.17616 -0.761388 0
M  V30 64000 C 6014.87 5.15755 -2.89398 0
M  V30 64001 H 6013.8 0.720025 -0.223785 0
M  V30 64002 H 6016.45 1.42067 -1.16143 0
M  V30 64003 H 6014.83 3.93846 -0.412426 0
M  V30 64004 H 6016.01 3.31346 -3.20229 0
M  V30 64005 H 6014.32 3.10197 -2.77789 0
M  V30 64006 H 6016.92 5.25044 -1.0116 0
M  V30 64007 H 6017.26 4.15201 0.302229 0
M  V30 64008 H 6017.8 3.74314 -1.34661 0
M  V30 64009 H 6014.54 5.23282 -3.94786 0
M  V30 64010 H 6014.06 5.55366 -2.26559 0
M  V30 64011 H 6015.73 5.83895 -2.78703 0
M  V30 64012 N 6015.87 0.725517 1.39907 0
M  V30 64013 C 6017.11 0.26972 2.00998 0
M  V30 64014 C 6017.45 -1.13721 1.5742 0
M  V30 64015 O 6016.72 -1.77342 0.798755 0
M  V30 64016 C 6017 0.36091 3.58287 0
M  V30 64017 C 6016.86 1.80693 4.1191 0
M  V30 64018 C 6018.18 -0.262173 4.39318 0
M  V30 64019 H 6015.3 0.0994804 0.730255 0
M  V30 64020 H 6017.94 0.919888 1.66247 0
M  V30 64021 H 6016.09 -0.192642 3.88022 0
M  V30 64022 H 6017.76 2.41663 3.92933 0
M  V30 64023 H 6016 2.3314 3.65826 0
M  V30 64024 H 6016.67 1.82207 5.21061 0
M  V30 64025 H 6019.15 0.209598 4.15572 0
M  V30 64026 H 6018.03 -0.167973 5.48643 0
M  V30 64027 H 6018.29 -1.34701 4.2108 0
M  V30 64028 N 6017.35 -1.50352 0.472435 0
M  V30 64029 C 6018.59 -2.01934 -0.0819296 0
M  V30 64030 C 6018.91 -1.35641 -1.40095 0
M  V30 64031 O 6018.18 -0.502193 -1.89354 0
M  V30 64032 H 6016.76 -0.746259 -0.033268 0
M  V30 64033 H 6019.43 -1.84669 0.623163 0
M  V30 64034 H 6018.52 -3.11233 -0.232456 0
M  V30 64035 N 6018.82 -0.205094 -1.5626 0
M  V30 64036 C 6020.05 0.43943 -2.02691 0
M  V30 64037 C 6020.47 1.53711 -1.08419 0
M  V30 64038 O 6019.83 1.81167 -0.0694253 0
M  V30 64039 C 6019.88 0.96355 -3.47488 0
M  V30 64040 O 6018.98 2.0759 -3.56343 0
M  V30 64041 H 6018.32 0.10152 -0.656193 0
M  V30 64042 H 6020.85 -0.318906 -2.02099 0
M  V30 64043 H 6020.86 1.2776 -3.87481 0
M  V30 64044 H 6019.54 0.160057 -4.15592 0
M  V30 64045 H 6018.12 1.76973 -3.2823 0
M  V30 64046 N 6020.3 1.57451 0.0684361 0
M  V30 64047 C 6021.21 2.07278 1.09878 0
M  V30 64048 C 6022.23 1.003 1.42183 0
M  V30 64049 O 6023.4 1.31792 1.52292 0
M  V30 64050 C 6020.47 2.50957 2.3921 0
M  V30 64051 C 6019.53 3.72248 2.13846 0
M  V30 64052 C 6018.76 4.13835 3.37011 0
M  V30 64053 O 6018.99 3.55264 4.46255 0
M  V30 64054 O 6017.92 5.06598 3.25026 0
M  V30 64055 H 6021.75 2.95392 0.705483 0
M  V30 64056 H 6019.33 1.46699 0.282797 0
M  V30 64057 H 6021.21 2.79558 3.15317 0
M  V30 64058 H 6019.89 1.6597 2.77913 0
M  V30 64059 H 6018.79 3.48724 1.35433 0
M  V30 64060 H 6020.13 4.58097 1.80022 0
M  V30 64061 N 6021.78 -0.339901 1.53891 0
M  V30 64062 C 6022.74 -1.40052 1.81434 0
M  V30 64063 C 6023.74 -1.45456 0.685514 0
M  V30 64064 O 6024.93 -1.45768 0.953805 0
M  V30 64065 C 6022.06 -2.78946 1.95965 0
M  V30 64066 H 6023.26 -1.16892 2.76182 0
M  V30 64067 H 6020.81 -0.574492 1.45359 0
M  V30 64068 H 6021.55 -3.07384 1.03372 0
M  V30 64069 H 6021.33 -2.76419 2.78092 0
M  V30 64070 H 6022.82 -3.55705 2.18778 0
M  V30 64071 N 6023.26 -1.45686 -0.601108 0
M  V30 64072 C 6024.5 -1.50041 -1.35993 0
M  V30 64073 C 6024.83 -0.144713 -1.93961 0
M  V30 64074 O 6024.09 0.85744 -1.75916 0
M  V30 64075 C 6024.39 -2.53243 -2.52195 0
M  V30 64076 C 6024.05 -3.97775 -2.12334 0
M  V30 64077 C 6022.71 -4.37128 -2.01178 0
M  V30 64078 C 6025.07 -4.88642 -1.81323 0
M  V30 64079 C 6022.39 -5.65237 -1.5724 0
M  V30 64080 C 6024.75 -6.17169 -1.3887 0
M  V30 64081 C 6023.41 -6.55447 -1.26276 0
M  V30 64082 H 6022.68 -0.549038 -0.497633 0
M  V30 64083 H 6025.33 -1.79067 -0.67877 0
M  V30 64084 H 6023.63 -2.1781 -3.25678 0
M  V30 64085 H 6025.33 -2.53848 -3.10422 0
M  V30 64086 H 6021.92 -3.66657 -2.21947 0
M  V30 64087 H 6026.1 -4.58971 -1.88837 0
M  V30 64088 H 6021.36 -5.93683 -1.46118 0
M  V30 64089 H 6025.53 -6.87019 -1.13922 0
M  V30 64090 H 6023.16 -7.54612 -0.920051 0
M  V30 64091 N 6024.74 0.844173 -1.33084 0
M  V30 64092 C 6025.67 1.96051 -1.18729 0
M  V30 64093 C 6026.68 1.6236 -0.119595 0
M  V30 64094 O 6027.87 1.74633 -0.36953 0
M  V30 64095 C 6024.97 3.29385 -0.797433 0
M  V30 64096 C 6024.14 3.91246 -1.95564 0
M  V30 64097 C 6023.2 5.02926 -1.54762 0
M  V30 64098 O 6022.23 5.22359 -2.2612 0
M  V30 64099 N 6023.43 5.78756 -0.449598 0
M  V30 64100 H 6026.19 2.08905 -2.14893 0
M  V30 64101 H 6023.76 1.01961 -1.2576 0
M  V30 64102 H 6025.75 4.01516 -0.506678 0
M  V30 64103 H 6024.32 3.12514 0.0733676 0
M  V30 64104 H 6023.54 3.1177 -2.41232 0
M  V30 64105 H 6024.83 4.2931 -2.73076 0
M  V30 64106 H 6024.22 5.65516 0.144081 0
M  V30 64107 H 6022.78 6.51434 -0.218493 0
M  V30 64108 N 6026.21 1.16466 1.06176 0
M  V30 64109 C 6027.49 0.8571 1.75821 0
M  V30 64110 C 6027.87 -0.644815 2.01011 0
M  V30 64111 O 6027.22 -1.59299 1.63817 0
M  V30 64112 C 6027.43 1.6811 3.05843 0
M  V30 64113 C 6028.78 1.89483 3.79976 0
M  V30 64114 O 6029.8 1.64986 3.15687 0
M  V30 64115 O 6028.66 2.3059 4.9547 0
M  V30 64116 H 6025.75 0.316391 0.764085 0
M  V30 64117 H 6028.3 1.27109 1.12434 0
M  V30 64118 H 6027.07 2.70024 2.83201 0
M  V30 64119 H 6026.69 1.26424 3.76965 0
M  V30 64120 N 6027.69 -1.2473 0.963332 0
M  V30 64121 C 6028.92 -1.96458 0.639374 0
M  V30 64122 C 6029.33 -1.7171 -0.794493 0
M  V30 64123 O 6028.67 -0.99507 -1.54415 0
M  V30 64124 C 6028.73 -3.49815 0.828819 0
M  V30 64125 C 6028.4 -3.98254 2.24149 0
M  V30 64126 C 6029.4 -4.0827 3.21888 0
M  V30 64127 C 6027.08 -4.31692 2.56802 0
M  V30 64128 C 6029.07 -4.51051 4.50368 0
M  V30 64129 C 6026.76 -4.74158 3.85509 0
M  V30 64130 C 6027.76 -4.83802 4.82104 0
M  V30 64131 O 6027.45 -5.25322 6.08516 0
M  V30 64132 H 6027.18 -0.632752 0.23791 0
M  V30 64133 H 6029.73 -1.59631 1.29256 0
M  V30 64134 H 6027.96 -3.86518 0.118468 0
M  V30 64135 H 6029.65 -4.02751 0.504606 0
M  V30 64136 H 6030.42 -3.82658 2.9799 0
M  V30 64137 H 6026.3 -4.23408 1.82337 0
M  V30 64138 H 6029.84 -4.58493 5.25766 0
M  V30 64139 H 6025.74 -4.99217 4.0921 0
M  V30 64140 H 6026.51 -5.43484 6.12019 0
M  V30 64141 N 6029.17 -0.732927 -1.3952 0
M  V30 64142 C 6030.42 -0.280376 -2.00853 0
M  V30 64143 C 6030.75 1.12885 -1.58021 0
M  V30 64144 O 6030.02 1.76916 -0.808149 0
M  V30 64145 C 6030.31 -0.379906 -3.5809 0
M  V30 64146 C 6030.16 -1.82875 -4.10946 0
M  V30 64147 C 6031.48 0.238871 -4.39451 0
M  V30 64148 H 6028.6 -0.103352 -0.729717 0
M  V30 64149 H 6031.24 -0.928692 -1.65757 0
M  V30 64150 H 6029.39 0.172062 -3.88119 0
M  V30 64151 H 6031.06 -2.43744 -3.91646 0
M  V30 64152 H 6029.3 -2.35076 -3.64584 0
M  V30 64153 H 6029.98 -1.84968 -5.20087 0
M  V30 64154 H 6032.45 -0.231634 -4.15455 0
M  V30 64155 H 6031.33 0.138875 -5.48724 0
M  V30 64156 H 6031.59 1.32466 -4.21788 0
M  V30 64157 N 6030.65 1.501 -0.480402 0
M  V30 64158 C 6031.88 2.06786 0.0687753 0
M  V30 64159 C 6032.29 1.3432 1.32678 0
M  V30 64160 O 6031.65 0.415258 1.77713 0
M  V30 64161 C 6031.7 3.59827 0.347396 0
M  V30 64162 O 6031.42 4.29562 -0.86072 0
M  V30 64163 C 6032.92 4.33165 0.942508 0
M  V30 64164 H 6030.14 0.670906 -0.0112408 0
M  V30 64165 H 6032.69 1.93149 -0.671856 0
M  V30 64166 H 6030.84 3.73236 1.03797 0
M  V30 64167 H 6031.25 5.20929 -0.610979 0
M  V30 64168 H 6032.73 5.41188 1.08717 0
M  V30 64169 H 6033.21 3.94275 1.93504 0
M  V30 64170 H 6033.81 4.2431 0.290029 0
M  V30 64171 N 6032.13 0.213378 1.56149 0
M  V30 64172 C 6033.4 -0.469107 1.89891 0
M  V30 64173 C 6033.78 -1.78337 1.12956 0
M  V30 64174 O 6033.13 -2.27275 0.236316 0
M  V30 64175 C 6033.34 -0.670049 3.42507 0
M  V30 64176 C 6034.69 -0.981178 4.13108 0
M  V30 64177 O 6035.71 -0.757127 3.4806 0
M  V30 64178 O 6034.57 -1.40595 5.28105 0
M  V30 64179 H 6031.67 -0.246915 0.789279 0
M  V30 64180 H 6034.21 0.254954 1.67774 0
M  V30 64181 H 6032.98 0.257326 3.90453 0
M  V30 64182 H 6032.61 -1.4459 3.70377 0
M  V30 64183 N 6033.6 -1.57485 -0.0600851 0
M  V30 64184 C 6035.02 -1.76436 -0.610521 0
M  V30 64185 C 6035.37 -0.840416 -1.77289 0
M  V30 64186 O 6034.49 -0.0273999 -2.16383 0
M  V30 64187 C 6035.09 -3.19951 -1.1143 0
M  V30 64188 C 6033.65 -3.40206 -1.6105 0
M  V30 64189 C 6032.79 -2.72091 -0.534959 0
M  V30 64190 H 6035.74 -1.57828 0.166117 0
M  V30 64191 H 6035.76 -3.24756 -1.98277 0
M  V30 64192 H 6035.28 -3.87173 -0.268097 0
M  V30 64193 H 6033.38 -2.78115 -2.47957 0
M  V30 64194 H 6033.49 -4.48702 -1.67938 0
M  V30 64195 H 6031.85 -2.34976 -0.982772 0
M  V30 64196 H 6032.64 -3.41976 0.301255 0
M  V30 64197 N 6035.08 0.331735 -1.54069 0
M  V30 64198 C 6036.5 0.675577 -1.44596 0
M  V30 64199 C 6036.7 1.91974 -0.612233 0
M  V30 64200 O 6035.75 2.5227 -0.107831 0
M  V30 64201 C 6037.07 0.857201 -2.88223 0
M  V30 64202 C 6038.62 0.955066 -2.98073 0
M  V30 64203 C 6039.09 1.16892 -4.42832 0
M  V30 64204 N 6040.58 1.23585 -4.46409 0
M  V30 64205 C 6041.32 1.41905 -5.55563 0
M  V30 64206 N 6040.81 1.57321 -6.74701 0
M  V30 64207 N 6042.61 1.44547 -5.43197 0
M  V30 64208 H 6034.76 -0.486131 -2.06762 0
M  V30 64209 H 6037.02 -0.155638 -0.935137 0
M  V30 64210 H 6036.73 0.0143422 -3.51697 0
M  V30 64211 H 6036.6 1.75546 -3.33861 0
M  V30 64212 H 6038.99 1.78844 -2.34732 0
M  V30 64213 H 6039.07 0.0334525 -2.55778 0
M  V30 64214 H 6038.71 0.340434 -5.06758 0
M  V30 64215 H 6038.64 2.10428 -4.82729 0
M  V30 64216 H 6041.13 1.13148 -3.60563 0
M  V30 64217 H 6041.45 1.70968 -7.53651 0
M  V30 64218 H 6039.79 1.54434 -6.77625 0
M  V30 64219 H 6042.98 1.32094 -4.49075 0
M  V30 64220 H 6043.15 1.58482 -6.28321 0
M  V30 64221 N 6036.56 1.46003 0.593373 0
M  V30 64222 C 6037.81 1.50462 1.34928 0
M  V30 64223 C 6038.13 0.153452 1.94395 0
M  V30 64224 O 6037.4 -0.818831 1.77966 0
M  V30 64225 H 6035.98 0.554137 0.500941 0
M  V30 64226 H 6038.64 1.82059 0.695734 0
M  V30 64227 H 6037.74 2.25139 2.16146 0
M  V30 64228 N 6038.04 -0.837103 1.3353 0
M  V30 64229 C 6038.97 -1.96226 1.2656 0
M  V30 64230 C 6039.95 -1.69474 0.145819 0
M  V30 64231 O 6041.13 -1.91273 0.335882 0
M  V30 64232 C 6038.26 -3.32415 1.00585 0
M  V30 64233 C 6037.22 -3.7357 2.08877 0
M  V30 64234 C 6036.54 -5.07585 1.68113 0
M  V30 64235 C 6037.84 -3.87167 3.5057 0
M  V30 64236 H 6039.54 -2.02316 2.207 0
M  V30 64237 H 6037.08 -0.972001 1.06246 0
M  V30 64238 H 6039.04 -4.107 0.943583 0
M  V30 64239 H 6037.76 -3.26587 0.0288417 0
M  V30 64240 H 6036.42 -2.9755 2.14149 0
M  V30 64241 H 6036.07 -4.9823 0.691097 0
M  V30 64242 H 6035.77 -5.36091 2.40582 0
M  V30 64243 H 6037.29 -5.88343 1.63355 0
M  V30 64244 H 6038.71 -4.55759 3.47788 0
M  V30 64245 H 6037.1 -4.27112 4.21539 0
M  V30 64246 H 6038.17 -2.89567 3.88946 0
M  V30 64247 N 6039.52 -1.17028 -1.05557 0
M  V30 64248 C 6040.77 -0.950831 -1.77882 0
M  V30 64249 C 6041.08 0.521939 -1.88508 0
M  V30 64250 O 6042.28 0.859491 -2.57536 0
M  V30 64251 C 6040.74 -1.652 -3.19745 0
M  V30 64252 C 6040.35 -3.16305 -3.17262 0
M  V30 64253 C 6042.09 -1.5148 -3.96553 0
M  V30 64254 C 6040 -3.79127 -4.53891 0
M  V30 64255 H 6038.93 -0.352113 -0.666733 0
M  V30 64256 H 6041.58 -1.40241 -1.18341 0
M  V30 64257 H 6039.96 -1.12815 -3.7959 0
M  V30 64258 H 6041.14 -3.75594 -2.66956 0
M  V30 64259 H 6039.45 -3.29994 -2.53954 0
M  V30 64260 H 6042.05 -1.9579 -4.97564 0
M  V30 64261 H 6042.39 -0.464816 -4.13697 0
M  V30 64262 H 6042.92 -2.01062 -3.43247 0
M  V30 64263 H 6039.66 -4.84106 -4.41952 0
M  V30 64264 H 6039.18 -3.24624 -5.0436 0
M  V30 64265 H 6040.86 -3.81118 -5.22837 0
M  V30 64266 N 6040.99 1.24218 -0.969933 0
M  V30 64267 C 6042.22 1.9694 -0.650331 0
M  V30 64268 C 6042.64 1.71439 0.773958 0
M  V30 64269 O 6042 0.979482 1.52564 0
M  V30 64270 C 6042.05 3.48299 -0.933804 0
M  V30 64271 O 6041.15 4.12395 -0.0203875 0
M  V30 64272 H 6040.5 0.616893 -0.24564 0
M  V30 64273 H 6043.03 1.57934 -1.30069 0
M  V30 64274 H 6043.04 3.98698 -0.866246 0
M  V30 64275 H 6041.71 3.66187 -1.97179 0
M  V30 64276 H 6040.29 3.72632 -0.141458 0
M  V30 64277 N 6042.47 0.740315 1.3913 0
M  V30 64278 C 6043.42 0.103825 2.30566 0
M  V30 64279 C 6044.39 -0.723973 1.49492 0
M  V30 64280 O 6045.57 -0.682841 1.78163 0
M  V30 64281 C 6042.71 -0.793469 3.35854 0
M  V30 64282 C 6041.83 0.0475189 4.31974 0
M  V30 64283 C 6040.96 -0.851542 5.2433 0
M  V30 64284 C 6040 -0.00612115 6.121 0
M  V30 64285 N 6039.14 -0.861407 6.96796 0
M  V30 64286 H 6043.98 0.889187 2.84425 0
M  V30 64287 H 6041.52 0.450142 1.40043 0
M  V30 64288 H 6043.47 -1.3282 3.95493 0
M  V30 64289 H 6042.1 -1.54475 2.83438 0
M  V30 64290 H 6041.16 0.699733 3.73909 0
M  V30 64291 H 6042.47 0.70098 4.9385 0
M  V30 64292 H 6041.62 -1.45393 5.89021 0
M  V30 64293 H 6040.36 -1.53877 4.62788 0
M  V30 64294 H 6039.37 0.609025 5.46416 0
M  V30 64295 H 6040.59 0.677969 6.75707 0
M  V30 64296 H 6038.54 -1.53383 6.37816 0
M  V30 64297 H 6038.45 -0.264546 7.55537 0
M  V30 64298 H 6039.72 -1.44918 7.6591 0
M  V30 64299 N 6043.95 -1.49843 0.488355 0
M  V30 64300 C 6044.9 -2.28884 -0.296778 0
M  V30 64301 C 6045.87 -1.34706 -0.971771 0
M  V30 64302 O 6047.05 -1.63656 -0.980879 0
M  V30 64303 C 6044.19 -3.17054 -1.36275 0
M  V30 64304 C 6043.31 -4.26278 -0.700806 0
M  V30 64305 C 6042.44 -5.01681 -1.74614 0
M  V30 64306 C 6041.48 -6.02757 -1.06538 0
M  V30 64307 N 6040.62 -6.71373 -2.05434 0
M  V30 64308 H 6045.46 -2.95522 0.383521 0
M  V30 64309 H 6042.99 -1.45721 0.200979 0
M  V30 64310 H 6044.95 -3.66538 -1.99263 0
M  V30 64311 H 6043.58 -2.52426 -2.01198 0
M  V30 64312 H 6042.63 -3.80377 0.0420573 0
M  V30 64313 H 6043.95 -4.98529 -0.164293 0
M  V30 64314 H 6043.1 -5.5497 -2.45139 0
M  V30 64315 H 6041.84 -4.29174 -2.31649 0
M  V30 64316 H 6040.84 -5.48711 -0.345836 0
M  V30 64317 H 6042.07 -6.77244 -0.501694 0
M  V30 64318 H 6040.01 -6.01646 -2.61454 0
M  V30 64319 H 6039.93 -7.39557 -1.56815 0
M  V30 64320 H 6041.2 -7.29272 -2.75286 0
M  V30 64321 N 6045.43 -0.221656 -1.56033 0
M  V30 64322 C 6046.71 0.45903 -1.90138 0
M  V30 64323 C 6047.09 1.77736 -1.139 0
M  V30 64324 O 6046.43 2.27146 -0.248365 0
M  V30 64325 C 6046.64 0.651876 -3.42858 0
M  V30 64326 C 6047.99 0.959256 -4.13622 0
M  V30 64327 O 6049.02 0.738658 -3.48457 0
M  V30 64328 O 6047.88 1.37793 -5.28844 0
M  V30 64329 H 6044.97 0.242726 -0.790578 0
M  V30 64330 H 6047.52 -0.263848 -1.67636 0
M  V30 64331 H 6046.29 -0.278029 -3.90311 0
M  V30 64332 H 6045.91 1.42624 -3.71139 0
M  V30 64333 N 6046.91 1.57515 0.0517324 0
M  V30 64334 C 6048.15 1.88217 0.747033 0
M  V30 64335 C 6048.48 0.816053 1.76553 0
M  V30 64336 O 6047.74 -0.185703 1.94817 0
M  V30 64337 C 6048.04 3.2563 1.47308 0
M  V30 64338 C 6047.7 4.46987 0.592706 0
M  V30 64339 C 6046.36 4.79924 0.350153 0
M  V30 64340 C 6048.72 5.21197 -0.0165166 0
M  V30 64341 C 6046.04 5.84472 -0.510773 0
M  V30 64342 C 6048.4 6.26658 -0.865012 0
M  V30 64343 C 6047.06 6.58084 -1.11724 0
M  V30 64344 H 6046.33 0.688735 0.273359 0
M  V30 64345 H 6048.98 1.91499 0.00733643 0
M  V30 64346 H 6047.28 3.18232 2.28551 0
M  V30 64347 H 6048.98 3.46626 2.01621 0
M  V30 64348 H 6045.57 4.21221 0.791896 0
M  V30 64349 H 6049.75 4.96049 0.157951 0
M  V30 64350 H 6045.01 6.07208 -0.714733 0
M  V30 64351 H 6049.18 6.83314 -1.34371 0
M  V30 64352 H 6046.81 7.3892 -1.7861 0
M  V30 64353 N 6048.39 -0.32356 1.54243 0
M  V30 64354 C 6049.32 -1.4193 1.79968 0
M  V30 64355 C 6050.33 -1.47842 0.681656 0
M  V30 64356 O 6051.52 -1.50566 0.958763 0
M  V30 64357 C 6048.62 -2.80465 1.90243 0
M  V30 64358 C 6047.79 -2.97756 3.20406 0
M  V30 64359 C 6046.85 -4.16653 3.21383 0
M  V30 64360 O 6045.88 -4.09813 3.95021 0
M  V30 64361 N 6047.08 -5.26188 2.45166 0
M  V30 64362 H 6049.84 -1.20225 2.74529 0
M  V30 64363 H 6047.41 -0.513546 1.53539 0
M  V30 64364 H 6049.4 -3.58212 1.88324 0
M  V30 64365 H 6047.97 -2.9522 1.0278 0
M  V30 64366 H 6047.19 -2.0731 3.35285 0
M  V30 64367 H 6048.48 -3.06205 4.06345 0
M  V30 64368 H 6047.87 -5.3462 1.84927 0
M  V30 64369 H 6046.43 -6.02354 2.49025 0
M  V30 64370 N 6049.86 -1.46316 -0.585622 0
M  V30 64371 C 6050.81 -1.56659 -1.6949 0
M  V30 64372 C 6051.78 -0.411063 -1.60933 0
M  V30 64373 O 6052.97 -0.627432 -1.80189 0
M  V30 64374 C 6050.11 -1.56007 -3.07824 0
M  V30 64375 C 6049.22 -2.82272 -3.27026 0
M  V30 64376 C 6048.35 -2.73145 -4.55594 0
M  V30 64377 C 6047.39 -3.94362 -4.68129 0
M  V30 64378 N 6046.53 -3.83638 -5.88019 0
M  V30 64379 H 6051.37 -2.51413 -1.59986 0
M  V30 64380 H 6048.91 -1.24731 -0.779777 0
M  V30 64381 H 6050.86 -1.53615 -3.87889 0
M  V30 64382 H 6049.49 -0.647877 -3.16232 0
M  V30 64383 H 6048.55 -2.94657 -2.40586 0
M  V30 64384 H 6049.86 -3.72119 -3.32158 0
M  V30 64385 H 6049.01 -2.68842 -5.43883 0
M  V30 64386 H 6047.75 -1.80933 -4.52896 0
M  V30 64387 H 6046.76 -3.99 -3.78258 0
M  V30 64388 H 6047.98 -4.87666 -4.72608 0
M  V30 64389 H 6045.93 -2.94211 -5.86324 0
M  V30 64390 H 6045.84 -4.67138 -5.94406 0
M  V30 64391 H 6047.11 -3.83305 -6.78747 0
M  V30 64392 N 6051.34 0.83001 -1.33972 0
M  V30 64393 C 6052.3 1.92201 -1.24865 0
M  V30 64394 C 6053.3 1.59946 -0.165546 0
M  V30 64395 O 6054.49 1.69118 -0.417688 0
M  V30 64396 C 6051.63 3.28078 -0.926144 0
M  V30 64397 H 6052.82 2.01701 -2.21939 0
M  V30 64398 H 6050.37 1.02315 -1.18158 0
M  V30 64399 H 6051.11 3.24273 0.0417224 0
M  V30 64400 H 6050.89 3.52872 -1.7095 0
M  V30 64401 H 6052.38 4.08062 -0.887406 0
M  V30 64402 N 6052.82 1.17586 1.04935 0
M  V30 64403 C 6053.75 0.838361 2.12242 0
M  V30 64404 C 6054.73 -0.195959 1.61415 0
M  V30 64405 O 6055.91 -0.0769044 1.88343 0
M  V30 64406 C 6053.04 0.251053 3.37768 0
M  V30 64407 C 6052.09 1.26117 4.07427 0
M  V30 64408 S 6052.92 2.81354 4.55632 0
M  V30 64409 C 6054.08 2.24111 5.84402 0
M  V30 64410 H 6054.31 1.74718 2.40543 0
M  V30 64411 H 6051.84 1.00079 1.17574 0
M  V30 64412 H 6053.8 -0.0813123 4.10419 0
M  V30 64413 H 6052.46 -0.635743 3.07599 0
M  V30 64414 H 6051.65 0.798936 4.97627 0
M  V30 64415 H 6051.26 1.53932 3.40853 0
M  V30 64416 H 6053.55 1.61827 6.57889 0
M  V30 64417 H 6054.49 3.12576 6.35375 0
M  V30 64418 H 6054.9 1.67463 5.39088 0
M  V30 64419 N 6054.3 -1.23702 0.976507 0
M  V30 64420 C 6055.57 -1.87419 0.559785 0
M  V30 64421 C 6055.95 -1.8785 -0.9631 0
M  V30 64422 O 6055.3 -1.35733 -1.83817 0
M  V30 64423 C 6055.51 -3.29109 1.16139 0
M  V30 64424 C 6056.86 -4.0573 1.25172 0
M  V30 64425 O 6057.88 -3.38314 1.11456 0
M  V30 64426 O 6056.74 -5.26372 1.46952 0
M  V30 64427 H 6053.84 -0.805364 0.187931 0
M  V30 64428 H 6056.38 -1.31607 1.07134 0
M  V30 64429 H 6055.16 -3.23341 2.20378 0
M  V30 64430 H 6054.78 -3.92506 0.634418 0
M  V30 64431 N 6055.78 -0.747683 -1.38735 0
M  V30 64432 C 6057 -0.310557 -2.05062 0
M  V30 64433 C 6057.43 1.05073 -1.56017 0
M  V30 64434 O 6056.78 1.6684 -0.70952 0
M  V30 64435 C 6056.83 -0.335964 -3.59032 0
M  V30 64436 O 6055.94 0.672074 -4.06887 0
M  V30 64437 H 6055.28 -0.138614 -0.649371 0
M  V30 64438 H 6057.81 -1.01716 -1.77525 0
M  V30 64439 H 6057.82 -0.184774 -4.07581 0
M  V30 64440 H 6056.49 -1.3292 -3.94088 0
M  V30 64441 H 6055.07 0.485982 -3.6972 0
M  V30 64442 N 6057.25 1.49582 -0.496295 0
M  V30 64443 C 6058.19 2.26937 0.321286 0
M  V30 64444 C 6059.2 1.33286 0.934816 0
M  V30 64445 O 6060.39 1.58605 0.818952 0
M  V30 64446 C 6057.49 3.05508 1.46689 0
M  V30 64447 C 6056.66 4.267 0.961537 0
M  V30 64448 C 6055.72 4.87356 1.98419 0
M  V30 64449 O 6054.75 5.47558 1.55463 0
M  V30 64450 N 6055.95 4.76589 3.31426 0
M  V30 64451 H 6058.71 2.97742 -0.341989 0
M  V30 64452 H 6056.27 1.58531 -0.32856 0
M  V30 64453 H 6058.27 3.42961 2.14848 0
M  V30 64454 H 6056.84 2.37341 2.03441 0
M  V30 64455 H 6056.06 3.9406 0.105004 0
M  V30 64456 H 6057.34 5.05223 0.602227 0
M  V30 64457 H 6056.74 4.28769 3.69017 0
M  V30 64458 H 6055.3 5.1824 3.95311 0
M  V30 64459 N 6058.73 0.229928 1.55914 0
M  V30 64460 C 6059.68 -0.676732 2.20656 0
M  V30 64461 C 6060.65 -1.18408 1.16485 0
M  V30 64462 O 6061.83 -1.24165 1.44871 0
M  V30 64463 C 6058.97 -1.87557 2.89683 0
M  V30 64464 C 6058.09 -1.40634 4.08468 0
M  V30 64465 C 6057.22 -2.5634 4.65256 0
M  V30 64466 C 6056.26 -2.06194 5.76325 0
M  V30 64467 N 6055.4 -3.15204 6.27368 0
M  V30 64468 H 6060.24 -0.11793 2.97767 0
M  V30 64469 H 6057.77 -0.0464525 1.47027 0
M  V30 64470 H 6059.73 -2.57957 3.27893 0
M  V30 64471 H 6058.36 -2.40712 2.15076 0
M  V30 64472 H 6057.41 -0.596972 3.75687 0
M  V30 64473 H 6058.73 -0.998705 4.887 0
M  V30 64474 H 6057.88 -3.34809 5.05952 0
M  V30 64475 H 6056.62 -3.00396 3.84205 0
M  V30 64476 H 6055.62 -1.2619 5.35123 0
M  V30 64477 H 6056.85 -1.63128 6.59216 0
M  V30 64478 H 6054.8 -3.58726 5.49228 0
M  V30 64479 H 6054.71 -2.78719 7.02746 0
M  V30 64480 H 6055.98 -3.93783 6.72722 0
M  V30 64481 N 6060.21 -1.5754 -0.0433783 0
M  V30 64482 C 6061.14 -2.02389 -1.0757 0
M  V30 64483 C 6062.16 -0.93432 -1.3332 0
M  V30 64484 O 6063.34 -1.21184 -1.3106 0
M  V30 64485 C 6060.44 -2.37199 -2.42054 0
M  V30 64486 C 6059.62 -3.68359 -2.35861 0
M  V30 64487 C 6058.68 -3.90518 -3.52679 0
M  V30 64488 O 6057.7 -4.61757 -3.32819 0
M  V30 64489 N 6058.9 -3.35052 -4.74047 0
M  V30 64490 H 6061.67 -2.91565 -0.693539 0
M  V30 64491 H 6059.23 -1.60235 -0.231574 0
M  V30 64492 H 6061.22 -2.49172 -3.18897 0
M  V30 64493 H 6059.79 -1.53767 -2.72166 0
M  V30 64494 H 6059.01 -3.66874 -1.44211 0
M  V30 64495 H 6060.3 -4.54427 -2.28852 0
M  V30 64496 H 6059.7 -2.77281 -4.93084 0
M  V30 64497 H 6058.26 -3.52428 -5.48304 0
M  V30 64498 N 6061.69 0.315375 -1.54412 0
M  V30 64499 C 6062.94 1.05234 -1.73009 0
M  V30 64500 C 6063.26 1.87745 -0.508146 0
M  V30 64501 O 6062.52 1.88936 0.510054 0
M  V30 64502 C 6062.82 1.99873 -2.96286 0
M  V30 64503 C 6062.48 1.33453 -4.30698 0
M  V30 64504 C 6061.15 1.1507 -4.67239 0
M  V30 64505 C 6063.5 0.858507 -5.14081 0
M  V30 64506 C 6060.83 0.477464 -5.84754 0
M  V30 64507 C 6063.18 0.199056 -6.32287 0
M  V30 64508 C 6061.84 0.00314693 -6.675 0
M  V30 64509 H 6061.11 0.38508 -0.633083 0
M  V30 64510 H 6063.76 0.328648 -1.88659 0
M  V30 64511 H 6062.06 2.78722 -2.75357 0
M  V30 64512 H 6063.76 2.5694 -3.07868 0
M  V30 64513 H 6060.35 1.48765 -4.01954 0
M  V30 64514 H 6064.53 0.988289 -4.86361 0
M  V30 64515 H 6059.79 0.314558 -6.1059 0
M  V30 64516 H 6063.96 -0.177762 -6.96173 0
M  V30 64517 H 6061.59 -0.520546 -7.58416 0
M  V30 64518 N 6063.17 1.46624 0.577854 0
M  V30 64519 C 6064.39 1.56004 1.36665 0
M  V30 64520 C 6064.82 0.203466 1.86996 0
M  V30 64521 O 6064.17 -0.817232 1.61836 0
M  V30 64522 C 6064.22 2.57263 2.52682 0
M  V30 64523 O 6063.33 2.11103 3.54273 0
M  V30 64524 H 6062.67 0.524793 0.406803 0
M  V30 64525 H 6065.2 1.92237 0.700445 0
M  V30 64526 H 6065.21 2.77026 2.99534 0
M  V30 64527 H 6063.88 3.55773 2.15402 0
M  V30 64528 H 6062.46 2.01348 3.13868 0
M  V30 64529 N 6064.64 -0.822893 1.34411 0
M  V30 64530 C 6065.89 -1.57599 1.26518 0
M  V30 64531 C 6066.21 -1.94303 -0.1647 0
M  V30 64532 O 6065.48 -1.62282 -1.09733 0
M  V30 64533 H 6064.06 -0.584382 0.465302 0
M  V30 64534 H 6066.73 -0.982523 1.68323 0
M  V30 64535 H 6065.82 -2.49879 1.86994 0
M  V30 64536 N 6066.12 -1.18141 -1.0431 0
M  V30 64537 C 6067.53 -0.979823 -1.58922 0
M  V30 64538 C 6067.88 0.471147 -1.90459 0
M  V30 64539 O 6067.01 1.34806 -1.69282 0
M  V30 64540 C 6067.6 -1.77229 -2.88748 0
M  V30 64541 C 6066.16 -1.61512 -3.39986 0
M  V30 64542 C 6065.31 -1.76831 -2.13603 0
M  V30 64543 H 6068.26 -1.3272 -0.870115 0
M  V30 64544 H 6068.28 -1.25992 -3.59035 0
M  V30 64545 H 6067.79 -2.82828 -2.65763 0
M  V30 64546 H 6065.9 -0.584399 -3.67989 0
M  V30 64547 H 6066.01 -2.41164 -4.13977 0
M  V30 64548 H 6064.37 -1.19755 -2.24791 0
M  V30 64549 H 6065.16 -2.8386 -1.93077 0
M  V30 64550 N 6067.6 1.23182 -0.983053 0
M  V30 64551 C 6068.51 2.28446 -0.533808 0
M  V30 64552 C 6069.53 1.69036 0.412673 0
M  V30 64553 O 6070.7 1.99417 0.281937 0
M  V30 64554 C 6067.77 3.46358 0.154057 0
M  V30 64555 C 6066.83 4.21118 -0.834157 0
M  V30 64556 C 6066.06 5.334 -0.179024 0
M  V30 64557 O 6066.28 5.61036 1.02932 0
M  V30 64558 O 6065.22 5.95448 -0.878932 0
M  V30 64559 H 6069.04 2.69022 -1.40929 0
M  V30 64560 H 6066.63 1.29163 -0.750815 0
M  V30 64561 H 6068.51 4.17928 0.5398 0
M  V30 64562 H 6067.19 3.07728 1.00426 0
M  V30 64563 H 6066.09 3.5186 -1.27065 0
M  V30 64564 H 6067.43 4.63604 -1.65325 0
M  V30 64565 N 6069.08 0.75503 1.38337 0
M  V30 64566 C 6070.33 0.308607 1.99325 0
M  V30 64567 C 6070.64 -1.11635 1.60615 0
M  V30 64568 O 6071.85 -1.66331 2.14584 0
M  V30 64569 C 6070.3 0.500813 3.56398 0
M  V30 64570 C 6069.91 1.93495 4.04059 0
M  V30 64571 C 6071.65 0.117175 4.24338 0
M  V30 64572 C 6069.56 2.07563 5.53779 0
M  V30 64573 H 6068.49 0.111637 0.74569 0
M  V30 64574 H 6071.14 0.931777 1.58083 0
M  V30 64575 H 6069.52 -0.191563 3.95536 0
M  V30 64576 H 6070.7 2.66091 3.76208 0
M  V30 64577 H 6069.01 2.27363 3.48848 0
M  V30 64578 H 6071.61 0.201035 5.34322 0
M  V30 64579 H 6071.95 -0.930389 4.0577 0
M  V30 64580 H 6072.49 0.76146 3.90444 0
M  V30 64581 H 6069.23 3.10579 5.77253 0
M  V30 64582 H 6068.75 1.3943 5.83369 0
M  V30 64583 H 6070.42 1.86626 6.19499 0
M  V30 64584 N 6070.56 -1.49316 0.50422 0
M  V30 64585 C 6071.49 -2.27104 -0.309247 0
M  V30 64586 C 6072.5 -1.33779 -0.927734 0
M  V30 64587 O 6073.69 -1.59037 -0.810529 0
M  V30 64588 C 6070.79 -3.06282 -1.45067 0
M  V30 64589 C 6069.96 -4.27204 -0.938895 0
M  V30 64590 C 6069.02 -4.88402 -1.95832 0
M  V30 64591 O 6068.05 -5.48375 -1.52557 0
M  V30 64592 N 6069.25 -4.7834 -3.28894 0
M  V30 64593 H 6072.02 -2.97557 0.357774 0
M  V30 64594 H 6069.58 -1.58355 0.336963 0
M  V30 64595 H 6071.57 -3.44096 -2.13026 0
M  V30 64596 H 6070.14 -2.38416 -2.02179 0
M  V30 64597 H 6069.36 -3.9411 -0.0841047 0
M  V30 64598 H 6070.65 -5.05536 -0.575426 0
M  V30 64599 H 6070.04 -4.3072 -3.66738 0
M  V30 64600 H 6068.6 -5.20329 -3.92557 0
M  V30 64601 N 6072.03 -0.238193 -1.5579 0
M  V30 64602 C 6073.28 0.388961 -1.98729 0
M  V30 64603 C 6073.61 1.5858 -1.12618 0
M  V30 64604 O 6072.86 1.94916 -0.174948 0
M  V30 64605 C 6073.16 0.850524 -3.47132 0
M  V30 64606 C 6072.83 -0.237601 -4.50274 0
M  V30 64607 C 6071.49 -0.536475 -4.782 0
M  V30 64608 C 6073.84 -0.972656 -5.12044 0
M  V30 64609 C 6071.17 -1.57463 -5.65175 0
M  V30 64610 C 6073.52 -2.00027 -6.00143 0
M  V30 64611 C 6072.19 -2.30588 -6.26407 0
M  V30 64612 H 6071.46 0.142331 -0.727202 0
M  V30 64613 H 6074.1 -0.344196 -1.88381 0
M  V30 64614 H 6072.41 1.66273 -3.54768 0
M  V30 64615 H 6074.11 1.3459 -3.77739 0
M  V30 64616 H 6070.7 0.00548966 -4.286 0
M  V30 64617 H 6074.88 -0.755002 -4.90524 0
M  V30 64618 H 6070.14 -1.81685 -5.83781 0
M  V30 64619 H 6074.31 -2.5748 -6.47052 0
M  V30 64620 H 6071.94 -3.11172 -6.93596 0
M  V30 64621 N 6073.51 1.57561 0.0350229 0
M  V30 64622 C 6074.44 2.09205 1.03709 0
M  V30 64623 C 6075.42 0.993279 1.38087 0
M  V30 64624 O 6076.61 1.26817 1.47075 0
M  V30 64625 C 6073.74 2.56652 2.33981 0
M  V30 64626 C 6072.69 3.70739 2.13861 0
M  V30 64627 C 6072.02 4.0437 3.49841 0
M  V30 64628 C 6073.32 4.99399 1.52965 0
M  V30 64629 H 6075.01 2.93178 0.607207 0
M  V30 64630 H 6072.56 1.41037 0.290633 0
M  V30 64631 H 6074.51 2.91401 3.04407 0
M  V30 64632 H 6073.24 1.69754 2.79018 0
M  V30 64633 H 6071.89 3.3633 1.45869 0
M  V30 64634 H 6071.54 3.14548 3.92516 0
M  V30 64635 H 6071.24 4.81213 3.37206 0
M  V30 64636 H 6072.77 4.41648 4.21639 0
M  V30 64637 H 6074.18 5.32143 2.133 0
M  V30 64638 H 6072.58 5.80812 1.50922 0
M  V30 64639 H 6073.65 4.82369 0.494824 0
M  V30 64640 N 6074.99 -0.307182 1.54577 0
M  V30 64641 C 6075.92 -1.38351 1.88099 0
M  V30 64642 C 6076.9 -1.53194 0.739307 0
M  V30 64643 O 6078.09 -1.66803 0.994499 0
M  V30 64644 C 6075.22 -2.74869 2.12284 0
M  V30 64645 C 6074.17 -2.74797 3.28132 0
M  V30 64646 C 6073.5 -4.14546 3.37722 0
M  V30 64647 C 6074.8 -2.37086 4.65389 0
M  V30 64648 H 6076.49 -1.10544 2.78245 0
M  V30 64649 H 6074.04 -0.530336 1.33878 0
M  V30 64650 H 6075.99 -3.50246 2.3432 0
M  V30 64651 H 6074.71 -3.04187 1.18903 0
M  V30 64652 H 6073.37 -2.01876 3.06009 0
M  V30 64653 H 6073.02 -4.41031 2.41869 0
M  V30 64654 H 6072.72 -4.154 4.15591 0
M  V30 64655 H 6074.25 -4.91711 3.62011 0
M  V30 64656 H 6075.66 -3.02179 4.87197 0
M  V30 64657 H 6074.06 -2.49165 5.45928 0
M  V30 64658 H 6075.13 -1.32218 4.66526 0
M  V30 64659 N 6076.47 -1.46928 -0.57007 0
M  V30 64660 C 6077.69 -1.56727 -1.35836 0
M  V30 64661 C 6078.12 -0.21338 -1.86886 0
M  V30 64662 O 6077.48 0.808637 -1.62268 0
M  V30 64663 C 6077.53 -2.58599 -2.51314 0
M  V30 64664 O 6076.63 -2.12978 -3.53149 0
M  V30 64665 H 6075.97 -0.526943 -0.404014 0
M  V30 64666 H 6078.5 -1.92605 -0.69024 0
M  V30 64667 H 6078.51 -2.78611 -2.9806 0
M  V30 64668 H 6077.19 -3.56911 -2.13512 0
M  V30 64669 H 6075.76 -2.0301 -3.12796 0
M  V30 64670 N 6077.95 0.815754 -1.34845 0
M  V30 64671 C 6079.19 1.58583 -1.2896 0
M  V30 64672 C 6079.55 1.91513 0.136702 0
M  V30 64673 O 6080.75 2.66891 0.319809 0
M  V30 64674 C 6079.02 2.84576 -2.1622 0
M  V30 64675 S 6080.58 3.75061 -2.2776 0
M  V30 64676 H 6077.4 0.543463 -0.458441 0
M  V30 64677 H 6080 0.963 -1.70137 0
M  V30 64678 H 6078.71 2.58393 -3.18843 0
M  V30 64679 H 6078.24 3.51851 -1.75967 0
M  V30 64680 H 6080.25 4.74368 -1.45566 0
M  V30 64681 N 6079.43 1.18692 1.03682 0
M  V30 64682 C 6080.65 1.0103 1.81129 0
M  V30 64683 C 6081.08 -0.436519 1.82965 0
M  V30 64684 O 6080.43 -1.31339 1.24979 0
M  V30 64685 C 6080.48 1.57432 3.24419 0
M  V30 64686 O 6079.59 0.798272 4.046 0
M  V30 64687 H 6078.93 0.357643 0.559453 0
M  V30 64688 H 6081.46 1.57536 1.30551 0
M  V30 64689 H 6081.47 1.60308 3.75187 0
M  V30 64690 H 6080.14 2.62741 3.22397 0
M  V30 64691 H 6078.72 0.842128 3.63267 0
M  V30 64692 N 6080.9 -1.22659 0.989572 0
M  V30 64693 C 6081.81 -2.2816 0.545915 0
M  V30 64694 C 6082.83 -1.69252 -0.403702 0
M  V30 64695 O 6084.01 -1.99564 -0.271357 0
M  V30 64696 C 6081.07 -3.46434 -0.135686 0
M  V30 64697 C 6080.13 -4.2067 0.856478 0
M  V30 64698 C 6079.36 -5.33297 0.207309 0
M  V30 64699 O 6079.59 -5.61574 -0.999552 0
M  V30 64700 O 6078.52 -5.94974 0.910497 0
M  V30 64701 H 6082.35 -2.68271 1.42354 0
M  V30 64702 H 6079.93 -1.28763 0.757655 0
M  V30 64703 H 6081.81 -4.18209 -0.517629 0
M  V30 64704 H 6080.49 -3.08256 -0.987927 0
M  V30 64705 H 6079.4 -3.51181 1.28929 0
M  V30 64706 H 6080.73 -4.6272 1.67781 0
M  V30 64707 N 6082.38 -0.762356 -1.37934 0
M  V30 64708 C 6083.34 -0.148669 -2.28717 0
M  V30 64709 C 6084.34 0.638146 -1.47595 0
M  V30 64710 O 6085.53 0.463119 -1.67931 0
M  V30 64711 C 6082.67 0.797376 -3.31443 0
M  V30 64712 H 6083.86 -0.94882 -2.84495 0
M  V30 64713 H 6081.41 -0.529939 -1.47042 0
M  V30 64714 H 6082.15 1.62288 -2.80772 0
M  V30 64715 H 6081.93 0.235472 -3.91392 0
M  V30 64716 H 6083.42 1.22248 -3.99306 0
M  V30 64717 N 6083.86 1.49047 -0.512132 0
M  V30 64718 C 6085.14 1.95384 0.0919644 0
M  V30 64719 C 6085.52 1.45395 1.53047 0
M  V30 64720 O 6084.86 0.672562 2.18378 0
M  V30 64721 C 6085.07 3.48999 -0.00686171 0
M  V30 64722 C 6086.42 4.24293 0.161453 0
M  V30 64723 O 6087.45 3.56135 0.0677946 0
M  V30 64724 O 6086.31 5.45345 0.35516 0
M  V30 64725 H 6083.4 0.822179 0.0891703 0
M  V30 64726 H 6085.95 1.59645 -0.575462 0
M  V30 64727 H 6084.72 3.78051 -1.00961 0
M  V30 64728 H 6084.34 3.91386 0.700216 0
M  V30 64729 N 6085.34 0.246452 1.55661 0
M  V30 64730 C 6086.25 -0.664046 2.25006 0
M  V30 64731 C 6087.26 -1.19364 1.26603 0
M  V30 64732 O 6088.44 -1.23 1.59477 0
M  V30 64733 C 6085.5 -1.84449 2.93563 0
M  V30 64734 C 6084.57 -1.35442 4.07375 0
M  V30 64735 C 6083.8 -2.4786 4.72653 0
M  V30 64736 O 6084.02 -3.66579 4.37008 0
M  V30 64737 O 6082.96 -2.17644 5.61173 0
M  V30 64738 H 6086.78 -0.10317 3.03525 0
M  V30 64739 H 6084.37 0.0149733 1.49392 0
M  V30 64740 H 6086.25 -2.53337 3.36746 0
M  V30 64741 H 6084.92 -2.393 2.17984 0
M  V30 64742 H 6083.83 -0.632828 3.68709 0
M  V30 64743 H 6085.16 -0.852004 4.8477 0
M  V30 64744 N 6086.82 -1.57577 -0.0266666 0
M  V30 64745 C 6087.76 -2.07807 -1.04495 0
M  V30 64746 C 6088.76 -0.992357 -1.3729 0
M  V30 64747 O 6089.96 -1.17722 -1.36167 0
M  V30 64748 H 6086.34 -0.663188 -0.354522 0
M  V30 64749 H 6088.31 -2.92397 -0.595523 0
M  V30 64750 C 6087.06 -2.57486 -2.33658 0
M  V30 64751 H 6086.38 -3.40647 -2.09284 0
M  V30 64752 H 6087.82 -2.96339 -3.03248 0
M  V30 64753 C 6086.28 -1.47714 -3.0279 0
M  V30 64754 O 6086.81 -0.844749 -3.92717 0
M  V30 64755 N 6085.02 -1.2111 -2.64161 0
M  V30 64756 H 6084.56 -1.72719 -1.91117 0
M  V30 64757 H 6084.52 -0.478769 -3.10733 0
M  V30 64758 N 6088.29 0.29898 -1.54738 0
M  V30 64759 C 6089.2 1.39134 -1.88889 0
M  V30 64760 C 6090.22 1.55374 -0.783258 0
M  V30 64761 O 6091.4 1.7 -1.07991 0
M  V30 64762 C 6088.46 2.73479 -2.13096 0
M  V30 64763 C 6087.52 2.66207 -3.36797 0
M  V30 64764 C 6086.75 3.94145 -3.5984 0
M  V30 64765 O 6086.98 4.936 -2.85858 0
M  V30 64766 O 6085.91 3.95917 -4.53358 0
M  V30 64767 H 6089.74 1.13174 -2.81825 0
M  V30 64768 H 6087.32 0.495221 -1.40954 0
M  V30 64769 H 6089.2 3.52962 -2.30208 0
M  V30 64770 H 6087.88 2.99278 -1.23346 0
M  V30 64771 H 6086.79 1.85189 -3.25047 0
M  V30 64772 H 6088.12 2.45361 -4.26684 0
M  V30 64773 N 6089.77 1.47229 0.56227 0
M  V30 64774 C 6090.71 1.5387 1.6852 0
M  V30 64775 C 6091.68 0.391222 1.57823 0
M  V30 64776 O 6092.87 0.598301 1.78753 0
M  V30 64777 C 6089.99 1.43649 3.06729 0
M  V30 64778 C 6089.04 2.62836 3.35886 0
M  V30 64779 S 6089.87 4.25066 3.25699 0
M  V30 64780 C 6091.03 4.17388 4.6641 0
M  V30 64781 H 6091.26 2.48874 1.62631 0
M  V30 64782 H 6088.8 1.35365 0.742682 0
M  V30 64783 H 6090.75 1.38439 3.86452 0
M  V30 64784 H 6089.41 0.50038 3.10089 0
M  V30 64785 H 6088.61 2.51733 4.36631 0
M  V30 64786 H 6088.21 2.65142 2.63772 0
M  V30 64787 H 6090.5 3.85329 5.5725 0
M  V30 64788 H 6091.44 5.18201 4.82569 0
M  V30 64789 H 6091.85 3.48324 4.44219 0
M  V30 64790 N 6091.25 -0.808591 1.35276 0
M  V30 64791 C 6092.5 -1.56067 1.27773 0
M  V30 64792 C 6092.81 -1.95051 -0.146477 0
M  V30 64793 O 6094.02 -2.69315 -0.34376 0
M  V30 64794 C 6092.47 -2.8164 2.24069 0
M  V30 64795 C 6092.08 -2.49902 3.71824 0
M  V30 64796 C 6093.83 -3.5965 2.25504 0
M  V30 64797 C 6091.73 -3.71754 4.59949 0
M  V30 64798 H 6090.66 -0.585795 0.474722 0
M  V30 64799 H 6093.31 -0.888994 1.60528 0
M  V30 64800 H 6091.7 -3.50508 1.84284 0
M  V30 64801 H 6092.87 -1.89053 4.20233 0
M  V30 64802 H 6091.19 -1.85141 3.72977 0
M  V30 64803 H 6093.78 -4.50152 2.88561 0
M  V30 64804 H 6094.13 -3.9683 1.25823 0
M  V30 64805 H 6094.66 -2.97741 2.63808 0
M  V30 64806 H 6091.4 -3.39684 5.6062 0
M  V30 64807 H 6090.92 -4.31835 4.16267 0
M  V30 64808 H 6092.6 -4.39005 4.75272 0
M  V30 64809 N 6092.73 -1.1924 -1.03051 0
M  V30 64810 C 6093.68 -0.925246 -2.13406 0
M  V30 64811 C 6094.67 0.118314 -1.68986 0
M  V30 64812 O 6095.88 -0.0307792 -1.79974 0
M  V30 64813 H 6092.25 -0.281793 -0.697206 0
M  V30 64814 H 6094.22 -1.8626 -2.33131 0
M  V30 64815 C 6092.97 -0.47865 -3.4439 0
M  V30 64816 H 6092.29 -1.27319 -3.78985 0
M  V30 64817 H 6093.73 -0.330809 -4.22708 0
M  V30 64818 C 6092.19 0.807035 -3.27091 0
M  V30 64819 O 6092.72 1.86885 -3.5558 0
M  V30 64820 N 6090.93 0.763631 -2.80387 0
M  V30 64821 H 6090.48 -0.100697 -2.57403 0
M  V30 64822 H 6090.43 1.62426 -2.69194 0
M  V30 64823 N 6094.21 1.22132 -0.996063 0
M  V30 64824 C 6095.45 1.92688 -0.68195 0
M  V30 64825 C 6095.81 1.75792 0.772092 0
M  V30 64826 O 6097.01 2.40639 1.19777 0
M  V30 64827 C 6095.28 3.40673 -1.0806 0
M  V30 64828 S 6096.84 4.29776 -0.885332 0
M  V30 64829 H 6093.66 0.665883 -0.24924 0
M  V30 64830 H 6096.26 1.47857 -1.27901 0
M  V30 64831 H 6094.97 3.50485 -2.13515 0
M  V30 64832 H 6094.5 3.90516 -0.475465 0
M  V30 64833 H 6096.51 4.95701 0.222438 0
M  V30 64834 N 6095.68 0.76966 1.37528 0
M  V30 64835 C 6096.59 0.155222 2.34086 0
M  V30 64836 C 6097.61 -0.682052 1.60075 0
M  V30 64837 O 6098.79 -0.60246 1.92178 0
M  V30 64838 C 6095.85 -0.715225 3.39242 0
M  V30 64839 C 6094.91 0.138267 4.29077 0
M  V30 64840 C 6094.15 -0.69073 5.29211 0
M  V30 64841 O 6094.37 -1.92793 5.36831 0
M  V30 64842 O 6093.3 -0.101036 6.01815 0
M  V30 64843 H 6097.13 0.95307 2.88358 0
M  V30 64844 H 6094.71 0.530788 1.39653 0
M  V30 64845 H 6096.6 -1.21222 4.03588 0
M  V30 64846 H 6095.27 -1.4913 2.87301 0
M  V30 64847 H 6094.18 0.681572 3.67839 0
M  V30 64848 H 6095.51 0.877372 4.84317 0
M  V30 64849 N 6097.16 -1.48773 0.520029 0
M  V30 64850 C 6098.07 -2.3324 -0.252247 0
M  V30 64851 C 6099.09 -1.45855 -0.948798 0
M  V30 64852 O 6100.26 -1.78851 -0.925967 0
M  V30 64853 C 6097.33 -3.21745 -1.29155 0
M  V30 64854 C 6096.39 -4.24995 -0.606415 0
M  V30 64855 C 6095.62 -5.09271 -1.5962 0
M  V30 64856 O 6095.85 -4.95363 -2.82792 0
M  V30 64857 O 6094.78 -5.90985 -1.14106 0
M  V30 64858 H 6098.61 -3.00501 0.439633 0
M  V30 64859 H 6096.19 -1.46732 0.281083 0
M  V30 64860 H 6098.07 -3.76518 -1.89241 0
M  V30 64861 H 6096.75 -2.57156 -1.96602 0
M  V30 64862 H 6095.66 -3.74084 0.0346762 0
M  V30 64863 H 6096.99 -4.92193 0.0259357 0
M  V30 64864 N 6098.64 -0.254703 -1.55528 0
M  V30 64865 C 6099.89 0.367862 -1.99131 0
M  V30 64866 C 6100.22 1.57376 -1.14293 0
M  V30 64867 O 6099.47 1.9472 -0.195612 0
M  V30 64868 C 6099.77 0.813658 -3.48015 0
M  V30 64869 C 6099.44 -0.285345 -4.49996 0
M  V30 64870 C 6098.1 -0.587164 -4.77604 0
M  V30 64871 C 6100.45 -1.02691 -5.10983 0
M  V30 64872 C 6097.78 -1.63449 -5.63473 0
M  V30 64873 C 6100.13 -2.06381 -5.97988 0
M  V30 64874 C 6098.79 -2.37219 -6.23926 0
M  V30 64875 H 6098.06 0.13461 -0.728671 0
M  V30 64876 H 6100.71 -0.364157 -1.88006 0
M  V30 64877 H 6099.02 1.62501 -3.56512 0
M  V30 64878 H 6100.71 1.30576 -3.79145 0
M  V30 64879 H 6097.3 -0.0399694 -4.28581 0
M  V30 64880 H 6101.49 -0.806986 -4.89695 0
M  V30 64881 H 6096.74 -1.87866 -5.81821 0
M  V30 64882 H 6100.92 -2.64329 -6.44285 0
M  V30 64883 H 6098.54 -3.18511 -6.90257 0
M  V30 64884 N 6100.12 1.57589 0.0183095 0
M  V30 64885 C 6101.08 2.06221 1.00028 0
M  V30 64886 C 6102.08 0.968241 1.28381 0
M  V30 64887 O 6103.27 1.23151 1.23205 0
M  V30 64888 C 6100.4 2.48824 2.33023 0
M  V30 64889 H 6101.6 2.94238 0.579982 0
M  V30 64890 H 6099.15 1.54031 0.265384 0
M  V30 64891 H 6099.88 1.63994 2.79779 0
M  V30 64892 H 6099.67 3.28702 2.1377 0
M  V30 64893 H 6101.16 2.86838 3.03502 0
M  V30 64894 N 6101.6 -0.29077 1.54894 0
M  V30 64895 C 6102.54 -1.37891 1.8732 0
M  V30 64896 C 6103.54 -1.51999 0.747848 0
M  V30 64897 O 6104.74 -1.53994 0.931974 0
M  V30 64898 H 6101.12 -0.460803 0.594276 0
M  V30 64899 H 6103.09 -1.07784 2.78254 0
M  V30 64900 C 6101.84 -2.73561 2.14616 0
M  V30 64901 H 6101.16 -2.6349 3.00687 0
M  V30 64902 H 6102.6 -3.48684 2.41237 0
M  V30 64903 C 6101.06 -3.23288 0.947978 0
M  V30 64904 O 6101.59 -4.01325 0.17362 0
M  V30 64905 N 6099.8 -2.8074 0.750543 0
M  V30 64906 H 6099.34 -2.17396 1.38192 0
M  V30 64907 H 6099.3 -3.14361 -0.0495641 0
M  V30 64908 N 6103.07 -1.47525 -0.554454 0
M  V30 64909 C 6104.49 -1.33104 -0.880652 0
M  V30 64910 C 6104.69 -0.323594 -1.98885 0
M  V30 64911 O 6103.75 0.263907 -2.51117 0
M  V30 64912 C 6105.06 -2.72505 -1.27128 0
M  V30 64913 C 6106.61 -2.8081 -1.38256 0
M  V30 64914 C 6107.08 -4.20858 -1.80673 0
M  V30 64915 N 6108.57 -4.23413 -1.87819 0
M  V30 64916 C 6109.31 -5.28692 -2.21974 0
M  V30 64917 N 6108.8 -6.44273 -2.54724 0
M  V30 64918 N 6110.6 -5.16071 -2.22772 0
M  V30 64919 H 6102.75 -2.1166 0.177137 0
M  V30 64920 H 6105.01 -0.947855 0.0165841 0
M  V30 64921 H 6104.72 -3.47671 -0.530808 0
M  V30 64922 H 6104.59 -3.04453 -2.22684 0
M  V30 64923 H 6106.98 -2.05914 -2.11384 0
M  V30 64924 H 6107.06 -2.52512 -0.408812 0
M  V30 64925 H 6106.7 -4.9626 -1.08114 0
M  V30 64926 H 6106.63 -4.46582 -2.79055 0
M  V30 64927 H 6109.12 -3.40031 -1.64886 0
M  V30 64928 H 6109.44 -7.20361 -2.7982 0
M  V30 64929 H 6107.78 -6.47588 -2.52298 0
M  V30 64930 H 6110.97 -4.248 -1.96627 0
M  V30 64931 H 6111.15 -5.98225 -2.4906 0
M  V30 64932 N 6104.55 0.801406 -1.35703 0
M  V30 64933 C 6105.8 1.55874 -1.29265 0
M  V30 64934 C 6106.13 1.94055 0.131484 0
M  V30 64935 O 6105.38 1.61997 1.09797 0
M  V30 64936 C 6105.68 2.85524 -2.14968 0
M  V30 64937 C 6105.35 2.66537 -3.63688 0
M  V30 64938 C 6104.01 2.61067 -4.04225 0
M  V30 64939 C 6106.36 2.48709 -4.58032 0
M  V30 64940 C 6103.69 2.35719 -5.37265 0
M  V30 64941 C 6106.04 2.24889 -5.91276 0
M  V30 64942 C 6104.71 2.17845 -6.30952 0
M  V30 64943 H 6103.98 0.570385 -0.473014 0
M  V30 64944 H 6106.62 0.925568 -1.67647 0
M  V30 64945 H 6104.93 3.53246 -1.69483 0
M  V30 64946 H 6106.63 3.43249 -2.07319 0
M  V30 64947 H 6103.22 2.71644 -3.31523 0
M  V30 64948 H 6107.4 2.51944 -4.27595 0
M  V30 64949 H 6102.66 2.28738 -5.67 0
M  V30 64950 H 6106.83 2.10086 -6.63955 0
M  V30 64951 H 6104.46 1.97965 -7.33971 0
M  V30 64952 N 6106.03 1.19785 1.02417 0
M  V30 64953 C 6106.96 0.897619 2.10892 0
M  V30 64954 C 6107.98 -0.111587 1.62417 0
M  V30 64955 O 6109.17 0.118443 1.78107 0
M  V30 64956 C 6106.27 0.322833 3.37359 0
M  V30 64957 C 6105.44 1.38174 4.15002 0
M  V30 64958 C 6104.5 0.819645 5.19777 0
M  V30 64959 O 6103.52 1.4985 5.49121 0
M  V30 64960 N 6104.73 -0.374721 5.79289 0
M  V30 64961 H 6107.49 1.83136 2.37237 0
M  V30 64962 H 6105.05 1.10049 1.18747 0
M  V30 64963 H 6107.04 -0.0671623 4.04644 0
M  V30 64964 H 6105.61 -0.515292 3.08324 0
M  V30 64965 H 6104.83 1.94639 3.42797 0
M  V30 64966 H 6106.12 2.09512 4.63662 0
M  V30 64967 H 6105.52 -0.94366 5.57774 0
M  V30 64968 H 6104.08 -0.70644 6.4796 0
M  V30 64969 N 6107.51 -1.21603 1.00253 0
M  V30 64970 C 6108.42 -2.27568 0.570084 0
M  V30 64971 C 6109.44 -1.69671 -0.385728 0
M  V30 64972 O 6110.61 -1.9984 -0.250176 0
M  V30 64973 C 6107.68 -3.46559 -0.0989348 0
M  V30 64974 C 6106.74 -4.19738 0.901047 0
M  V30 64975 C 6105.97 -5.33047 0.26386 0
M  V30 64976 O 6106.19 -5.62602 -0.939934 0
M  V30 64977 O 6105.13 -5.93974 0.973551 0
M  V30 64978 H 6108.95 -2.66746 1.45191 0
M  V30 64979 H 6106.54 -1.27952 0.771269 0
M  V30 64980 H 6108.42 -4.18734 -0.473243 0
M  V30 64981 H 6107.1 -3.09286 -0.955176 0
M  V30 64982 H 6106 -3.49794 1.32647 0
M  V30 64983 H 6107.34 -4.60915 1.7268 0
M  V30 64984 N 6108.99 -0.776943 -1.37118 0
M  V30 64985 C 6110.4 -0.408375 -1.82179 0
M  V30 64986 C 6110.75 1.06615 -1.64705 0
M  V30 64987 O 6109.87 1.82617 -1.16104 0
M  V30 64988 C 6110.47 -0.734456 -3.30743 0
M  V30 64989 C 6109.03 -0.418878 -3.74062 0
M  V30 64990 C 6108.18 -0.975601 -2.59571 0
M  V30 64991 H 6111.13 -0.971155 -1.25516 0
M  V30 64992 H 6111.15 -0.0209895 -3.80494 0
M  V30 64993 H 6110.66 -1.80769 -3.4343 0
M  V30 64994 H 6108.76 0.646832 -3.66943 0
M  V30 64995 H 6108.87 -0.930762 -4.69972 0
M  V30 64996 H 6107.24 -0.399537 -2.51547 0
M  V30 64997 H 6108.02 -2.05434 -2.75048 0
M  V30 64998 N 6110.47 1.48495 -0.527912 0
M  V30 64999 C 6111.43 2.28091 0.225231 0
M  V30 65000 C 6112.43 1.35254 0.86966 0
M  V30 65001 O 6113.62 1.58165 0.73003 0
M  V30 65002 C 6110.75 3.14066 1.32573 0
M  V30 65003 H 6111.94 2.96137 -0.473569 0
M  V30 65004 H 6109.5 1.53702 -0.283778 0
M  V30 65005 H 6110.23 2.50645 2.05785 0
M  V30 65006 H 6110.02 3.82354 0.868788 0
M  V30 65007 H 6111.51 3.74112 1.85553 0
M  V30 65008 N 6111.94 0.262948 1.55391 0
M  V30 65009 C 6113.36 -0.0915139 1.59337 0
M  V30 65010 C 6113.56 -1.55608 1.28017 0
M  V30 65011 O 6112.62 -2.30305 1.03518 0
M  V30 65012 C 6113.93 0.272148 2.99466 0
M  V30 65013 C 6115.48 0.217763 3.12242 0
M  V30 65014 C 6115.95 0.555688 4.54616 0
M  V30 65015 N 6117.44 0.506785 4.60419 0
M  V30 65016 C 6118.18 0.741213 5.68589 0
M  V30 65017 N 6117.67 1.03962 6.84955 0
M  V30 65018 N 6119.47 0.670832 5.58083 0
M  V30 65019 H 6111.62 1.21787 1.74017 0
M  V30 65020 H 6113.88 0.49116 0.810843 0
M  V30 65021 H 6113.59 1.29024 3.27178 0
M  V30 65022 H 6113.46 -0.392973 3.75147 0
M  V30 65023 H 6115.85 -0.791023 2.84301 0
M  V30 65024 H 6115.93 0.916967 2.388 0
M  V30 65025 H 6115.57 1.5621 4.83281 0
M  V30 65026 H 6115.5 -0.165173 5.26341 0
M  V30 65027 H 6117.99 0.285529 3.7682 0
M  V30 65028 H 6118.31 1.20549 7.6334 0
M  V30 65029 H 6116.65 1.07726 6.866 0
M  V30 65030 H 6119.84 0.437637 4.6605 0
M  V30 65031 H 6120.02 0.856918 6.42309 0
M  V30 65032 N 6113.42 -1.57597 -0.00995191 0
M  V30 65033 C 6114.7 -1.81332 -0.733351 0
M  V30 65034 C 6115.08 -0.865563 -1.92539 0
M  V30 65035 O 6114.43 0.0879927 -2.28331 0
M  V30 65036 C 6114.64 -3.29563 -1.14844 0
M  V30 65037 C 6115.98 -3.95045 -1.55644 0
M  V30 65038 O 6117.01 -3.33827 -1.24251 0
M  V30 65039 O 6115.87 -5.02866 -2.13982 0
M  V30 65040 H 6112.96 -0.746347 -0.356224 0
M  V30 65041 H 6115.51 -1.69694 0.0147388 0
M  V30 65042 H 6114.28 -3.90161 -0.29833 0
M  V30 65043 H 6113.9 -3.46163 -1.95595 0
M  V30 65044 N 6114.9 0.282551 -1.55046 0
M  V30 65045 C 6116.15 1.01314 -1.74408 0
M  V30 65046 C 6116.46 1.8779 -0.547199 0
M  V30 65047 O 6117.67 2.64255 -0.623024 0
M  V30 65048 C 6116.12 1.85117 -3.08642 0
M  V30 65049 C 6115.73 1.03555 -4.35867 0
M  V30 65050 C 6117.48 2.57664 -3.37357 0
M  V30 65051 C 6115.38 1.86741 -5.61143 0
M  V30 65052 H 6114.31 0.38199 -0.650076 0
M  V30 65053 H 6116.96 0.269244 -1.81514 0
M  V30 65054 H 6115.35 2.63566 -2.95549 0
M  V30 65055 H 6116.52 0.295899 -4.59849 0
M  V30 65056 H 6114.83 0.425062 -4.14225 0
M  V30 65057 H 6117.43 3.20288 -4.28158 0
M  V30 65058 H 6117.77 3.27455 -2.57058 0
M  V30 65059 H 6118.31 1.86252 -3.51504 0
M  V30 65060 H 6115.05 1.21388 -6.44162 0
M  V30 65061 H 6114.57 2.58329 -5.41319 0
M  V30 65062 H 6116.25 2.4434 -5.99088 0
M  V30 65063 N 6116.38 1.47817 0.546623 0
M  V30 65064 C 6117.63 1.54678 1.30073 0
M  V30 65065 C 6117.95 0.215219 1.93809 0
M  V30 65066 O 6117.22 -0.761798 1.80481 0
M  V30 65067 H 6115.8 0.569793 0.483058 0
M  V30 65068 H 6118.46 1.8418 0.637461 0
M  V30 65069 H 6117.55 2.31901 2.08874 0
M  V30 65070 N 6117.86 -0.794198 1.36126 0
M  V30 65071 C 6119.1 -1.55187 1.3009 0
M  V30 65072 C 6119.43 -1.94122 -0.121191 0
M  V30 65073 O 6118.69 -1.62577 -1.08937 0
M  V30 65074 C 6118.98 -2.8438 2.16479 0
M  V30 65075 C 6118.65 -2.64604 3.65096 0
M  V30 65076 C 6117.31 -2.58919 4.05604 0
M  V30 65077 C 6119.66 -2.46276 4.59345 0
M  V30 65078 C 6116.99 -2.32866 5.38508 0
M  V30 65079 C 6119.34 -2.2175 5.92461 0
M  V30 65080 C 6118.01 -2.14495 6.32098 0
M  V30 65081 H 6117.28 -0.567868 0.476032 0
M  V30 65082 H 6119.93 -0.916664 1.68135 0
M  V30 65083 H 6118.23 -3.52342 1.71354 0
M  V30 65084 H 6119.93 -3.42145 2.09136 0
M  V30 65085 H 6116.52 -2.69882 3.32959 0
M  V30 65086 H 6120.7 -2.49673 4.28926 0
M  V30 65087 H 6115.96 -2.25728 5.68205 0
M  V30 65088 H 6120.13 -2.06562 6.6506 0
M  V30 65089 H 6117.76 -1.9407 7.35011 0
M  V30 65090 N 6119.33 -1.20327 -1.0178 0
M  V30 65091 C 6120.28 -0.947828 -2.12412 0
M  V30 65092 C 6121.28 0.100384 -1.69102 0
M  V30 65093 O 6122.48 -0.0498661 -1.79931 0
M  V30 65094 H 6118.86 -0.289172 -0.694178 0
M  V30 65095 H 6120.83 -1.88722 -2.31142 0
M  V30 65096 C 6119.58 -0.51515 -3.43863 0
M  V30 65097 H 6118.9 -1.31331 -3.77614 0
M  V30 65098 H 6120.34 -0.375624 -4.22333 0
M  V30 65099 C 6118.8 0.772297 -3.27929 0
M  V30 65100 O 6119.33 1.83103 -3.57542 0
M  V30 65101 N 6117.54 0.733849 -2.81181 0
M  V30 65102 H 6117.08 -0.127992 -2.57282 0
M  V30 65103 H 6117.04 1.59561 -2.70901 0
M  V30 65104 N 6120.81 1.21069 -1.00896 0
M  V30 65105 C 6122.06 1.90521 -0.694946 0
M  V30 65106 C 6122.39 1.78164 0.77274 0
M  V30 65107 O 6121.67 1.16086 1.56059 0
M  V30 65108 C 6121.95 3.42185 -1.12168 0
M  V30 65109 C 6121.8 3.63513 -2.64911 0
M  V30 65110 C 6123.12 4.34703 -0.687093 0
M  V30 65111 H 6120.24 0.691871 -0.253936 0
M  V30 65112 H 6122.88 1.42622 -1.25535 0
M  V30 65113 H 6121.03 3.8311 -0.644877 0
M  V30 65114 H 6122.7 3.3189 -3.20386 0
M  V30 65115 H 6120.95 3.07244 -3.06241 0
M  V30 65116 H 6121.62 4.69794 -2.89823 0
M  V30 65117 H 6124.09 4.01382 -1.09688 0
M  V30 65118 H 6122.97 5.39456 -1.0138 0
M  V30 65119 H 6123.23 4.4018 0.411603 0
M  V30 65120 N 6122.29 0.784204 1.36704 0
M  V30 65121 C 6123.25 0.185037 2.28452 0
M  V30 65122 C 6124.25 -0.614584 1.48592 0
M  V30 65123 O 6125.44 -0.436344 1.68647 0
M  V30 65124 C 6122.58 -0.744545 3.3267 0
M  V30 65125 H 6123.77 0.993961 2.8295 0
M  V30 65126 H 6121.32 0.553265 1.4618 0
M  V30 65127 H 6122.06 -1.57801 2.83319 0
M  V30 65128 H 6121.84 -0.173175 3.91717 0
M  V30 65129 H 6123.33 -1.1588 4.012 0
M  V30 65130 N 6123.77 -1.48213 0.535779 0
M  V30 65131 C 6125.01 -2.028 0.00380434 0
M  V30 65132 C 6125.35 -1.41147 -1.33383 0
M  V30 65133 O 6124.62 -0.559293 -1.86285 0
M  V30 65134 C 6124.91 -3.59926 -0.11206 0
M  V30 65135 C 6124.76 -4.32049 1.25115 0
M  V30 65136 C 6126.08 -4.32086 -0.836026 0
M  V30 65137 H 6123.2 -0.736994 0.00285654 0
M  V30 65138 H 6125.84 -1.76875 0.69393 0
M  V30 65139 H 6123.99 -3.82145 -0.699826 0
M  V30 65140 H 6125.66 -4.21231 1.88048 0
M  V30 65141 H 6123.9 -3.9324 1.83152 0
M  V30 65142 H 6124.57 -5.40456 1.12302 0
M  V30 65143 H 6127.05 -4.14732 -0.337187 0
M  V30 65144 H 6125.93 -5.41702 -0.886006 0
M  V30 65145 H 6126.19 -3.99779 -1.88757 0
M  V30 65146 N 6125.25 -0.271185 -1.55249 0
M  V30 65147 C 6126.18 0.611711 -2.25345 0
M  V30 65148 C 6127.16 1.16204 -1.2422 0
M  V30 65149 O 6128.34 1.1969 -1.52931 0
M  V30 65150 C 6125.47 1.7977 -2.97153 0
M  V30 65151 C 6124.43 1.37908 -4.05173 0
M  V30 65152 C 6123.75 2.64785 -4.64535 0
M  V30 65153 C 6125.05 0.532175 -5.19582 0
M  V30 65154 H 6126.75 0.0271485 -2.99388 0
M  V30 65155 H 6124.29 0.0116175 -1.43995 0
M  V30 65156 H 6126.25 2.4212 -3.449 0
M  V30 65157 H 6124.97 2.40803 -2.20639 0
M  V30 65158 H 6123.63 0.778792 -3.58232 0
M  V30 65159 H 6123.28 3.24068 -3.84694 0
M  V30 65160 H 6122.98 2.37488 -5.37469 0
M  V30 65161 H 6124.5 3.27991 -5.15029 0
M  V30 65162 H 6125.91 1.06058 -5.63404 0
M  V30 65163 H 6124.31 0.35426 -5.99053 0
M  V30 65164 H 6125.38 -0.44998 -4.82808 0
M  V30 65165 N 6126.72 1.576 0.00159402 0
M  V30 65166 C 6127.65 2.11358 0.99248 0
M  V30 65167 C 6128.64 1.02235 1.35949 0
M  V30 65168 O 6129.82 1.29909 1.44352 0
M  V30 65169 C 6126.95 2.61557 2.28485 0
M  V30 65170 C 6125.9 3.75192 2.05949 0
M  V30 65171 C 6125.23 4.117 3.41185 0
M  V30 65172 C 6126.53 5.02531 1.42337 0
M  V30 65173 H 6128.22 2.944 0.544883 0
M  V30 65174 H 6125.77 1.41621 0.260652 0
M  V30 65175 H 6127.72 2.97792 2.98157 0
M  V30 65176 H 6126.45 1.75634 2.75355 0
M  V30 65177 H 6125.11 3.39348 1.38703 0
M  V30 65178 H 6124.75 3.22803 3.85755 0
M  V30 65179 H 6124.45 4.88257 3.26923 0
M  V30 65180 H 6125.98 4.50492 4.12176 0
M  V30 65181 H 6127.39 5.36547 2.01965 0
M  V30 65182 H 6125.79 5.83883 1.38568 0
M  V30 65183 H 6126.86 4.8331 0.392395 0
M  V30 65184 N 6128.2 -0.274325 1.55194 0
M  V30 65185 C 6129.43 -1.02437 1.79762 0
M  V30 65186 C 6129.85 -1.79982 0.570268 0
M  V30 65187 O 6129.2 -1.76591 -0.460628 0
M  V30 65188 C 6129.25 -1.98399 3.02192 0
M  V30 65189 O 6128.97 -1.23997 4.20186 0
M  V30 65190 C 6130.48 -2.85227 3.39353 0
M  V30 65191 H 6127.7 -0.302663 0.598862 0
M  V30 65192 H 6130.24 -0.30551 2.02205 0
M  V30 65193 H 6128.39 -2.6575 2.81879 0
M  V30 65194 H 6128.81 -1.88667 4.89393 0
M  V30 65195 H 6130.28 -3.48361 4.28193 0
M  V30 65196 H 6130.76 -3.54927 2.58696 0
M  V30 65197 H 6131.37 -2.23369 3.6192 0
M  V30 65198 N 6129.68 -1.48105 -0.538776 0
M  V30 65199 C 6130.63 -1.62404 -1.66516 0
M  V30 65200 C 6131.62 -0.490726 -1.62136 0
M  V30 65201 O 6132.83 -0.669157 -1.671 0
M  V30 65202 H 6129.2 -0.511434 -0.551307 0
M  V30 65203 H 6131.17 -2.57023 -1.51597 0
M  V30 65204 C 6129.92 -1.67275 -3.04819 0
M  V30 65205 H 6129.25 -2.53839 -3.08879 0
M  V30 65206 H 6130.69 -1.81326 -3.83271 0
M  V30 65207 C 6129.15 -0.409657 -3.344 0
M  V30 65208 O 6129.68 0.481293 -3.98806 0
M  V30 65209 N 6127.88 -0.284036 -2.89209 0
M  V30 65210 H 6127.43 -1.01001 -2.36974 0
M  V30 65211 H 6127.39 0.560092 -3.09371 0
M  V30 65212 N 6131.16 0.786968 -1.36545 0
M  V30 65213 C 6132.09 1.91394 -1.33756 0
M  V30 65214 C 6133.07 1.68816 -0.208618 0
M  V30 65215 O 6134.25 1.89895 -0.406641 0
M  V30 65216 C 6131.38 3.28453 -1.12853 0
M  V30 65217 C 6130.34 3.6556 -2.22598 0
M  V30 65218 C 6129.66 5.00995 -1.86836 0
M  V30 65219 C 6130.96 3.73889 -3.64697 0
M  V30 65220 H 6132.66 1.93985 -2.28057 0
M  V30 65221 H 6130.2 0.931899 -1.0978 0
M  V30 65222 H 6132.16 4.06915 -1.09536 0
M  V30 65223 H 6130.88 3.26255 -0.150033 0
M  V30 65224 H 6129.54 2.89397 -2.25045 0
M  V30 65225 H 6129.19 4.95321 -0.875535 0
M  V30 65226 H 6128.89 5.26793 -2.60313 0
M  V30 65227 H 6130.41 5.81875 -1.85079 0
M  V30 65228 H 6131.83 4.42537 -3.64464 0
M  V30 65229 H 6130.22 4.11173 -4.37101 0
M  V30 65230 H 6131.29 2.74932 -3.99425 0
M  V30 65231 N 6132.64 1.20865 1.01141 0
M  V30 65232 C 6133.86 1.04849 1.78945 0
M  V30 65233 C 6134.29 -0.397612 1.8385 0
M  V30 65234 O 6133.64 -1.28658 1.27737 0
M  V30 65235 C 6133.69 1.64278 3.21006 0
M  V30 65236 O 6132.8 0.883914 4.02816 0
M  V30 65237 H 6132.14 0.369429 0.551741 0
M  V30 65238 H 6134.67 1.6027 1.2718 0
M  V30 65239 H 6134.68 1.68231 3.71702 0
M  V30 65240 H 6133.35 2.6952 3.16751 0
M  V30 65241 H 6131.93 0.918993 3.61399 0
M  V30 65242 N 6134.12 -1.20532 1.01537 0
M  V30 65243 C 6135.03 -2.26951 0.594189 0
M  V30 65244 C 6136.04 -1.7007 -0.367711 0
M  V30 65245 O 6137.22 -2.00094 -0.228966 0
M  V30 65246 C 6134.28 -3.46644 -0.062172 0
M  V30 65247 C 6133.34 -4.18758 0.945516 0
M  V30 65248 C 6132.58 -5.32737 0.320382 0
M  V30 65249 O 6132.8 -5.63568 -0.880209 0
M  V30 65250 O 6131.73 -5.92908 1.0365 0
M  V30 65251 H 6135.56 -2.65191 1.48012 0
M  V30 65252 H 6133.14 -1.27127 0.784797 0
M  V30 65253 H 6135.03 -4.19213 -0.428804 0
M  V30 65254 H 6133.7 -3.10282 -0.922319 0
M  V30 65255 H 6132.61 -3.48367 1.36349 0
M  V30 65256 H 6133.94 -4.59057 1.77559 0
M  V30 65257 N 6135.59 -0.791442 -1.36286 0
M  V30 65258 C 6136.54 -0.164298 -2.27407 0
M  V30 65259 C 6137.53 0.652966 -1.47055 0
M  V30 65260 O 6138.72 0.512708 -1.69412 0
M  V30 65261 C 6135.85 0.698433 -3.3612 0
M  V30 65262 C 6134.93 -0.127732 -4.23908 0
M  V30 65263 N 6135.33 -1.18324 -4.91765 0
M  V30 65264 C 6133.62 0.0931053 -4.45903 0
M  V30 65265 C 6134.32 -1.68635 -5.5672 0
M  V30 65266 N 6133.3 -0.995246 -5.34412 0
M  V30 65267 H 6137.1 -0.972143 -2.77356 0
M  V30 65268 H 6134.62 -0.631103 -1.49636 0
M  V30 65269 H 6136.61 1.16365 -4.00331 0
M  V30 65270 H 6135.27 1.5048 -2.87725 0
M  V30 65271 H 6136.28 -1.5657 -4.93666 0
M  V30 65272 H 6132.96 0.869818 -4.08339 0
M  V30 65273 H 6134.35 -2.56767 -6.20903 0
M  V30 65274 N 6137.07 1.47927 -0.543632 0
M  V30 65275 C 6138.32 2.02795 -0.0145592 0
M  V30 65276 C 6138.65 1.41853 1.32633 0
M  V30 65277 O 6137.93 0.569164 1.85986 0
M  V30 65278 C 6138.21 3.5998 0.0929704 0
M  V30 65279 C 6138.06 4.31379 -1.27405 0
M  V30 65280 C 6139.38 4.32524 0.813099 0
M  V30 65281 H 6136.5 0.736969 -0.00676496 0
M  V30 65282 H 6139.14 1.76504 -0.7033 0
M  V30 65283 H 6137.29 3.82511 0.67955 0
M  V30 65284 H 6138.96 4.20228 -1.90279 0
M  V30 65285 H 6137.21 3.92263 -1.85235 0
M  V30 65286 H 6137.88 5.39852 -1.15167 0
M  V30 65287 H 6140.35 4.14905 0.315188 0
M  V30 65288 H 6139.23 5.42164 0.857266 0
M  V30 65289 H 6139.49 4.00774 1.86635 0
M  V30 65290 N 6138.55 0.279414 1.55103 0
M  V30 65291 C 6139.96 -0.217504 1.85429 0
M  V30 65292 C 6140.31 -1.55113 1.20143 0
M  V30 65293 O 6139.44 -2.10749 0.491303 0
M  V30 65294 C 6140.03 -0.401429 3.36413 0
M  V30 65295 C 6138.59 -0.842577 3.66848 0
M  V30 65296 C 6137.74 0.061654 2.77231 0
M  V30 65297 H 6140.69 0.501078 1.50582 0
M  V30 65298 H 6140.71 -1.23933 3.59751 0
M  V30 65299 H 6140.22 0.569359 3.83901 0
M  V30 65300 H 6138.32 -1.82468 3.24863 0
M  V30 65301 H 6138.44 -0.676921 4.74294 0
M  V30 65302 H 6136.8 -0.455398 2.50596 0
M  V30 65303 H 6137.58 1.0284 3.27534 0
M  V30 65304 N 6140.03 -1.57599 0.00676391 0
M  V30 65305 C 6140.98 -2.05331 -0.991122 0
M  V30 65306 C 6141.96 -0.949348 -1.29908 0
M  V30 65307 O 6143.15 -1.21307 -1.28893 0
M  V30 65308 C 6140.28 -2.56571 -2.28093 0
M  V30 65309 C 6139.37 -3.73856 -2.00231 0
M  V30 65310 N 6139.76 -4.85296 -1.42553 0
M  V30 65311 C 6138.06 -3.81916 -2.3034 0
M  V30 65312 C 6138.76 -5.66684 -1.31316 0
M  V30 65313 N 6137.73 -5.12896 -1.80109 0
M  V30 65314 H 6141.54 -2.88901 -0.539776 0
M  V30 65315 H 6139.05 -1.61179 -0.198778 0
M  V30 65316 H 6141.05 -2.89046 -3.0043 0
M  V30 65317 H 6139.71 -1.74422 -2.73874 0
M  V30 65318 H 6140.72 -5.06008 -1.10345 0
M  V30 65319 H 6137.4 -3.10634 -2.78949 0
M  V30 65320 H 6138.79 -6.66256 -0.869067 0
M  V30 65321 N 6141.51 0.266091 -1.55337 0
M  V30 65322 C 6142.78 1.01846 -1.66993 0
M  V30 65323 C 6143.16 2.04051 -0.540952 0
M  V30 65324 O 6142.51 2.23861 0.458114 0
M  V30 65325 C 6142.72 1.66906 -3.06502 0
M  V30 65326 C 6144.07 2.17811 -3.64477 0
M  V30 65327 O 6145.09 1.76881 -3.09179 0
M  V30 65328 O 6143.95 2.92906 -4.61377 0
M  V30 65329 H 6141.05 0.472847 -0.678487 0
M  V30 65330 H 6143.59 0.261399 -1.67675 0
M  V30 65331 H 6142.36 0.928807 -3.80117 0
M  V30 65332 H 6141.99 2.49281 -3.09749 0
M  V30 65333 N 6142.98 1.48388 0.530914 0
M  V30 65334 C 6144.39 1.49908 1.11286 0
M  V30 65335 C 6144.75 0.268344 1.94356 0
M  V30 65336 O 6143.87 -0.624603 2.0719 0
M  V30 65337 C 6144.47 2.7163 2.02492 0
M  V30 65338 C 6143.02 2.76024 2.55906 0
M  V30 65339 C 6142.17 2.43407 1.32846 0
M  V30 65340 H 6145.12 1.55518 0.316214 0
M  V30 65341 H 6145.14 2.50094 2.86763 0
M  V30 65342 H 6144.66 3.61187 1.42004 0
M  V30 65343 H 6142.76 1.90672 3.20117 0
M  V30 65344 H 6142.87 3.77427 2.95103 0
M  V30 65345 H 6141.23 1.94543 1.64393 0
M  V30 65346 H 6142.02 3.35205 0.741124 0
M  V30 65347 N 6144.46 -0.779715 1.36961 0
M  V30 65348 C 6145.88 -1.07915 1.17586 0
M  V30 65349 C 6146.08 -2.01499 0.00656312 0
M  V30 65350 O 6145.13 -2.43835 -0.655819 0
M  V30 65351 C 6146.45 -1.6843 2.49102 0
M  V30 65352 C 6147.99 -1.80726 2.55553 0
M  V30 65353 C 6148.47 -2.44655 3.87179 0
M  V30 65354 N 6149.96 -2.52114 3.88578 0
M  V30 65355 C 6150.7 -3.02412 4.8717 0
M  V30 65356 N 6150.19 -3.52943 5.96157 0
M  V30 65357 N 6151.98 -3.01213 4.74581 0
M  V30 65358 H 6144.14 -0.158175 2.1181 0
M  V30 65359 H 6146.4 -0.132793 0.938653 0
M  V30 65360 H 6146.1 -1.07135 3.34985 0
M  V30 65361 H 6145.98 -2.67823 2.65614 0
M  V30 65362 H 6148.37 -2.41156 1.70081 0
M  V30 65363 H 6148.45 -0.801113 2.42932 0
M  V30 65364 H 6148.09 -1.84866 4.73061 0
M  V30 65365 H 6148.02 -3.4586 3.971 0
M  V30 65366 H 6150.51 -2.16344 3.09845 0
M  V30 65367 H 6150.82 -3.89702 6.67347 0
M  V30 65368 H 6149.17 -3.51069 5.99813 0
M  V30 65369 H 6152.36 -2.61031 3.88562 0
M  V30 65370 H 6152.53 -3.40103 5.51574 0
M  V30 65371 N 6145.94 -1.21399 -1.00498 0
M  V30 65372 C 6146.87 -0.997343 -2.11129 0
M  V30 65373 C 6147.85 0.0776858 -1.69923 0
M  V30 65374 O 6149.04 -0.0821482 -1.94026 0
M  V30 65375 C 6146.17 -0.561243 -3.42735 0
M  V30 65376 C 6145.12 -1.58083 -3.97736 0
M  V30 65377 C 6144.45 -1.00097 -5.25247 0
M  V30 65378 C 6145.75 -2.96769 -4.29797 0
M  V30 65379 H 6147.44 -1.92263 -2.29511 0
M  V30 65380 H 6144.99 -0.925815 -1.10294 0
M  V30 65381 H 6146.94 -0.396848 -4.19527 0
M  V30 65382 H 6145.66 0.39969 -3.24145 0
M  V30 65383 H 6144.32 -1.73279 -3.23063 0
M  V30 65384 H 6143.97 -0.0317565 -5.0299 0
M  V30 65385 H 6143.67 -1.68202 -5.63011 0
M  V30 65386 H 6145.19 -0.847899 -6.04684 0
M  V30 65387 H 6146.61 -2.85017 -4.97431 0
M  V30 65388 H 6145 -3.61888 -4.78704 0
M  V30 65389 H 6146.07 -3.47614 -3.38072 0
M  V30 65390 N 6147.42 1.19992 -1.02175 0
M  V30 65391 C 6148.37 2.20835 -0.567107 0
M  V30 65392 C 6149.35 1.56341 0.380322 0
M  V30 65393 O 6150.54 1.75838 0.202451 0
M  V30 65394 C 6147.67 3.43187 0.0879789 0
M  V30 65395 C 6146.76 4.14839 -0.881464 0
M  V30 65396 N 6147.15 4.6279 -2.04105 0
M  V30 65397 C 6145.45 4.40419 -0.70338 0
M  V30 65398 C 6146.15 5.17735 -2.6519 0
M  V30 65399 N 6145.12 5.08105 -1.9321 0
M  V30 65400 H 6148.93 2.55581 -1.45106 0
M  V30 65401 H 6146.44 1.35986 -0.887775 0
M  V30 65402 H 6148.44 4.14663 0.431261 0
M  V30 65403 H 6147.1 3.09944 0.96771 0
M  V30 65404 H 6148.11 4.57842 -2.42077 0
M  V30 65405 H 6144.79 4.17304 0.127861 0
M  V30 65406 H 6146.18 5.65176 -3.63353 0
M  V30 65407 N 6148.9 0.798659 1.35865 0
M  V30 65408 C 6149.84 0.191506 2.3181 0
M  V30 65409 C 6150.84 -0.654325 1.56253 0
M  V30 65410 O 6152.04 -0.548375 1.71443 0
M  V30 65411 H 6148.42 0.0431607 0.75076 0
M  V30 65412 H 6150.39 1.01599 2.80571 0
M  V30 65413 C 6149.14 -0.651792 3.41536 0
M  V30 65414 H 6148.46 -0.0102904 3.99799 0
M  V30 65415 H 6149.9 -1.04313 4.10968 0
M  V30 65416 C 6148.36 -1.81397 2.83895 0
M  V30 65417 O 6148.89 -2.91105 2.76805 0
M  V30 65418 N 6147.1 -1.62299 2.41054 0
M  V30 65419 H 6146.64 -0.730622 2.47022 0
M  V30 65420 H 6146.6 -2.40219 2.02836 0
M  V30 65421 N 6150.37 -1.47637 0.551469 0
M  V30 65422 C 6151.62 -2.02484 0.0252763 0
M  V30 65423 C 6151.95 -1.42642 -1.32225 0
M  V30 65424 O 6151.2 -0.5695 -1.8723 0
M  V30 65425 C 6151.5 -3.57187 -0.123341 0
M  V30 65426 C 6151.17 -4.35921 1.15256 0
M  V30 65427 C 6149.83 -4.57152 1.50219 0
M  V30 65428 C 6152.18 -4.8137 1.99832 0
M  V30 65429 C 6149.51 -5.2108 2.69615 0
M  V30 65430 C 6151.86 -5.46615 3.18425 0
M  V30 65431 C 6150.53 -5.6608 3.53708 0
M  V30 65432 H 6149.8 -0.740942 0.00924925 0
M  V30 65433 H 6152.44 -1.77375 0.721826 0
M  V30 65434 H 6150.75 -3.81256 -0.902817 0
M  V30 65435 H 6152.45 -3.97269 -0.545737 0
M  V30 65436 H 6149.04 -4.19671 0.870317 0
M  V30 65437 H 6153.22 -4.6475 1.74129 0
M  V30 65438 H 6148.48 -5.34346 2.97127 0
M  V30 65439 H 6152.65 -5.80796 3.84251 0
M  V30 65440 H 6150.28 -6.15388 4.4632 0
M  V30 65441 N 6151.85 -0.287636 -1.54953 0
M  V30 65442 C 6152.78 0.587776 -2.25981 0
M  V30 65443 C 6153.76 1.1488 -1.25446 0
M  V30 65444 O 6154.95 1.18062 -1.54192 0
M  V30 65445 C 6152.08 1.76608 -2.99043 0
M  V30 65446 C 6151.03 1.33603 -4.06613 0
M  V30 65447 C 6150.36 2.59843 -4.67318 0
M  V30 65448 C 6151.66 0.477036 -5.20117 0
M  V30 65449 H 6153.35 -0.00460708 -2.994 0
M  V30 65450 H 6150.9 -0.00365583 -1.44 0
M  V30 65451 H 6152.85 2.38448 -3.47448 0
M  V30 65452 H 6151.58 2.38449 -2.23181 0
M  V30 65453 H 6150.23 0.740753 -3.59038 0
M  V30 65454 H 6149.88 3.19969 -3.88109 0
M  V30 65455 H 6149.58 2.31774 -5.39958 0
M  V30 65456 H 6151.11 3.2251 -5.18479 0
M  V30 65457 H 6152.52 1.00077 -5.64498 0
M  V30 65458 H 6150.92 0.290702 -5.99395 0
M  V30 65459 H 6151.99 -0.501163 -4.82303 0
M  V30 65460 N 6153.33 1.57593 -0.0151216 0
M  V30 65461 C 6154.24 2.12811 0.987363 0
M  V30 65462 C 6155.26 1.07695 1.36666 0
M  V30 65463 O 6156.43 1.39679 1.45092 0
M  V30 65464 C 6153.5 2.63284 2.25571 0
M  V30 65465 C 6152.56 3.8306 1.93813 0
M  V30 65466 C 6151.79 4.31117 3.14601 0
M  V30 65467 O 6152.01 3.7842 4.26796 0
M  V30 65468 O 6150.95 5.23115 2.97716 0
M  V30 65469 H 6154.77 2.98717 0.54791 0
M  V30 65470 H 6152.36 1.47992 0.204638 0
M  V30 65471 H 6154.24 2.9588 3.00055 0
M  V30 65472 H 6152.92 1.80468 2.68725 0
M  V30 65473 H 6151.82 3.55413 1.16757 0
M  V30 65474 H 6153.16 4.66996 1.55486 0
M  V30 65475 N 6154.81 -0.257849 1.55476 0
M  V30 65476 C 6155.74 -1.32296 1.92406 0
M  V30 65477 C 6156.72 -1.50764 0.78767 0
M  V30 65478 O 6157.9 -1.63555 1.04706 0
M  V30 65479 C 6155.03 -2.67976 2.20921 0
M  V30 65480 C 6153.99 -2.64219 3.36708 0
M  V30 65481 C 6153.31 -4.03591 3.50739 0
M  V30 65482 C 6154.61 -2.2216 4.72697 0
M  V30 65483 H 6156.31 -1.01636 2.81621 0
M  V30 65484 H 6153.85 -0.487476 1.35498 0
M  V30 65485 H 6155.81 -3.42614 2.45344 0
M  V30 65486 H 6154.53 -3.0025 1.28521 0
M  V30 65487 H 6153.19 -1.92038 3.12277 0
M  V30 65488 H 6152.84 -4.33113 2.55778 0
M  V30 65489 H 6152.54 -4.01968 4.28597 0
M  V30 65490 H 6154.06 -4.79945 3.77472 0
M  V30 65491 H 6155.48 -2.86526 4.96564 0
M  V30 65492 H 6153.87 -2.3167 5.53578 0
M  V30 65493 H 6154.94 -1.17309 4.70496 0
M  V30 65494 N 6156.29 -1.48668 -0.523038 0
M  V30 65495 C 6157.25 -1.63216 -1.60913 0
M  V30 65496 C 6158.25 -0.505066 -1.52662 0
M  V30 65497 O 6159.44 -0.771022 -1.56208 0
M  V30 65498 C 6156.57 -1.60889 -3.00546 0
M  V30 65499 H 6157.76 -2.60066 -1.49351 0
M  V30 65500 H 6155.32 -1.37369 -0.745625 0
M  V30 65501 H 6156.05 -0.655418 -3.17608 0
M  V30 65502 H 6155.84 -2.42721 -3.07943 0
M  V30 65503 H 6157.33 -1.74277 -3.79496 0
M  V30 65504 N 6157.76 0.772441 -1.37372 0
M  V30 65505 C 6158.67 1.91675 -1.3527 0
M  V30 65506 C 6159.69 1.7216 -0.252382 0
M  V30 65507 O 6160.87 1.95407 -0.487649 0
M  V30 65508 C 6157.93 3.26788 -1.15803 0
M  V30 65509 C 6156.99 3.58962 -2.35468 0
M  V30 65510 C 6156.23 4.87628 -2.1692 0
M  V30 65511 O 6156.45 5.58623 -1.15311 0
M  V30 65512 O 6155.38 5.18848 -3.05091 0
M  V30 65513 H 6159.21 1.964 -2.31648 0
M  V30 65514 H 6156.79 0.915095 -1.18095 0
M  V30 65515 H 6158.68 4.07607 -1.06932 0
M  V30 65516 H 6157.35 3.22917 -0.224985 0
M  V30 65517 H 6156.26 2.7838 -2.49911 0
M  V30 65518 H 6157.59 3.67575 -3.27337 0
M  V30 65519 N 6159.24 1.21931 0.998532 0
M  V30 65520 C 6160.47 1.06741 1.77823 0
M  V30 65521 C 6160.89 -0.37809 1.84261 0
M  V30 65522 O 6160.25 -1.27296 1.29095 0
M  V30 65523 C 6160.3 1.67673 3.19246 0
M  V30 65524 O 6159.4 0.926589 4.01856 0
M  V30 65525 H 6158.74 0.375261 0.547792 0
M  V30 65526 H 6161.27 1.6161 1.25473 0
M  V30 65527 H 6161.28 1.72164 3.69897 0
M  V30 65528 H 6159.96 2.72865 3.13875 0
M  V30 65529 H 6158.54 0.957272 3.60404 0
M  V30 65530 N 6160.72 -1.19449 1.02809 0
M  V30 65531 C 6161.97 -1.88436 0.719351 0
M  V30 65532 C 6162.28 -1.80438 -0.75508 0
M  V30 65533 O 6163.49 -2.44669 -1.17684 0
M  V30 65534 C 6161.94 -3.37997 1.23636 0
M  V30 65535 C 6161.55 -3.54555 2.73852 0
M  V30 65536 C 6163.3 -4.12467 1.00358 0
M  V30 65537 C 6161.2 -4.98005 3.18976 0
M  V30 65538 H 6160.13 -0.705753 0.265384 0
M  V30 65539 H 6162.78 -1.35054 1.24229 0
M  V30 65540 H 6161.17 -3.90772 0.641348 0
M  V30 65541 H 6162.34 -3.12112 3.39002 0
M  V30 65542 H 6160.66 -2.93473 2.95402 0
M  V30 65543 H 6163.25 -5.18253 1.31599 0
M  V30 65544 H 6163.6 -4.16257 -0.059641 0
M  V30 65545 H 6164.13 -3.65827 1.56255 0
M  V30 65546 H 6160.87 -4.99375 4.24623 0
M  V30 65547 H 6160.39 -5.41212 2.58553 0
M  V30 65548 H 6162.07 -5.66653 3.12272 0
M  V30 65549 N 6162.2 -0.805853 -1.35439 0
M  V30 65550 C 6163.13 -0.230159 -2.32363 0
M  V30 65551 C 6164.11 0.643979 -1.57439 0
M  V30 65552 O 6165.29 0.574402 -1.85511 0
M  V30 65553 C 6162.42 0.622694 -3.41672 0
M  V30 65554 C 6161.38 -0.152889 -4.27727 0
M  V30 65555 C 6160.7 0.821617 -5.2835 0
M  V30 65556 C 6162 -1.35146 -5.04513 0
M  V30 65557 H 6163.7 -1.03993 -2.8076 0
M  V30 65558 H 6161.24 -0.501515 -1.34985 0
M  V30 65559 H 6163.2 1.0355 -4.08479 0
M  V30 65560 H 6161.92 1.46534 -2.91882 0
M  V30 65561 H 6160.58 -0.546859 -3.62498 0
M  V30 65562 H 6160.23 1.65974 -4.74828 0
M  V30 65563 H 6159.93 0.307002 -5.86797 0
M  V30 65564 H 6161.45 1.23264 -5.98029 0
M  V30 65565 H 6162.87 -1.01357 -5.64269 0
M  V30 65566 H 6161.26 -1.80051 -5.72452 0
M  V30 65567 H 6162.33 -2.13848 -4.35198 0
M  V30 65568 N 6163.68 1.47342 -0.559291 0
M  V30 65569 C 6164.59 2.33827 0.190319 0
M  V30 65570 C 6165.6 1.4832 0.909794 0
M  V30 65571 O 6166.78 1.81244 0.878222 0
M  V30 65572 C 6163.84 3.25056 1.20579 0
M  V30 65573 C 6162.91 4.26454 0.493521 0
M  V30 65574 C 6162.14 5.13324 1.46062 0
M  V30 65575 O 6162.36 5.02687 2.69559 0
M  V30 65576 O 6161.3 5.93803 0.983969 0
M  V30 65577 H 6165.12 2.9923 -0.519151 0
M  V30 65578 H 6162.71 1.45935 -0.319888 0
M  V30 65579 H 6164.59 3.81403 1.79191 0
M  V30 65580 H 6163.26 2.62279 1.89715 0
M  V30 65581 H 6162.17 3.7386 -0.133846 0
M  V30 65582 H 6163.5 4.91951 -0.156423 0
M  V30 65583 N 6165.16 0.295849 1.54798 0
M  V30 65584 C 6166.39 -0.31723 2.0415 0
M  V30 65585 C 6166.79 -1.48459 1.17289 0
M  V30 65586 O 6166.14 -1.82714 0.190043 0
M  V30 65587 C 6166.2 -0.841118 3.49522 0
M  V30 65588 C 6165.86 0.200294 4.56561 0
M  V30 65589 C 6166.86 1.02698 5.09656 0
M  V30 65590 C 6164.54 0.340509 5.01145 0
M  V30 65591 C 6166.54 1.97987 6.05871 0
M  V30 65592 C 6164.23 1.29685 5.97181 0
M  V30 65593 C 6165.22 2.11502 6.49427 0
M  V30 65594 O 6164.91 3.05516 7.43583 0
M  V30 65595 H 6164.64 -0.0736443 0.671977 0
M  V30 65596 H 6167.2 0.431876 2.00808 0
M  V30 65597 H 6165.43 -1.64066 3.5017 0
M  V30 65598 H 6167.12 -1.36952 3.82098 0
M  V30 65599 H 6167.88 0.929498 4.7601 0
M  V30 65600 H 6163.76 -0.286364 4.6011 0
M  V30 65601 H 6167.31 2.61888 6.46576 0
M  V30 65602 H 6163.2 1.39508 6.30244 0
M  V30 65603 H 6163.97 3.00435 7.61368 0
M  V30 65604 N 6166.63 -1.57583 0.023479 0
M  V30 65605 C 6167.88 -1.91567 -0.656382 0
M  V30 65606 C 6168.21 -0.899359 -1.72458 0
M  V30 65607 O 6167.46 0.092542 -1.95481 0
M  V30 65608 C 6167.76 -3.32288 -1.31604 0
M  V30 65609 C 6167.43 -4.49306 -0.378767 0
M  V30 65610 C 6166.09 -4.81048 -0.120776 0
M  V30 65611 C 6168.44 -5.20525 0.265168 0
M  V30 65612 C 6165.77 -5.8137 0.78905 0
M  V30 65613 C 6168.12 -6.21817 1.16301 0
M  V30 65614 C 6166.79 -6.52004 1.42995 0
M  V30 65615 H 6166.06 -0.700993 -0.240187 0
M  V30 65616 H 6168.7 -1.91316 0.0840384 0
M  V30 65617 H 6167.01 -3.28774 -2.13108 0
M  V30 65618 H 6168.71 -3.55851 -1.84854 0
M  V30 65619 H 6165.3 -4.24519 -0.590024 0
M  V30 65620 H 6169.48 -4.96237 0.0789003 0
M  V30 65621 H 6164.74 -6.03106 1.00363 0
M  V30 65622 H 6168.91 -6.76124 1.6682 0
M  V30 65623 H 6166.54 -7.29557 2.13662 0
M  V30 65624 N 6168.11 0.2496 -1.55611 0
M  V30 65625 C 6169.53 0.59798 -1.47974 0
M  V30 65626 C 6169.73 1.88459 -0.713134 0
M  V30 65627 O 6168.78 2.51343 -0.241402 0
M  V30 65628 C 6170.1 0.703215 -2.92362 0
M  V30 65629 C 6171.64 0.795721 -3.02716 0
M  V30 65630 C 6172.12 0.932541 -4.48406 0
M  V30 65631 N 6173.61 0.997479 -4.52332 0
M  V30 65632 C 6174.35 1.12256 -5.62304 0
M  V30 65633 N 6173.84 1.21335 -6.82092 0
M  V30 65634 N 6175.63 1.1555 -5.50095 0
M  V30 65635 H 6167.79 -0.595047 -2.03894 0
M  V30 65636 H 6170.05 -0.204989 -0.925572 0
M  V30 65637 H 6169.75 -0.172105 -3.51279 0
M  V30 65638 H 6169.63 1.57602 -3.42697 0
M  V30 65639 H 6172.02 1.6615 -2.43882 0
M  V30 65640 H 6172.1 -0.102177 -2.55596 0
M  V30 65641 H 6171.74 0.0713338 -5.0785 0
M  V30 65642 H 6171.67 1.84544 -4.93205 0
M  V30 65643 H 6174.16 0.938766 -3.66054 0
M  V30 65644 H 6174.47 1.30779 -7.61654 0
M  V30 65645 H 6172.82 1.18298 -6.84858 0
M  V30 65646 H 6176.01 1.08104 -4.55446 0
M  V30 65647 H 6176.18 1.24954 -6.35838 0
M  V30 65648 N 6169.59 1.48943 0.515146 0
M  V30 65649 C 6171 1.5108 1.0969 0
M  V30 65650 C 6171.35 0.288943 1.94061 0
M  V30 65651 O 6170.48 -0.602592 2.07841 0
M  V30 65652 C 6171.07 2.73762 1.99599 0
M  V30 65653 C 6169.63 2.78723 2.52964 0
M  V30 65654 C 6168.78 2.44803 1.30257 0
M  V30 65655 H 6171.73 1.55844 0.299702 0
M  V30 65656 H 6171.75 2.53122 2.84095 0
M  V30 65657 H 6171.26 3.62673 1.38165 0
M  V30 65658 H 6169.36 1.94056 3.18077 0
M  V30 65659 H 6169.48 3.80535 2.91084 0
M  V30 65660 H 6167.84 1.96276 1.6232 0
M  V30 65661 H 6168.62 3.35972 0.70553 0
M  V30 65662 N 6171.07 -0.765145 1.3778 0
M  V30 65663 C 6172.3 -1.55205 1.36363 0
M  V30 65664 C 6172.71 -1.8913 -0.0513356 0
M  V30 65665 O 6172.05 -1.52425 -1.02529 0
M  V30 65666 C 6172.11 -2.88597 2.14364 0
M  V30 65667 C 6171.77 -2.77273 3.63275 0
M  V30 65668 C 6172.77 -2.47853 4.57018 0
M  V30 65669 C 6170.46 -2.95088 4.06483 0
M  V30 65670 C 6172.45 -2.36385 5.91947 0
M  V30 65671 C 6170.14 -2.8324 5.41496 0
M  V30 65672 C 6171.14 -2.5393 6.34041 0
M  V30 65673 O 6170.82 -2.42121 7.66572 0
M  V30 65674 H 6170.56 -0.48725 0.468576 0
M  V30 65675 H 6173.11 -0.955652 1.81814 0
M  V30 65676 H 6171.34 -3.50382 1.63613 0
M  V30 65677 H 6173.03 -3.50036 2.05498 0
M  V30 65678 H 6173.79 -2.33769 4.24944 0
M  V30 65679 H 6169.67 -3.16901 3.34805 0
M  V30 65680 H 6173.22 -2.13428 6.64149 0
M  V30 65681 H 6169.11 -2.96894 5.7317 0
M  V30 65682 H 6169.88 -2.5742 7.76967 0
M  V30 65683 N 6172.55 -1.22459 -0.992051 0
M  V30 65684 C 6173.48 -1.01968 -2.10059 0
M  V30 65685 C 6174.46 0.0596588 -1.69995 0
M  V30 65686 O 6175.64 -0.102723 -1.93928 0
M  V30 65687 C 6172.77 -0.597563 -3.42121 0
M  V30 65688 C 6171.73 -1.62293 -3.96037 0
M  V30 65689 C 6171.05 -1.05662 -5.24156 0
M  V30 65690 C 6172.35 -3.01311 -4.26625 0
M  V30 65691 H 6174.05 -1.94686 -2.27459 0
M  V30 65692 H 6171.59 -0.937461 -1.09305 0
M  V30 65693 H 6173.54 -0.441322 -4.19083 0
M  V30 65694 H 6172.27 0.365287 -3.24551 0
M  V30 65695 H 6170.93 -1.76696 -3.21207 0
M  V30 65696 H 6170.58 -0.0851035 -5.02928 0
M  V30 65697 H 6170.28 -1.74164 -5.61196 0
M  V30 65698 H 6171.8 -0.911986 -6.03751 0
M  V30 65699 H 6173.21 -2.90277 -4.9438 0
M  V30 65700 H 6171.61 -3.66945 -4.74839 0
M  V30 65701 H 6172.68 -3.5118 -3.34366 0
M  V30 65702 N 6174.02 1.18902 -1.03441 0
M  V30 65703 C 6175.27 1.88352 -0.732664 0
M  V30 65704 C 6175.59 1.80356 0.74141 0
M  V30 65705 O 6174.86 1.2177 1.53457 0
M  V30 65706 H 6173.44 0.697262 -0.26802 0
M  V30 65707 H 6176.1 1.44324 -1.30983 0
M  V30 65708 H 6175.2 2.94547 -1.03191 0
M  V30 65709 N 6175.5 0.813024 1.3501 0
M  V30 65710 C 6176.92 0.497551 1.51646 0
M  V30 65711 C 6177.12 -0.980101 1.76058 0
M  V30 65712 O 6176.17 -1.76492 1.80574 0
M  V30 65713 C 6177.49 1.3485 2.68768 0
M  V30 65714 C 6179.03 1.3446 2.82647 0
M  V30 65715 C 6179.51 2.17981 4.02801 0
M  V30 65716 N 6181 2.15551 4.0999 0
M  V30 65717 C 6181.74 2.7693 5.02093 0
M  V30 65718 N 6181.23 3.4726 5.99485 0
M  V30 65719 N 6183.02 2.66537 4.94888 0
M  V30 65720 H 6175.18 1.76991 1.17422 0
M  V30 65721 H 6177.44 0.753674 0.575047 0
M  V30 65722 H 6177.14 2.39741 2.57327 0
M  V30 65723 H 6177.02 1.00623 3.63531 0
M  V30 65724 H 6179.41 0.303512 2.93535 0
M  V30 65725 H 6179.49 1.72678 1.88722 0
M  V30 65726 H 6179.13 3.22133 3.92673 0
M  V30 65727 H 6179.06 1.77119 4.9592 0
M  V30 65728 H 6181.55 1.64385 3.40274 0
M  V30 65729 H 6181.86 3.91365 6.66374 0
M  V30 65730 H 6180.21 3.51365 5.99639 0
M  V30 65731 H 6183.4 2.11175 4.17759 0
M  V30 65732 H 6183.57 3.14659 5.66475 0
M  V30 65733 N 6176.98 -1.47043 0.567097 0
M  V30 65734 C 6178.23 -2.01651 0.0445499 0
M  V30 65735 C 6178.54 -1.44588 -1.31733 0
M  V30 65736 O 6179.75 -1.90918 -1.93035 0
M  V30 65737 C 6178.2 -3.59888 0.0291119 0
M  V30 65738 C 6177.81 -4.25944 1.38836 0
M  V30 65739 C 6179.56 -4.2221 -0.440309 0
M  V30 65740 C 6177.46 -5.76216 1.33149 0
M  V30 65741 H 6176.39 -0.75389 0.0128845 0
M  V30 65742 H 6179.04 -1.68937 0.716423 0
M  V30 65743 H 6177.43 -3.89608 -0.70861 0
M  V30 65744 H 6178.6 -4.07854 2.14457 0
M  V30 65745 H 6176.91 -3.75652 1.79652 0
M  V30 65746 H 6179.51 -5.32344 -0.501404 0
M  V30 65747 H 6179.85 -3.90065 -1.45448 0
M  V30 65748 H 6180.39 -3.97058 0.242861 0
M  V30 65749 H 6177.13 -6.12997 2.32197 0
M  V30 65750 H 6176.65 -5.96616 0.617233 0
M  V30 65751 H 6178.33 -6.38623 1.03774 0
M  V30 65752 N 6178.46 -0.304054 -1.54639 0
M  V30 65753 C 6179.37 0.580079 -2.27315 0
M  V30 65754 C 6180.38 1.14583 -1.30946 0
M  V30 65755 O 6181.56 1.16997 -1.63932 0
M  V30 65756 C 6178.63 1.73427 -3.00207 0
M  V30 65757 C 6177.69 1.20229 -4.12121 0
M  V30 65758 C 6176.92 2.30147 -4.81527 0
M  V30 65759 O 6177.14 3.50107 -4.50312 0
M  V30 65760 O 6176.08 1.96666 -5.68864 0
M  V30 65761 H 6179.9 -0.00955229 -3.03698 0
M  V30 65762 H 6177.49 -0.070409 -1.49234 0
M  V30 65763 H 6179.37 2.40665 -3.45917 0
M  V30 65764 H 6178.04 2.31045 -2.26716 0
M  V30 65765 H 6176.95 0.495549 -3.70803 0
M  V30 65766 H 6178.28 0.671498 -4.87598 0
M  V30 65767 N 6179.94 1.57568 -0.0318356 0
M  V30 65768 C 6181.19 1.9109 0.645572 0
M  V30 65769 C 6181.5 0.910169 1.73134 0
M  V30 65770 O 6182.7 1.13673 2.46558 0
M  V30 65771 C 6181.16 3.39322 1.19954 0
M  V30 65772 C 6180.77 4.47759 0.14691 0
M  V30 65773 C 6182.51 3.81907 1.8533 0
M  V30 65774 C 6180.42 5.8709 0.712665 0
M  V30 65775 H 6179.35 0.713121 0.244898 0
M  V30 65776 H 6182 1.8324 -0.097579 0
M  V30 65777 H 6180.38 3.42112 1.99438 0
M  V30 65778 H 6181.56 4.56532 -0.625678 0
M  V30 65779 H 6179.87 4.14394 -0.408255 0
M  V30 65780 H 6182.47 4.8336 2.28619 0
M  V30 65781 H 6182.81 3.17113 2.69713 0
M  V30 65782 H 6183.34 3.81552 1.12531 0
M  V30 65783 H 6180.08 6.55434 -0.0930886 0
M  V30 65784 H 6179.6 5.81918 1.45368 0
M  V30 65785 H 6181.28 6.35745 1.20157 0
M  V30 65786 N 6181.41 -0.241344 1.55741 0
M  V30 65787 C 6182.35 -1.32544 1.85761 0
M  V30 65788 C 6183.33 -1.46125 0.713184 0
M  V30 65789 O 6184.51 -1.62251 0.959516 0
M  V30 65790 C 6181.64 -2.69827 2.04722 0
M  V30 65791 C 6180.68 -2.73367 3.27372 0
M  V30 65792 S 6181.52 -2.29418 4.83867 0
M  V30 65793 C 6182.67 -3.68615 5.0584 0
M  V30 65794 H 6182.9 -1.06882 2.77423 0
M  V30 65795 H 6180.44 -0.442608 1.4792 0
M  V30 65796 H 6182.4 -3.48872 2.16329 0
M  V30 65797 H 6181.06 -2.92724 1.13892 0
M  V30 65798 H 6180.25 -3.74202 3.37622 0
M  V30 65799 H 6179.85 -2.02371 3.14519 0
M  V30 65800 H 6182.14 -4.64156 4.93524 0
M  V30 65801 H 6183.09 -3.63295 6.07801 0
M  V30 65802 H 6183.49 -3.61386 4.3366 0
M  V30 65803 N 6182.89 -1.49214 -0.50724 0
M  V30 65804 C 6184.14 -1.58073 -1.25926 0
M  V30 65805 C 6184.46 -0.266529 -1.9317 0
M  V30 65806 O 6183.73 0.713679 -1.82437 0
M  V30 65807 H 6182.31 -0.5824 -0.467781 0
M  V30 65808 H 6184.97 -1.85806 -0.588404 0
M  V30 65809 H 6184.07 -2.37358 -2.02652 0
M  V30 65810 N 6184.37 0.757827 -1.38184 0
M  V30 65811 C 6185.33 1.85312 -1.34878 0
M  V30 65812 C 6186.33 1.58843 -0.250097 0
M  V30 65813 O 6187.52 1.66666 -0.506747 0
M  V30 65814 C 6184.66 3.22708 -1.09875 0
M  V30 65815 H 6185.85 1.89653 -2.32319 0
M  V30 65816 H 6183.4 0.959079 -1.23415 0
M  V30 65817 H 6184.14 3.24038 -0.130226 0
M  V30 65818 H 6183.92 3.43314 -1.89415 0
M  V30 65819 H 6185.41 4.02785 -1.10246 0
M  V30 65820 N 6185.85 1.22983 0.985543 0
M  V30 65821 C 6187.07 1.08622 1.76681 0
M  V30 65822 C 6187.5 -0.358525 1.84652 0
M  V30 65823 O 6186.86 -1.2592 1.30437 0
M  V30 65824 C 6186.9 1.7105 3.1745 0
M  V30 65825 O 6186.01 0.969159 4.0085 0
M  V30 65826 H 6185.35 0.381049 0.543781 0
M  V30 65827 H 6187.88 1.62932 1.23752 0
M  V30 65828 H 6187.89 1.76077 3.6805 0
M  V30 65829 H 6186.56 2.76179 3.10963 0
M  V30 65830 H 6185.14 0.995444 3.59368 0
M  V30 65831 N 6187.33 -1.18352 1.04071 0
M  V30 65832 C 6188.74 -1.40346 0.759947 0
M  V30 65833 C 6188.94 -1.90711 -0.650507 0
M  V30 65834 O 6188 -2.09147 -1.4147 0
M  V30 65835 C 6189.31 -2.40419 1.80607 0
M  V30 65836 C 6190.86 -2.54146 1.82698 0
M  V30 65837 C 6191.33 -3.57484 2.86303 0
M  V30 65838 N 6192.83 -3.64991 2.85194 0
M  V30 65839 C 6193.56 -4.44675 3.6201 0
M  V30 65840 N 6193.06 -5.27968 4.48578 0
M  V30 65841 N 6194.85 -4.39439 3.50499 0
M  V30 65842 H 6187 -0.839856 1.9509 0
M  V30 65843 H 6189.26 -0.431462 0.844124 0
M  V30 65844 H 6188.97 -2.10461 2.81778 0
M  V30 65845 H 6188.84 -3.39767 1.63824 0
M  V30 65846 H 6191.23 -2.83421 0.821988 0
M  V30 65847 H 6191.31 -1.54912 2.03558 0
M  V30 65848 H 6190.96 -3.28949 3.86982 0
M  V30 65849 H 6190.89 -4.56396 2.62698 0
M  V30 65850 H 6193.38 -3.05514 2.22418 0
M  V30 65851 H 6193.69 -5.85921 5.03901 0
M  V30 65852 H 6192.03 -5.27388 4.52645 0
M  V30 65853 H 6195.23 -3.73416 2.82273 0
M  V30 65854 H 6195.4 -5.01299 4.10614 0
M  V30 65855 N 6188.8 -0.820173 -1.34577 0
M  V30 65856 C 6190.22 -0.505586 -1.5138 0
M  V30 65857 C 6190.42 0.97075 -1.76575 0
M  V30 65858 O 6189.48 1.75532 -1.81507 0
M  V30 65859 C 6190.79 -1.36273 -2.68049 0
M  V30 65860 C 6192.34 -1.35957 -2.8193 0
M  V30 65861 C 6192.81 -2.20114 -4.01639 0
M  V30 65862 N 6194.3 -2.17722 -4.08841 0
M  V30 65863 C 6195.04 -2.79588 -5.00617 0
M  V30 65864 N 6194.53 -3.50434 -5.97635 0
M  V30 65865 N 6196.33 -2.69157 -4.93468 0
M  V30 65866 H 6188.48 -1.77611 -1.16482 0
M  V30 65867 H 6190.74 -0.756713 -0.571042 0
M  V30 65868 H 6190.45 -2.41102 -2.56052 0
M  V30 65869 H 6190.32 -1.02549 -3.62992 0
M  V30 65870 H 6192.71 -0.319074 -2.9337 0
M  V30 65871 H 6192.79 -1.73676 -1.87804 0
M  V30 65872 H 6192.43 -3.24211 -3.9096 0
M  V30 65873 H 6192.36 -1.79747 -4.94973 0
M  V30 65874 H 6194.85 -1.66187 -3.39397 0
M  V30 65875 H 6195.17 -3.94893 -6.64289 0
M  V30 65876 H 6193.51 -3.5454 -5.97768 0
M  V30 65877 H 6196.7 -2.13387 -4.16634 0
M  V30 65878 H 6196.88 -3.17659 -5.64798 0
M  V30 65879 N 6190.28 1.46741 -0.574887 0
M  V30 65880 C 6191.53 2.01624 -0.0552433 0
M  V30 65881 C 6191.84 1.45285 1.30965 0
M  V30 65882 O 6193.05 1.91939 1.9202 0
M  V30 65883 C 6191.51 3.59868 -0.0481973 0
M  V30 65884 C 6191.11 4.25202 -1.41093 0
M  V30 65885 C 6192.86 4.22438 0.417912 0
M  V30 65886 C 6190.77 5.75502 -1.36203 0
M  V30 65887 H 6189.7 0.753811 -0.0168823 0
M  V30 65888 H 6192.35 1.68554 -0.725372 0
M  V30 65889 H 6190.73 3.89979 0.687939 0
M  V30 65890 H 6191.9 4.06711 -2.16617 0
M  V30 65891 H 6190.22 3.74694 -1.81641 0
M  V30 65892 H 6192.81 5.32602 0.473166 0
M  V30 65893 H 6193.16 3.90831 1.43377 0
M  V30 65894 H 6193.69 3.96924 -0.263914 0
M  V30 65895 H 6190.43 6.11757 -2.35444 0
M  V30 65896 H 6189.95 5.9628 -0.648864 0
M  V30 65897 H 6191.63 6.38064 -1.0716 0
M  V30 65898 N 6191.76 0.312251 1.54476 0
M  V30 65899 C 6192.67 -0.568016 2.2762 0
M  V30 65900 C 6193.69 -1.13887 1.31551 0
M  V30 65901 O 6194.86 -1.16126 1.6455 0
M  V30 65902 C 6191.93 -1.71832 3.01122 0
M  V30 65903 C 6190.99 -1.18042 4.12753 0
M  V30 65904 C 6190.22 -2.2759 4.82741 0
M  V30 65905 O 6190.44 -3.47714 4.52163 0
M  V30 65906 O 6189.38 -1.93647 5.69899 0
M  V30 65907 H 6193.2 0.025658 3.03689 0
M  V30 65908 H 6190.79 0.0783223 1.49195 0
M  V30 65909 H 6192.67 -2.38827 3.47188 0
M  V30 65910 H 6191.35 -2.29839 2.27938 0
M  V30 65911 H 6190.25 -0.475877 3.71061 0
M  V30 65912 H 6191.59 -0.64563 4.87947 0
M  V30 65913 N 6193.24 -1.57549 0.0401914 0
M  V30 65914 C 6194.66 -1.56435 -0.316286 0
M  V30 65915 C 6194.86 -1.04685 -1.72172 0
M  V30 65916 O 6193.91 -0.698529 -2.42645 0
M  V30 65917 C 6195.22 -3.00301 -0.154777 0
M  V30 65918 C 6196.77 -3.12178 -0.226711 0
M  V30 65919 C 6197.25 -4.57904 -0.093861 0
M  V30 65920 N 6198.74 -4.62955 -0.150491 0
M  V30 65921 C 6199.47 -5.73355 -0.071645 0
M  V30 65922 N 6198.97 -6.92775 0.0589213 0
M  V30 65923 N 6200.76 -5.61958 -0.126434 0
M  V30 65924 H 6192.91 -1.89513 0.959098 0
M  V30 65925 H 6195.18 -0.872238 0.371355 0
M  V30 65926 H 6194.88 -3.42155 0.813794 0
M  V30 65927 H 6194.76 -3.65799 -0.920393 0
M  V30 65928 H 6197.14 -2.7023 -1.18575 0
M  V30 65929 H 6197.22 -2.49381 0.569471 0
M  V30 65930 H 6196.87 -5.00535 0.861804 0
M  V30 65931 H 6196.8 -5.18694 -0.909049 0
M  V30 65932 H 6199.29 -3.77065 -0.2511 0
M  V30 65933 H 6199.6 -7.72719 0.11209 0
M  V30 65934 H 6197.95 -6.94937 0.0938562 0
M  V30 65935 H 6201.14 -4.6755 -0.226917 0
M  V30 65936 H 6201.31 -6.47971 -0.0615273 0
M  V30 65937 N 6194.72 0.233081 -1.55867 0
M  V30 65938 C 6195.97 0.957143 -1.77543 0
M  V30 65939 C 6196.28 1.85954 -0.606666 0
M  V30 65940 O 6197.49 2.62139 -0.706779 0
M  V30 65941 C 6195.94 1.75204 -3.14375 0
M  V30 65942 C 6195.55 0.896355 -4.38941 0
M  V30 65943 C 6197.29 2.46801 -3.45383 0
M  V30 65944 C 6195.2 1.68794 -5.668 0
M  V30 65945 H 6194.13 0.361115 -0.6619 0
M  V30 65946 H 6196.78 0.21136 -1.82279 0
M  V30 65947 H 6195.16 2.5403 -3.03784 0
M  V30 65948 H 6196.34 0.149452 -4.60558 0
M  V30 65949 H 6194.65 0.293065 -4.15367 0
M  V30 65950 H 6197.25 3.06504 -4.38131 0
M  V30 65951 H 6197.59 3.19111 -2.67346 0
M  V30 65952 H 6198.13 1.74975 -3.57251 0
M  V30 65953 H 6194.86 1.00833 -6.47698 0
M  V30 65954 H 6194.38 2.40976 -5.49264 0
M  V30 65955 H 6196.06 2.25157 -6.06559 0
M  V30 65956 N 6196.2 1.49481 0.49932 0
M  V30 65957 C 6197.43 1.62528 1.27547 0
M  V30 65958 C 6197.83 0.296599 1.86861 0
M  V30 65959 O 6197.18 -0.728176 1.68651 0
M  V30 65960 C 6197.24 2.63683 2.4436 0
M  V30 65961 C 6196.9 4.07987 2.05902 0
M  V30 65962 C 6197.9 4.94739 1.59779 0
M  V30 65963 C 6195.58 4.5373 2.15485 0
M  V30 65964 C 6197.58 6.25273 1.23746 0
M  V30 65965 C 6195.27 5.84277 1.79064 0
M  V30 65966 C 6196.26 6.69872 1.33269 0
M  V30 65967 O 6195.95 7.97985 0.973399 0
M  V30 65968 H 6195.68 0.550032 0.39299 0
M  V30 65969 H 6198.24 1.96264 0.605787 0
M  V30 65970 H 6196.47 2.25131 3.14409 0
M  V30 65971 H 6198.16 2.66242 3.06382 0
M  V30 65972 H 6198.92 4.60625 1.5182 0
M  V30 65973 H 6194.8 3.87273 2.50082 0
M  V30 65974 H 6198.35 6.92036 0.879299 0
M  V30 65975 H 6194.24 6.17919 1.86673 0
M  V30 65976 H 6195.01 8.11011 1.10472 0
M  V30 65977 N 6197.67 -0.750488 1.38584 0
M  V30 65978 C 6198.92 -1.50969 1.34961 0
M  V30 65979 C 6199.25 -1.94409 -0.0593712 0
M  V30 65980 O 6198.5 -1.6596 -1.03709 0
M  V30 65981 C 6198.8 -2.77349 2.25416 0
M  V30 65982 C 6198.47 -2.52855 3.7333 0
M  V30 65983 C 6197.13 -2.45884 4.13636 0
M  V30 65984 C 6199.48 -2.31538 4.66947 0
M  V30 65985 C 6196.81 -2.15616 5.45643 0
M  V30 65986 C 6199.16 -2.0279 5.99215 0
M  V30 65987 C 6197.83 -1.94277 6.38602 0
M  V30 65988 H 6197.1 -0.552436 0.493858 0
M  V30 65989 H 6199.74 -0.862709 1.70967 0
M  V30 65990 H 6198.05 -3.46712 1.82477 0
M  V30 65991 H 6199.75 -3.35318 2.19915 0
M  V30 65992 H 6196.34 -2.59153 3.41376 0
M  V30 65993 H 6200.52 -2.35901 4.36652 0
M  V30 65994 H 6195.78 -2.07536 5.75099 0
M  V30 65995 H 6199.95 -1.85299 6.71295 0
M  V30 65996 H 6197.58 -1.70588 7.40813 0
M  V30 65997 N 6199.15 -1.23504 -0.979007 0
M  V30 65998 C 6200.06 -1.03419 -2.10574 0
M  V30 65999 C 6201.08 0.0217033 -1.73986 0
M  V30 66000 O 6202.25 -0.174047 -2.00647 0
M  V30 66001 C 6199.32 -0.629312 -3.40941 0
M  V30 66002 C 6198.38 -1.76041 -3.91546 0
M  V30 66003 C 6197.61 -1.37475 -5.1569 0
M  V30 66004 O 6197.84 -0.259594 -5.69809 0
M  V30 66005 O 6196.77 -2.19634 -5.60397 0
M  V30 66006 H 6200.6 -1.97853 -2.30408 0
M  V30 66007 H 6198.18 -1.02222 -1.08955 0
M  V30 66008 H 6200.06 -0.414519 -4.19356 0
M  V30 66009 H 6198.74 0.286015 -3.22434 0
M  V30 66010 H 6197.64 -2.02986 -3.14241 0
M  V30 66011 H 6198.98 -2.65411 -4.14509 0
M  V30 66012 N 6200.63 1.17798 -1.04697 0
M  V30 66013 C 6201.88 1.87268 -0.749238 0
M  V30 66014 C 6202.19 1.81617 0.726278 0
M  V30 66015 O 6203.4 2.4651 1.13777 0
M  V30 66016 C 6201.85 3.35987 -1.28998 0
M  V30 66017 C 6201.46 3.50153 -2.79458 0
M  V30 66018 C 6203.21 4.10818 -1.06907 0
M  V30 66019 C 6201.11 4.92867 -3.26858 0
M  V30 66020 H 6200.04 0.701442 -0.276578 0
M  V30 66021 H 6202.69 1.3306 -1.26362 0
M  V30 66022 H 6201.08 3.89702 -0.703435 0
M  V30 66023 H 6202.25 3.0668 -3.43925 0
M  V30 66024 H 6200.56 2.88737 -3.00033 0
M  V30 66025 H 6203.16 5.16093 -1.39828 0
M  V30 66026 H 6203.5 4.16299 -0.00658946 0
M  V30 66027 H 6204.04 3.63294 -1.62056 0
M  V30 66028 H 6200.78 4.92557 -4.32514 0
M  V30 66029 H 6200.3 5.3703 -2.6713 0
M  V30 66030 H 6201.98 5.61613 -3.21247 0
M  V30 66031 N 6202.11 0.827298 1.3414 0
M  V30 66032 C 6203.33 0.429585 2.02902 0
M  V30 66033 C 6203.76 -0.957976 1.61878 0
M  V30 66034 O 6203.12 -1.62419 0.805585 0
M  V30 66035 C 6203.16 0.544718 3.56462 0
M  V30 66036 O 6202.27 -0.433705 4.10113 0
M  V30 66037 H 6201.61 0.176239 0.640184 0
M  V30 66038 H 6204.14 1.11893 1.71293 0
M  V30 66039 H 6204.15 0.422091 4.05811 0
M  V30 66040 H 6202.82 1.5567 3.85668 0
M  V30 66041 H 6201.4 -0.269598 3.71924 0
M  V30 66042 N 6203.59 -1.46434 0.582661 0
M  V30 66043 C 6204.5 -2.341 -0.153095 0
M  V30 66044 C 6205.51 -1.49748 -0.886082 0
M  V30 66045 O 6206.69 -1.82618 -0.849277 0
M  V30 66046 C 6203.75 -3.26933 -1.15393 0
M  V30 66047 C 6202.81 -4.27185 -0.425614 0
M  V30 66048 C 6202.05 -5.15583 -1.37877 0
M  V30 66049 O 6202.27 -5.06912 -2.61527 0
M  V30 66050 O 6201.2 -5.95293 -0.889376 0
M  V30 66051 H 6205.03 -2.98366 0.56669 0
M  V30 66052 H 6202.61 -1.45408 0.343064 0
M  V30 66053 H 6204.5 -3.84206 -1.73101 0
M  V30 66054 H 6203.17 -2.65264 -1.85518 0
M  V30 66055 H 6202.08 -3.736 0.193307 0
M  V30 66056 H 6203.41 -4.9164 0.234668 0
M  V30 66057 N 6205.06 -0.320439 -1.54308 0
M  V30 66058 C 6206.29 0.285125 -2.04926 0
M  V30 66059 C 6206.71 1.46025 -1.19675 0
M  V30 66060 O 6206.06 1.81086 -0.226713 0
M  V30 66061 C 6206.11 0.722611 -3.54204 0
M  V30 66062 O 6205.84 -0.405763 -4.36217 0
M  V30 66063 C 6207.34 1.39131 -4.20901 0
M  V30 66064 H 6204.56 0.0591377 -0.668389 0
M  V30 66065 H 6207.1 -0.46572 -1.99126 0
M  V30 66066 H 6205.26 1.42344 -3.60301 0
M  V30 66067 H 6205.67 -0.061637 -5.24464 0
M  V30 66068 H 6207.14 1.64839 -5.26813 0
M  V30 66069 H 6207.62 2.33761 -3.71823 0
M  V30 66070 H 6208.23 0.733144 -4.18933 0
M  V30 66071 N 6206.54 1.57525 -0.048546 0
M  V30 66072 C 6207.49 2.12556 0.944609 0
M  V30 66073 C 6208.48 1.05673 1.32399 0
M  V30 66074 O 6209.69 1.24085 1.30395 0
M  V30 66075 H 6206.06 0.679347 0.322476 0
M  V30 66076 H 6208.04 2.94905 0.455339 0
M  V30 66077 C 6206.78 2.68341 2.21107 0
M  V30 66078 H 6206.11 3.50244 1.92793 0
M  V30 66079 H 6207.55 3.1047 2.88764 0
M  V30 66080 C 6206.01 1.61993 2.95398 0
M  V30 66081 O 6206.54 1.03116 3.8824 0
M  V30 66082 N 6204.74 1.33575 2.58081 0
M  V30 66083 H 6204.29 1.81641 1.82659 0
M  V30 66084 H 6204.25 0.626479 3.08095 0
M  V30 66085 N 6208.02 -0.224812 1.55988 0
M  V30 66086 C 6209.44 -0.574363 1.48907 0
M  V30 66087 C 6209.64 -1.873 0.743026 0
M  V30 66088 O 6208.69 -2.50928 0.281358 0
M  V30 66089 C 6210.01 -0.656614 2.93443 0
M  V30 66090 C 6211.55 -0.747461 3.03944 0
M  V30 66091 C 6212.03 -0.861085 4.49833 0
M  V30 66092 N 6213.52 -0.925391 4.53862 0
M  V30 66093 C 6214.25 -1.03296 5.64019 0
M  V30 66094 N 6213.75 -1.10468 6.83936 0
M  V30 66095 N 6215.54 -1.06784 5.51864 0
M  V30 66096 H 6207.69 0.62741 2.02922 0
M  V30 66097 H 6209.96 0.219688 0.922194 0
M  V30 66098 H 6209.66 0.227969 3.5096 0
M  V30 66099 H 6209.54 -1.5213 3.45161 0
M  V30 66100 H 6211.92 -1.62249 2.46494 0
M  V30 66101 H 6212.01 0.142827 2.55401 0
M  V30 66102 H 6211.65 0.00946978 5.07899 0
M  V30 66103 H 6211.58 -1.76674 4.96078 0
M  V30 66104 H 6214.07 -0.880412 3.67501 0
M  V30 66105 H 6214.38 -1.18645 7.63638 0
M  V30 66106 H 6212.73 -1.07387 6.86653 0
M  V30 66107 H 6215.92 -1.00844 4.57108 0
M  V30 66108 H 6216.09 -1.14822 6.37746 0
M  V30 66109 N 6209.5 -1.49744 -0.491385 0
M  V30 66110 C 6210.46 -1.66593 -1.57415 0
M  V30 66111 C 6211.46 -0.537334 -1.51556 0
M  V30 66112 O 6212.65 -0.803982 -1.54537 0
M  V30 66113 C 6209.78 -1.67227 -2.97065 0
M  V30 66114 H 6210.98 -2.63176 -1.43801 0
M  V30 66115 H 6208.53 -1.38919 -0.71632 0
M  V30 66116 H 6209.26 -0.72264 -3.16146 0
M  V30 66117 H 6209.05 -2.49198 -3.02725 0
M  V30 66118 H 6210.54 -1.82287 -3.75714 0
M  V30 66119 N 6210.98 0.743128 -1.3898 0
M  V30 66120 C 6211.91 1.86704 -1.32944 0
M  V30 66121 C 6212.92 1.61026 -0.239701 0
M  V30 66122 O 6214.11 1.71411 -0.498051 0
M  V30 66123 C 6211.21 3.22562 -1.03957 0
M  V30 66124 C 6210.38 3.75662 -2.24047 0
M  V30 66125 C 6209.44 4.90061 -1.91642 0
M  V30 66126 O 6208.47 5.04147 -2.64244 0
M  V30 66127 N 6209.67 5.73827 -0.877666 0
M  V30 66128 H 6212.44 1.92389 -2.29797 0
M  V30 66129 H 6210 0.923518 -1.32977 0
M  V30 66130 H 6211.99 3.96651 -0.803116 0
M  V30 66131 H 6210.56 3.12197 -0.15865 0
M  V30 66132 H 6209.78 2.93018 -2.63694 0
M  V30 66133 H 6211.07 4.07871 -3.04169 0
M  V30 66134 H 6210.46 5.65027 -0.275802 0
M  V30 66135 H 6209.02 6.48018 -0.701108 0
M  V30 66136 N 6212.45 1.24021 0.972444 0
M  V30 66137 C 6213.7 1.08874 1.71808 0
M  V30 66138 C 6214.06 -0.369352 1.88821 0
M  V30 66139 O 6213.35 -1.26938 1.43518 0
M  V30 66140 C 6213.54 1.75668 3.11248 0
M  V30 66141 C 6213.37 3.27822 3.07836 0
M  V30 66142 C 6212.14 3.97015 3.12581 0
M  V30 66143 C 6214.34 4.2448 2.90381 0
M  V30 66144 N 6212.32 5.36087 2.99138 0
M  V30 66145 C 6213.69 5.50518 2.85184 0
M  V30 66146 C 6215.75 4.15114 2.74926 0
M  V30 66147 C 6214.45 6.68264 2.66113 0
M  V30 66148 C 6216.48 5.32533 2.57221 0
M  V30 66149 C 6215.84 6.57501 2.52729 0
M  V30 66150 H 6211.94 0.452987 0.637438 0
M  V30 66151 H 6214.52 1.56867 1.1533 0
M  V30 66152 H 6212.69 1.30196 3.65928 0
M  V30 66153 H 6214.42 1.53424 3.7449 0
M  V30 66154 H 6211.18 3.48148 3.21076 0
M  V30 66155 H 6211.6 6.09022 2.9567 0
M  V30 66156 H 6216.25 3.19263 2.77184 0
M  V30 66157 H 6213.96 7.64243 2.62598 0
M  V30 66158 H 6217.55 5.27134 2.46214 0
M  V30 66159 H 6216.43 7.46828 2.39202 0
M  V30 66160 N 6213.93 -1.17241 1.0532 0
M  V30 66161 C 6214.84 -2.24945 0.66609 0
M  V30 66162 C 6215.86 -1.71154 -0.313418 0
M  V30 66163 O 6217.03 -2.00721 -0.165192 0
M  V30 66164 C 6214.1 -3.46667 0.0481417 0
M  V30 66165 C 6213.16 -4.15538 1.07826 0
M  V30 66166 C 6212.39 -5.31449 0.489707 0
M  V30 66167 O 6212.62 -5.66083 -0.700469 0
M  V30 66168 O 6211.55 -5.89311 1.2246 0
M  V30 66169 H 6215.38 -2.60348 1.56374 0
M  V30 66170 H 6212.96 -1.24566 0.824844 0
M  V30 66171 H 6214.84 -4.20365 -0.295218 0
M  V30 66172 H 6213.52 -3.13059 -0.823138 0
M  V30 66173 H 6212.43 -3.43853 1.47363 0
M  V30 66174 H 6213.76 -4.53176 1.92073 0
M  V30 66175 N 6215.41 -0.8344 -1.33699 0
M  V30 66176 C 6216.34 -0.209517 -2.27236 0
M  V30 66177 C 6217.32 0.64076 -1.49442 0
M  V30 66178 O 6218.51 0.602 -1.78629 0
M  V30 66179 C 6215.63 0.706244 -3.31255 0
M  V30 66180 C 6214.68 -0.0679917 -4.26446 0
M  V30 66181 S 6215.51 -1.42289 -5.1625 0
M  V30 66182 C 6216.67 -0.512304 -6.238 0
M  V30 66183 H 6216.9 -1.0025 -2.79888 0
M  V30 66184 H 6214.43 -0.630911 -1.40922 0
M  V30 66185 H 6216.39 1.22901 -3.9167 0
M  V30 66186 H 6215.05 1.47285 -2.77427 0
M  V30 66187 H 6214.25 0.628648 -5.00064 0
M  V30 66188 H 6213.85 -0.521678 -3.70344 0
M  V30 66189 H 6216.14 0.291625 -6.76872 0
M  V30 66190 H 6217.08 -1.21851 -6.97537 0
M  V30 66191 H 6217.49 -0.0956356 -5.64419 0
M  V30 66192 N 6216.89 1.46123 -0.590418 0
M  V30 66193 C 6218.3 1.85961 -0.165941 0
M  V30 66194 C 6218.65 1.49301 1.27294 0
M  V30 66195 O 6217.78 0.91153 1.96265 0
M  V30 66196 C 6218.37 3.37519 -0.29438 0
M  V30 66197 C 6216.93 3.76325 0.0752796 0
M  V30 66198 C 6216.08 2.70124 -0.626777 0
M  V30 66199 H 6219.03 1.37168 -0.798168 0
M  V30 66200 H 6219.05 3.77484 0.478167 0
M  V30 66201 H 6218.56 3.6417 -1.34171 0
M  V30 66202 H 6216.66 3.55291 1.12245 0
M  V30 66203 H 6216.77 4.78119 -0.306409 0
M  V30 66204 H 6215.14 2.54614 -0.0662114 0
M  V30 66205 H 6215.92 2.99613 -1.67591 0
M  V30 66206 N 6218.37 0.328618 1.54136 0
M  V30 66207 C 6219.3 -0.569148 2.22021 0
M  V30 66208 C 6220.31 -1.07586 1.22185 0
M  V30 66209 O 6221.5 -0.988568 1.48626 0
M  V30 66210 C 6218.6 -1.79429 2.87504 0
M  V30 66211 C 6217.77 -1.42541 4.13522 0
M  V30 66212 C 6216.83 -2.50862 4.62553 0
M  V30 66213 O 6215.86 -2.14794 5.27117 0
M  V30 66214 N 6217.06 -3.81875 4.37209 0
M  V30 66215 H 6219.83 0.0121531 2.99698 0
M  V30 66216 H 6217.39 0.152051 1.61184 0
M  V30 66217 H 6219.38 -2.51296 3.17226 0
M  V30 66218 H 6217.95 -2.28331 2.13503 0
M  V30 66219 H 6217.17 -0.538151 3.90509 0
M  V30 66220 H 6218.46 -1.15472 4.95524 0
M  V30 66221 H 6217.85 -4.13974 3.85542 0
M  V30 66222 H 6216.41 -4.49957 4.71574 0
M  V30 66223 N 6219.84 -1.57497 0.0568993 0
M  V30 66224 C 6221.09 -1.93202 -0.616512 0
M  V30 66225 C 6221.42 -0.935996 -1.70155 0
M  V30 66226 O 6220.7 0.0371321 -1.94465 0
M  V30 66227 C 6220.98 -3.39259 -1.2073 0
M  V30 66228 C 6220.83 -4.49612 -0.129923 0
M  V30 66229 C 6222.15 -3.85825 -2.11724 0
M  V30 66230 H 6219.27 -0.702566 -0.222643 0
M  V30 66231 H 6221.91 -1.89622 0.119832 0
M  V30 66232 H 6220.06 -3.4244 -1.83485 0
M  V30 66233 H 6221.74 -4.58557 0.502333 0
M  V30 66234 H 6219.98 -4.30409 0.541319 0
M  V30 66235 H 6220.65 -5.48908 -0.583413 0
M  V30 66236 H 6223.13 -3.84555 -1.58923 0
M  V30 66237 H 6222 -4.88662 -2.50002 0
M  V30 66238 H 6222.26 -3.2291 -3.01963 0
M  V30 66239 N 6221.32 0.216536 -1.56105 0
M  V30 66240 C 6222.27 1.26837 -1.92824 0
M  V30 66241 C 6223.24 1.46323 -0.78605 0
M  V30 66242 O 6224.42 1.5981 -1.04238 0
M  V30 66243 C 6221.56 2.61268 -2.25461 0
M  V30 66244 C 6220.68 2.4954 -3.52639 0
M  V30 66245 C 6219.81 3.76528 -3.747 0
M  V30 66246 C 6218.85 3.59542 -4.95374 0
M  V30 66247 N 6217.99 4.78492 -5.13799 0
M  V30 66248 H 6222.83 0.948242 -2.82511 0
M  V30 66249 H 6220.37 0.456904 -1.39824 0
M  V30 66250 H 6222.32 3.39559 -2.42396 0
M  V30 66251 H 6220.95 2.91368 -1.38941 0
M  V30 66252 H 6220.01 1.62658 -3.4387 0
M  V30 66253 H 6221.32 2.32912 -4.41082 0
M  V30 66254 H 6220.47 4.63261 -3.91758 0
M  V30 66255 H 6219.21 3.96087 -2.84546 0
M  V30 66256 H 6218.22 2.71194 -4.78261 0
M  V30 66257 H 6219.44 3.4145 -5.87017 0
M  V30 66258 H 6217.39 4.98355 -4.26589 0
M  V30 66259 H 6217.3 4.6461 -5.96384 0
M  V30 66260 H 6218.57 5.66637 -5.35296 0
M  V30 66261 N 6222.8 1.50002 0.483437 0
M  V30 66262 C 6223.71 1.70728 1.60901 0
M  V30 66263 C 6224.73 0.590133 1.63687 0
M  V30 66264 O 6225.9 0.866979 1.81784 0
M  V30 66265 C 6222.97 1.78554 2.97186 0
M  V30 66266 C 6222.03 3.02229 3.04887 0
M  V30 66267 C 6221.26 3.09673 4.3467 0
M  V30 66268 O 6221.49 2.24235 5.24476 0
M  V30 66269 O 6220.42 4.02294 4.47709 0
M  V30 66270 H 6224.25 2.66117 1.46341 0
M  V30 66271 H 6221.83 1.33951 0.661619 0
M  V30 66272 H 6223.71 1.85954 3.78152 0
M  V30 66273 H 6222.39 0.863473 3.11971 0
M  V30 66274 H 6221.29 3.00337 2.23043 0
M  V30 66275 H 6222.63 3.93974 2.95034 0
M  V30 66276 N 6224.28 -0.735747 1.39372 0
M  V30 66277 C 6225.5 -1.53008 1.40012 0
M  V30 66278 C 6225.93 -1.881 -0.00361764 0
M  V30 66279 O 6225.29 -1.51857 -0.990416 0
M  V30 66280 C 6225.34 -2.79466 2.27884 0
M  V30 66281 O 6224.44 -3.75358 1.70821 0
M  V30 66282 H 6223.78 -0.4621 0.476822 0
M  V30 66283 H 6226.31 -0.907804 1.83358 0
M  V30 66284 H 6226.32 -3.28208 2.4237 0
M  V30 66285 H 6225 -2.53257 3.299 0
M  V30 66286 H 6223.57 -3.34125 1.65574 0
M  V30 66287 N 6225.76 -1.24535 -0.965853 0
M  V30 66288 C 6226.7 -1.03936 -2.06073 0
M  V30 66289 C 6227.67 0.0479413 -1.66031 0
M  V30 66290 O 6228.86 -0.107046 -1.90499 0
M  V30 66291 C 6226 -0.652203 -3.38881 0
M  V30 66292 C 6225.11 -1.81318 -3.92107 0
M  V30 66293 C 6224.25 -1.37143 -5.13191 0
M  V30 66294 C 6223.29 -2.50223 -5.58619 0
M  V30 66295 N 6222.42 -2.06903 -6.70921 0
M  V30 66296 H 6227.26 -1.97644 -2.23027 0
M  V30 66297 H 6224.8 -0.984395 -1.09307 0
M  V30 66298 H 6226.76 -0.408754 -4.15193 0
M  V30 66299 H 6225.39 0.247882 -3.21847 0
M  V30 66300 H 6224.44 -2.17024 -3.12418 0
M  V30 66301 H 6225.75 -2.66278 -4.21779 0
M  V30 66302 H 6224.91 -1.08697 -5.96884 0
M  V30 66303 H 6223.65 -0.492386 -4.85208 0
M  V30 66304 H 6222.65 -2.79427 -4.73498 0
M  V30 66305 H 6223.88 -3.38688 -5.88615 0
M  V30 66306 H 6221.82 -1.21399 -6.44669 0
M  V30 66307 H 6221.74 -2.85417 -7.00052 0
M  V30 66308 H 6223.01 -1.81602 -7.58051 0
M  V30 66309 N 6227.24 1.16681 -1.0594 0
M  V30 66310 C 6228.65 1.39119 -0.782179 0
M  V30 66311 C 6228.85 1.91722 0.620084 0
M  V30 66312 O 6227.91 2.11371 1.38125 0
M  V30 66313 C 6229.22 2.37516 -1.84409 0
M  V30 66314 C 6230.77 2.51207 -1.86719 0
M  V30 66315 C 6231.24 3.52884 -2.91954 0
M  V30 66316 N 6232.73 3.60408 -2.90965 0
M  V30 66317 C 6233.47 4.3886 -3.69039 0
M  V30 66318 N 6232.97 5.20764 -4.5692 0
M  V30 66319 N 6234.76 4.33807 -3.57446 0
M  V30 66320 H 6226.91 0.808712 -1.96402 0
M  V30 66321 H 6229.17 0.417978 -0.850881 0
M  V30 66322 H 6228.88 2.05952 -2.85091 0
M  V30 66323 H 6228.75 3.37117 -1.69209 0
M  V30 66324 H 6231.14 2.82077 -0.866974 0
M  V30 66325 H 6231.22 1.51654 -2.05997 0
M  V30 66326 H 6230.86 3.22751 -3.92166 0
M  V30 66327 H 6230.79 4.52159 -2.69926 0
M  V30 66328 H 6233.29 3.01937 -2.2725 0
M  V30 66329 H 6233.6 5.7783 -5.13159 0
M  V30 66330 H 6231.94 5.2012 -4.60978 0
M  V30 66331 H 6235.13 3.68878 -2.88178 0
M  V30 66332 H 6235.31 4.94703 -4.18537 0
M  V30 66333 N 6228.71 0.841479 1.33255 0
M  V30 66334 C 6229.65 0.233939 2.28003 0
M  V30 66335 C 6230.66 -0.586819 1.51856 0
M  V30 66336 O 6231.85 -0.413462 1.73645 0
M  V30 66337 C 6228.95 -0.689074 3.31821 0
M  V30 66338 C 6228.12 0.0929218 4.37301 0
M  V30 66339 C 6227.18 -0.753832 5.20772 0
M  V30 66340 O 6226.21 -0.192093 5.68876 0
M  V30 66341 N 6227.41 -2.07076 5.4231 0
M  V30 66342 H 6230.17 1.04804 2.80778 0
M  V30 66343 H 6227.73 0.700191 1.45976 0
M  V30 66344 H 6229.73 -1.26058 3.84567 0
M  V30 66345 H 6228.3 -1.40388 2.79303 0
M  V30 66346 H 6227.52 0.845813 3.85019 0
M  V30 66347 H 6228.8 0.630537 5.04878 0
M  V30 66348 H 6228.2 -2.55064 5.04934 0
M  V30 66349 H 6226.76 -2.59069 5.98103 0
M  V30 66350 N 6230.19 -1.45807 0.598159 0
M  V30 66351 C 6231.44 -2.02301 0.0896823 0
M  V30 66352 C 6231.77 -1.46777 -1.2762 0
M  V30 66353 O 6231.02 -0.628777 -1.85324 0
M  V30 66354 C 6231.32 -3.57399 -0.00964245 0
M  V30 66355 C 6230.99 -4.32033 1.29066 0
M  V30 66356 C 6229.65 -4.52141 1.64687 0
M  V30 66357 C 6232 -4.74768 2.15045 0
M  V30 66358 C 6229.33 -5.12239 2.86056 0
M  V30 66359 C 6231.68 -5.36208 3.35654 0
M  V30 66360 C 6230.34 -5.54541 3.71539 0
M  V30 66361 H 6229.61 -0.740273 0.0328171 0
M  V30 66362 H 6232.26 -1.74989 0.777891 0
M  V30 66363 H 6230.57 -3.83936 -0.781066 0
M  V30 66364 H 6232.26 -3.98804 -0.419072 0
M  V30 66365 H 6228.85 -4.16689 1.00339 0
M  V30 66366 H 6233.04 -4.58975 1.88826 0
M  V30 66367 H 6228.29 -5.24622 3.13977 0
M  V30 66368 H 6232.47 -5.68277 4.02534 0
M  V30 66369 H 6230.09 -6.00877 4.65672 0
M  V30 66370 N 6231.67 -0.336787 -1.53959 0
M  V30 66371 C 6232.92 0.262755 -1.99981 0
M  V30 66372 C 6233.23 1.52197 -1.22863 0
M  V30 66373 O 6234.44 2.19834 -1.59328 0
M  V30 66374 C 6232.89 0.518752 -3.56142 0
M  V30 66375 C 6232.5 -0.724174 -4.42108 0
M  V30 66376 C 6234.25 1.07752 -4.10597 0
M  V30 66377 C 6232.15 -0.43935 -5.89766 0
M  V30 66378 H 6231.08 0.10196 -0.747074 0
M  V30 66379 H 6233.73 -0.451067 -1.7787 0
M  V30 66380 H 6232.12 1.2931 -3.74292 0
M  V30 66381 H 6233.29 -1.49911 -4.35733 0
M  V30 66382 H 6231.6 -1.2041 -3.98611 0
M  V30 66383 H 6234.2 1.30546 -5.18519 0
M  V30 66384 H 6234.54 2.03098 -3.63396 0
M  V30 66385 H 6235.08 0.36404 -3.96131 0
M  V30 66386 H 6231.82 -1.36234 -6.41187 0
M  V30 66387 H 6231.34 0.297628 -5.99061 0
M  V30 66388 H 6233.02 -0.0540781 -6.46977 0
M  V30 66389 N 6233.15 1.57465 -0.0652509 0
M  V30 66390 C 6234.39 1.9324 0.605361 0
M  V30 66391 C 6234.72 0.944767 1.70013 0
M  V30 66392 O 6233.98 -0.0406811 1.95658 0
M  V30 66393 C 6234.28 3.3566 1.22748 0
M  V30 66394 C 6233.94 4.50153 0.259509 0
M  V30 66395 C 6232.6 4.812 -0.00680757 0
M  V30 66396 C 6234.96 5.19639 -0.403083 0
M  V30 66397 C 6232.28 5.79073 -0.942913 0
M  V30 66398 C 6234.64 6.18515 -1.32747 0
M  V30 66399 C 6233.3 6.47983 -1.60232 0
M  V30 66400 H 6232.57 0.707115 0.221517 0
M  V30 66401 H 6235.22 1.91025 -0.134733 0
M  V30 66402 H 6233.52 3.34308 2.04316 0
M  V30 66403 H 6235.22 3.60627 1.75354 0
M  V30 66404 H 6231.81 4.25934 0.477263 0
M  V30 66405 H 6235.99 4.95854 -0.210441 0
M  V30 66406 H 6231.25 6.00233 -1.16318 0
M  V30 66407 H 6235.42 6.71464 -1.84688 0
M  V30 66408 H 6233.05 7.23635 -2.3293 0
M  V30 66409 N 6234.63 -0.208255 1.56218 0
M  V30 66410 C 6235.9 -0.955778 1.70658 0
M  V30 66411 C 6236.28 -2.01903 0.616311 0
M  V30 66412 O 6235.63 -2.25407 -0.374714 0
M  V30 66413 C 6235.84 -1.55416 3.12485 0
M  V30 66414 C 6237.19 -2.04134 3.7231 0
M  V30 66415 O 6238.21 -1.65284 3.15531 0
M  V30 66416 O 6237.07 -2.7558 4.7193 0
M  V30 66417 H 6234.17 -0.44734 0.695569 0
M  V30 66418 H 6236.71 -0.198988 1.68529 0
M  V30 66419 H 6235.48 -0.787089 3.83302 0
M  V30 66420 H 6235.11 -2.37614 3.18788 0
M  V30 66421 N 6236.1 -1.50256 -0.475475 0
M  V30 66422 C 6237.35 -1.61265 -1.22969 0
M  V30 66423 C 6237.68 -0.310017 -1.9171 0
M  V30 66424 O 6236.96 0.688224 -1.81917 0
M  V30 66425 C 6237.24 -2.78988 -2.27678 0
M  V30 66426 C 6237.09 -4.19121 -1.63272 0
M  V30 66427 C 6238.41 -2.92282 -3.29028 0
M  V30 66428 H 6235.53 -0.586949 -0.445713 0
M  V30 66429 H 6238.17 -1.82628 -0.524113 0
M  V30 66430 H 6236.32 -2.60904 -2.87856 0
M  V30 66431 H 6238 -4.48784 -1.06725 0
M  V30 66432 H 6236.24 -4.23582 -0.935978 0
M  V30 66433 H 6236.91 -4.97413 -2.39342 0
M  V30 66434 H 6239.39 -3.08823 -2.78868 0
M  V30 66435 H 6238.26 -3.76284 -3.99626 0
M  V30 66436 H 6238.52 -2.0271 -3.92888 0
M  V30 66437 N 6237.58 0.728346 -1.3976 0
M  V30 66438 C 6238.83 1.49024 -1.37549 0
M  V30 66439 C 6239.16 1.94182 0.0264492 0
M  V30 66440 O 6238.44 1.67261 0.992678 0
M  V30 66441 C 6238.72 2.72527 -2.35375 0
M  V30 66442 C 6238.57 2.33345 -3.84539 0
M  V30 66443 C 6239.89 3.74647 -2.30927 0
M  V30 66444 H 6237.01 0.540569 -0.500953 0
M  V30 66445 H 6239.65 0.832274 -1.70802 0
M  V30 66446 H 6237.8 3.28667 -2.07149 0
M  V30 66447 H 6239.47 1.82785 -4.23542 0
M  V30 66448 H 6237.72 1.65494 -4.00992 0
M  V30 66449 H 6238.39 3.21816 -4.48485 0
M  V30 66450 H 6240.86 3.28108 -2.559 0
M  V30 66451 H 6239.74 4.58719 -3.01444 0
M  V30 66452 H 6240 4.22042 -1.31654 0
M  V30 66453 N 6239.06 1.25046 0.959235 0
M  V30 66454 C 6240.01 1.04809 2.07648 0
M  V30 66455 C 6241 -0.0195884 1.69389 0
M  V30 66456 O 6242.21 0.135657 1.79488 0
M  V30 66457 H 6238.58 0.321963 0.679591 0
M  V30 66458 H 6240.55 1.99535 2.21875 0
M  V30 66459 C 6239.3 0.678625 3.41013 0
M  V30 66460 H 6238.63 1.49198 3.70918 0
M  V30 66461 H 6240.07 0.576697 4.2006 0
M  V30 66462 C 6238.53 -0.614959 3.3124 0
M  V30 66463 O 6239.06 -1.65836 3.65871 0
M  V30 66464 N 6237.26 -0.598858 2.84363 0
M  V30 66465 H 6236.81 0.250599 2.56378 0
M  V30 66466 H 6236.77 -1.46455 2.78206 0
M  V30 66467 N 6240.54 -1.16117 1.06558 0
M  V30 66468 C 6241.45 -2.24226 0.689911 0
M  V30 66469 C 6242.46 -1.71477 -0.295247 0
M  V30 66470 O 6243.64 -2.00885 -0.143893 0
M  V30 66471 C 6240.71 -3.46596 0.0849076 0
M  V30 66472 C 6239.77 -4.14371 1.12227 0
M  V30 66473 C 6239 -5.30899 0.546046 0
M  V30 66474 O 6239.22 -5.66794 -0.640389 0
M  V30 66475 O 6238.16 -5.87979 1.28704 0
M  V30 66476 H 6241.98 -2.58674 1.59126 0
M  V30 66477 H 6239.57 -1.23684 0.83801 0
M  V30 66478 H 6241.45 -4.20654 -0.250616 0
M  V30 66479 H 6240.12 -3.13915 -0.789887 0
M  V30 66480 H 6239.03 -3.42271 1.51002 0
M  V30 66481 H 6240.36 -4.51114 1.96869 0
M  V30 66482 N 6242.02 -0.848534 -1.32807 0
M  V30 66483 C 6243.26 -0.448039 -1.97071 0
M  V30 66484 C 6243.59 0.998299 -1.67508 0
M  V30 66485 O 6242.86 1.69679 -0.97907 0
M  V30 66486 H 6241.44 -0.162689 -0.729069 0
M  V30 66487 H 6244.1 -1.08362 -1.61999 0
M  V30 66488 H 6243.19 -0.588046 -3.0651 0
M  V30 66489 N 6243.49 1.45488 -0.605884 0
M  V30 66490 C 6244.74 2.01851 -0.100211 0
M  V30 66491 C 6245.06 1.47703 1.27314 0
M  V30 66492 O 6244.33 0.670636 1.84063 0
M  V30 66493 H 6242.91 0.746223 -0.0340554 0
M  V30 66494 H 6245.58 1.78309 -0.786897 0
M  V30 66495 H 6244.67 3.12062 -0.0487022 0
M  V30 66496 N 6244.97 0.344947 1.53779 0
M  V30 66497 C 6245.88 -0.519607 2.28773 0
M  V30 66498 C 6246.9 -1.11071 1.33937 0
M  V30 66499 O 6248.07 -1.12609 1.66976 0
M  V30 66500 C 6245.14 -1.65406 3.04699 0
M  V30 66501 C 6244.2 -1.0926 4.15163 0
M  V30 66502 C 6243.43 -2.17299 4.87459 0
M  V30 66503 O 6243.66 -3.38045 4.59437 0
M  V30 66504 O 6242.59 -1.81515 5.73878 0
M  V30 66505 H 6246.42 0.0900692 3.03566 0
M  V30 66506 H 6244 0.109951 1.48995 0
M  V30 66507 H 6245.88 -2.31409 3.52176 0
M  V30 66508 H 6244.56 -2.24953 2.32762 0
M  V30 66509 H 6243.47 -0.397062 3.71987 0
M  V30 66510 H 6244.8 -0.541984 4.89207 0
M  V30 66511 N 6246.45 -1.57428 0.0736007 0
M  V30 66512 C 6247.41 -2.11702 -0.878345 0
M  V30 66513 C 6248.41 -1.04144 -1.22518 0
M  V30 66514 O 6249.6 -1.30125 -1.15815 0
M  V30 66515 C 6246.74 -2.61986 -2.18119 0
M  V30 66516 H 6247.93 -2.97119 -0.407446 0
M  V30 66517 H 6245.48 -1.55316 -0.175128 0
M  V30 66518 H 6246.22 -1.80027 -2.69742 0
M  V30 66519 H 6246 -3.40606 -1.94242 0
M  V30 66520 H 6247.49 -3.04045 -2.86262 0
M  V30 66521 N 6247.93 0.199967 -1.56326 0
M  V30 66522 C 6248.84 1.2684 -1.97355 0
M  V30 66523 C 6249.85 1.50078 -0.880485 0
M  V30 66524 O 6251.03 1.62788 -1.18584 0
M  V30 66525 C 6248.1 2.59374 -2.30057 0
M  V30 66526 C 6247.16 2.44249 -3.53045 0
M  V30 66527 C 6246.39 3.70463 -3.84178 0
M  V30 66528 O 6246.61 4.74422 -3.16671 0
M  V30 66529 O 6245.55 3.66283 -4.77619 0
M  V30 66530 H 6249.37 0.950222 -2.88452 0
M  V30 66531 H 6246.96 0.404578 -1.43818 0
M  V30 66532 H 6248.84 3.37607 -2.52189 0
M  V30 66533 H 6247.51 2.90828 -1.42129 0
M  V30 66534 H 6246.42 1.64143 -3.36167 0
M  V30 66535 H 6247.75 2.17728 -4.41424 0
M  V30 66536 N 6249.41 1.50506 0.4675 0
M  V30 66537 C 6250.35 1.69632 1.56505 0
M  V30 66538 C 6251.32 0.537649 1.57158 0
M  V30 66539 O 6252.51 0.768635 1.74633 0
M  V30 66540 C 6249.65 1.79975 2.94454 0
M  V30 66541 C 6248.76 3.07367 3.03562 0
M  V30 66542 C 6247.9 3.08485 4.32447 0
M  V30 66543 C 6246.94 4.30315 4.35311 0
M  V30 66544 N 6246.07 4.29152 5.55674 0
M  V30 66545 H 6250.91 2.63331 1.39502 0
M  V30 66546 H 6248.45 1.30533 0.678193 0
M  V30 66547 H 6250.41 1.83953 3.74456 0
M  V30 66548 H 6249.04 0.897122 3.10083 0
M  V30 66549 H 6248.09 3.12843 2.1641 0
M  V30 66550 H 6249.4 3.97337 3.01537 0
M  V30 66551 H 6248.56 3.11212 5.208 0
M  V30 66552 H 6247.29 2.1635 4.37086 0
M  V30 66553 H 6246.3 4.27796 3.45355 0
M  V30 66554 H 6247.52 5.2368 4.32361 0
M  V30 66555 H 6245.47 3.39873 5.6109 0
M  V30 66556 H 6245.39 5.12895 5.55405 0
M  V30 66557 H 6246.66 4.3603 6.46141 0
M  V30 66558 N 6250.88 -0.720924 1.40144 0
M  V30 66559 C 6251.82 -1.84434 1.34384 0
M  V30 66560 C 6252.8 -1.61171 0.215111 0
M  V30 66561 O 6253.98 -1.84253 0.397892 0
M  V30 66562 C 6251.11 -3.20678 1.09011 0
M  V30 66563 C 6250.15 -3.62778 2.24264 0
M  V30 66564 S 6250.99 -3.70511 3.86629 0
M  V30 66565 C 6252.14 -5.09522 3.63509 0
M  V30 66566 H 6252.37 -1.89039 2.29459 0
M  V30 66567 H 6249.91 -0.88718 1.26366 0
M  V30 66568 H 6251.87 -3.99343 0.950563 0
M  V30 66569 H 6250.53 -3.13712 0.155991 0
M  V30 66570 H 6249.72 -4.61688 2.02139 0
M  V30 66571 H 6249.32 -2.91356 2.34494 0
M  V30 66572 H 6251.61 -5.96281 3.21645 0
M  V30 66573 H 6252.56 -5.36681 4.6193 0
M  V30 66574 H 6252.96 -4.79863 2.97308 0
M  V30 66575 N 6252.36 -1.25553 -0.95259 0
M  V30 66576 C 6253.27 -1.07863 -2.08333 0
M  V30 66577 C 6254.29 -0.0152067 -1.73993 0
M  V30 66578 O 6255.47 -0.216568 -2.00232 0
M  V30 66579 C 6252.53 -0.701489 -3.39529 0
M  V30 66580 C 6251.59 -1.84307 -3.87723 0
M  V30 66581 C 6250.82 -1.48383 -5.12658 0
M  V30 66582 O 6251.05 -0.3804 -5.6913 0
M  V30 66583 O 6249.98 -2.31471 -5.55612 0
M  V30 66584 H 6253.81 -2.02696 -2.2616 0
M  V30 66585 H 6251.39 -1.0451 -1.06762 0
M  V30 66586 H 6253.27 -0.503378 -4.18383 0
M  V30 66587 H 6251.95 0.217558 -3.22968 0
M  V30 66588 H 6250.86 -2.09606 -3.09865 0
M  V30 66589 H 6252.19 -2.74143 -4.08786 0
M  V30 66590 N 6253.84 1.15551 -1.07172 0
M  V30 66591 C 6254.77 2.22384 -0.711858 0
M  V30 66592 C 6255.75 1.67436 0.299849 0
M  V30 66593 O 6256.94 1.93428 0.173005 0
M  V30 66594 C 6254.07 3.47135 -0.106937 0
M  V30 66595 C 6253.02 4.15032 -1.0456 0
M  V30 66596 C 6252.35 5.33838 -0.303525 0
M  V30 66597 C 6253.65 4.65003 -2.37844 0
M  V30 66598 H 6255.34 2.52742 -1.60505 0
M  V30 66599 H 6252.89 1.21482 -0.773182 0
M  V30 66600 H 6254.84 4.21108 0.156742 0
M  V30 66601 H 6253.56 3.16104 0.821318 0
M  V30 66602 H 6252.22 3.42997 -1.29417 0
M  V30 66603 H 6251.87 4.99063 0.628132 0
M  V30 66604 H 6251.57 5.80207 -0.929168 0
M  V30 66605 H 6253.1 6.10581 -0.0476015 0
M  V30 66606 H 6254.51 5.30512 -2.17323 0
M  V30 66607 H 6252.91 5.22027 -2.95986 0
M  V30 66608 H 6253.98 3.80738 -3.00278 0
M  V30 66609 N 6255.32 0.855565 1.32355 0
M  V30 66610 C 6256.57 0.459391 1.9722 0
M  V30 66611 C 6256.89 -0.985188 1.67703 0
M  V30 66612 O 6256.15 -1.70638 0.958177 0
M  V30 66613 C 6256.45 0.646364 3.51507 0
M  V30 66614 C 6256.11 2.06155 4.01013 0
M  V30 66615 C 6254.78 2.4486 4.14243 0
M  V30 66616 C 6257.13 2.98515 4.27245 0
M  V30 66617 C 6254.46 3.75197 4.51048 0
M  V30 66618 C 6256.81 4.28351 4.65509 0
M  V30 66619 C 6255.47 4.6699 4.76945 0
M  V30 66620 H 6254.74 0.168103 0.72168 0
M  V30 66621 H 6257.39 1.08579 1.57743 0
M  V30 66622 H 6255.69 -0.0632641 3.91749 0
M  V30 66623 H 6257.39 0.319867 3.99722 0
M  V30 66624 H 6253.98 1.751 3.91201 0
M  V30 66625 H 6258.17 2.69844 4.16531 0
M  V30 66626 H 6253.42 4.04916 4.58098 0
M  V30 66627 H 6257.6 4.9998 4.84761 0
M  V30 66628 H 6255.22 5.68028 5.05221 0
M  V30 66629 N 6256.8 -1.45165 0.613591 0
M  V30 66630 C 6258.04 -2.02494 0.111299 0
M  V30 66631 C 6258.38 -1.48019 -1.25714 0
M  V30 66632 O 6257.65 -0.657252 -1.83059 0
M  V30 66633 C 6257.93 -3.60014 0.0788865 0
M  V30 66634 C 6257.79 -4.24809 1.47842 0
M  V30 66635 C 6259.11 -4.3591 -0.605811 0
M  V30 66636 H 6256.23 -0.735807 0.041919 0
M  V30 66637 H 6258.87 -1.72948 0.786712 0
M  V30 66638 H 6257.02 -3.85317 -0.496275 0
M  V30 66639 H 6258.69 -4.10671 2.10112 0
M  V30 66640 H 6256.93 -3.82979 2.0374 0
M  V30 66641 H 6257.6 -5.33743 1.40792 0
M  V30 66642 H 6260.08 -4.15936 -0.116873 0
M  V30 66643 H 6258.96 -5.45637 -0.597616 0
M  V30 66644 H 6259.22 -4.09222 -1.67301 0
M  V30 66645 N 6258.28 -0.353098 -1.53594 0
M  V30 66646 C 6259.5 0.244237 -2.05957 0
M  V30 66647 C 6259.93 1.42677 -1.22576 0
M  V30 66648 O 6259.28 1.79681 -0.241787 0
M  V30 66649 C 6259.33 0.627959 -3.5509 0
M  V30 66650 O 6258.44 1.7268 -3.74507 0
M  V30 66651 H 6257.78 0.0385137 -0.662882 0
M  V30 66652 H 6260.31 -0.510083 -1.9814 0
M  V30 66653 H 6260.32 0.902457 -3.97894 0
M  V30 66654 H 6258.99 -0.236789 -4.15225 0
M  V30 66655 H 6257.57 1.44883 -3.43604 0
M  V30 66656 N 6259.75 1.57387 -0.0819485 0
M  V30 66657 C 6261 1.93871 0.584831 0
M  V30 66658 C 6261.33 0.962746 1.69001 0
M  V30 66659 O 6260.58 -0.0199267 1.9569 0
M  V30 66660 C 6260.88 3.36943 1.19181 0
M  V30 66661 C 6260.55 4.50403 0.211749 0
M  V30 66662 C 6259.21 4.81165 -0.0578448 0
M  V30 66663 C 6261.56 5.19182 -0.458175 0
M  V30 66664 C 6258.89 5.78041 -1.00428 0
M  V30 66665 C 6261.24 6.17072 -1.393 0
M  V30 66666 C 6259.91 6.46247 -1.67095 0
M  V30 66667 H 6259.18 0.709424 0.214005 0
M  V30 66668 H 6261.82 1.90872 -0.154986 0
M  V30 66669 H 6260.13 3.36457 2.00759 0
M  V30 66670 H 6261.83 3.62467 1.71519 0
M  V30 66671 H 6258.42 4.26417 0.43206 0
M  V30 66672 H 6262.6 4.95603 -0.263021 0
M  V30 66673 H 6257.86 5.98966 -1.22677 0
M  V30 66674 H 6262.03 6.69467 -1.91799 0
M  V30 66675 H 6259.66 7.21124 -2.40592 0
M  V30 66676 N 6261.23 -0.191674 1.5643 0
M  V30 66677 C 6262.47 -0.918261 1.82613 0
M  V30 66678 C 6262.84 -1.80302 0.65994 0
M  V30 66679 O 6264.04 -2.56565 0.801735 0
M  V30 66680 C 6262.31 -1.71009 3.13832 0
M  V30 66681 S 6263.87 -2.48822 3.61432 0
M  V30 66682 H 6260.68 -0.30793 0.640859 0
M  V30 66683 H 6263.29 -0.181402 1.94657 0
M  V30 66684 H 6261.99 -1.05078 3.9672 0
M  V30 66685 H 6261.52 -2.4887 3.04676 0
M  V30 66686 H 6263.54 -3.73087 3.2714 0
M  V30 66687 N 6262.71 -1.50752 -0.459512 0
M  V30 66688 C 6263.62 -1.73266 -1.58165 0
M  V30 66689 C 6264.64 -0.616099 -1.62727 0
M  V30 66690 O 6265.81 -0.89579 -1.80382 0
M  V30 66691 C 6262.88 -1.8326 -2.94307 0
M  V30 66692 C 6261.94 -3.07041 -3.0004 0
M  V30 66693 C 6261.17 -3.16549 -4.29689 0
M  V30 66694 O 6261.39 -2.3255 -5.20842 0
M  V30 66695 O 6260.33 -4.09366 -4.41252 0
M  V30 66696 H 6264.15 -2.68411 -1.42089 0
M  V30 66697 H 6261.74 -1.34987 -0.640225 0
M  V30 66698 H 6263.62 -1.91946 -3.75146 0
M  V30 66699 H 6262.3 -0.912996 -3.10558 0
M  V30 66700 H 6261.2 -3.03848 -2.18237 0
M  V30 66701 H 6262.54 -3.98618 -2.88729 0
M  V30 66702 N 6264.19 0.713481 -1.40525 0
M  V30 66703 C 6265.46 1.46667 -1.29414 0
M  V30 66704 C 6265.84 2.10922 0.0865551 0
M  V30 66705 O 6265.19 2.00307 1.09952 0
M  V30 66706 C 6265.4 2.50068 -2.43448 0
M  V30 66707 C 6266.75 3.15838 -2.83781 0
M  V30 66708 O 6267.77 2.60388 -2.43057 0
M  V30 66709 O 6266.63 4.16225 -3.54145 0
M  V30 66710 H 6263.73 0.652315 -0.508344 0
M  V30 66711 H 6266.27 0.745478 -1.52449 0
M  V30 66712 H 6265.05 2.01118 -3.3566 0
M  V30 66713 H 6264.67 3.2972 -2.22195 0
M  V30 66714 N 6265.67 1.26056 0.945918 0
M  V30 66715 C 6266.89 1.14085 1.72604 0
M  V30 66716 C 6267.31 -0.30444 1.86329 0
M  V30 66717 O 6266.67 -1.2088 1.36727 0
M  V30 66718 C 6266.72 1.79949 3.13529 0
M  V30 66719 O 6266.44 3.18829 3.00465 0
M  V30 66720 C 6267.94 1.73871 4.07779 0
M  V30 66721 H 6265.16 0.397505 0.540584 0
M  V30 66722 H 6267.7 1.66586 1.18614 0
M  V30 66723 H 6265.86 1.31398 3.64436 0
M  V30 66724 H 6266.27 3.5135 3.89427 0
M  V30 66725 H 6267.75 2.24601 5.0424 0
M  V30 66726 H 6268.22 0.704247 4.33517 0
M  V30 66727 H 6268.83 2.21952 3.62791 0
M  V30 66728 N 6267.14 -1.14981 1.07783 0
M  V30 66729 C 6268.39 -1.85216 0.798626 0
M  V30 66730 C 6268.71 -1.83478 -0.67787 0
M  V30 66731 O 6269.91 -2.4944 -1.07201 0
M  V30 66732 C 6268.37 -3.32449 1.37861 0
M  V30 66733 C 6267.98 -3.42621 2.88644 0
M  V30 66734 C 6269.72 -4.07839 1.17761 0
M  V30 66735 C 6267.63 -4.84028 3.39811 0
M  V30 66736 H 6266.56 -0.693862 0.295079 0
M  V30 66737 H 6269.21 -1.29663 1.29845 0
M  V30 66738 H 6267.59 -3.877 0.806511 0
M  V30 66739 H 6268.76 -2.97453 3.51935 0
M  V30 66740 H 6267.08 -2.8068 3.07583 0
M  V30 66741 H 6269.68 -5.12205 1.53462 0
M  V30 66742 H 6270.02 -4.16136 0.116962 0
M  V30 66743 H 6270.55 -3.5887 1.71631 0
M  V30 66744 H 6267.29 -4.80916 4.45421 0
M  V30 66745 H 6266.81 -5.29759 2.81275 0
M  V30 66746 H 6268.49 -5.52898 3.36024 0
M  V30 66747 N 6268.62 -0.862572 -1.31899 0
M  V30 66748 C 6269.87 -0.469844 -1.96974 0
M  V30 66749 C 6270.2 0.97628 -1.68223 0
M  V30 66750 O 6269.45 1.70128 -0.967213 0
M  V30 66751 C 6269.75 -0.664996 -3.51159 0
M  V30 66752 C 6269.42 -2.08278 -3.99914 0
M  V30 66753 C 6268.08 -2.47054 -4.12938 0
M  V30 66754 C 6270.43 -3.00777 -4.25656 0
M  V30 66755 C 6267.76 -3.77583 -4.49052 0
M  V30 66756 C 6270.11 -4.30814 -4.6323 0
M  V30 66757 C 6268.78 -4.69513 -4.74462 0
M  V30 66758 H 6268.05 -0.171928 -0.720779 0
M  V30 66759 H 6270.69 -1.09414 -1.57165 0
M  V30 66760 H 6269 0.0424878 -3.91777 0
M  V30 66761 H 6270.69 -0.341061 -3.99547 0
M  V30 66762 H 6267.28 -1.77172 -3.90267 0
M  V30 66763 H 6271.47 -2.72049 -4.15094 0
M  V30 66764 H 6266.72 -4.07339 -4.55944 0
M  V30 66765 H 6270.9 -5.02544 -4.82102 0
M  V30 66766 H 6268.53 -5.70699 -5.02201 0
M  V30 66767 N 6270.1 1.44837 -0.62128 0
M  V30 66768 C 6271.01 2.34424 0.0909742 0
M  V30 66769 C 6272.03 1.52045 0.846067 0
M  V30 66770 O 6273.2 1.84805 0.80056 0
M  V30 66771 C 6270.27 3.29878 1.06684 0
M  V30 66772 C 6269.33 4.28163 0.312204 0
M  V30 66773 C 6268.56 5.19057 1.24158 0
M  V30 66774 O 6268.78 5.13668 2.47996 0
M  V30 66775 O 6267.72 5.97442 0.731232 0
M  V30 66776 H 6271.54 2.96759 -0.645597 0
M  V30 66777 H 6269.13 1.44447 -0.381496 0
M  V30 66778 H 6271.01 3.8866 1.62853 0
M  V30 66779 H 6269.69 2.70089 1.7842 0
M  V30 66780 H 6268.59 3.72956 -0.292292 0
M  V30 66781 H 6269.93 4.90845 -0.364936 0
M  V30 66782 N 6271.58 0.361238 1.53404 0
M  V30 66783 C 6272.51 -0.530752 2.21942 0
M  V30 66784 C 6273.49 -1.08643 1.20977 0
M  V30 66785 O 6274.67 -1.14337 1.49864 0
M  V30 66786 C 6271.8 -1.73188 2.91073 0
M  V30 66787 C 6270.85 -1.30405 4.06075 0
M  V30 66788 S 6271.68 -0.308982 5.34608 0
M  V30 66789 C 6272.84 -1.51653 6.0725 0
M  V30 66790 H 6273.07 0.0513358 2.97256 0
M  V30 66791 H 6270.6 0.145335 1.53714 0
M  V30 66792 H 6272.56 -2.42087 3.31518 0
M  V30 66793 H 6271.22 -2.28521 2.15493 0
M  V30 66794 H 6270.41 -2.20008 4.53445 0
M  V30 66795 H 6270.02 -0.694325 3.67498 0
M  V30 66796 H 6272.31 -2.44825 6.31717 0
M  V30 66797 H 6273.25 -1.08429 6.99749 0
M  V30 66798 H 6273.66 -1.72061 5.37638 0
M  V30 66799 N 6273.06 -1.57341 0.090294 0
M  V30 66800 C 6273.99 -2.10778 -0.9003 0
M  V30 66801 C 6275 -1.04395 -1.24922 0
M  V30 66802 O 6276.19 -1.31856 -1.20318 0
M  V30 66803 C 6273.29 -2.5686 -2.2108 0
M  V30 66804 C 6272.46 -3.87023 -2.03794 0
M  V30 66805 C 6271.52 -4.19003 -3.18313 0
M  V30 66806 O 6270.55 -4.88303 -2.92488 0
M  V30 66807 N 6271.75 -3.74022 -4.43946 0
M  V30 66808 H 6274.52 -2.96394 -0.443941 0
M  V30 66809 H 6272.08 -1.61621 -0.0949411 0
M  V30 66810 H 6274.07 -2.75302 -2.96632 0
M  V30 66811 H 6272.64 -1.7628 -2.58155 0
M  V30 66812 H 6271.86 -3.77776 -1.126 0
M  V30 66813 H 6273.15 -4.72188 -1.89516 0
M  V30 66814 H 6272.54 -3.18073 -4.6781 0
M  V30 66815 H 6271.1 -3.97629 -5.16463 0
M  V30 66816 N 6274.53 0.183375 -1.5653 0
M  V30 66817 C 6275.78 0.900174 -1.80499 0
M  V30 66818 C 6276.1 1.8393 -0.665519 0
M  V30 66819 O 6277.3 2.59758 -0.789819 0
M  V30 66820 C 6275.76 1.65114 -3.1979 0
M  V30 66821 C 6275.37 0.756255 -4.41571 0
M  V30 66822 C 6277.11 2.35688 -3.5306 0
M  V30 66823 C 6275.02 1.50676 -5.71883 0
M  V30 66824 H 6273.95 0.339875 -0.673054 0
M  V30 66825 H 6276.6 0.153262 -1.82859 0
M  V30 66826 H 6274.98 2.44237 -3.11712 0
M  V30 66827 H 6276.15 0.0028531 -4.608 0
M  V30 66828 H 6274.47 0.16077 -4.1609 0
M  V30 66829 H 6277.07 2.92411 -4.47661 0
M  V30 66830 H 6277.41 3.10444 -2.77362 0
M  V30 66831 H 6277.94 1.63521 -3.62637 0
M  V30 66832 H 6274.68 0.801756 -6.50578 0
M  V30 66833 H 6274.2 2.2338 -5.56652 0
M  V30 66834 H 6275.88 2.05746 -6.13415 0
M  V30 66835 N 6276.01 1.50994 0.451511 0
M  V30 66836 C 6276.98 1.70708 1.52943 0
M  V30 66837 C 6277.98 0.577328 1.50079 0
M  V30 66838 O 6279.17 0.844672 1.52351 0
M  V30 66839 C 6276.3 1.75045 2.92527 0
M  V30 66840 H 6277.49 2.66896 1.36772 0
M  V30 66841 H 6275.04 1.4077 0.679236 0
M  V30 66842 H 6275.78 0.806206 3.14119 0
M  V30 66843 H 6275.56 2.57137 2.96012 0
M  V30 66844 H 6277.05 1.92184 3.70749 0
M  V30 66845 N 6277.49 -0.706019 1.40901 0
M  V30 66846 C 6278.45 -1.80179 1.41662 0
M  V30 66847 C 6279.45 -1.57806 0.308878 0
M  V30 66848 O 6280.64 -1.64671 0.568255 0
M  V30 66849 C 6277.78 -3.18408 1.21776 0
M  V30 66850 H 6278.97 -1.809 2.39197 0
M  V30 66851 H 6276.52 -0.912613 1.2689 0
M  V30 66852 H 6277.26 -3.23332 0.250401 0
M  V30 66853 H 6277.04 -3.36047 2.02026 0
M  V30 66854 H 6278.53 -3.98415 1.2512 0
M  V30 66855 N 6278.97 -1.26556 -0.93922 0
M  V30 66856 C 6279.9 -1.04077 -2.04208 0
M  V30 66857 C 6280.91 -0.000563524 -1.628 0
M  V30 66858 O 6282.1 -0.240856 -1.76868 0
M  V30 66859 C 6279.2 -0.554465 -3.34334 0
M  V30 66860 C 6278.38 -1.66434 -4.04498 0
M  V30 66861 C 6277.43 -1.17576 -5.12896 0
M  V30 66862 O 6276.46 -1.87321 -5.37494 0
M  V30 66863 N 6277.66 -0.0252293 -5.80495 0
M  V30 66864 H 6280.43 -1.99043 -2.24058 0
M  V30 66865 H 6277.99 -1.17968 -1.10883 0
M  V30 66866 H 6279.98 -0.211748 -4.04146 0
M  V30 66867 H 6278.55 0.30167 -3.11141 0
M  V30 66868 H 6277.77 -2.17791 -3.28574 0
M  V30 66869 H 6279.06 -2.40955 -4.48127 0
M  V30 66870 H 6278.46 0.55718 -5.62949 0
M  V30 66871 H 6277.01 0.258396 -6.51288 0
M  V30 66872 N 6280.45 1.14407 -1.08391 0
M  V30 66873 C 6281.7 1.8479 -0.808437 0
M  V30 66874 C 6282.01 1.83835 0.668131 0
M  V30 66875 O 6283.21 2.50005 1.05876 0
M  V30 66876 C 6281.67 3.31713 -1.39622 0
M  V30 66877 C 6281.28 3.41085 -2.90456 0
M  V30 66878 C 6283.02 4.07209 -1.19923 0
M  V30 66879 C 6280.93 4.82219 -3.42373 0
M  V30 66880 H 6279.86 0.692287 -0.298754 0
M  V30 66881 H 6282.51 1.28973 -1.30531 0
M  V30 66882 H 6280.89 3.87267 -0.82706 0
M  V30 66883 H 6282.07 2.95583 -3.53507 0
M  V30 66884 H 6280.38 2.79045 -3.09068 0
M  V30 66885 H 6282.98 5.11384 -1.56176 0
M  V30 66886 H 6283.32 4.16068 -0.139029 0
M  V30 66887 H 6283.85 3.57955 -1.73531 0
M  V30 66888 H 6280.59 4.78547 -4.47965 0
M  V30 66889 H 6280.11 5.2826 -2.8408 0
M  V30 66890 H 6281.79 5.51109 -3.38952 0
M  V30 66891 N 6281.93 0.869555 1.3144 0
M  V30 66892 C 6283.15 0.493919 2.01433 0
M  V30 66893 C 6283.58 -0.905991 1.64844 0
M  V30 66894 O 6282.93 -1.59774 0.85685 0
M  V30 66895 C 6282.98 0.657848 3.54549 0
M  V30 66896 O 6282.09 -0.303011 4.11285 0
M  V30 66897 H 6281.43 0.196516 0.634253 0
M  V30 66898 H 6283.96 1.17286 1.67646 0
M  V30 66899 H 6283.97 0.550983 4.04263 0
M  V30 66900 H 6282.64 1.67861 3.8052 0
M  V30 66901 H 6281.22 -0.151137 3.72594 0
M  V30 66902 N 6283.4 -1.44506 0.628953 0
M  V30 66903 C 6284.31 -2.34468 -0.0785408 0
M  V30 66904 C 6285.33 -1.52492 -0.837992 0
M  V30 66905 O 6286.51 -1.85227 -0.790748 0
M  V30 66906 C 6283.57 -3.30439 -1.04933 0
M  V30 66907 C 6282.63 -4.28323 -0.289493 0
M  V30 66908 C 6281.86 -5.19708 -1.21404 0
M  V30 66909 O 6282.09 -5.14976 -2.45268 0
M  V30 66910 O 6281.02 -5.97821 -0.699538 0
M  V30 66911 H 6284.85 -2.96412 0.661326 0
M  V30 66912 H 6282.43 -1.44243 0.389151 0
M  V30 66913 H 6284.31 -3.89518 -1.6079 0
M  V30 66914 H 6282.99 -2.71031 -1.76985 0
M  V30 66915 H 6281.9 -3.72796 0.312067 0
M  V30 66916 H 6283.23 -4.90645 0.390961 0
M  V30 66917 N 6284.88 -0.369369 -1.5321 0
M  V30 66918 C 6286.29 0.109024 -1.86381 0
M  V30 66919 C 6286.64 1.47844 -1.28983 0
M  V30 66920 O 6285.77 2.07526 -0.61334 0
M  V30 66921 C 6286.36 0.204607 -3.38182 0
M  V30 66922 C 6284.92 0.627261 -3.71137 0
M  V30 66923 C 6284.07 -0.223183 -2.764 0
M  V30 66924 H 6287.02 -0.588019 -1.47404 0
M  V30 66925 H 6287.04 1.02748 -3.66365 0
M  V30 66926 H 6286.55 -0.792215 -3.79928 0
M  V30 66927 H 6284.65 1.63218 -3.34949 0
M  V30 66928 H 6284.77 0.399243 -4.77434 0
M  V30 66929 H 6283.13 0.308519 -2.52825 0
M  V30 66930 H 6283.91 -1.21762 -3.20981 0
M  V30 66931 N 6286.36 1.57291 -0.0986369 0
M  V30 66932 C 6287.27 2.17745 0.873168 0
M  V30 66933 C 6288.29 1.14788 1.30766 0
M  V30 66934 O 6289.46 1.47174 1.37484 0
M  V30 66935 C 6286.53 2.74871 2.11298 0
M  V30 66936 C 6285.59 3.92795 1.73236 0
M  V30 66937 C 6284.82 4.47187 2.91306 0
M  V30 66938 O 6285.04 4.00511 4.06137 0
M  V30 66939 O 6283.98 5.38161 2.69568 0
M  V30 66940 H 6287.8 3.01201 0.388797 0
M  V30 66941 H 6285.39 1.48869 0.125903 0
M  V30 66942 H 6287.27 3.11369 2.8395 0
M  V30 66943 H 6285.95 1.94459 2.58781 0
M  V30 66944 H 6284.85 3.61103 0.977536 0
M  V30 66945 H 6286.19 4.74581 1.30513 0
M  V30 66946 N 6287.84 -0.175072 1.56625 0
M  V30 66947 C 6289.09 -0.890541 1.81422 0
M  V30 66948 C 6289.41 -1.82944 0.675022 0
M  V30 66949 O 6288.68 -1.93505 -0.305371 0
M  V30 66950 H 6287.26 -0.331841 0.669246 0
M  V30 66951 H 6289.92 -0.175786 1.94106 0
M  V30 66952 H 6289.01 -1.46969 2.7533 0
M  V30 66953 N 6289.32 -1.51231 -0.443497 0
M  V30 66954 C 6290.23 -1.74934 -1.56318 0
M  V30 66955 C 6291.24 -0.633324 -1.62065 0
M  V30 66956 O 6292.42 -0.914871 -1.79421 0
M  V30 66957 C 6289.48 -1.86371 -2.92347 0
M  V30 66958 C 6288.54 -3.10206 -2.96767 0
M  V30 66959 C 6287.78 -3.21088 -4.26307 0
M  V30 66960 O 6288 -2.38061 -5.18346 0
M  V30 66961 O 6286.93 -4.14023 -4.36885 0
M  V30 66962 H 6290.76 -2.69903 -1.39234 0
M  V30 66963 H 6288.34 -1.35658 -0.625872 0
M  V30 66964 H 6290.23 -1.95914 -3.73089 0
M  V30 66965 H 6288.9 -0.945883 -3.09572 0
M  V30 66966 H 6287.81 -3.06145 -2.15002 0
M  V30 66967 H 6289.14 -4.01658 -2.84485 0
M  V30 66968 N 6290.79 0.698537 -1.41274 0
M  V30 66969 C 6292.2 1.27835 -1.3607 0
M  V30 66970 C 6292.56 1.96154 -0.0423623 0
M  V30 66971 O 6291.68 1.98602 0.859428 0
M  V30 66972 C 6292.28 2.32473 -2.46459 0
M  V30 66973 C 6290.83 2.86037 -2.44662 0
M  V30 66974 C 6289.98 1.60037 -2.26459 0
M  V30 66975 H 6292.93 0.493494 -1.50832 0
M  V30 66976 H 6292.95 3.13698 -2.15346 0
M  V30 66977 H 6292.47 1.82719 -3.42396 0
M  V30 66978 H 6290.57 3.39974 -1.52473 0
M  V30 66979 H 6290.68 3.3667 -3.40867 0
M  V30 66980 H 6289.04 1.85736 -1.74282 0
M  V30 66981 H 6289.83 1.12284 -3.24418 0
M  V30 66982 N 6292.27 1.27052 0.932495 0
M  V30 66983 C 6293.18 1.11164 2.06591 0
M  V30 66984 C 6294.2 0.0428856 1.73947 0
M  V30 66985 O 6295.37 0.248396 1.99862 0
M  V30 66986 C 6292.44 0.755416 3.3837 0
M  V30 66987 C 6291.5 1.90452 3.84742 0
M  V30 66988 C 6290.73 1.5652 5.10232 0
M  V30 66989 O 6290.96 0.470896 5.68453 0
M  V30 66990 O 6289.89 2.40281 5.51859 0
M  V30 66991 H 6293.72 2.06268 2.22906 0
M  V30 66992 H 6291.3 1.06195 1.05086 0
M  V30 66993 H 6293.18 0.569875 4.17529 0
M  V30 66994 H 6291.86 -0.166149 3.23273 0
M  V30 66995 H 6290.76 2.14509 3.06491 0
M  V30 66996 H 6292.1 2.80612 4.04373 0
M  V30 66997 N 6293.75 -1.13831 1.08997 0
M  V30 66998 C 6294.98 -1.88859 0.844989 0
M  V30 66999 C 6295.39 -1.78899 -0.603381 0
M  V30 67000 O 6294.75 -1.15251 -1.41504 0
M  V30 67001 C 6294.8 -3.38618 1.26571 0
M  V30 67002 O 6294.52 -3.48312 2.65727 0
M  V30 67003 C 6296.02 -4.30625 1.05247 0
M  V30 67004 H 6293.24 -0.598028 0.304309 0
M  V30 67005 H 6295.79 -1.44124 1.45081 0
M  V30 67006 H 6293.94 -3.80952 0.703871 0
M  V30 67007 H 6294.36 -4.41377 2.83349 0
M  V30 67008 H 6295.83 -5.34052 1.39616 0
M  V30 67009 H 6296.31 -4.39199 -0.0100764 0
M  V30 67010 H 6296.91 -3.94055 1.60003 0
M  V30 67011 N 6295.23 -0.876513 -1.30977 0
M  V30 67012 C 6296.5 -0.411118 -1.91231 0
M  V30 67013 C 6296.88 1.10742 -1.79721 0
M  V30 67014 O 6296.23 1.93894 -1.20903 0
M  V30 67015 C 6296.44 -0.899781 -3.37202 0
M  V30 67016 C 6297.79 -0.92976 -4.14295 0
M  V30 67017 O 6298.81 -0.845874 -3.46011 0
M  V30 67018 O 6297.67 -1.0523 -5.36273 0
M  V30 67019 H 6294.77 -0.124208 -0.817619 0
M  V30 67020 H 6297.31 -0.964857 -1.39602 0
M  V30 67021 H 6296.09 -1.94348 -3.39624 0
M  V30 67022 H 6295.71 -0.324724 -3.96272 0
M  V30 67023 N 6296.71 1.4417 -0.636607 0
M  V30 67024 C 6297.62 2.34507 0.0661053 0
M  V30 67025 C 6298.63 1.52934 0.829893 0
M  V30 67026 O 6299.81 1.85644 0.780914 0
M  V30 67027 C 6296.87 3.30991 1.03179 0
M  V30 67028 C 6295.93 4.2847 0.266774 0
M  V30 67029 C 6295.17 5.20345 1.18646 0
M  V30 67030 O 6295.39 5.16269 2.42533 0
M  V30 67031 O 6294.32 5.98184 0.667824 0
M  V30 67032 H 6298.15 2.96057 -0.677036 0
M  V30 67033 H 6295.74 1.44034 -0.396795 0
M  V30 67034 H 6297.62 3.90366 1.58722 0
M  V30 67035 H 6296.29 2.71966 1.75545 0
M  V30 67036 H 6295.2 3.72625 -0.331833 0
M  V30 67037 H 6296.53 4.90431 -0.416976 0
M  V30 67038 N 6298.18 0.377489 1.53012 0
M  V30 67039 C 6299.46 -0.26544 1.93791 0
M  V30 67040 C 6299.84 -1.65377 1.31201 0
M  V30 67041 O 6299.19 -2.23496 0.475596 0
M  V30 67042 C 6299.4 -0.303683 3.47676 0
M  V30 67043 C 6300.75 -0.538321 4.21174 0
M  V30 67044 O 6301.77 -0.384392 3.5412 0
M  V30 67045 O 6300.63 -0.838964 5.40022 0
M  V30 67046 H 6297.72 -0.161969 0.810984 0
M  V30 67047 H 6300.27 0.431138 1.64132 0
M  V30 67048 H 6299.04 0.669239 3.85535 0
M  V30 67049 H 6298.67 -1.04567 3.83603 0
M  V30 67050 N 6299.66 -1.57237 0.106977 0
M  V30 67051 C 6300.57 -2.18205 -0.861608 0
M  V30 67052 C 6301.59 -1.1548 -1.30155 0
M  V30 67053 O 6302.76 -1.47901 -1.36702 0
M  V30 67054 C 6299.83 -2.75988 -2.09837 0
M  V30 67055 C 6298.89 -3.93708 -1.7115 0
M  V30 67056 C 6298.12 -4.48726 -2.88931 0
M  V30 67057 O 6298.35 -4.02659 -4.04007 0
M  V30 67058 O 6297.28 -5.39583 -2.6671 0
M  V30 67059 H 6301.11 -3.01403 -0.372818 0
M  V30 67060 H 6298.69 -1.48933 -0.118006 0
M  V30 67061 H 6300.57 -3.1287 -2.82294 0
M  V30 67062 H 6299.25 -1.95829 -2.57746 0
M  V30 67063 H 6298.16 -3.61616 -0.958372 0
M  V30 67064 H 6299.49 -4.75267 -1.27994 0
M  V30 67065 N 6301.14 0.166763 -1.56715 0
M  V30 67066 C 6302.39 0.880908 -1.81891 0
M  V30 67067 C 6302.71 1.82583 -0.684715 0
M  V30 67068 O 6301.98 1.93665 0.295105 0
M  V30 67069 H 6300.56 0.328287 -0.670997 0
M  V30 67070 H 6303.22 0.16549 -1.94196 0
M  V30 67071 H 6302.32 1.45507 -2.76105 0
M  V30 67072 N 6302.62 1.51464 0.43547 0
M  V30 67073 C 6303.58 1.7232 1.51123 0
M  V30 67074 C 6304.58 0.593213 1.49458 0
M  V30 67075 O 6305.77 0.860784 1.51447 0
M  V30 67076 C 6302.9 1.78138 2.90654 0
M  V30 67077 H 6304.1 2.68331 1.33934 0
M  V30 67078 H 6301.65 1.41482 0.664267 0
M  V30 67079 H 6302.38 0.839477 3.13246 0
M  V30 67080 H 6302.17 2.60262 2.93268 0
M  V30 67081 H 6303.66 1.96106 3.6869 0
M  V30 67082 N 6304.1 -0.691035 1.41642 0
M  V30 67083 C 6305.34 -1.44823 1.40964 0
M  V30 67084 C 6305.67 -1.94988 0.0212475 0
M  V30 67085 O 6304.94 -1.72003 -0.937653 0
M  V30 67086 H 6303.52 -0.537372 0.518884 0
M  V30 67087 H 6306.18 -0.817615 1.76921 0
M  V30 67088 H 6305.27 -2.30918 2.0996 0
M  V30 67089 N 6305.57 -1.27545 -0.925744 0
M  V30 67090 C 6306.54 -1.10478 -2.00817 0
M  V30 67091 C 6307.54 -0.0481567 -1.60728 0
M  V30 67092 O 6308.73 -0.292917 -1.7172 0
M  V30 67093 C 6305.86 -0.683786 -3.33972 0
M  V30 67094 H 6307.05 -2.06597 -2.17388 0
M  V30 67095 H 6304.61 -1.10361 -1.1068 0
M  V30 67096 H 6305.34 0.278707 -3.231 0
M  V30 67097 H 6305.13 -1.44692 -3.64426 0
M  V30 67098 H 6306.62 -0.586671 -4.13458 0
M  V30 67099 N 6307.05 1.13251 -1.09599 0
M  V30 67100 C 6308.02 2.16906 -0.740557 0
M  V30 67101 C 6309.02 1.59136 0.230738 0
M  V30 67102 O 6310.21 1.74198 0.00869427 0
M  V30 67103 C 6307.34 3.40766 -0.0954702 0
M  V30 67104 H 6308.53 2.49863 -1.65857 0
M  V30 67105 H 6306.08 1.2811 -0.895403 0
M  V30 67106 H 6306.82 3.13401 0.833684 0
M  V30 67107 H 6306.6 3.83969 -0.794382 0
M  V30 67108 H 6308.09 4.17373 0.137745 0
M  V30 67109 N 6308.53 0.883447 1.3051 0
M  V30 67110 C 6309.44 0.353053 2.31928 0
M  V30 67111 C 6310.46 -0.543933 1.6528 0
M  V30 67112 O 6311.63 -0.43742 1.96592 0
M  V30 67113 C 6308.7 -0.425142 3.44083 0
M  V30 67114 C 6307.76 0.501414 4.26362 0
M  V30 67115 C 6306.99 -0.239736 5.33161 0
M  V30 67116 O 6307.21 -1.46603 5.51238 0
M  V30 67117 O 6306.15 0.409369 6.00506 0
M  V30 67118 H 6309.97 1.19403 2.79243 0
M  V30 67119 H 6307.56 0.647235 1.34652 0
M  V30 67120 H 6309.44 -0.865812 4.1241 0
M  V30 67121 H 6308.12 -1.24244 2.98907 0
M  V30 67122 H 6307.02 0.990865 3.60739 0
M  V30 67123 H 6308.36 1.28468 4.75139 0
M  V30 67124 N 6310.01 -1.43831 0.644244 0
M  V30 67125 C 6310.97 -2.29159 -0.0432666 0
M  V30 67126 C 6311.97 -1.41737 -0.75943 0
M  V30 67127 O 6313.16 -1.63466 -0.602036 0
M  V30 67128 C 6310.29 -3.23607 -1.07196 0
M  V30 67129 H 6311.49 -2.91438 0.707397 0
M  V30 67130 H 6309.04 -1.50961 0.405021 0
M  V30 67131 H 6309.77 -2.66205 -1.85217 0
M  V30 67132 H 6309.56 -3.88049 -0.562203 0
M  V30 67133 H 6311.05 -3.87674 -1.55237 0
M  V30 67134 N 6311.49 -0.385598 -1.5281 0
M  V30 67135 C 6312.74 0.197383 -2.01134 0
M  V30 67136 C 6313.06 1.47629 -1.27399 0
M  V30 67137 O 6312.33 1.91918 -0.392983 0
M  V30 67138 H 6310.91 0.0759297 -0.743131 0
M  V30 67139 H 6313.57 -0.516436 -1.87933 0
M  V30 67140 H 6312.66 0.410226 -3.09392 0
M  V30 67141 N 6312.97 1.57178 -0.115314 0
M  V30 67142 C 6313.93 2.13956 0.821907 0
M  V30 67143 C 6314.93 1.07356 1.19713 0
M  V30 67144 O 6316.12 1.3315 1.12325 0
M  V30 67145 C 6313.25 2.67677 2.11097 0
M  V30 67146 H 6314.44 2.98095 0.328527 0
M  V30 67147 H 6312 1.55726 0.133887 0
M  V30 67148 H 6312.73 1.87116 2.64874 0
M  V30 67149 H 6312.52 3.45636 1.85143 0
M  V30 67150 H 6314.01 3.11528 2.781 0
M  V30 67151 N 6314.44 -0.15845 1.56801 0
M  V30 67152 C 6315.35 -1.21563 2.00648 0
M  V30 67153 C 6316.37 -1.47691 0.919966 0
M  V30 67154 O 6317.55 -1.59586 1.22858 0
M  V30 67155 C 6314.61 -2.53183 2.36853 0
M  V30 67156 C 6313.67 -2.34803 3.59397 0
M  V30 67157 C 6312.9 -3.60147 3.93865 0
M  V30 67158 O 6313.13 -4.65859 3.29138 0
M  V30 67159 O 6312.06 -3.53491 4.87163 0
M  V30 67160 H 6315.89 -0.87341 2.9087 0
M  V30 67161 H 6313.47 -0.366305 1.4484 0
M  V30 67162 H 6315.35 -3.30802 2.61051 0
M  V30 67163 H 6314.03 -2.86958 1.4979 0
M  V30 67164 H 6312.94 -1.55172 3.404 0
M  V30 67165 H 6314.27 -2.05948 4.47042 0
M  V30 67166 N 6315.92 -1.51693 -0.427432 0
M  V30 67167 C 6317.17 -1.64526 -1.1737 0
M  V30 67168 C 6317.49 -0.368549 -1.91486 0
M  V30 67169 O 6316.76 0.615969 -1.85964 0
M  V30 67170 H 6315.34 -0.606378 -0.436251 0
M  V30 67171 H 6318 -1.88664 -0.489086 0
M  V30 67172 H 6317.1 -2.47766 -1.89785 0
M  V30 67173 N 6317.4 0.683514 -1.42007 0
M  V30 67174 C 6318.36 1.77902 -1.44511 0
M  V30 67175 C 6319.36 1.57294 -0.333945 0
M  V30 67176 O 6320.55 1.63746 -0.594381 0
M  V30 67177 C 6317.68 3.1643 -1.26826 0
M  V30 67178 H 6318.88 1.77071 -2.42045 0
M  V30 67179 H 6316.43 0.89231 -1.28326 0
M  V30 67180 H 6317.17 3.22893 -0.301809 0
M  V30 67181 H 6316.95 3.32791 -2.07347 0
M  V30 67182 H 6318.44 3.96374 -1.31442 0
M  V30 67183 N 6318.88 1.28034 0.918967 0
M  V30 67184 C 6319.79 1.13348 2.054 0
M  V30 67185 C 6320.8 0.0613326 1.73892 0
M  V30 67186 O 6321.98 0.26958 1.99588 0
M  V30 67187 C 6319.04 0.791262 3.3755 0
M  V30 67188 C 6318.11 1.94522 3.827 0
M  V30 67189 C 6317.34 1.61923 5.08544 0
M  V30 67190 O 6317.56 0.531161 5.67922 0
M  V30 67191 O 6316.5 2.46121 5.4928 0
M  V30 67192 H 6320.32 2.08621 2.20706 0
M  V30 67193 H 6317.91 1.07304 1.03953 0
M  V30 67194 H 6319.79 0.614128 4.16901 0
M  V30 67195 H 6318.46 -0.131852 3.23431 0
M  V30 67196 H 6317.37 2.17747 3.04199 0
M  V30 67197 H 6318.7 2.84885 4.01374 0
M  V30 67198 N 6320.36 -1.12669 1.10198 0
M  V30 67199 C 6321.27 -2.21918 0.760898 0
M  V30 67200 C 6322.28 -1.72329 -0.240544 0
M  V30 67201 O 6323.46 -2.01241 -0.0799101 0
M  V30 67202 C 6320.52 -3.4615 0.195131 0
M  V30 67203 C 6319.58 -4.10591 1.25354 0
M  V30 67204 C 6318.82 -5.28893 0.714671 0
M  V30 67205 O 6319.04 -5.68544 -0.459744 0
M  V30 67206 O 6317.97 -5.83587 1.47344 0
M  V30 67207 H 6321.8 -2.53481 1.67275 0
M  V30 67208 H 6319.38 -1.20955 0.876934 0
M  V30 67209 H 6321.27 -4.21238 -0.116661 0
M  V30 67210 H 6319.94 -3.16269 -0.689618 0
M  V30 67211 H 6318.85 -3.37293 1.61815 0
M  V30 67212 H 6320.18 -4.44622 2.11121 0
M  V30 67213 N 6321.83 -0.890356 -1.3004 0
M  V30 67214 C 6323.08 -0.510509 -1.95546 0
M  V30 67215 C 6323.4 0.944502 -1.70599 0
M  V30 67216 O 6322.67 1.66478 -1.03256 0
M  V30 67217 H 6321.25 -0.185801 -0.723524 0
M  V30 67218 H 6323.91 -1.13461 -1.5847 0
M  V30 67219 H 6323.01 -0.685262 -3.04484 0
M  V30 67220 N 6323.31 1.43487 -0.651863 0
M  V30 67221 C 6324.27 2.29179 0.0311131 0
M  V30 67222 C 6325.27 1.42137 0.751903 0
M  V30 67223 O 6326.46 1.63783 0.593358 0
M  V30 67224 C 6323.6 3.24171 1.05479 0
M  V30 67225 H 6324.79 2.91058 -0.722843 0
M  V30 67226 H 6322.34 1.50744 -0.413021 0
M  V30 67227 H 6323.08 2.67184 1.83802 0
M  V30 67228 H 6322.86 3.88341 0.541616 0
M  V30 67229 H 6324.35 3.88492 1.53179 0
M  V30 67230 N 6324.79 0.393696 1.52603 0
M  V30 67231 C 6325.75 -0.427279 2.25182 0
M  V30 67232 C 6326.75 -0.986551 1.2698 0
M  V30 67233 O 6327.94 -0.86786 1.51042 0
M  V30 67234 C 6325.07 -1.59991 3.01025 0
M  V30 67235 H 6326.27 0.208207 2.99176 0
M  V30 67236 H 6323.82 0.145898 1.55618 0
M  V30 67237 H 6324.56 -2.2727 2.31342 0
M  V30 67238 H 6324.34 -1.20554 3.73108 0
M  V30 67239 H 6325.83 -2.18103 3.56119 0
M  V30 67240 N 6326.27 -1.57114 0.123648 0
M  V30 67241 C 6327.52 -1.94968 -0.53217 0
M  V30 67242 C 6327.84 -1.00814 -1.66918 0
M  V30 67243 O 6327.11 -0.065289 -1.95791 0
M  V30 67244 H 6325.69 -0.719845 -0.199581 0
M  V30 67245 H 6328.35 -1.93935 0.193679 0
M  V30 67246 H 6327.45 -2.98118 -0.923697 0
M  V30 67247 N 6327.75 0.150132 -1.56883 0
M  V30 67248 C 6328.68 1.18728 -2.01062 0
M  V30 67249 C 6329.66 1.4498 -0.889657 0
M  V30 67250 O 6330.84 1.55953 -1.15724 0
M  V30 67251 C 6327.97 2.5212 -2.38857 0
M  V30 67252 C 6326.93 2.40396 -3.5411 0
M  V30 67253 C 6326.25 3.78471 -3.77709 0
M  V30 67254 C 6327.55 1.89069 -4.86878 0
M  V30 67255 H 6329.25 0.819942 -2.87954 0
M  V30 67256 H 6326.79 0.392976 -1.38534 0
M  V30 67257 H 6328.75 3.24898 -2.68364 0
M  V30 67258 H 6327.47 2.90683 -1.48899 0
M  V30 67259 H 6326.13 1.7007 -3.24764 0
M  V30 67260 H 6325.78 4.14464 -2.85007 0
M  V30 67261 H 6325.48 3.71488 -4.55269 0
M  V30 67262 H 6327 4.52802 -4.09637 0
M  V30 67263 H 6328.41 2.51638 -5.15123 0
M  V30 67264 H 6326.81 1.92985 -5.68223 0
M  V30 67265 H 6327.88 0.846189 -4.7746 0
M  V30 67266 N 6329.22 1.51918 0.419381 0
M  V30 67267 C 6330.13 1.77398 1.53515 0
M  V30 67268 C 6331.15 0.659027 1.61037 0
M  V30 67269 O 6332.33 0.9433 1.77943 0
M  V30 67270 C 6329.39 1.90998 2.89345 0
M  V30 67271 C 6328.45 3.14888 2.91794 0
M  V30 67272 C 6327.69 3.2783 4.21145 0
M  V30 67273 O 6327.91 2.46278 5.14493 0
M  V30 67274 O 6326.84 4.20921 4.30243 0
M  V30 67275 H 6330.67 2.72084 1.34922 0
M  V30 67276 H 6328.25 1.36637 0.604211 0
M  V30 67277 H 6330.14 2.01825 3.69925 0
M  V30 67278 H 6328.81 0.995014 3.08028 0
M  V30 67279 H 6327.72 3.09527 2.10104 0
M  V30 67280 H 6329.05 4.06133 2.78059 0
M  V30 67281 N 6330.7 -0.675973 1.42367 0
M  V30 67282 C 6331.95 -1.43319 1.42492 0
M  V30 67283 C 6332.27 -1.94955 0.0419274 0
M  V30 67284 O 6331.54 -1.72987 -0.919357 0
M  V30 67285 H 6330.12 -0.531838 0.524554 0
M  V30 67286 H 6332.78 -0.798804 1.77778 0
M  V30 67287 H 6331.88 -2.28678 2.12397 0
M  V30 67288 N 6332.18 -1.2852 -0.912164 0
M  V30 67289 C 6333.41 -1.18621 -1.69519 0
M  V30 67290 C 6333.82 0.254931 -1.87071 0
M  V30 67291 O 6333.18 1.17212 -1.39884 0
M  V30 67292 C 6333.23 -1.88199 -3.08648 0
M  V30 67293 O 6332.95 -3.26684 -2.91906 0
M  V30 67294 C 6334.45 -1.84621 -4.03026 0
M  V30 67295 H 6331.67 -0.411698 -0.529855 0
M  V30 67296 H 6334.22 -1.69672 -1.14156 0
M  V30 67297 H 6332.37 -1.41014 -3.60824 0
M  V30 67298 H 6332.79 -3.61552 -3.79974 0
M  V30 67299 H 6334.26 -2.37891 -4.98108 0
M  V30 67300 H 6334.74 -0.818939 -4.31497 0
M  V30 67301 H 6335.34 -2.31492 -3.56779 0
M  V30 67302 N 6333.66 1.12083 -1.10794 0
M  V30 67303 C 6334.62 2.16109 -0.763522 0
M  V30 67304 C 6335.62 1.59372 0.213847 0
M  V30 67305 O 6336.81 1.74197 -0.00978223 0
M  V30 67306 C 6333.94 3.40646 -0.131608 0
M  V30 67307 H 6335.14 2.4809 -1.68498 0
M  V30 67308 H 6332.69 1.27153 -0.908941 0
M  V30 67309 H 6333.42 3.14268 0.800397 0
M  V30 67310 H 6333.21 3.83105 -0.835062 0
M  V30 67311 H 6334.7 4.17495 0.0934697 0
M  V30 67312 N 6335.14 0.89724 1.29566 0
M  V30 67313 C 6336.1 0.377985 2.26062 0
M  V30 67314 C 6337.1 -0.486441 1.53266 0
M  V30 67315 O 6338.29 -0.291845 1.71738 0
M  V30 67316 C 6335.42 -0.459927 3.37783 0
M  V30 67317 H 6336.61 1.23019 2.73508 0
M  V30 67318 H 6334.17 0.675163 1.40965 0
M  V30 67319 H 6334.9 -1.33221 2.95673 0
M  V30 67320 H 6334.69 0.15943 3.91776 0
M  V30 67321 H 6336.18 -0.814609 4.09578 0
M  V30 67322 N 6336.61 -1.43139 0.659463 0
M  V30 67323 C 6337.84 -2.06086 0.183338 0
M  V30 67324 C 6338.26 -1.49466 -1.15349 0
M  V30 67325 O 6337.61 -0.628401 -1.7134 0
M  V30 67326 C 6337.67 -3.6138 0.0929972 0
M  V30 67327 O 6337.39 -4.15897 1.37699 0
M  V30 67328 C 6338.89 -4.41414 -0.408461 0
M  V30 67329 H 6336.11 -0.664553 0.0927883 0
M  V30 67330 H 6338.65 -1.83539 0.901874 0
M  V30 67331 H 6336.81 -3.83092 -0.576134 0
M  V30 67332 H 6337.22 -5.09625 1.24027 0
M  V30 67333 H 6338.69 -5.50395 -0.420612 0
M  V30 67334 H 6339.17 -4.1489 -1.44093 0
M  V30 67335 H 6339.78 -4.24686 0.228396 0
M  V30 67336 N 6338.09 -0.401784 -1.52392 0
M  V30 67337 C 6339.06 0.415331 -2.25406 0
M  V30 67338 C 6340.06 0.979803 -1.27501 0
M  V30 67339 O 6341.25 0.859838 -1.51501 0
M  V30 67340 C 6338.38 1.58392 -3.01869 0
M  V30 67341 H 6339.57 -0.22407 -2.99062 0
M  V30 67342 H 6337.12 -0.154149 -1.55538 0
M  V30 67343 H 6337.86 2.26039 -2.32544 0
M  V30 67344 H 6337.64 1.18573 -3.73742 0
M  V30 67345 H 6339.13 2.16211 -3.57271 0
M  V30 67346 N 6339.57 1.57046 -0.131978 0
M  V30 67347 C 6340.53 2.14816 0.799168 0
M  V30 67348 C 6341.53 1.0862 1.18568 0
M  V30 67349 O 6342.72 1.34333 1.10906 0
M  V30 67350 C 6339.86 2.69901 2.08246 0
M  V30 67351 H 6341.05 2.98427 0.296891 0
M  V30 67352 H 6338.6 1.55859 0.117363 0
M  V30 67353 H 6339.34 1.89915 2.62874 0
M  V30 67354 H 6339.12 3.47581 1.81467 0
M  V30 67355 H 6340.61 3.1446 2.74781 0
M  V30 67356 N 6341.05 -0.14181 1.56961 0
M  V30 67357 C 6342.01 -1.15889 1.97743 0
M  V30 67358 C 6343.01 -1.35577 0.864604 0
M  V30 67359 O 6344.2 -1.32481 1.13112 0
M  V30 67360 C 6341.33 -2.51814 2.29788 0
M  V30 67361 H 6342.53 -0.808892 2.88785 0
M  V30 67362 H 6340.08 -0.385334 1.51476 0
M  V30 67363 H 6340.82 -2.91776 1.41554 0
M  V30 67364 H 6340.6 -2.38883 3.1093 0
M  V30 67365 H 6342.09 -3.25057 2.6216 0
M  V30 67366 N 6342.53 -1.52138 -0.411319 0
M  V30 67367 C 6343.78 -1.65761 -1.15619 0
M  V30 67368 C 6344.1 -0.388838 -1.91084 0
M  V30 67369 O 6343.37 0.596211 -1.86607 0
M  V30 67370 H 6341.95 -0.610971 -0.429795 0
M  V30 67371 H 6344.61 -1.89172 -0.469048 0
M  V30 67372 H 6343.7 -2.49765 -1.87146 0
M  V30 67373 N 6344.01 0.668413 -1.42723 0
M  V30 67374 C 6344.97 1.76359 -1.4639 0
M  V30 67375 C 6345.97 1.56931 -0.350609 0
M  V30 67376 O 6347.16 1.63106 -0.611715 0
M  V30 67377 C 6344.29 3.15067 -1.30176 0
M  V30 67378 H 6345.48 1.74494 -2.43909 0
M  V30 67379 H 6343.04 0.87865 -1.29265 0
M  V30 67380 H 6343.77 3.22554 -0.336039 0
M  V30 67381 H 6343.56 3.30573 -2.10865 0
M  V30 67382 H 6345.05 3.94958 -1.35639 0
M  V30 67383 N 6345.48 1.29002 0.905335 0
M  V30 67384 C 6346.71 1.19518 1.68887 0
M  V30 67385 C 6347.13 -0.245007 1.87204 0
M  V30 67386 O 6346.48 -1.16469 1.40504 0
M  V30 67387 C 6346.53 1.89833 3.07645 0
M  V30 67388 O 6346.26 3.28227 2.9017 0
M  V30 67389 C 6347.76 1.86756 4.02041 0
M  V30 67390 H 6344.98 0.414502 0.527664 0
M  V30 67391 H 6347.52 1.70275 1.13254 0
M  V30 67392 H 6345.68 1.42925 3.60071 0
M  V30 67393 H 6346.09 3.63562 3.78052 0
M  V30 67394 H 6347.56 2.4053 4.9684 0
M  V30 67395 H 6348.04 0.841811 4.31057 0
M  V30 67396 H 6348.65 2.33381 3.55546 0
M  V30 67397 N 6346.96 -1.11493 1.11387 0
M  V30 67398 C 6347.92 -2.15701 0.774972 0
M  V30 67399 C 6348.92 -1.59483 -0.205392 0
M  V30 67400 O 6350.11 -1.7419 0.0190202 0
M  V30 67401 C 6347.25 -3.40571 0.149671 0
M  V30 67402 H 6348.44 -2.47193 1.69811 0
M  V30 67403 H 6345.99 -1.26669 0.915671 0
M  V30 67404 H 6346.73 -3.14688 -0.783719 0
M  V30 67405 H 6346.51 -3.82656 0.855368 0
M  V30 67406 H 6348 -4.17539 -0.0713276 0
M  V30 67407 N 6348.44 -0.904098 -1.29088 0
M  V30 67408 C 6349.86 -0.600834 -1.47859 0
M  V30 67409 C 6350.06 0.85649 -1.82391 0
M  V30 67410 O 6349.11 1.63633 -1.92303 0
M  V30 67411 C 6350.42 -1.53044 -2.5884 0
M  V30 67412 C 6351.97 -1.53612 -2.72713 0
M  V30 67413 C 6352.45 -2.45211 -3.86828 0
M  V30 67414 N 6353.94 -2.43283 -3.94167 0
M  V30 67415 C 6354.67 -3.1086 -4.81823 0
M  V30 67416 N 6354.17 -3.87732 -5.74139 0
M  V30 67417 N 6355.96 -2.99995 -4.75352 0
M  V30 67418 H 6348.11 -1.84659 -1.04951 0
M  V30 67419 H 6350.38 -0.791498 -0.521762 0
M  V30 67420 H 6350.08 -2.56898 -2.40201 0
M  V30 67421 H 6349.96 -1.25427 -3.55736 0
M  V30 67422 H 6352.34 -0.505001 -2.90747 0
M  V30 67423 H 6352.42 -1.85268 -1.76378 0
M  V30 67424 H 6352.07 -3.48419 -3.6955 0
M  V30 67425 H 6352 -2.10861 -4.8254 0
M  V30 67426 H 6354.49 -1.87435 -3.28141 0
M  V30 67427 H 6354.8 -4.3634 -6.3783 0
M  V30 67428 H 6353.15 -3.91838 -5.7401 0
M  V30 67429 H 6356.34 -2.39451 -4.0222 0
M  V30 67430 H 6356.51 -3.52935 -5.43453 0
M  V30 67431 N 6349.92 1.42788 -0.667045 0
M  V30 67432 C 6351.16 2.01942 -0.186376 0
M  V30 67433 C 6351.5 1.52583 1.20133 0
M  V30 67434 O 6350.77 0.724741 1.80493 0
M  V30 67435 C 6351.05 3.59473 -0.212449 0
M  V30 67436 C 6350.91 4.1903 -1.63506 0
M  V30 67437 C 6352.23 4.37859 0.443608 0
M  V30 67438 H 6349.35 0.733744 -0.0691991 0
M  V30 67439 H 6351.99 1.69909 -0.850358 0
M  V30 67440 H 6350.14 3.86894 0.352926 0
M  V30 67441 H 6351.81 4.0259 -2.25209 0
M  V30 67442 H 6350.05 3.75153 -2.17813 0
M  V30 67443 H 6350.72 5.2815 -1.60505 0
M  V30 67444 H 6353.2 4.16083 -0.0375794 0
M  V30 67445 H 6352.08 5.47479 0.394694 0
M  V30 67446 H 6352.34 4.1515 1.51997 0
M  V30 67447 N 6351.4 0.40986 1.52177 0
M  V30 67448 C 6352.64 -0.165932 2.0212 0
M  V30 67449 C 6352.97 -1.44728 1.29489 0
M  V30 67450 O 6352.25 -1.90312 0.401429 0
M  V30 67451 C 6352.53 -0.412889 3.57725 0
M  V30 67452 C 6352.39 0.885183 4.41004 0
M  V30 67453 C 6353.7 -1.19471 4.23574 0
M  V30 67454 H 6350.82 -0.0588326 0.734648 0
M  V30 67455 H 6353.47 0.543469 1.82062 0
M  V30 67456 H 6351.62 -1.01719 3.74947 0
M  V30 67457 H 6353.29 1.52135 4.35491 0
M  V30 67458 H 6351.53 1.496 4.07188 0
M  V30 67459 H 6352.2 0.666772 5.47958 0
M  V30 67460 H 6354.68 -0.683094 4.10455 0
M  V30 67461 H 6353.55 -1.33625 5.32387 0
M  V30 67462 H 6353.81 -2.21553 3.82579 0
M  V30 67463 N 6352.87 -1.56974 0.140305 0
M  V30 67464 C 6353.84 -2.15237 -0.787764 0
M  V30 67465 C 6354.84 -1.09247 -1.1799 0
M  V30 67466 O 6356.03 -1.3492 -1.10192 0
M  V30 67467 C 6353.16 -2.71002 -2.06811 0
M  V30 67468 H 6354.35 -2.9858 -0.281061 0
M  V30 67469 H 6351.9 -1.55919 -0.109096 0
M  V30 67470 H 6352.64 -1.91306 -2.61864 0
M  V30 67471 H 6352.42 -3.48538 -1.79621 0
M  V30 67472 H 6353.91 -3.15913 -2.73109 0
M  V30 67473 N 6354.35 0.133484 -1.57034 0
M  V30 67474 C 6355.31 1.14838 -1.98355 0
M  V30 67475 C 6356.31 1.35117 -0.871781 0
M  V30 67476 O 6357.5 1.3188 -1.13813 0
M  V30 67477 C 6354.64 2.50592 -2.3112 0
M  V30 67478 H 6355.83 0.793566 -2.8921 0
M  V30 67479 H 6353.38 0.377295 -1.51678 0
M  V30 67480 H 6354.12 2.91021 -1.43099 0
M  V30 67481 H 6353.9 2.37231 -3.12192 0
M  V30 67482 H 6355.39 3.23662 -2.6388 0
M  V30 67483 N 6355.83 1.52354 0.403245 0
M  V30 67484 C 6356.79 1.75487 1.47434 0
M  V30 67485 C 6357.79 0.624782 1.48166 0
M  V30 67486 O 6358.98 0.892714 1.49587 0
M  V30 67487 C 6356.12 1.84263 2.8681 0
M  V30 67488 H 6357.31 2.71112 1.28212 0
M  V30 67489 H 6354.86 1.42859 0.634107 0
M  V30 67490 H 6355.6 0.905733 3.11395 0
M  V30 67491 H 6355.38 2.66424 2.87682 0
M  V30 67492 H 6356.87 2.03882 3.64447 0
M  V30 67493 N 6357.31 -0.660835 1.43076 0
M  V30 67494 C 6358.56 -1.418 1.44004 0
M  V30 67495 C 6358.88 -1.94899 0.0626026 0
M  V30 67496 O 6358.15 -1.73953 -0.900958 0
M  V30 67497 H 6356.73 -0.526245 0.530165 0
M  V30 67498 H 6359.39 -0.779904 1.78616 0
M  V30 67499 H 6358.49 -2.26413 2.14811 0
M  V30 67500 N 6358.79 -1.2948 -0.898481 0
M  V30 67501 C 6360.2 -1.07518 -1.17949 0
M  V30 67502 C 6360.4 0.172744 -2.00758 0
M  V30 67503 O 6359.46 0.870166 -2.37032 0
M  V30 67504 C 6360.77 -2.33128 -1.89926 0
M  V30 67505 C 6362.32 -2.38459 -2.02747 0
M  V30 67506 C 6362.79 -3.63876 -2.78134 0
M  V30 67507 N 6364.29 -3.64605 -2.85687 0
M  V30 67508 C 6365.02 -4.58331 -3.44558 0
M  V30 67509 N 6364.52 -5.6239 -4.04586 0
M  V30 67510 N 6366.31 -4.45899 -3.42244 0
M  V30 67511 H 6358.46 -2.09563 -0.346002 0
M  V30 67512 H 6360.72 -0.923116 -0.215782 0
M  V30 67513 H 6360.43 -3.24124 -1.36515 0
M  V30 67514 H 6360.3 -2.40731 -2.90393 0
M  V30 67515 H 6362.69 -1.4795 -2.55333 0
M  V30 67516 H 6362.77 -2.3484 -1.01408 0
M  V30 67517 H 6362.42 -4.54737 -2.26223 0
M  V30 67518 H 6362.35 -3.64753 -3.79819 0
M  V30 67519 H 6364.84 -2.89367 -2.43054 0
M  V30 67520 H 6365.15 -6.30027 -4.47532 0
M  V30 67521 H 6363.49 -5.66198 -4.03044 0
M  V30 67522 H 6366.69 -3.63796 -2.94567 0
M  V30 67523 H 6366.86 -5.19126 -3.8783 0
M  V30 67524 N 6360.26 1.10901 -1.11976 0
M  V30 67525 C 6361.23 2.15287 -0.7864 0
M  V30 67526 C 6362.23 1.5959 0.196931 0
M  V30 67527 O 6363.42 1.74177 -0.0282576 0
M  V30 67528 C 6360.55 3.40487 -0.16773 0
M  V30 67529 H 6361.74 2.46289 -1.71119 0
M  V30 67530 H 6359.3 1.26182 -0.922376 0
M  V30 67531 H 6360.03 3.15099 0.767019 0
M  V30 67532 H 6359.82 3.82197 -0.875649 0
M  V30 67533 H 6361.31 4.17571 0.0491835 0
M  V30 67534 N 6361.74 0.910931 1.28607 0
M  V30 67535 C 6362.67 0.414078 2.29799 0
M  V30 67536 C 6363.65 -0.516833 1.62058 0
M  V30 67537 O 6364.84 -0.425169 1.89489 0
M  V30 67538 C 6361.97 -0.349215 3.4554 0
M  V30 67539 C 6360.92 0.4923 4.25159 0
M  V30 67540 C 6360.25 -0.399165 5.33208 0
M  V30 67541 C 6361.55 1.7481 4.92178 0
M  V30 67542 H 6363.24 1.25974 2.71608 0
M  V30 67543 H 6360.79 0.607195 1.30572 0
M  V30 67544 H 6362.74 -0.707624 4.15416 0
M  V30 67545 H 6361.47 -1.22876 3.02604 0
M  V30 67546 H 6360.12 0.83319 3.57006 0
M  V30 67547 H 6359.77 -1.27717 4.86515 0
M  V30 67548 H 6359.47 0.160268 5.87381 0
M  V30 67549 H 6361 -0.753518 6.05933 0
M  V30 67550 H 6362.41 1.45876 5.5443 0
M  V30 67551 H 6360.81 2.24972 5.56334 0
M  V30 67552 H 6361.88 2.47755 4.16828 0
M  V30 67553 N 6363.22 -1.42432 0.674608 0
M  V30 67554 C 6364.64 -1.55846 0.344142 0
M  V30 67555 C 6364.84 -1.65428 -1.15047 0
M  V30 67556 O 6363.89 -1.6211 -1.93589 0
M  V30 67557 C 6365.21 -2.80855 1.07429 0
M  V30 67558 C 6366.75 -2.94627 1.0566 0
M  V30 67559 C 6367.23 -4.22497 1.76806 0
M  V30 67560 N 6368.72 -4.29409 1.73673 0
M  V30 67561 C 6369.45 -5.27164 2.2558 0
M  V30 67562 N 6368.95 -6.31072 2.85867 0
M  V30 67563 N 6370.74 -5.1896 2.15955 0
M  V30 67564 H 6362.89 -1.34456 1.64425 0
M  V30 67565 H 6365.16 -0.647207 0.692696 0
M  V30 67566 H 6364.86 -2.79911 2.12938 0
M  V30 67567 H 6364.74 -3.71741 0.6394 0
M  V30 67568 H 6367.12 -2.95098 0.00984078 0
M  V30 67569 H 6367.21 -2.04972 1.53036 0
M  V30 67570 H 6366.85 -4.22786 2.8145 0
M  V30 67571 H 6366.78 -5.11086 1.26879 0
M  V30 67572 H 6369.27 -3.54946 1.297 0
M  V30 67573 H 6369.58 -7.02018 3.23095 0
M  V30 67574 H 6367.93 -6.31634 2.89937 0
M  V30 67575 H 6371.12 -4.36704 1.68545 0
M  V30 67576 H 6371.29 -5.94981 2.56714 0
M  V30 67577 N 6364.7 -0.417924 -1.51958 0
M  V30 67578 C 6365.95 0.154675 -2.01507 0
M  V30 67579 C 6366.27 1.44894 -1.30502 0
M  V30 67580 O 6365.54 1.91041 -0.433603 0
M  V30 67581 H 6364.12 0.0601497 -0.744574 0
M  V30 67582 H 6366.78 -0.556184 -1.86796 0
M  V30 67583 H 6365.88 0.344507 -3.10193 0
M  V30 67584 N 6366.18 1.56898 -0.148628 0
M  V30 67585 C 6367.11 2.19855 0.786508 0
M  V30 67586 C 6368.09 1.14727 1.25586 0
M  V30 67587 O 6369.27 1.43076 1.31312 0
M  V30 67588 C 6366.4 2.82144 2.02514 0
M  V30 67589 C 6365.36 3.93114 1.69251 0
M  V30 67590 C 6364.68 4.42345 3.00391 0
M  V30 67591 C 6365.98 5.1381 0.937911 0
M  V30 67592 H 6367.68 2.98253 0.261798 0
M  V30 67593 H 6365.22 1.43461 0.12448 0
M  V30 67594 H 6367.18 3.24855 2.68416 0
M  V30 67595 H 6365.9 2.0108 2.57361 0
M  V30 67596 H 6364.56 3.51023 1.05726 0
M  V30 67597 H 6364.21 3.58101 3.53232 0
M  V30 67598 H 6363.91 5.17194 2.78897 0
M  V30 67599 H 6365.43 4.87727 3.67361 0
M  V30 67600 H 6366.84 5.53355 1.49905 0
M  V30 67601 H 6365.24 5.94432 0.822853 0
M  V30 67602 H 6366.31 4.84849 -0.0700529 0
M  V30 67603 N 6367.65 -0.125154 1.57102 0
M  V30 67604 C 6368.88 -0.852311 1.89078 0
M  V30 67605 C 6369.3 -1.72935 0.739939 0
M  V30 67606 O 6368.66 -1.78634 -0.309765 0
M  V30 67607 C 6368.71 -1.66676 3.19768 0
M  V30 67608 O 6367.81 -2.77313 3.0524 0
M  V30 67609 H 6367.16 -0.236081 0.620614 0
M  V30 67610 H 6369.69 -0.109401 2.04307 0
M  V30 67611 H 6369.7 -2.05728 3.52335 0
M  V30 67612 H 6368.37 -1.02289 4.03125 0
M  V30 67613 H 6366.95 -2.41509 2.84127 0
M  V30 67614 N 6369.13 -1.52566 -0.395159 0
M  V30 67615 C 6370.36 -1.70929 -1.16047 0
M  V30 67616 C 6370.77 -0.424618 -1.84374 0
M  V30 67617 O 6370.11 0.610266 -1.73267 0
M  V30 67618 C 6370.18 -2.7989 -2.25615 0
M  V30 67619 C 6369.84 -4.21202 -1.77307 0
M  V30 67620 C 6370.84 -5.04571 -1.25318 0
M  V30 67621 C 6368.52 -4.67497 -1.83717 0
M  V30 67622 C 6370.52 -6.32312 -0.803783 0
M  V30 67623 C 6368.2 -5.95224 -1.38389 0
M  V30 67624 C 6369.2 -6.77461 -0.868061 0
M  V30 67625 O 6368.89 -8.02795 -0.421372 0
M  V30 67626 H 6368.62 -0.575797 -0.354166 0
M  V30 67627 H 6371.17 -1.9997 -0.469146 0
M  V30 67628 H 6369.4 -2.46255 -2.98153 0
M  V30 67629 H 6371.09 -2.86715 -2.87313 0
M  V30 67630 H 6371.86 -4.6999 -1.19728 0
M  V30 67631 H 6367.74 -4.0358 -2.22809 0
M  V30 67632 H 6371.28 -6.9645 -0.400481 0
M  V30 67633 H 6367.18 -6.2931 -1.43663 0
M  V30 67634 H 6367.95 -8.16694 -0.543411 0
M  V30 67635 N 6370.61 0.653238 -1.43424 0
M  V30 67636 C 6372.03 0.968903 -1.26824 0
M  V30 67637 C 6372.23 2.00622 -0.187953 0
M  V30 67638 O 6371.28 2.48749 0.433623 0
M  V30 67639 C 6372.6 1.45319 -2.63255 0
M  V30 67640 C 6374.14 1.56984 -2.70786 0
M  V30 67641 C 6374.62 2.08802 -4.07634 0
M  V30 67642 N 6376.11 2.16105 -4.09699 0
M  V30 67643 C 6376.85 2.57322 -5.12419 0
M  V30 67644 N 6376.34 2.97836 -6.25512 0
M  V30 67645 N 6378.13 2.57262 -4.99773 0
M  V30 67646 H 6370.29 -0.0331678 -2.12374 0
M  V30 67647 H 6372.55 0.0477435 -0.946797 0
M  V30 67648 H 6372.25 0.765398 -3.4327 0
M  V30 67649 H 6372.13 2.42821 -2.88648 0
M  V30 67650 H 6374.52 2.24864 -1.91103 0
M  V30 67651 H 6374.6 0.57914 -2.49158 0
M  V30 67652 H 6374.24 1.41524 -4.87784 0
M  V30 67653 H 6374.17 3.08703 -4.26626 0
M  V30 67654 H 6376.66 1.87569 -3.28065 0
M  V30 67655 H 6376.97 3.28035 -6.99723 0
M  V30 67656 H 6375.32 2.9564 -6.28985 0
M  V30 67657 H 6378.51 2.24987 -4.10485 0
M  V30 67658 H 6378.68 2.89062 -5.79955 0
M  V30 67659 N 6372.09 1.29955 0.891602 0
M  V30 67660 C 6373.31 1.21428 1.68137 0
M  V30 67661 C 6373.74 -0.220567 1.86802 0
M  V30 67662 O 6373.1 -1.15897 1.39419 0
M  V30 67663 C 6373.15 1.94126 3.03887 0
M  V30 67664 O 6372.25 1.26383 3.92557 0
M  V30 67665 H 6371.59 0.420336 0.514017 0
M  V30 67666 H 6374.12 1.71662 1.11325 0
M  V30 67667 H 6374.13 2.02893 3.53975 0
M  V30 67668 H 6372.81 2.98484 2.8962 0
M  V30 67669 H 6371.38 1.25927 3.50994 0
M  V30 67670 N 6373.57 -1.10306 1.12563 0
M  V30 67671 C 6374.5 -2.18735 0.81715 0
M  V30 67672 C 6375.48 -1.68676 -0.219622 0
M  V30 67673 O 6376.66 -1.94033 -0.0805207 0
M  V30 67674 C 6373.79 -3.4623 0.272438 0
M  V30 67675 C 6372.75 -4.0957 1.24242 0
M  V30 67676 C 6372.07 -5.31782 0.55788 0
M  V30 67677 C 6373.37 -4.53126 2.59759 0
M  V30 67678 H 6375.07 -2.44796 1.72381 0
M  V30 67679 H 6372.61 -1.17655 0.830262 0
M  V30 67680 H 6374.57 -4.21377 0.044353 0
M  V30 67681 H 6373.29 -3.19663 -0.669565 0
M  V30 67682 H 6371.95 -3.36432 1.45634 0
M  V30 67683 H 6371.6 -5.01491 -0.389308 0
M  V30 67684 H 6371.3 -5.75113 1.20493 0
M  V30 67685 H 6372.82 -6.09659 0.338864 0
M  V30 67686 H 6374.24 -5.19539 2.42387 0
M  V30 67687 H 6372.63 -5.07311 3.20555 0
M  V30 67688 H 6373.7 -3.65978 3.18101 0
M  V30 67689 N 6375.05 -0.917739 -1.28122 0
M  V30 67690 C 6376.46 -0.616483 -1.47213 0
M  V30 67691 C 6376.66 0.837097 -1.83289 0
M  V30 67692 O 6375.72 1.61584 -1.94028 0
M  V30 67693 C 6377.03 -1.55781 -2.57202 0
M  V30 67694 C 6378.58 -1.56495 -2.71069 0
M  V30 67695 C 6379.05 -2.493 -3.84205 0
M  V30 67696 N 6380.54 -2.47449 -3.91565 0
M  V30 67697 C 6381.28 -3.15953 -4.78499 0
M  V30 67698 N 6380.78 -3.938 -5.69994 0
M  V30 67699 N 6382.57 -3.0502 -4.72143 0
M  V30 67700 H 6374.72 -1.85762 -1.02986 0
M  V30 67701 H 6376.98 -0.796987 -0.513337 0
M  V30 67702 H 6376.69 -2.59431 -2.37462 0
M  V30 67703 H 6376.56 -1.29193 -3.54385 0
M  V30 67704 H 6378.95 -0.53581 -2.90195 0
M  V30 67705 H 6379.03 -1.87129 -1.74403 0
M  V30 67706 H 6378.67 -3.52319 -3.65833 0
M  V30 67707 H 6378.6 -2.15967 -4.80277 0
M  V30 67708 H 6381.1 -1.90905 -3.26135 0
M  V30 67709 H 6381.41 -4.4308 -6.33166 0
M  V30 67710 H 6379.75 -3.97905 -5.69822 0
M  V30 67711 H 6382.94 -2.43704 -3.99657 0
M  V30 67712 H 6383.12 -3.58679 -5.39679 0
M  V30 67713 N 6376.52 1.42072 -0.682152 0
M  V30 67714 C 6377.94 1.55661 -0.352402 0
M  V30 67715 C 6378.14 1.66036 1.14168 0
M  V30 67716 O 6377.2 1.63135 1.92726 0
M  V30 67717 C 6378.51 2.80281 -1.08917 0
M  V30 67718 C 6380.06 2.94062 -1.07221 0
M  V30 67719 C 6380.53 4.21553 -1.79044 0
M  V30 67720 N 6382.02 4.28482 -1.75948 0
M  V30 67721 C 6382.76 5.2596 -2.28372 0
M  V30 67722 N 6382.25 6.29547 -2.8921 0
M  V30 67723 N 6384.05 5.17808 -2.18705 0
M  V30 67724 H 6376.2 1.33582 -1.65135 0
M  V30 67725 H 6378.46 0.643524 -0.696118 0
M  V30 67726 H 6378.17 2.78778 -2.14419 0
M  V30 67727 H 6378.04 3.71397 -0.659106 0
M  V30 67728 H 6380.43 2.95089 -0.0254904 0
M  V30 67729 H 6380.51 2.04158 -1.54121 0
M  V30 67730 H 6380.15 4.21288 -2.83688 0
M  V30 67731 H 6380.08 5.10406 -1.29588 0
M  V30 67732 H 6382.57 3.54253 -1.3158 0
M  V30 67733 H 6382.89 7.00295 -3.26813 0
M  V30 67734 H 6381.23 6.30088 -2.93282 0
M  V30 67735 H 6384.42 4.35804 -1.70859 0
M  V30 67736 H 6384.6 5.93611 -2.59866 0
M  V30 67737 N 6378 0.425977 1.51734 0
M  V30 67738 C 6379.42 0.0776854 1.59411 0
M  V30 67739 C 6379.62 -1.41181 1.43772 0
M  V30 67740 O 6378.67 -2.18051 1.27318 0
M  V30 67741 C 6379.99 0.587653 2.94902 0
M  V30 67742 C 6381.53 0.547098 3.08181 0
M  V30 67743 C 6382.01 1.03385 4.46179 0
M  V30 67744 N 6383.5 0.991367 4.52467 0
M  V30 67745 C 6384.24 1.33899 5.57547 0
M  V30 67746 N 6383.73 1.75891 6.701 0
M  V30 67747 N 6385.52 1.25789 5.47845 0
M  V30 67748 H 6377.68 1.39525 1.60146 0
M  V30 67749 H 6379.94 0.574241 0.754289 0
M  V30 67750 H 6379.64 1.62936 3.1168 0
M  V30 67751 H 6379.52 0.006391 3.77199 0
M  V30 67752 H 6381.91 -0.485598 2.91077 0
M  V30 67753 H 6381.99 1.16462 2.2775 0
M  V30 67754 H 6381.63 2.06496 4.64028 0
M  V30 67755 H 6381.56 0.392975 5.25132 0
M  V30 67756 H 6384.05 0.682851 3.71679 0
M  V30 67757 H 6384.36 2.00683 7.46288 0
M  V30 67758 H 6382.71 1.79809 6.71337 0
M  V30 67759 H 6385.9 0.928569 4.58798 0
M  V30 67760 H 6386.07 1.53209 6.29628 0
M  V30 67761 N 6379.48 -1.56817 0.156946 0
M  V30 67762 C 6380.73 -1.96732 -0.492395 0
M  V30 67763 C 6381.06 -1.04231 -1.63858 0
M  V30 67764 O 6380.33 -0.0866152 -1.94307 0
M  V30 67765 C 6380.62 -3.4625 -0.989097 0
M  V30 67766 C 6380.47 -4.49528 0.156277 0
M  V30 67767 C 6381.79 -3.98509 -1.86759 0
M  V30 67768 H 6378.91 -0.715303 -0.177512 0
M  V30 67769 H 6381.55 -1.88476 0.240182 0
M  V30 67770 H 6379.7 -3.53416 -1.61336 0
M  V30 67771 H 6381.37 -4.54434 0.792941 0
M  V30 67772 H 6379.61 -4.26095 0.813947 0
M  V30 67773 H 6380.29 -5.51507 -0.233147 0
M  V30 67774 H 6382.76 -3.93884 -1.34145 0
M  V30 67775 H 6381.64 -5.03572 -2.18419 0
M  V30 67776 H 6381.9 -3.4146 -2.80816 0
M  V30 67777 N 6380.96 0.116821 -1.57166 0
M  V30 67778 C 6382.37 0.47042 -1.5251 0
M  V30 67779 C 6382.57 1.81737 -0.870288 0
M  V30 67780 O 6381.63 2.48393 -0.453548 0
M  V30 67781 C 6382.94 0.452907 -2.9727 0
M  V30 67782 C 6384.49 0.536305 -3.08371 0
M  V30 67783 C 6384.97 0.54916 -4.54696 0
M  V30 67784 N 6386.46 0.610536 -4.59159 0
M  V30 67785 C 6387.19 0.641966 -5.69795 0
M  V30 67786 N 6386.69 0.63091 -6.89921 0
M  V30 67787 N 6388.48 0.685139 -5.57909 0
M  V30 67788 H 6380.63 -0.765708 -1.98118 0
M  V30 67789 H 6382.89 -0.282694 -0.904869 0
M  V30 67790 H 6382.6 -0.469196 -3.48556 0
M  V30 67791 H 6382.47 1.27991 -3.54821 0
M  V30 67792 H 6384.86 1.44883 -2.57086 0
M  V30 67793 H 6384.94 -0.318428 -2.5381 0
M  V30 67794 H 6384.59 -0.359328 -5.06627 0
M  V30 67795 H 6384.52 1.42081 -5.07071 0
M  V30 67796 H 6387.01 0.625156 -3.72693 0
M  V30 67797 H 6387.32 0.657576 -7.69997 0
M  V30 67798 H 6385.67 0.5983 -6.9242 0
M  V30 67799 H 6388.86 0.691155 -4.62969 0
M  V30 67800 H 6389.03 0.706166 -6.44141 0
M  V30 67801 N 6382.44 1.52773 0.387063 0
M  V30 67802 C 6383.85 1.42067 0.727266 0
M  V30 67803 C 6384.05 0.542627 1.94056 0
M  V30 67804 O 6383.11 0.0168155 2.52494 0
M  V30 67805 C 6384.42 2.84945 0.960551 0
M  V30 67806 C 6385.97 2.94436 1.0619 0
M  V30 67807 C 6386.44 4.3833 1.3278 0
M  V30 67808 N 6387.93 4.41664 1.39598 0
M  V30 67809 C 6388.67 5.50086 1.61841 0
M  V30 67810 N 6388.17 6.68591 1.81542 0
M  V30 67811 N 6389.96 5.37632 1.64036 0
M  V30 67812 H 6382.11 2.0838 -0.411275 0
M  V30 67813 H 6384.37 0.94014 -0.121825 0
M  V30 67814 H 6384.08 3.51417 0.141123 0
M  V30 67815 H 6383.95 3.27316 1.87468 0
M  V30 67816 H 6386.34 2.28132 1.8719 0
M  V30 67817 H 6386.42 2.55491 0.125641 0
M  V30 67818 H 6386.06 5.05201 0.522903 0
M  V30 67819 H 6385.99 4.74829 2.27694 0
M  V30 67820 H 6388.49 3.5625 1.26073 0
M  V30 67821 H 6388.8 7.46997 1.98027 0
M  V30 67822 H 6387.14 6.71617 1.78763 0
M  V30 67823 H 6390.33 4.44021 1.48198 0
M  V30 67824 H 6390.51 6.22199 1.81031 0
M  V30 67825 N 6383.91 -0.645623 1.43769 0
M  V30 67826 C 6384.84 -1.76968 1.5233 0
M  V30 67827 C 6385.82 -1.65861 0.377375 0
M  V30 67828 O 6387.01 -1.84841 0.595597 0
M  V30 67829 C 6384.14 -3.15435 1.45321 0
M  V30 67830 C 6383.09 -3.41315 2.58241 0
M  V30 67831 C 6382.42 -4.7966 2.36284 0
M  V30 67832 C 6383.72 -3.35307 4.00458 0
M  V30 67833 H 6385.41 -1.70061 2.46414 0
M  V30 67834 H 6382.96 -0.816742 1.18597 0
M  V30 67835 H 6384.91 -3.93833 1.49913 0
M  V30 67836 H 6383.64 -3.23091 0.477457 0
M  V30 67837 H 6382.3 -2.65291 2.53014 0
M  V30 67838 H 6381.94 -4.84002 1.36935 0
M  V30 67839 H 6381.64 -4.97936 3.11984 0
M  V30 67840 H 6383.17 -5.60306 2.42672 0
M  V30 67841 H 6384.58 -4.0363 4.07131 0
M  V30 67842 H 6382.98 -3.65119 4.76244 0
M  V30 67843 H 6384.05 -2.33358 4.25055 0
M  V30 67844 N 6385.39 -1.30426 -0.884698 0
M  V30 67845 C 6386.81 -1.08763 -1.16802 0
M  V30 67846 C 6387.01 0.151441 -2.0093 0
M  V30 67847 O 6386.06 0.844977 -2.37942 0
M  V30 67848 C 6387.38 -2.35129 -1.87442 0
M  V30 67849 C 6388.93 -2.40596 -2.00206 0
M  V30 67850 C 6389.4 -3.66805 -2.74259 0
M  V30 67851 N 6390.89 -3.67615 -2.81804 0
M  V30 67852 C 6391.63 -4.6196 -3.39677 0
M  V30 67853 N 6391.12 -5.66649 -3.98598 0
M  V30 67854 N 6392.92 -4.49504 -3.37495 0
M  V30 67855 H 6385.07 -2.09918 -0.323756 0
M  V30 67856 H 6387.33 -0.925352 -0.205979 0
M  V30 67857 H 6387.04 -3.25554 -1.33069 0
M  V30 67858 H 6386.91 -2.43798 -2.87824 0
M  V30 67859 H 6389.3 -1.5065 -2.53749 0
M  V30 67860 H 6389.38 -2.35903 -0.989116 0
M  V30 67861 H 6389.02 -4.57111 -2.21387 0
M  V30 67862 H 6388.95 -3.68761 -3.75929 0
M  V30 67863 H 6391.44 -2.91929 -2.39971 0
M  V30 67864 H 6391.76 -6.34739 -4.40825 0
M  V30 67865 H 6390.1 -5.70441 -3.97016 0
M  V30 67866 H 6393.29 -3.669 -2.90692 0
M  V30 67867 H 6393.46 -5.23211 -3.82302 0
M  V30 67868 N 6386.87 1.09707 -1.13146 0
M  V30 67869 C 6388.29 1.33863 -0.86907 0
M  V30 67870 C 6388.49 1.95277 0.496901 0
M  V30 67871 O 6387.54 2.19728 1.24403 0
M  V30 67872 C 6388.86 2.25307 -1.99141 0
M  V30 67873 C 6390.4 2.38824 -2.02316 0
M  V30 67874 C 6390.88 3.33602 -3.13805 0
M  V30 67875 N 6392.37 3.41174 -3.13296 0
M  V30 67876 C 6393.1 4.14502 -3.96202 0
M  V30 67877 N 6392.6 4.90652 -4.89114 0
M  V30 67878 N 6394.39 4.10197 -3.84311 0
M  V30 67879 H 6386.54 0.682171 -2.01147 0
M  V30 67880 H 6388.81 0.363019 -0.87574 0
M  V30 67881 H 6388.51 1.87404 -2.97611 0
M  V30 67882 H 6388.39 3.25674 -1.90306 0
M  V30 67883 H 6390.77 2.75993 -1.04461 0
M  V30 67884 H 6390.86 1.38246 -2.15225 0
M  V30 67885 H 6390.5 2.97158 -4.11898 0
M  V30 67886 H 6390.43 4.34077 -2.98135 0
M  V30 67887 H 6392.92 2.86873 -2.45992 0
M  V30 67888 H 6393.23 5.44026 -5.48868 0
M  V30 67889 H 6391.58 4.8975 -4.93122 0
M  V30 67890 H 6394.77 3.49804 -3.11054 0
M  V30 67891 H 6394.94 4.67084 -4.49151 0
M  V30 67892 N 6388.35 0.924521 1.27634 0
M  V30 67893 C 6389.28 0.438428 2.29347 0
M  V30 67894 C 6390.26 -0.499616 1.62597 0
M  V30 67895 O 6391.44 -0.405048 1.89929 0
M  V30 67896 C 6388.57 -0.312546 3.45891 0
M  V30 67897 C 6387.53 0.537366 4.24613 0
M  V30 67898 C 6386.85 -0.342588 5.33601 0
M  V30 67899 C 6388.15 1.8002 4.90296 0
M  V30 67900 H 6389.85 1.28848 2.70256 0
M  V30 67901 H 6387.39 0.621009 1.29921 0
M  V30 67902 H 6389.35 -0.663524 4.16143 0
M  V30 67903 H 6388.07 -1.1966 3.0389 0
M  V30 67904 H 6386.73 0.871008 3.56103 0
M  V30 67905 H 6386.38 -1.2255 4.87843 0
M  V30 67906 H 6386.08 0.222559 5.87178 0
M  V30 67907 H 6387.6 -0.689209 6.06698 0
M  V30 67908 H 6389.02 1.51748 5.52852 0
M  V30 67909 H 6387.41 2.3086 5.53917 0
M  V30 67910 H 6388.48 2.52162 4.14177 0
M  V30 67911 N 6389.83 -1.41708 0.689677 0
M  V30 67912 C 6391.05 -2.05651 0.227011 0
M  V30 67913 C 6391.47 -1.51879 -1.12153 0
M  V30 67914 O 6390.83 -0.664604 -1.69968 0
M  V30 67915 C 6390.88 -3.61102 0.16963 0
M  V30 67916 O 6390.6 -4.12883 1.46489 0
M  V30 67917 C 6392.1 -4.42181 -0.314738 0
M  V30 67918 H 6389.32 -0.662436 0.106864 0
M  V30 67919 H 6391.86 -1.81584 0.940602 0
M  V30 67920 H 6390.02 -3.84228 -0.494745 0
M  V30 67921 H 6390.43 -5.06879 1.34809 0
M  V30 67922 H 6391.91 -5.51164 -0.303771 0
M  V30 67923 H 6392.38 -4.17853 -1.3526 0
M  V30 67924 H 6392.99 -4.24106 0.318427 0
M  V30 67925 N 6391.3 -0.434018 -1.51506 0
M  V30 67926 C 6392.27 0.367425 -2.26236 0
M  V30 67927 C 6393.27 0.952538 -1.29551 0
M  V30 67928 O 6394.46 0.827509 -1.5329 0
M  V30 67929 C 6391.59 1.51953 -3.05161 0
M  V30 67930 H 6392.78 -0.287455 -2.98519 0
M  V30 67931 H 6390.34 -0.187106 -1.55176 0
M  V30 67932 H 6391.07 2.21056 -2.37286 0
M  V30 67933 H 6390.86 1.10619 -3.76173 0
M  V30 67934 H 6392.35 2.08584 -3.61777 0
M  V30 67935 N 6392.78 1.56731 -0.165261 0
M  V30 67936 C 6394.2 1.58453 0.190975 0
M  V30 67937 C 6394.4 1.18036 1.63309 0
M  V30 67938 O 6393.45 0.889139 2.36327 0
M  V30 67939 C 6394.77 3.00582 -0.0843471 0
M  V30 67940 C 6396.32 3.12992 -0.0220786 0
M  V30 67941 C 6396.79 4.57202 -0.27031 0
M  V30 67942 N 6398.28 4.62687 -0.217873 0
M  V30 67943 C 6399.02 5.72111 -0.384199 0
M  V30 67944 N 6398.51 6.90116 -0.60925 0
M  V30 67945 N 6400.31 5.61185 -0.320526 0
M  V30 67946 H 6392.46 1.81292 -1.10666 0
M  V30 67947 H 6394.72 0.83997 -0.439493 0
M  V30 67948 H 6394.43 3.34607 -1.08311 0
M  V30 67949 H 6394.3 3.71956 0.6268 0
M  V30 67950 H 6396.69 2.78798 0.96726 0
M  V30 67951 H 6396.77 2.44067 -0.765841 0
M  V30 67952 H 6396.41 4.92104 -1.25683 0
M  V30 67953 H 6396.34 5.24278 0.493993 0
M  V30 67954 H 6398.83 3.77868 -0.0493294 0
M  V30 67955 H 6399.15 7.69384 -0.725778 0
M  V30 67956 H 6397.49 6.91993 -0.645792 0
M  V30 67957 H 6400.68 4.67874 -0.14534 0
M  V30 67958 H 6400.85 6.46411 -0.453578 0
M  V30 67959 N 6394.26 -0.108484 1.57226 0
M  V30 67960 C 6395.17 -1.15118 2.04414 0
M  V30 67961 C 6396.19 -1.44689 0.966487 0
M  V30 67962 O 6397.36 -1.55597 1.27873 0
M  V30 67963 C 6394.43 -2.45519 2.44788 0
M  V30 67964 C 6393.49 -2.2325 3.66685 0
M  V30 67965 C 6392.72 -3.47434 4.05124 0
M  V30 67966 O 6392.94 -4.55152 3.43792 0
M  V30 67967 O 6391.88 -3.37814 4.98162 0
M  V30 67968 H 6395.7 -0.78043 2.93501 0
M  V30 67969 H 6393.29 -0.32004 1.45932 0
M  V30 67970 H 6395.17 -3.2233 2.71443 0
M  V30 67971 H 6393.85 -2.82047 1.58843 0
M  V30 67972 H 6392.75 -1.44264 3.45165 0
M  V30 67973 H 6394.09 -1.91622 4.53367 0
M  V30 67974 N 6395.74 -1.52976 -0.378955 0
M  V30 67975 C 6396.7 -1.77811 -1.44624 0
M  V30 67976 C 6397.7 -0.648275 -1.47153 0
M  V30 67977 O 6398.89 -0.916399 -1.48148 0
M  V30 67978 C 6396.02 -1.88802 -2.83842 0
M  V30 67979 H 6397.22 -2.73117 -1.23883 0
M  V30 67980 H 6394.77 -1.4385 -0.611299 0
M  V30 67981 H 6395.5 -0.955158 -3.09915 0
M  V30 67982 H 6395.29 -2.70967 -2.83407 0
M  V30 67983 H 6396.78 -2.09654 -3.61158 0
M  V30 67984 N 6397.22 0.637989 -1.44109 0
M  V30 67985 C 6398.18 1.73215 -1.50098 0
M  V30 67986 C 6399.18 1.56152 -0.383818 0
M  V30 67987 O 6400.37 1.61772 -0.646175 0
M  V30 67988 C 6397.5 3.12235 -1.36829 0
M  V30 67989 H 6398.69 1.69281 -2.47556 0
M  V30 67990 H 6396.25 0.851033 -1.311 0
M  V30 67991 H 6396.98 3.21769 -0.404382 0
M  V30 67992 H 6396.77 3.26026 -2.1783 0
M  V30 67993 H 6398.26 3.91992 -1.43986 0
M  V30 67994 N 6398.69 1.30893 0.877769 0
M  V30 67995 C 6399.92 1.23074 1.66314 0
M  V30 67996 C 6400.34 -0.205243 1.87681 0
M  V30 67997 O 6399.69 -1.13462 1.42943 0
M  V30 67998 C 6399.75 1.96316 3.0355 0
M  V30 67999 O 6399.47 3.34308 2.83142 0
M  V30 68000 C 6400.97 1.95242 3.97989 0
M  V30 68001 H 6398.19 0.425601 0.518753 0
M  V30 68002 H 6400.73 1.72639 1.09617 0
M  V30 68003 H 6398.89 1.50531 3.56958 0
M  V30 68004 H 6399.3 3.71499 3.70255 0
M  V30 68005 H 6400.77 2.51014 4.91626 0
M  V30 68006 H 6401.25 0.933055 4.29174 0
M  V30 68007 H 6401.86 2.4087 3.50516 0
M  V30 68008 N 6400.17 -1.09106 1.13726 0
M  V30 68009 C 6401.14 -2.14008 0.820551 0
M  V30 68010 C 6402.14 -1.59883 -0.171517 0
M  V30 68011 O 6403.33 -1.7411 0.0559641 0
M  V30 68012 C 6400.46 -3.40177 0.221878 0
M  V30 68013 H 6401.65 -2.43535 1.75016 0
M  V30 68014 H 6399.2 -1.24699 0.942334 0
M  V30 68015 H 6399.94 -3.16279 -0.716793 0
M  V30 68016 H 6399.72 -3.80756 0.936342 0
M  V30 68017 H 6401.21 -4.17596 0.0172547 0
M  V30 68018 N 6401.65 -0.931276 -1.27142 0
M  V30 68019 C 6402.9 -0.574445 -1.94494 0
M  V30 68020 C 6403.23 0.882641 -1.72983 0
M  V30 68021 O 6402.51 1.63013 -1.061 0
M  V30 68022 C 6402.79 -0.905507 -3.48529 0
M  V30 68023 C 6402.64 -2.41661 -3.79368 0
M  V30 68024 C 6403.96 -0.41391 -4.38149 0
M  V30 68025 H 6401.08 -0.210173 -0.706397 0
M  V30 68026 H 6403.72 -1.1637 -1.50193 0
M  V30 68027 H 6401.87 -0.404039 -3.86393 0
M  V30 68028 H 6403.54 -2.99004 -3.51275 0
M  V30 68029 H 6401.79 -2.86428 -3.25793 0
M  V30 68030 H 6402.46 -2.59877 -4.86999 0
M  V30 68031 H 6404.93 -0.843736 -4.07456 0
M  V30 68032 H 6403.81 -0.674471 -5.4474 0
M  V30 68033 H 6404.07 0.68606 -4.36744 0
M  V30 68034 N 6403.13 1.4134 -0.697182 0
M  V30 68035 C 6404.09 2.29162 -0.0418142 0
M  V30 68036 C 6405.09 1.44458 0.706302 0
M  V30 68037 O 6406.28 1.65588 0.540951 0
M  V30 68038 C 6403.41 3.27363 0.95112 0
M  V30 68039 H 6404.61 2.88611 -0.815075 0
M  V30 68040 H 6402.16 1.49354 -0.46077 0
M  V30 68041 H 6402.9 2.72896 1.75209 0
M  V30 68042 H 6402.68 3.89868 0.417794 0
M  V30 68043 H 6404.17 3.93169 1.40742 0
M  V30 68044 N 6404.61 0.442047 1.51274 0
M  V30 68045 C 6405.57 -0.355422 2.26427 0
M  V30 68046 C 6406.57 -0.945654 1.30054 0
M  V30 68047 O 6407.76 -0.819368 1.53727 0
M  V30 68048 C 6404.89 -1.50333 3.05962 0
M  V30 68049 H 6406.09 0.303282 2.98363 0
M  V30 68050 H 6403.64 0.195333 1.55075 0
M  V30 68051 H 6404.37 -2.19795 2.38455 0
M  V30 68052 H 6404.16 -1.08622 3.76754 0
M  V30 68053 H 6405.65 -2.06663 3.62878 0
M  V30 68054 N 6406.09 -1.56641 0.17357 0
M  V30 68055 C 6407.02 -2.21079 -0.751431 0
M  V30 68056 C 6408 -1.1671 -1.23744 0
M  V30 68057 O 6409.18 -1.45147 -1.2902 0
M  V30 68058 C 6406.31 -2.8533 -1.98 0
M  V30 68059 C 6405.27 -3.95756 -1.62975 0
M  V30 68060 C 6404.59 -4.47068 -2.93316 0
M  V30 68061 C 6405.89 -5.15237 -0.85605 0
M  V30 68062 H 6407.59 -2.98632 -0.214315 0
M  V30 68063 H 6405.13 -1.43641 -0.101641 0
M  V30 68064 H 6407.08 -3.29084 -2.63214 0
M  V30 68065 H 6405.81 -2.05149 -2.54129 0
M  V30 68066 H 6404.47 -3.52661 -1.00129 0
M  V30 68067 H 6404.12 -3.63675 -3.4749 0
M  V30 68068 H 6403.82 -5.21566 -2.70634 0
M  V30 68069 H 6405.34 -4.9351 -3.59556 0
M  V30 68070 H 6406.75 -5.55669 -1.41083 0
M  V30 68071 H 6405.15 -5.95666 -0.72818 0
M  V30 68072 H 6406.22 -4.84677 0.147179 0
M  V30 68073 N 6407.56 0.100145 -1.57281 0
M  V30 68074 C 6408.49 1.12271 -2.04738 0
M  V30 68075 C 6409.47 1.42076 -0.935331 0
M  V30 68076 O 6410.66 1.52193 -1.20627 0
M  V30 68077 C 6407.79 2.44394 -2.46757 0
M  V30 68078 C 6406.74 2.29008 -3.61579 0
M  V30 68079 C 6406.07 3.66263 -3.89558 0
M  V30 68080 C 6407.37 1.73484 -4.92646 0
M  V30 68081 H 6409.06 0.727917 -2.90416 0
M  V30 68082 H 6406.61 0.348703 -1.39714 0
M  V30 68083 H 6408.56 3.16196 -2.78564 0
M  V30 68084 H 6407.29 2.85799 -1.58071 0
M  V30 68085 H 6405.95 1.59652 -3.3001 0
M  V30 68086 H 6405.59 4.05187 -2.98048 0
M  V30 68087 H 6405.29 3.56816 -4.66858 0
M  V30 68088 H 6406.82 4.39541 -4.23835 0
M  V30 68089 H 6408.23 2.35122 -5.22867 0
M  V30 68090 H 6406.63 1.7481 -5.74075 0
M  V30 68091 H 6407.7 0.693861 -4.7991 0
M  V30 68092 N 6409.04 1.53175 0.370837 0
M  V30 68093 C 6410.29 1.703 1.11218 0
M  V30 68094 C 6410.64 0.446617 1.87145 0
M  V30 68095 O 6409.94 -0.560235 1.83226 0
M  V30 68096 C 6410.13 2.88888 2.10425 0
M  V30 68097 C 6409.96 4.25938 1.44245 0
M  V30 68098 C 6408.73 4.90873 1.19881 0
M  V30 68099 C 6410.93 5.06664 0.882927 0
M  V30 68100 N 6408.91 6.11861 0.499959 0
M  V30 68101 C 6410.28 6.19209 0.313154 0
M  V30 68102 C 6412.33 4.91735 0.781103 0
M  V30 68103 C 6411.04 7.18455 -0.348507 0
M  V30 68104 C 6413.06 5.9125 0.133232 0
M  V30 68105 C 6412.43 7.03113 -0.42569 0
M  V30 68106 H 6408.52 0.676475 0.392307 0
M  V30 68107 H 6411.11 1.90562 0.399262 0
M  V30 68108 H 6409.28 2.70174 2.79035 0
M  V30 68109 H 6411.01 2.94862 2.77198 0
M  V30 68110 H 6407.77 4.49924 1.47868 0
M  V30 68111 H 6408.19 6.76796 0.166053 0
M  V30 68112 H 6412.83 4.05443 1.199 0
M  V30 68113 H 6410.55 8.04343 -0.778364 0
M  V30 68114 H 6414.14 5.81774 0.0554456 0
M  V30 68115 H 6413.02 7.78796 -0.919081 0
M  V30 68116 N 6410.52 -0.630338 1.44445 0
M  V30 68117 C 6411.48 -1.72416 1.51014 0
M  V30 68118 C 6412.48 -1.55946 0.392093 0
M  V30 68119 O 6413.67 -1.61427 0.654745 0
M  V30 68120 C 6410.8 -3.11505 1.38483 0
M  V30 68121 H 6412 -1.67966 2.4845 0
M  V30 68122 H 6409.55 -0.844068 1.31549 0
M  V30 68123 H 6410.29 -3.2155 0.421441 0
M  V30 68124 H 6410.07 -3.24866 2.19555 0
M  V30 68125 H 6411.56 -3.91223 1.46063 0
M  V30 68126 N 6412 -1.31357 -0.870815 0
M  V30 68127 C 6412.96 -1.18896 -1.9595 0
M  V30 68128 C 6413.96 -0.116284 -1.60379 0
M  V30 68129 O 6415.15 -0.365486 -1.70323 0
M  V30 68130 C 6412.28 -0.82482 -3.30771 0
M  V30 68131 H 6413.48 -2.15632 -2.0843 0
M  V30 68132 H 6411.03 -1.14956 -1.059 0
M  V30 68133 H 6411.76 0.141419 -3.23992 0
M  V30 68134 H 6411.55 -1.60018 -3.57962 0
M  V30 68135 H 6413.04 -0.761505 -4.10598 0
M  V30 68136 N 6413.48 1.08501 -1.14303 0
M  V30 68137 C 6414.72 1.81136 -0.912002 0
M  V30 68138 C 6415.05 1.85948 0.56009 0
M  V30 68139 O 6414.33 1.33463 1.41485 0
M  V30 68140 C 6414.61 3.26801 -1.51239 0
M  V30 68141 C 6414.47 3.30205 -3.05426 0
M  V30 68142 C 6415.78 4.2375 -1.18845 0
M  V30 68143 H 6412.9 0.657607 -0.332749 0
M  V30 68144 H 6415.55 1.27039 -1.41284 0
M  V30 68145 H 6413.7 3.72999 -1.08646 0
M  V30 68146 H 6415.37 2.92338 -3.56842 0
M  V30 68147 H 6413.61 2.69507 -3.39925 0
M  V30 68148 H 6414.28 4.32863 -3.4254 0
M  V30 68149 H 6416.76 3.85885 -1.55666 0
M  V30 68150 H 6415.63 5.23988 -1.63488 0
M  V30 68151 H 6415.89 4.41979 -0.103597 0
M  V30 68152 N 6414.95 0.938006 1.26646 0
M  V30 68153 C 6416.18 0.600534 1.97993 0
M  V30 68154 C 6416.6 -0.823779 1.6988 0
M  V30 68155 O 6415.95 -1.54886 0.965218 0
M  V30 68156 C 6416.01 0.829388 3.51857 0
M  V30 68157 O 6415.73 2.19768 3.7899 0
M  V30 68158 C 6417.23 0.502028 4.40448 0
M  V30 68159 H 6414.45 0.226609 0.631577 0
M  V30 68160 H 6416.99 1.25785 1.61241 0
M  V30 68161 H 6415.15 0.218732 3.86782 0
M  V30 68162 H 6415.56 2.25534 4.73534 0
M  V30 68163 H 6417.03 0.712797 5.47378 0
M  V30 68164 H 6417.51 -0.562857 4.35578 0
M  V30 68165 H 6418.12 1.09127 4.11061 0
M  V30 68166 N 6416.43 -1.40969 0.704668 0
M  V30 68167 C 6417.85 -1.5508 0.377122 0
M  V30 68168 C 6418.05 -1.67831 -1.11512 0
M  V30 68169 O 6417.1 -1.6618 -1.90106 0
M  V30 68170 C 6418.42 -2.78513 1.13362 0
M  V30 68171 C 6419.97 -2.92319 1.11885 0
M  V30 68172 C 6420.44 -4.18651 1.85728 0
M  V30 68173 N 6421.93 -4.25628 1.82743 0
M  V30 68174 C 6422.67 -5.2226 2.36711 0
M  V30 68175 N 6422.16 -6.24866 2.99189 0
M  V30 68176 N 6423.96 -5.14263 2.26915 0
M  V30 68177 H 6416.11 -1.30938 1.6724 0
M  V30 68178 H 6418.37 -0.632368 0.706268 0
M  V30 68179 H 6418.08 -2.75332 2.18827 0
M  V30 68180 H 6417.95 -3.70301 0.718108 0
M  V30 68181 H 6420.34 -2.95011 0.0724333 0
M  V30 68182 H 6420.42 -2.0168 1.5735 0
M  V30 68183 H 6420.06 -4.16721 2.90355 0
M  V30 68184 H 6419.99 -5.0828 1.37692 0
M  V30 68185 H 6422.48 -3.52115 1.372 0
M  V30 68186 H 6422.8 -6.95007 3.37913 0
M  V30 68187 H 6421.14 -6.25342 3.03269 0
M  V30 68188 H 6424.33 -4.3303 1.7777 0
M  V30 68189 H 6424.5 -5.89401 2.69277 0
M  V30 68190 N 6417.91 -0.450063 -1.51037 0
M  V30 68191 C 6418.87 0.343409 -2.26613 0
M  V30 68192 C 6419.87 0.938743 -1.30554 0
M  V30 68193 O 6421.06 0.811204 -1.54159 0
M  V30 68194 C 6418.2 1.48708 -3.06755 0
M  V30 68195 H 6419.39 -0.319101 -2.98198 0
M  V30 68196 H 6416.94 -0.203554 -1.54969 0
M  V30 68197 H 6417.68 2.18527 -2.39617 0
M  V30 68198 H 6417.46 1.06623 -3.77325 0
M  V30 68199 H 6418.95 2.04735 -3.63969 0
M  V30 68200 N 6419.39 1.56547 -0.181875 0
M  V30 68201 C 6420.64 1.96808 0.459443 0
M  V30 68202 C 6420.96 1.06939 1.63061 0
M  V30 68203 O 6420.23 0.137911 1.95414 0
M  V30 68204 H 6418.81 0.726756 0.172727 0
M  V30 68205 H 6421.47 1.93083 -0.265523 0
M  V30 68206 H 6420.57 3.01341 0.812416 0
M  V30 68207 N 6420.87 -0.0918024 1.57332 0
M  V30 68208 C 6421.83 -1.09539 2.0133 0
M  V30 68209 C 6422.83 -1.32758 0.907299 0
M  V30 68210 O 6424.02 -1.28816 1.1727 0
M  V30 68211 C 6421.15 -2.44376 2.37683 0
M  V30 68212 H 6422.34 -0.716608 2.91213 0
M  V30 68213 H 6419.9 -0.336948 1.52625 0
M  V30 68214 H 6420.63 -2.87125 1.50765 0
M  V30 68215 H 6420.42 -2.2887 3.18372 0
M  V30 68216 H 6421.91 -3.16552 2.72368 0
M  V30 68217 N 6422.34 -1.53369 -0.362709 0
M  V30 68218 C 6423.31 -1.79335 -1.4273 0
M  V30 68219 C 6424.31 -0.663846 -1.46457 0
M  V30 68220 O 6425.5 -0.932061 -1.47167 0
M  V30 68221 C 6422.63 -1.91802 -2.81824 0
M  V30 68222 H 6423.82 -2.74416 -1.20979 0
M  V30 68223 H 6421.38 -1.4449 -0.596008 0
M  V30 68224 H 6422.11 -0.987975 -3.08884 0
M  V30 68225 H 6421.9 -2.73958 -2.80517 0
M  V30 68226 H 6423.39 -2.13473 -3.58914 0
M  V30 68227 N 6423.82 0.622669 -1.44778 0
M  V30 68228 C 6425.07 1.37932 -1.47713 0
M  V30 68229 C 6425.39 1.94665 -0.114255 0
M  V30 68230 O 6424.66 1.7628 0.854521 0
M  V30 68231 H 6423.24 0.512003 -0.543932 0
M  V30 68232 H 6425.9 0.732273 -1.80621 0
M  V30 68233 H 6425 2.20638 -2.20738 0
M  V30 68234 N 6425.3 1.31817 0.863836 0
M  V30 68235 C 6426.26 1.19933 1.95317 0
M  V30 68236 C 6427.26 0.124787 1.60315 0
M  V30 68237 O 6428.45 0.374513 1.70127 0
M  V30 68238 C 6425.59 0.84235 3.30329 0
M  V30 68239 H 6426.78 2.16734 2.07284 0
M  V30 68240 H 6424.33 1.15516 1.05289 0
M  V30 68241 H 6425.07 -0.124235 3.24062 0
M  V30 68242 H 6424.85 1.61915 3.57108 0
M  V30 68243 H 6426.34 0.78327 4.10189 0
M  V30 68244 N 6426.78 -1.07893 1.14877 0
M  V30 68245 C 6428.03 -1.80027 0.918414 0
M  V30 68246 C 6428.35 -1.86899 -0.556227 0
M  V30 68247 O 6427.62 -1.36589 -1.40429 0
M  V30 68248 H 6426.2 -0.666765 0.336799 0
M  V30 68249 H 6428.86 -1.30416 1.44836 0
M  V30 68250 H 6427.96 -2.82673 1.32297 0
M  V30 68251 N 6428.26 -0.944709 -1.26147 0
M  V30 68252 C 6429.22 -0.461626 -2.24503 0
M  V30 68253 C 6430.22 0.429222 -1.54966 0
M  V30 68254 O 6431.41 0.227904 -1.72703 0
M  V30 68255 C 6428.54 0.334244 -3.39257 0
M  V30 68256 H 6429.73 -1.33085 -2.68753 0
M  V30 68257 H 6427.29 -0.727017 -1.38362 0
M  V30 68258 H 6428.02 1.22156 -3.00414 0
M  V30 68259 H 6427.81 -0.304726 -3.90914 0
M  V30 68260 H 6429.3 0.662036 -4.12319 0
M  V30 68261 N 6429.74 1.40593 -0.712134 0
M  V30 68262 C 6430.7 2.29105 -0.0661175 0
M  V30 68263 C 6431.7 1.45199 0.690941 0
M  V30 68264 O 6432.89 1.66152 0.523358 0
M  V30 68265 C 6430.02 3.28353 0.916346 0
M  V30 68266 H 6431.21 2.87731 -0.84564 0
M  V30 68267 H 6428.77 1.48857 -0.476585 0
M  V30 68268 H 6429.5 2.74739 1.72305 0
M  V30 68269 H 6429.29 3.90289 0.376419 0
M  V30 68270 H 6430.78 3.94639 1.36564 0
M  V30 68271 N 6431.21 0.458066 1.50796 0
M  V30 68272 C 6432.18 -0.331387 2.26792 0
M  V30 68273 C 6433.18 -0.931807 1.3105 0
M  V30 68274 O 6434.37 -0.803017 1.54587 0
M  V30 68275 C 6431.5 -1.47079 3.07539 0
M  V30 68276 H 6432.69 0.33491 2.98024 0
M  V30 68277 H 6430.24 0.21177 1.54859 0
M  V30 68278 H 6430.98 -2.17253 2.40773 0
M  V30 68279 H 6430.76 -1.0462 3.77885 0
M  V30 68280 H 6432.25 -2.02802 3.65049 0
M  V30 68281 N 6432.69 -1.56448 0.190174 0
M  V30 68282 C 6433.94 -1.97049 -0.448999 0
M  V30 68283 C 6434.26 -1.07802 -1.62492 0
M  V30 68284 O 6433.53 -0.148272 -1.95338 0
M  V30 68285 H 6432.11 -0.727662 -0.168871 0
M  V30 68286 H 6434.77 -1.92939 0.275759 0
M  V30 68287 H 6433.87 -3.01767 -0.796424 0
M  V30 68288 N 6434.17 0.0834573 -1.57379 0
M  V30 68289 C 6435.13 1.0847 -2.01908 0
M  V30 68290 C 6436.13 1.32275 -0.914327 0
M  V30 68291 O 6437.32 1.28192 -1.17951 0
M  V30 68292 C 6434.45 2.43112 -2.38975 0
M  V30 68293 H 6435.65 0.701154 -2.91588 0
M  V30 68294 H 6433.2 0.328849 -1.52801 0
M  V30 68295 H 6433.94 2.86321 -1.52285 0
M  V30 68296 H 6433.72 2.27179 -3.19581 0
M  V30 68297 H 6435.21 3.15103 -2.74043 0
M  V30 68298 N 6435.65 1.5356 0.35457 0
M  V30 68299 C 6436.58 1.83756 1.44069 0
M  V30 68300 C 6437.56 0.691849 1.55395 0
M  V30 68301 O 6438.74 0.942735 1.69783 0
M  V30 68302 C 6435.87 2.03731 2.81266 0
M  V30 68303 C 6434.83 3.19527 2.84757 0
M  V30 68304 C 6434.15 3.24815 4.24735 0
M  V30 68305 C 6435.45 4.57879 2.51285 0
M  V30 68306 H 6437.15 2.74714 1.19048 0
M  V30 68307 H 6434.69 1.32184 0.571254 0
M  V30 68308 H 6436.65 2.23439 3.57285 0
M  V30 68309 H 6435.37 1.09493 3.07699 0
M  V30 68310 H 6434.03 2.99657 2.11191 0
M  V30 68311 H 6433.68 2.28193 4.4826 0
M  V30 68312 H 6433.38 4.02621 4.27984 0
M  V30 68313 H 6434.9 3.4672 5.02611 0
M  V30 68314 H 6436.32 4.77675 3.17017 0
M  V30 68315 H 6434.71 5.38008 2.65834 0
M  V30 68316 H 6435.78 4.62239 1.46502 0
M  V30 68317 N 6437.13 -0.614982 1.45106 0
M  V30 68318 C 6438.37 -1.37147 1.48442 0
M  V30 68319 C 6438.69 -1.94602 0.124577 0
M  V30 68320 O 6437.96 -1.76731 -0.84516 0
M  V30 68321 H 6436.54 -0.509112 0.546639 0
M  V30 68322 H 6439.21 -0.722684 1.81006 0
M  V30 68323 H 6438.3 -2.19464 2.21905 0
M  V30 68324 N 6438.6 -1.32273 -0.856834 0
M  V30 68325 C 6439.53 -1.23633 -1.98084 0
M  V30 68326 C 6440.51 -0.120645 -1.69672 0
M  V30 68327 O 6441.7 -0.307451 -1.91751 0
M  V30 68328 C 6438.83 -0.956396 -3.33872 0
M  V30 68329 C 6437.78 -2.03308 -3.7663 0
M  V30 68330 C 6437.11 -1.60559 -5.10024 0
M  V30 68331 C 6438.41 -3.44783 -3.92329 0
M  V30 68332 H 6440.1 -2.17673 -2.0557 0
M  V30 68333 H 6437.65 -1.04791 -0.987666 0
M  V30 68334 H 6439.6 -0.882511 -4.12055 0
M  V30 68335 H 6438.33 0.0196437 -3.26594 0
M  V30 68336 H 6436.99 -2.09708 -3.00696 0
M  V30 68337 H 6436.63 -0.617058 -4.99201 0
M  V30 68338 H 6436.33 -2.32597 -5.39604 0
M  V30 68339 H 6437.86 -1.54603 -5.90703 0
M  V30 68340 H 6439.27 -3.40984 -4.60872 0
M  V30 68341 H 6437.67 -4.15152 -4.33323 0
M  V30 68342 H 6438.74 -3.84605 -2.95309 0
M  V30 68343 N 6440.08 1.07283 -1.15448 0
M  V30 68344 C 6441.01 2.16491 -0.874856 0
M  V30 68345 C 6441.99 1.69199 0.174823 0
M  V30 68346 O 6443.18 1.94178 0.029048 0
M  V30 68347 C 6440.31 3.45386 -0.364139 0
M  V30 68348 C 6439.26 4.06132 -1.35058 0
M  V30 68349 C 6438.59 5.30116 -0.698676 0
M  V30 68350 C 6439.89 4.46079 -2.71681 0
M  V30 68351 H 6441.58 2.4014 -1.7881 0
M  V30 68352 H 6439.13 1.15412 -0.861164 0
M  V30 68353 H 6441.08 4.21111 -0.156058 0
M  V30 68354 H 6439.8 3.21326 0.584577 0
M  V30 68355 H 6438.46 3.32452 -1.54503 0
M  V30 68356 H 6438.11 5.02347 0.256209 0
M  V30 68357 H 6437.81 5.71716 -1.35699 0
M  V30 68358 H 6439.34 6.08546 -0.500385 0
M  V30 68359 H 6440.75 5.1293 -2.56077 0
M  V30 68360 H 6439.15 4.98634 -3.33893 0
M  V30 68361 H 6440.22 3.57415 -3.27693 0
M  V30 68362 N 6441.56 0.951386 1.25644 0
M  V30 68363 C 6442.81 0.614865 1.93884 0
M  V30 68364 C 6443.16 -0.838436 1.7317 0
M  V30 68365 O 6442.45 -1.59326 1.06423 0
M  V30 68366 C 6442.65 0.905322 3.45744 0
M  V30 68367 C 6442.48 2.38531 3.81226 0
M  V30 68368 C 6441.25 3.04229 4.03451 0
M  V30 68369 C 6443.44 3.36445 3.88985 0
M  V30 68370 N 6441.43 4.42134 4.259 0
M  V30 68371 C 6442.8 4.59645 4.16085 0
M  V30 68372 C 6444.85 3.31328 3.71653 0
M  V30 68373 C 6443.56 5.78363 4.27655 0
M  V30 68374 C 6445.58 4.49381 3.84461 0
M  V30 68375 C 6444.94 5.71367 4.1197 0
M  V30 68376 H 6441.04 0.27555 0.731844 0
M  V30 68377 H 6443.63 1.22289 1.51504 0
M  V30 68378 H 6441.8 0.326252 3.87027 0
M  V30 68379 H 6443.53 0.529035 4.01227 0
M  V30 68380 H 6440.28 2.54811 3.9921 0
M  V30 68381 H 6440.71 5.13544 4.41137 0
M  V30 68382 H 6445.35 2.38067 3.49405 0
M  V30 68383 H 6443.07 6.72068 4.48721 0
M  V30 68384 H 6446.65 4.46966 3.72441 0
M  V30 68385 H 6445.53 6.61191 4.21659 0
M  V30 68386 N 6443.04 -1.40213 0.71958 0
M  V30 68387 C 6444.29 -2.00417 0.260296 0
M  V30 68388 C 6444.61 -1.57353 -1.15174 0
M  V30 68389 O 6443.88 -0.814781 -1.78152 0
M  V30 68390 H 6442.46 -0.741157 0.0932464 0
M  V30 68391 H 6445.12 -1.71492 0.926101 0
M  V30 68392 H 6444.21 -3.10688 0.296529 0
M  V30 68393 N 6444.52 -0.466057 -1.50551 0
M  V30 68394 C 6445.74 0.0907901 -2.07201 0
M  V30 68395 C 6446.17 1.33192 -1.32822 0
M  V30 68396 O 6445.52 1.77392 -0.374403 0
M  V30 68397 C 6445.57 0.362831 -3.5877 0
M  V30 68398 O 6444.68 1.44424 -3.86284 0
M  V30 68399 H 6444.02 -0.0107634 -0.663913 0
M  V30 68400 H 6446.55 -0.655653 -1.9381 0
M  V30 68401 H 6446.56 0.604823 -4.03492 0
M  V30 68402 H 6445.23 -0.544141 -4.12325 0
M  V30 68403 H 6443.81 1.18996 -3.53404 0
M  V30 68404 N 6445.99 1.56345 -0.198468 0
M  V30 68405 C 6446.92 2.22246 0.716165 0
M  V30 68406 C 6447.91 1.18664 1.21872 0
M  V30 68407 O 6449.09 1.47181 1.26694 0
M  V30 68408 C 6446.22 2.88444 1.93436 0
M  V30 68409 C 6445.17 3.98299 1.56658 0
M  V30 68410 C 6444.5 4.51678 2.86166 0
M  V30 68411 C 6445.8 5.16534 0.773972 0
M  V30 68412 H 6447.49 2.98935 0.166778 0
M  V30 68413 H 6445.04 1.43784 0.0787762 0
M  V30 68414 H 6446.99 3.3323 2.57945 0
M  V30 68415 H 6445.72 2.09166 2.50833 0
M  V30 68416 H 6444.38 3.54209 0.945054 0
M  V30 68417 H 6444.02 3.69158 3.4166 0
M  V30 68418 H 6443.72 5.25806 2.62302 0
M  V30 68419 H 6445.25 4.99168 3.51659 0
M  V30 68420 H 6446.66 5.57844 1.32225 0
M  V30 68421 H 6445.06 5.96749 0.633322 0
M  V30 68422 H 6446.13 4.84381 -0.224269 0
M  V30 68423 N 6447.47 -0.07511 1.57421 0
M  V30 68424 C 6448.72 -0.774892 1.87087 0
M  V30 68425 C 6449.05 -1.77745 0.789753 0
M  V30 68426 O 6448.3 -1.9452 -0.214603 0
M  V30 68427 C 6448.6 -1.52126 3.23407 0
M  V30 68428 C 6448.27 -0.658996 4.46058 0
M  V30 68429 C 6446.93 -0.42136 4.79352 0
M  V30 68430 C 6449.28 -0.0608575 5.21164 0
M  V30 68431 C 6446.61 0.423951 5.85166 0
M  V30 68432 C 6448.96 0.771889 6.27873 0
M  V30 68433 C 6447.63 1.01943 6.5967 0
M  V30 68434 H 6446.9 -0.283553 0.684601 0
M  V30 68435 H 6449.54 -0.0357638 1.91467 0
M  V30 68436 H 6447.85 -2.3325 3.14804 0
M  V30 68437 H 6449.54 -2.06745 3.43595 0
M  V30 68438 H 6446.13 -0.854339 4.19999 0
M  V30 68439 H 6450.32 -0.231572 4.95759 0
M  V30 68440 H 6445.57 0.624514 6.08202 0
M  V30 68441 H 6449.75 1.24213 6.85233 0
M  V30 68442 H 6447.38 1.67621 7.4149 0
M  V30 68443 N 6448.95 -1.53746 -0.346422 0
M  V30 68444 C 6450.2 -1.70516 -1.08484 0
M  V30 68445 C 6450.52 -0.469533 -1.89263 0
M  V30 68446 O 6449.79 0.516528 -1.88968 0
M  V30 68447 H 6448.37 -0.62865 -0.403495 0
M  V30 68448 H 6451.03 -1.90991 -0.388391 0
M  V30 68449 H 6450.13 -2.57478 -1.76385 0
M  V30 68450 N 6450.43 0.607278 -1.4543 0
M  V30 68451 C 6451.68 1.36358 -1.49168 0
M  V30 68452 C 6452 1.94533 -0.134895 0
M  V30 68453 O 6451.27 1.77177 0.835776 0
M  V30 68454 H 6449.85 0.506205 -0.549331 0
M  V30 68455 H 6452.51 0.713074 -1.81387 0
M  V30 68456 H 6451.61 2.18284 -2.23066 0
M  V30 68457 N 6451.91 1.32725 0.849807 0
M  V30 68458 C 6453.15 1.23318 1.60116 0
M  V30 68459 C 6453.48 -0.203814 1.93932 0
M  V30 68460 O 6452.75 -1.1298 1.60039 0
M  V30 68461 H 6451.33 0.453434 0.593638 0
M  V30 68462 H 6453.99 1.66309 1.01624 0
M  V30 68463 H 6453.08 1.81922 2.53596 0
M  V30 68464 N 6453.38 -1.06669 1.16015 0
M  V30 68465 C 6454.31 -2.16024 0.886325 0
M  V30 68466 C 6455.3 -1.6929 -0.165847 0
M  V30 68467 O 6456.48 -1.94191 -0.0187498 0
M  V30 68468 C 6453.61 -3.45188 0.382451 0
M  V30 68469 C 6452.56 -4.0541 1.3721 0
M  V30 68470 C 6451.89 -5.29738 0.72678 0
M  V30 68471 C 6453.19 -4.44632 2.74043 0
M  V30 68472 H 6454.88 -2.39188 1.80081 0
M  V30 68473 H 6452.43 -1.14954 0.867273 0
M  V30 68474 H 6454.38 -4.21022 0.178388 0
M  V30 68475 H 6453.11 -3.21631 -0.567528 0
M  V30 68476 H 6451.77 -3.31628 1.56264 0
M  V30 68477 H 6451.41 -5.02476 -0.229565 0
M  V30 68478 H 6451.11 -5.70989 1.38729 0
M  V30 68479 H 6452.64 -6.08272 0.53265 0
M  V30 68480 H 6454.05 -5.11565 2.58793 0
M  V30 68481 H 6452.45 -4.96856 3.36533 0
M  V30 68482 H 6453.52 -3.55672 3.29583 0
M  V30 68483 N 6454.86 -0.958036 -1.25138 0
M  V30 68484 C 6456.11 -0.61557 -1.93232 0
M  V30 68485 C 6456.44 0.84575 -1.74816 0
M  V30 68486 O 6455.72 1.60725 -1.09533 0
M  V30 68487 C 6456 -0.979231 -3.4653 0
M  V30 68488 C 6455.85 -2.49653 -3.74157 0
M  V30 68489 C 6457.17 -0.506755 -4.37173 0
M  V30 68490 H 6454.29 -0.22511 -0.70178 0
M  V30 68491 H 6456.93 -1.1953 -1.47691 0
M  V30 68492 H 6455.08 -0.485908 -3.85449 0
M  V30 68493 H 6456.75 -3.06388 -3.44854 0
M  V30 68494 H 6455 -2.93274 -3.19644 0
M  V30 68495 H 6455.67 -2.70149 -4.81377 0
M  V30 68496 H 6458.14 -0.929973 -4.05575 0
M  V30 68497 H 6457.02 -0.789867 -5.43187 0
M  V30 68498 H 6457.28 0.593266 -4.38101 0
M  V30 68499 N 6456.34 1.3983 -0.727006 0
M  V30 68500 C 6457.25 2.34453 -0.0831661 0
M  V30 68501 C 6458.27 1.57902 0.730953 0
M  V30 68502 O 6459.44 1.90235 0.661271 0
M  V30 68503 C 6456.51 3.36883 0.819205 0
M  V30 68504 C 6455.57 4.293 -0.00625751 0
M  V30 68505 C 6454.8 5.26837 0.853139 0
M  V30 68506 O 6455.02 5.30648 2.0921 0
M  V30 68507 O 6453.96 6.0122 0.28605 0
M  V30 68508 H 6457.78 2.91152 -0.863947 0
M  V30 68509 H 6455.37 1.41219 -0.487592 0
M  V30 68510 H 6457.25 3.99669 1.33575 0
M  V30 68511 H 6455.93 2.8258 1.57894 0
M  V30 68512 H 6454.83 3.69761 -0.568137 0
M  V30 68513 H 6456.17 4.86786 -0.728027 0
M  V30 68514 N 6457.82 0.474035 1.50302 0
M  V30 68515 C 6459.07 -0.0797806 2.01942 0
M  V30 68516 C 6459.39 -1.3995 1.3579 0
M  V30 68517 O 6458.66 -1.893 0.504208 0
M  V30 68518 H 6457.24 -0.0324739 0.746294 0
M  V30 68519 H 6459.9 0.625128 1.84603 0
M  V30 68520 H 6459 -0.229144 3.11258 0
M  V30 68521 N 6459.3 -1.56238 0.206757 0
M  V30 68522 C 6460.26 -2.18384 -0.695766 0
M  V30 68523 C 6461.26 -1.14153 -1.13251 0
M  V30 68524 O 6462.45 -1.39472 -1.04371 0
M  V30 68525 C 6459.58 -2.79529 -1.95131 0
M  V30 68526 H 6460.78 -2.99503 -0.15417 0
M  V30 68527 H 6458.33 -1.56241 -0.0428673 0
M  V30 68528 H 6459.06 -2.0224 -2.53514 0
M  V30 68529 H 6458.85 -3.55843 -1.64676 0
M  V30 68530 H 6460.34 -3.27212 -2.59464 0
M  V30 68531 N 6460.78 0.0667605 -1.57459 0
M  V30 68532 C 6461.72 1.07881 -2.04035 0
M  V30 68533 C 6462.69 1.38165 -0.921938 0
M  V30 68534 O 6463.88 1.49147 -1.18995 0
M  V30 68535 C 6461.02 2.38589 -2.49337 0
M  V30 68536 C 6460.13 2.14792 -3.74818 0
M  V30 68537 C 6459.27 3.391 -4.08882 0
M  V30 68538 C 6458.3 3.1069 -5.27388 0
M  V30 68539 N 6457.44 4.27342 -5.57067 0
M  V30 68540 H 6462.28 0.674653 -2.90263 0
M  V30 68541 H 6459.82 0.321552 -1.43543 0
M  V30 68542 H 6461.78 3.14909 -2.73657 0
M  V30 68543 H 6460.41 2.76798 -1.6608 0
M  V30 68544 H 6459.46 1.29142 -3.57808 0
M  V30 68545 H 6460.77 1.8981 -4.61274 0
M  V30 68546 H 6459.92 4.23812 -4.34129 0
M  V30 68547 H 6458.66 3.67162 -3.21003 0
M  V30 68548 H 6457.67 2.24374 -5.01933 0
M  V30 68549 H 6458.89 2.83944 -6.16889 0
M  V30 68550 H 6456.84 4.55426 -4.72147 0
M  V30 68551 H 6456.76 4.05651 -6.37952 0
M  V30 68552 H 6458.02 5.13036 -5.86868 0
M  V30 68553 N 6462.25 1.53927 0.338263 0
M  V30 68554 C 6463.2 1.82285 1.41565 0
M  V30 68555 C 6464.17 0.668907 1.52036 0
M  V30 68556 O 6465.36 0.913872 1.6749 0
M  V30 68557 C 6462.5 2.04283 2.78141 0
M  V30 68558 C 6461.61 3.31988 2.7642 0
M  V30 68559 C 6460.74 3.44025 4.04747 0
M  V30 68560 C 6459.78 4.6566 3.97275 0
M  V30 68561 N 6458.92 4.74702 5.17303 0
M  V30 68562 H 6463.76 2.74207 1.16682 0
M  V30 68563 H 6461.3 1.35811 0.565126 0
M  V30 68564 H 6463.25 2.15027 3.57518 0
M  V30 68565 H 6461.88 1.15669 3.01364 0
M  V30 68566 H 6460.94 3.30058 1.89118 0
M  V30 68567 H 6462.25 4.21463 2.66778 0
M  V30 68568 H 6461.4 3.5423 4.92551 0
M  V30 68569 H 6460.14 2.52615 4.17177 0
M  V30 68570 H 6459.15 4.55526 3.07857 0
M  V30 68571 H 6460.37 5.58439 3.86423 0
M  V30 68572 H 6458.32 3.86203 5.30267 0
M  V30 68573 H 6458.23 5.58121 5.09939 0
M  V30 68574 H 6459.5 4.89222 6.06863 0
M  V30 68575 N 6463.73 -0.599557 1.4575 0
M  V30 68576 C 6464.98 -1.36034 1.50408 0
M  V30 68577 C 6465.31 -1.93631 0.148487 0
M  V30 68578 O 6464.59 -1.75519 -0.838056 0
M  V30 68579 C 6464.87 -2.50228 2.58955 0
M  V30 68580 C 6464.72 -1.97775 4.03986 0
M  V30 68581 C 6466.04 -3.52335 2.6372 0
M  V30 68582 H 6463.16 -0.493271 0.547588 0
M  V30 68583 H 6465.8 -0.675116 1.77601 0
M  V30 68584 H 6463.95 -3.08681 2.35898 0
M  V30 68585 H 6465.62 -1.4391 4.38278 0
M  V30 68586 H 6463.87 -1.28719 4.14263 0
M  V30 68587 H 6464.54 -2.8013 4.75637 0
M  V30 68588 H 6467.01 -3.03736 2.84401 0
M  V30 68589 H 6465.89 -4.29716 3.41519 0
M  V30 68590 H 6466.15 -4.08475 1.69118 0
M  V30 68591 N 6465.21 -1.33174 -0.842756 0
M  V30 68592 C 6466.44 -1.2744 -1.62993 0
M  V30 68593 C 6466.85 0.15541 -1.88159 0
M  V30 68594 O 6466.21 1.09632 -1.45901 0
M  V30 68595 C 6466.26 -2.04295 -2.98238 0
M  V30 68596 O 6465.98 -3.41698 -2.74179 0
M  V30 68597 C 6467.48 -2.05725 -3.92673 0
M  V30 68598 H 6464.7 -0.439205 -0.507287 0
M  V30 68599 H 6467.25 -1.75485 -1.05001 0
M  V30 68600 H 6465.4 -1.59942 -3.52842 0
M  V30 68601 H 6465.82 -3.81185 -3.60275 0
M  V30 68602 H 6467.29 -2.63961 -4.84798 0
M  V30 68603 H 6467.77 -1.04651 -4.2655 0
M  V30 68604 H 6468.37 -2.50079 -3.44007 0
M  V30 68605 N 6466.69 1.06052 -1.16579 0
M  V30 68606 C 6467.93 1.79161 -0.950218 0
M  V30 68607 C 6468.27 1.87094 0.520522 0
M  V30 68608 O 6467.54 1.36434 1.38622 0
M  V30 68609 C 6467.82 3.23519 -1.58137 0
M  V30 68610 C 6467.68 3.23652 -3.12361 0
M  V30 68611 C 6469 4.21134 -1.27806 0
M  V30 68612 H 6466.12 0.650401 -0.346623 0
M  V30 68613 H 6468.76 1.24014 -1.43946 0
M  V30 68614 H 6466.91 3.70611 -1.16534 0
M  V30 68615 H 6468.58 2.84703 -3.62963 0
M  V30 68616 H 6466.82 2.62236 -3.45565 0
M  V30 68617 H 6467.49 4.255 -3.51644 0
M  V30 68618 H 6469.97 3.82496 -1.63817 0
M  V30 68619 H 6468.85 5.20402 -1.74565 0
M  V30 68620 H 6469.11 4.41659 -0.197324 0
M  V30 68621 N 6468.17 0.964658 1.24628 0
M  V30 68622 C 6469.39 0.642396 1.96675 0
M  V30 68623 C 6469.81 -0.787559 1.71589 0
M  V30 68624 O 6469.17 -1.52804 0.997854 0
M  V30 68625 C 6469.22 0.903835 3.50019 0
M  V30 68626 O 6468.94 2.27757 3.74244 0
M  V30 68627 C 6470.44 0.595341 4.39284 0
M  V30 68628 H 6467.66 0.239955 0.626628 0
M  V30 68629 H 6470.2 1.29176 1.58536 0
M  V30 68630 H 6468.36 0.300725 3.86231 0
M  V30 68631 H 6468.77 2.35528 4.68644 0
M  V30 68632 H 6470.25 0.828744 5.45743 0
M  V30 68633 H 6470.72 -0.470338 4.36674 0
M  V30 68634 H 6471.33 1.17822 4.08654 0
M  V30 68635 N 6469.64 -1.39442 0.734411 0
M  V30 68636 C 6470.55 -2.34405 0.0955985 0
M  V30 68637 C 6471.57 -1.58288 -0.722569 0
M  V30 68638 O 6472.75 -1.90583 -0.651173 0
M  V30 68639 C 6469.81 -3.37312 -0.801328 0
M  V30 68640 C 6468.87 -4.2929 0.0290242 0
M  V30 68641 C 6468.1 -5.27282 -0.825187 0
M  V30 68642 O 6468.33 -5.3175 -2.06393 0
M  V30 68643 O 6467.26 -6.01363 -0.254162 0
M  V30 68644 H 6471.09 -2.9069 0.879376 0
M  V30 68645 H 6468.67 -1.40959 0.495075 0
M  V30 68646 H 6470.55 -4.00372 -1.31453 0
M  V30 68647 H 6469.23 -2.83413 -1.56393 0
M  V30 68648 H 6468.14 -3.69454 0.587738 0
M  V30 68649 H 6469.47 -4.86393 0.753832 0
M  V30 68650 N 6471.12 -0.481999 -1.50048 0
M  V30 68651 C 6472.05 0.296172 -2.31614 0
M  V30 68652 C 6473.03 0.980271 -1.39013 0
M  V30 68653 O 6474.22 0.975343 -1.67931 0
M  V30 68654 C 6471.35 1.3722 -3.19042 0
M  V30 68655 C 6470.3 0.809084 -4.20283 0
M  V30 68656 C 6469.63 1.98422 -4.96521 0
M  V30 68657 C 6470.93 -0.187033 -5.21965 0
M  V30 68658 H 6472.62 -0.384613 -2.96919 0
M  V30 68659 H 6470.17 -0.186412 -1.42788 0
M  V30 68660 H 6472.12 1.92416 -3.74905 0
M  V30 68661 H 6470.84 2.08191 -2.51643 0
M  V30 68662 H 6469.5 0.279016 -3.65537 0
M  V30 68663 H 6469.15 2.68116 -4.25585 0
M  V30 68664 H 6468.85 1.6136 -5.6501 0
M  V30 68665 H 6470.38 2.54088 -5.55222 0
M  V30 68666 H 6471.79 0.276125 -5.72635 0
M  V30 68667 H 6470.19 -0.472492 -5.98237 0
M  V30 68668 H 6471.26 -1.10932 -4.7204 0
M  V30 68669 N 6472.6 1.56126 -0.21504 0
M  V30 68670 C 6473.53 2.22993 0.692552 0
M  V30 68671 C 6474.51 1.1995 1.20607 0
M  V30 68672 O 6475.7 1.48517 1.25126 0
M  V30 68673 C 6472.83 2.90479 1.90365 0
M  V30 68674 C 6471.78 3.99938 1.52425 0
M  V30 68675 C 6471.11 4.54688 2.8136 0
M  V30 68676 C 6472.41 5.17325 0.719143 0
M  V30 68677 H 6474.1 2.99095 0.135063 0
M  V30 68678 H 6471.65 1.4386 0.0635215 0
M  V30 68679 H 6473.6 3.35947 2.54397 0
M  V30 68680 H 6472.32 2.11814 2.48601 0
M  V30 68681 H 6470.98 3.55192 0.907432 0
M  V30 68682 H 6470.63 3.72761 3.37725 0
M  V30 68683 H 6470.33 5.28558 2.5671 0
M  V30 68684 H 6471.85 5.0287 3.46345 0
M  V30 68685 H 6473.27 5.59215 1.263 0
M  V30 68686 H 6471.66 5.97387 0.569993 0
M  V30 68687 H 6472.73 4.84116 -0.275631 0
M  V30 68688 N 6474.08 -0.0584092 1.57492 0
M  V30 68689 C 6475.04 -1.05244 2.03608 0
M  V30 68690 C 6476.04 -1.30804 0.935255 0
M  V30 68691 O 6477.23 -1.26299 1.19976 0
M  V30 68692 C 6474.36 -2.3928 2.42813 0
M  V30 68693 H 6475.56 -0.654676 2.92667 0
M  V30 68694 H 6473.11 -0.304498 1.53305 0
M  V30 68695 H 6473.84 -2.83862 1.56821 0
M  V30 68696 H 6473.63 -2.22066 3.23155 0
M  V30 68697 H 6475.12 -3.10704 2.79022 0
M  V30 68698 N 6475.56 -1.54104 -0.330095 0
M  V30 68699 C 6476.8 -1.71657 -1.06669 0
M  V30 68700 C 6477.13 -0.489581 -1.88754 0
M  V30 68701 O 6476.4 0.496456 -1.89505 0
M  V30 68702 H 6474.98 -0.632894 -0.396805 0
M  V30 68703 H 6477.64 -1.91392 -0.368112 0
M  V30 68704 H 6476.73 -2.59334 -1.73644 0
M  V30 68705 N 6477.03 0.591819 -1.46066 0
M  V30 68706 C 6477.97 1.71586 -1.50444 0
M  V30 68707 C 6478.95 1.5858 -0.359345 0
M  V30 68708 O 6480.13 1.79922 -0.562166 0
M  V30 68709 C 6477.26 3.09561 -1.3744 0
M  V30 68710 C 6476.3 3.41114 -2.56015 0
M  V30 68711 S 6477.14 3.34196 -4.18417 0
M  V30 68712 C 6478.29 4.74724 -4.07906 0
M  V30 68713 H 6478.52 1.67612 -2.45547 0
M  V30 68714 H 6476.06 0.769804 -1.33841 0
M  V30 68715 H 6478.02 3.89163 -1.30624 0
M  V30 68716 H 6476.68 3.11034 -0.437804 0
M  V30 68717 H 6475.87 4.41614 -2.42885 0
M  V30 68718 H 6475.47 2.69061 -2.59774 0
M  V30 68719 H 6477.76 5.649 -3.74024 0
M  V30 68720 H 6478.71 4.92912 -5.08373 0
M  V30 68721 H 6479.11 4.51147 -3.39304 0
M  V30 68722 N 6478.51 1.33619 0.835682 0
M  V30 68723 C 6479.92 1.22671 1.40744 0
M  V30 68724 C 6480.27 -0.153086 1.95602 0
M  V30 68725 O 6479.4 -1.05283 1.89062 0
M  V30 68726 C 6479.99 2.22096 2.55849 0
M  V30 68727 C 6478.55 2.14977 3.08969 0
M  V30 68728 C 6477.7 2.09405 1.81782 0
M  V30 68729 H 6480.65 1.45171 0.641171 0
M  V30 68730 H 6480.67 1.83054 3.33574 0
M  V30 68731 H 6480.18 3.22509 2.15892 0
M  V30 68732 H 6478.29 1.17878 3.53462 0
M  V30 68733 H 6478.4 3.05665 3.68925 0
M  V30 68734 H 6476.76 1.5493 2.02161 0
M  V30 68735 H 6477.55 3.11631 1.44016 0
M  V30 68736 N 6479.99 -1.05432 1.1714 0
M  V30 68737 C 6481.27 -1.75272 0.868277 0
M  V30 68738 C 6481.65 -2.01417 -0.632003 0
M  V30 68739 O 6481 -1.64828 -1.58253 0
M  V30 68740 C 6481.21 -3.04766 1.70054 0
M  V30 68741 C 6482.55 -3.78761 1.91898 0
M  V30 68742 O 6483.58 -3.1463 1.66993 0
M  V30 68743 O 6482.44 -4.93992 2.3374 0
M  V30 68744 H 6479.53 -0.762055 0.32125 0
M  V30 68745 H 6482.08 -1.11622 1.27822 0
M  V30 68746 H 6480.85 -2.81476 2.71822 0
M  V30 68747 H 6480.47 -3.76153 1.28821 0
M  V30 68748 N 6481.47 -0.971254 -1.24115 0
M  V30 68749 C 6482.88 -0.673409 -1.74132 0
M  V30 68750 C 6483.23 0.810746 -1.78665 0
M  V30 68751 O 6482.36 1.6343 -1.41844 0
M  V30 68752 C 6482.95 -1.2157 -3.16238 0
M  V30 68753 C 6481.51 -0.96768 -3.63748 0
M  V30 68754 C 6480.66 -1.34889 -2.42281 0
M  V30 68755 H 6483.61 -1.14616 -1.09767 0
M  V30 68756 H 6483.63 -0.583686 -3.75996 0
M  V30 68757 H 6483.14 -2.29589 -3.12906 0
M  V30 68758 H 6481.24 0.096836 -3.72474 0
M  V30 68759 H 6481.35 -1.61583 -4.5103 0
M  V30 68760 H 6479.72 -0.767295 -2.42868 0
M  V30 68761 H 6480.5 -2.43866 -2.41628 0
M  V30 68762 N 6482.95 1.39051 -0.741796 0
M  V30 68763 C 6484.17 2.04667 -0.30318 0
M  V30 68764 C 6484.59 1.55937 1.06439 0
M  V30 68765 O 6483.95 0.727228 1.67385 0
M  V30 68766 C 6484 3.60223 -0.303534 0
M  V30 68767 O 6483.72 4.07162 -1.61712 0
M  V30 68768 C 6485.22 4.43045 0.150409 0
M  V30 68769 H 6482.44 0.658013 -0.131376 0
M  V30 68770 H 6484.98 1.77968 -1.00735 0
M  V30 68771 H 6483.14 3.85799 0.3518 0
M  V30 68772 H 6483.55 5.01527 -1.53529 0
M  V30 68773 H 6485.03 5.51911 0.0990006 0
M  V30 68774 H 6485.5 4.22585 1.19659 0
M  V30 68775 H 6486.11 4.22632 -0.475612 0
M  V30 68776 N 6484.42 0.489949 1.49791 0
M  V30 68777 C 6485.65 -0.0578147 2.07319 0
M  V30 68778 C 6486.07 -1.31062 1.34924 0
M  V30 68779 O 6485.43 -1.76774 0.402577 0
M  V30 68780 C 6485.48 -0.305708 3.59302 0
M  V30 68781 O 6484.58 -1.38261 3.88533 0
M  V30 68782 H 6483.93 0.0213243 0.663657 0
M  V30 68783 H 6486.46 0.686403 1.92742 0
M  V30 68784 H 6486.47 -0.540554 4.04403 0
M  V30 68785 H 6485.14 0.609669 4.11407 0
M  V30 68786 H 6483.72 -1.13358 3.55252 0
M  V30 68787 N 6485.9 -1.5601 0.223316 0
M  V30 68788 C 6487.18 -1.90186 -0.457007 0
M  V30 68789 C 6487.56 -1.14089 -1.77614 0
M  V30 68790 O 6486.91 -0.250782 -2.2712 0
M  V30 68791 C 6487.12 -3.42927 -0.648227 0
M  V30 68792 C 6488.47 -4.13724 -0.954854 0
M  V30 68793 O 6489.49 -3.48535 -0.734949 0
M  V30 68794 O 6488.35 -5.2899 -1.3723 0
M  V30 68795 H 6485.44 -0.790836 -0.241884 0
M  V30 68796 H 6487.99 -1.67608 0.265632 0
M  V30 68797 H 6486.76 -3.90281 0.282183 0
M  V30 68798 H 6486.38 -3.71291 -1.42229 0
M  V30 68799 N 6487.38 0.0500562 -1.5752 0
M  V30 68800 C 6488.29 1.07452 -2.08546 0
M  V30 68801 C 6489.31 1.41003 -1.01952 0
M  V30 68802 O 6490.48 1.50744 -1.3356 0
M  V30 68803 C 6487.55 2.36265 -2.53732 0
M  V30 68804 C 6486.61 2.09487 -3.74718 0
M  V30 68805 C 6485.84 3.32159 -4.17739 0
M  V30 68806 O 6486.06 4.42079 -3.60448 0
M  V30 68807 O 6485 3.19092 -5.10357 0
M  V30 68808 H 6488.82 0.670961 -2.96196 0
M  V30 68809 H 6486.41 0.265657 -1.47019 0
M  V30 68810 H 6488.29 3.12033 -2.83219 0
M  V30 68811 H 6486.97 2.75957 -1.69202 0
M  V30 68812 H 6485.87 1.31354 -3.50281 0
M  V30 68813 H 6487.21 1.74663 -4.60167 0
M  V30 68814 N 6488.86 1.54277 0.321918 0
M  V30 68815 C 6490.11 1.72817 1.06124 0
M  V30 68816 C 6490.44 0.501288 1.87619 0
M  V30 68817 O 6489.71 -0.50174 1.87917 0
M  V30 68818 C 6490 3.00476 1.9846 0
M  V30 68819 C 6489.85 4.33419 1.20284 0
M  V30 68820 C 6491.17 3.23897 2.97958 0
M  V30 68821 H 6488.29 0.628807 0.38441 0
M  V30 68822 H 6490.93 1.86974 0.337746 0
M  V30 68823 H 6489.08 2.88537 2.60151 0
M  V30 68824 H 6490.75 4.57244 0.610398 0
M  V30 68825 H 6488.99 4.30849 0.505142 0
M  V30 68826 H 6489.67 5.18966 1.88092 0
M  V30 68827 H 6492.14 3.35308 2.46389 0
M  V30 68828 H 6491.02 4.14575 3.59748 0
M  V30 68829 H 6491.28 2.41203 3.70505 0
M  V30 68830 N 6490.34 -0.584065 1.46378 0
M  V30 68831 C 6491.29 -1.6881 1.53256 0
M  V30 68832 C 6492.27 -1.56011 0.393616 0
M  V30 68833 O 6493.46 -1.64949 0.641944 0
M  V30 68834 C 6490.59 -3.07593 1.52451 0
M  V30 68835 C 6489.68 -3.25693 2.71634 0
M  V30 68836 N 6490.07 -3.13958 3.96566 0
M  V30 68837 C 6488.37 -3.56628 2.67829 0
M  V30 68838 C 6489.07 -3.34025 4.76237 0
M  V30 68839 N 6488.04 -3.59117 4.08088 0
M  V30 68840 H 6491.85 -1.58265 2.47648 0
M  V30 68841 H 6489.36 -0.788053 1.41998 0
M  V30 68842 H 6491.36 -3.86828 1.55466 0
M  V30 68843 H 6490.02 -3.1927 0.591344 0
M  V30 68844 H 6491.03 -2.91853 4.27834 0
M  V30 68845 H 6487.71 -3.74998 1.83529 0
M  V30 68846 H 6489.1 -3.30147 5.85195 0
M  V30 68847 N 6491.82 -1.34061 -0.828584 0
M  V30 68848 C 6493.06 -1.25849 -1.58134 0
M  V30 68849 C 6493.38 0.172936 -1.94232 0
M  V30 68850 O 6492.65 1.1042 -1.61816 0
M  V30 68851 H 6491.23 -0.462821 -0.58635 0
M  V30 68852 H 6493.9 -1.67905 -0.98965 0
M  V30 68853 H 6492.99 -1.85933 -2.50669 0
M  V30 68854 N 6493.29 1.0481 -1.17698 0
M  V30 68855 C 6494.2 2.16149 -0.911965 0
M  V30 68856 C 6495.22 1.73577 0.121258 0
M  V30 68857 O 6496.4 2.01314 -0.0589107 0
M  V30 68858 C 6493.46 3.43984 -0.433124 0
M  V30 68859 C 6492.52 4.0098 -1.5334 0
M  V30 68860 C 6491.75 5.22714 -1.07732 0
M  V30 68861 O 6491.98 5.70361 0.0669933 0
M  V30 68862 O 6490.91 5.7205 -1.87196 0
M  V30 68863 H 6494.74 2.41356 -1.8434 0
M  V30 68864 H 6492.32 1.14627 -0.958175 0
M  V30 68865 H 6494.2 4.21041 -0.173798 0
M  V30 68866 H 6492.88 3.20268 0.470109 0
M  V30 68867 H 6491.79 3.25345 -1.84666 0
M  V30 68868 H 6493.12 4.29022 -2.41249 0
M  V30 68869 N 6494.77 0.977823 1.23598 0
M  V30 68870 C 6495.7 0.474003 2.24245 0
M  V30 68871 C 6496.72 -0.422756 1.57215 0
M  V30 68872 O 6497.91 -0.227306 1.77047 0
M  V30 68873 C 6495.01 -0.333914 3.37251 0
M  V30 68874 C 6494.18 0.555356 4.3386 0
M  V30 68875 C 6493.24 -0.198272 5.25826 0
M  V30 68876 O 6492.26 0.411236 5.67713 0
M  V30 68877 N 6493.47 -1.485 5.61185 0
M  V30 68878 H 6496.23 1.3394 2.68105 0
M  V30 68879 H 6493.79 0.850796 1.37743 0
M  V30 68880 H 6495.78 -0.846364 3.95751 0
M  V30 68881 H 6494.35 -1.1003 2.92596 0
M  V30 68882 H 6493.57 1.24867 3.73901 0
M  V30 68883 H 6494.86 1.16149 4.95365 0
M  V30 68884 H 6494.26 -2.00175 5.291 0
M  V30 68885 H 6492.82 -1.94294 6.22168 0
M  V30 68886 N 6496.25 -1.38656 0.749159 0
M  V30 68887 C 6497.66 -1.82965 0.371588 0
M  V30 68888 C 6498.01 -1.62523 -1.09912 0
M  V30 68889 O 6497.14 -1.12401 -1.84919 0
M  V30 68890 C 6497.73 -3.32156 0.66767 0
M  V30 68891 C 6496.29 -3.7483 0.343429 0
M  V30 68892 C 6495.44 -2.61484 0.923106 0
M  V30 68893 H 6498.39 -1.27447 0.94567 0
M  V30 68894 H 6498.41 -3.80459 -0.055675 0
M  V30 68895 H 6497.92 -3.47002 1.73813 0
M  V30 68896 H 6496.02 -3.65565 -0.720631 0
M  V30 68897 H 6496.14 -4.71752 0.835885 0
M  V30 68898 H 6494.5 -2.52301 0.348775 0
M  V30 68899 H 6495.28 -2.79131 1.99851 0
M  V30 68900 N 6497.73 -0.497886 -1.49529 0
M  V30 68901 C 6498.69 0.27114 -2.27591 0
M  V30 68902 C 6499.69 0.896734 -1.33474 0
M  V30 68903 O 6500.88 0.761749 -1.56662 0
M  V30 68904 C 6498.01 1.38874 -3.11331 0
M  V30 68905 H 6499.21 -0.413808 -2.97031 0
M  V30 68906 H 6496.76 -0.252754 -1.54243 0
M  V30 68907 H 6497.49 2.10793 -2.46448 0
M  V30 68908 H 6497.28 0.945647 -3.80526 0
M  V30 68909 H 6498.77 1.93052 -3.70298 0
M  V30 68910 N 6499.21 1.55889 -0.231587 0
M  V30 68911 C 6500.45 1.9817 0.396597 0
M  V30 68912 C 6500.77 1.12073 1.59577 0
M  V30 68913 O 6500.04 0.20001 1.94876 0
M  V30 68914 H 6498.62 0.731883 0.149519 0
M  V30 68915 H 6501.29 1.9214 -0.326816 0
M  V30 68916 H 6500.38 3.03773 0.716136 0
M  V30 68917 N 6500.68 -0.0417018 1.57545 0
M  V30 68918 C 6502.09 -0.589889 1.77136 0
M  V30 68919 C 6502.45 -1.76296 0.861049 0
M  V30 68920 O 6501.57 -2.16336 0.0526508 0
M  V30 68921 C 6502.17 -1.07688 3.2123 0
M  V30 68922 C 6500.72 -1.57069 3.42062 0
M  V30 68923 C 6499.87 -0.503169 2.72697 0
M  V30 68924 H 6502.82 0.184525 1.57624 0
M  V30 68925 H 6502.84 -1.94473 3.27048 0
M  V30 68926 H 6502.36 -0.222894 3.87459 0
M  V30 68927 H 6500.46 -2.44695 2.8099 0
M  V30 68928 H 6500.57 -1.6269 4.50632 0
M  V30 68929 H 6498.93 -0.955283 2.36107 0
M  V30 68930 H 6499.72 0.341144 3.41601 0
M  V30 68931 N 6502.16 -1.54446 -0.313732 0
M  V30 68932 C 6503.41 -1.72779 -1.04843 0
M  V30 68933 C 6503.73 -0.509573 -1.88224 0
M  V30 68934 O 6503 0.476329 -1.90021 0
M  V30 68935 H 6501.58 -0.637067 -0.39007 0
M  V30 68936 H 6504.24 -1.91772 -0.347792 0
M  V30 68937 H 6503.34 -2.61161 -1.70884 0
M  V30 68938 N 6503.64 0.576294 -1.46685 0
M  V30 68939 C 6504.89 1.33163 -1.52026 0
M  V30 68940 C 6505.21 1.94203 -0.176128 0
M  V30 68941 O 6504.48 1.7891 0.798006 0
M  V30 68942 H 6503.06 0.494439 -0.559945 0
M  V30 68943 H 6505.72 0.674439 -1.82859 0
M  V30 68944 H 6504.82 2.13503 -2.27646 0
M  V30 68945 N 6505.12 1.34498 0.821463 0
M  V30 68946 C 6506.4 1.17517 1.56362 0
M  V30 68947 C 6506.78 -0.251661 2.09595 0
M  V30 68948 O 6506.12 -1.25319 1.91069 0
M  V30 68949 C 6506.33 2.23093 2.68385 0
M  V30 68950 C 6507.68 2.58144 3.37115 0
M  V30 68951 O 6508.71 2.21893 2.78643 0
M  V30 68952 O 6507.56 3.20421 4.42711 0
M  V30 68953 H 6504.66 0.455635 0.690163 0
M  V30 68954 H 6507.2 1.46135 0.862709 0
M  V30 68955 H 6505.98 3.18858 2.26816 0
M  V30 68956 H 6505.6 1.95659 3.46126 0
M  V30 68957 N 6506.6 -1.04184 1.18252 0
M  V30 68958 C 6507.56 -2.10336 0.910581 0
M  V30 68959 C 6508.56 -1.60466 -0.103551 0
M  V30 68960 O 6509.75 -1.73716 0.12976 0
M  V30 68961 C 6506.88 -3.3893 0.365959 0
M  V30 68962 H 6508.07 -2.35893 1.85188 0
M  V30 68963 H 6505.63 -1.2059 0.994375 0
M  V30 68964 H 6506.36 -3.19035 -0.582003 0
M  V30 68965 H 6506.15 -3.76442 1.09699 0
M  V30 68966 H 6507.64 -4.17147 0.194356 0
M  V30 68967 N 6508.07 -0.984364 -1.23077 0
M  V30 68968 C 6509.35 -0.571708 -1.87058 0
M  V30 68969 C 6509.73 0.951119 -1.88459 0
M  V30 68970 O 6509.08 1.82949 -1.36901 0
M  V30 68971 C 6509.29 -1.18232 -3.28363 0
M  V30 68972 C 6510.64 -1.27753 -4.04925 0
M  V30 68973 O 6511.66 -1.13608 -3.37597 0
M  V30 68974 O 6510.52 -1.503 -5.25426 0
M  V30 68975 H 6507.61 -0.193055 -0.804151 0
M  V30 68976 H 6510.16 -1.0797 -1.30922 0
M  V30 68977 H 6508.93 -2.22432 -3.21931 0
M  V30 68978 H 6508.56 -0.659398 -3.92094 0
M  V30 68979 N 6509.55 1.38256 -0.756502 0
M  V30 68980 C 6510.8 1.99656 -0.313341 0
M  V30 68981 C 6511.12 1.60351 1.10961 0
M  V30 68982 O 6510.39 0.861728 1.75929 0
M  V30 68983 H 6508.97 0.738424 -0.112864 0
M  V30 68984 H 6511.63 1.68976 -0.971244 0
M  V30 68985 H 6510.73 3.09793 -0.378798 0
M  V30 68986 N 6511.03 0.505809 1.49263 0
M  V30 68987 C 6511.94 -0.274492 2.32989 0
M  V30 68988 C 6512.96 -0.962673 1.44943 0
M  V30 68989 O 6514.13 -0.942991 1.7796 0
M  V30 68990 C 6511.2 -1.32219 3.20498 0
M  V30 68991 C 6510.26 -0.646941 4.24397 0
M  V30 68992 C 6509.49 -1.64472 5.07725 0
M  V30 68993 O 6509.71 -2.87506 4.92642 0
M  V30 68994 O 6508.65 -1.1974 5.89869 0
M  V30 68995 H 6512.47 0.410938 3.00907 0
M  V30 68996 H 6510.06 0.267069 1.46994 0
M  V30 68997 H 6511.94 -1.92825 3.74695 0
M  V30 68998 H 6510.62 -1.99047 2.55269 0
M  V30 68999 H 6509.52 -0.00102127 3.741 0
M  V30 69000 H 6510.86 -0.0210316 4.92196 0
M  V30 69001 N 6512.51 -1.55764 0.239851 0
M  V30 69002 C 6513.76 -1.98378 -0.386082 0
M  V30 69003 C 6514.08 -1.12917 -1.5898 0
M  V30 69004 O 6513.35 -0.210342 -1.94767 0
M  V30 69005 H 6511.93 -0.732666 -0.145635 0
M  V30 69006 H 6514.59 -1.91964 0.337001 0
M  V30 69007 H 6513.69 -3.04148 -0.700016 0
M  V30 69008 N 6513.99 0.0333462 -1.57565 0
M  V30 69009 C 6514.95 1.01991 -2.05257 0
M  V30 69010 C 6515.95 1.29299 -0.955946 0
M  V30 69011 O 6517.14 1.24375 -1.2197 0
M  V30 69012 C 6514.27 2.35387 -2.46589 0
M  V30 69013 H 6515.46 0.608032 -2.93672 0
M  V30 69014 H 6513.02 0.28007 -1.5377 0
M  V30 69015 H 6513.75 2.81331 -1.61317 0
M  V30 69016 H 6513.54 2.16897 -3.26647 0
M  V30 69017 H 6515.03 3.06225 -2.83929 0
M  V30 69018 N 6515.46 1.5461 0.305537 0
M  V30 69019 C 6516.69 1.77984 1.06472 0
M  V30 69020 C 6517.11 0.535519 1.80316 0
M  V30 69021 O 6516.47 -0.513752 1.73869 0
M  V30 69022 C 6516.52 2.98407 2.02449 0
M  V30 69023 O 6515.62 2.71214 3.10671 0
M  V30 69024 H 6514.97 0.589239 0.306094 0
M  V30 69025 H 6517.5 2.01682 0.34434 0
M  V30 69026 H 6517.51 3.26252 2.44997 0
M  V30 69027 H 6516.18 3.88635 1.48107 0
M  V30 69028 H 6514.76 2.54372 2.72671 0
M  V30 69029 N 6516.94 -0.568506 1.46989 0
M  V30 69030 C 6517.85 -1.7041 1.61238 0
M  V30 69031 C 6518.87 -1.66797 0.49547 0
M  V30 69032 O 6520.04 -1.86449 0.761504 0
M  V30 69033 C 6517.11 -3.06919 1.6125 0
M  V30 69034 C 6516.17 -3.21687 2.84282 0
M  V30 69035 C 6515.4 -4.51684 2.84284 0
M  V30 69036 O 6515.63 -5.36451 1.93846 0
M  V30 69037 O 6514.56 -4.70002 3.76008 0
M  V30 69038 H 6518.39 -1.61334 2.57304 0
M  V30 69039 H 6515.97 -0.737209 1.29945 0
M  V30 69040 H 6517.85 -3.88176 1.64003 0
M  V30 69041 H 6516.53 -3.16402 0.683484 0
M  V30 69042 H 6515.44 -2.39869 2.87078 0
M  V30 69043 H 6516.77 -3.17102 3.7644 0
M  V30 69044 N 6518.42 -1.34932 -0.814318 0
M  V30 69045 C 6519.67 -1.27519 -1.5679 0
M  V30 69046 C 6519.99 0.152325 -1.94404 0
M  V30 69047 O 6519.26 1.08697 -1.62978 0
M  V30 69048 H 6517.84 -0.469014 -0.581408 0
M  V30 69049 H 6520.5 -1.68945 -0.971786 0
M  V30 69050 H 6519.6 -1.88582 -2.48683 0
M  V30 69051 N 6519.9 1.03555 -1.18803 0
M  V30 69052 C 6520.86 2.0985 -0.921722 0
M  V30 69053 C 6521.86 1.60519 0.0950396 0
M  V30 69054 O 6523.05 1.73645 -0.138971 0
M  V30 69055 C 6520.18 3.38731 -0.383928 0
M  V30 69056 H 6521.38 2.34908 -1.86436 0
M  V30 69057 H 6518.93 1.20061 -1.00076 0
M  V30 69058 H 6519.67 3.19339 0.565076 0
M  V30 69059 H 6519.45 3.75855 -1.11694 0
M  V30 69060 H 6520.94 4.17039 -0.216476 0
M  V30 69061 N 6521.38 0.990877 1.22554 0
M  V30 69062 C 6522.63 0.664285 1.90871 0
M  V30 69063 C 6522.95 -0.805948 1.77565 0
M  V30 69064 O 6522.22 -1.57747 1.16158 0
M  V30 69065 H 6520.8 0.242709 0.706471 0
M  V30 69066 H 6523.46 1.25695 1.48952 0
M  V30 69067 H 6522.55 0.925054 2.98076 0
M  V30 69068 N 6522.86 -1.37853 0.763824 0
M  V30 69069 C 6524.13 -1.94 0.249634 0
M  V30 69070 C 6524.51 -1.69822 -1.25394 0
M  V30 69071 O 6523.86 -1.04252 -2.03332 0
M  V30 69072 C 6524.07 -3.43549 0.61442 0
M  V30 69073 C 6525.42 -4.20623 0.579774 0
M  V30 69074 O 6526.44 -3.51876 0.553329 0
M  V30 69075 O 6525.3 -5.43199 0.599797 0
M  V30 69076 H 6522.4 -0.825146 0.0553461 0
M  V30 69077 H 6524.94 -1.47187 0.84464 0
M  V30 69078 H 6523.71 -3.54697 1.65243 0
M  V30 69079 H 6523.34 -3.97599 -0.00805558 0
M  V30 69080 N 6524.33 -0.513718 -1.48992 0
M  V30 69081 C 6525.3 0.246986 -2.27865 0
M  V30 69082 C 6526.3 0.882526 -1.34418 0
M  V30 69083 O 6527.49 0.74509 -1.57461 0
M  V30 69084 C 6524.62 1.35564 -3.12786 0
M  V30 69085 H 6525.81 -0.445289 -2.96576 0
M  V30 69086 H 6523.36 -0.269099 -1.53966 0
M  V30 69087 H 6524.1 2.08167 -2.4867 0
M  V30 69088 H 6523.88 0.905234 -3.81507 0
M  V30 69089 H 6525.37 1.89114 -3.72325 0
M  V30 69090 N 6525.81 1.55635 -0.248108 0
M  V30 69091 C 6526.77 2.20152 0.637621 0
M  V30 69092 C 6527.77 1.17116 1.10184 0
M  V30 69093 O 6528.96 1.4219 1.00636 0
M  V30 69094 C 6526.1 2.84605 1.87651 0
M  V30 69095 H 6527.29 2.99807 0.0747076 0
M  V30 69096 H 6524.84 1.563 0.00142764 0
M  V30 69097 H 6525.58 2.08891 2.48063 0
M  V30 69098 H 6525.36 3.60084 1.55184 0
M  V30 69099 H 6526.85 3.33977 2.50698 0
M  V30 69100 N 6527.29 -0.0249897 1.5758 0
M  V30 69101 C 6528.2 -1.0412 2.10229 0
M  V30 69102 C 6529.22 -1.39363 1.04182 0
M  V30 69103 O 6530.39 -1.486 1.35941 0
M  V30 69104 C 6527.46 -2.32198 2.57458 0
M  V30 69105 C 6526.52 -2.03499 3.78003 0
M  V30 69106 C 6525.75 -3.25471 4.22971 0
M  V30 69107 O 6525.97 -4.36288 3.67435 0
M  V30 69108 O 6524.91 -3.10932 5.15369 0
M  V30 69109 H 6528.73 -0.623754 2.97225 0
M  V30 69110 H 6526.32 -0.242234 1.47423 0
M  V30 69111 H 6528.2 -3.07488 2.88148 0
M  V30 69112 H 6526.88 -2.7323 1.73571 0
M  V30 69113 H 6525.78 -1.25765 3.52327 0
M  V30 69114 H 6527.12 -1.6732 4.62887 0
M  V30 69115 N 6528.77 -1.5477 -0.297333 0
M  V30 69116 C 6530.02 -1.73881 -1.03004 0
M  V30 69117 C 6530.34 -0.529508 -1.87673 0
M  V30 69118 O 6529.61 0.456148 -1.90515 0
M  V30 69119 H 6528.19 -0.641169 -0.383291 0
M  V30 69120 H 6530.85 -1.9213 -0.327433 0
M  V30 69121 H 6529.94 -2.62959 -1.68104 0
M  V30 69122 N 6530.25 0.560703 -1.47288 0
M  V30 69123 C 6531.21 1.65015 -1.59068 0
M  V30 69124 C 6532.21 1.53898 -0.466051 0
M  V30 69125 O 6533.4 1.58119 -0.731018 0
M  V30 69126 C 6530.53 3.04543 -1.53188 0
M  V30 69127 H 6531.72 1.55921 -2.56181 0
M  V30 69128 H 6529.28 0.780343 -1.35426 0
M  V30 69129 H 6530.01 3.19173 -0.574376 0
M  V30 69130 H 6529.8 3.14021 -2.34805 0
M  V30 69131 H 6531.29 3.83809 -1.64562 0
M  V30 69132 N 6531.72 1.35362 0.807151 0
M  V30 69133 C 6532.97 1.28349 1.56112 0
M  V30 69134 C 6533.29 -0.142013 1.94482 0
M  V30 69135 O 6532.56 -1.07831 1.63552 0
M  V30 69136 H 6531.14 0.472091 0.578912 0
M  V30 69137 H 6533.8 1.69458 0.962812 0
M  V30 69138 H 6532.9 1.89898 2.4768 0
M  V30 69139 N 6533.2 -1.02924 1.1935 0
M  V30 69140 C 6534.48 -1.73391 0.90526 0
M  V30 69141 C 6534.86 -2.02713 -0.589137 0
M  V30 69142 O 6534.21 -1.68148 -1.54721 0
M  V30 69143 C 6534.42 -3.01091 1.76481 0
M  V30 69144 C 6535.77 -3.74606 1.99889 0
M  V30 69145 O 6536.79 -3.11017 1.73629 0
M  V30 69146 O 6535.65 -4.88922 2.44166 0
M  V30 69147 H 6532.74 -0.755069 0.337342 0
M  V30 69148 H 6535.29 -1.08886 1.30161 0
M  V30 69149 H 6534.06 -2.75647 2.77731 0
M  V30 69150 H 6533.68 -3.73336 1.36771 0
M  V30 69151 N 6534.68 -0.997362 -1.22026 0
M  V30 69152 C 6535.59 -0.560432 -2.27808 0
M  V30 69153 C 6536.61 0.392917 -1.69506 0
M  V30 69154 O 6537.78 0.258645 -1.99732 0
M  V30 69155 C 6534.85 0.113625 -3.46514 0
M  V30 69156 C 6533.91 -0.883246 -4.20116 0
M  V30 69157 C 6533.14 -0.241262 -5.33154 0
M  V30 69158 O 6533.36 0.963774 -5.62199 0
M  V30 69159 O 6532.3 -0.948363 -5.94382 0
M  V30 69160 H 6536.12 -1.44059 -2.67359 0
M  V30 69161 H 6533.71 -0.765838 -1.28278 0
M  V30 69162 H 6535.59 0.490989 -4.1853 0
M  V30 69163 H 6534.27 0.968279 -3.08879 0
M  V30 69164 H 6533.17 -1.31163 -3.50353 0
M  V30 69165 H 6534.51 -1.70724 -4.61643 0
M  V30 69166 N 6536.16 1.37446 -0.771123 0
M  V30 69167 C 6537.07 2.34069 -0.157713 0
M  V30 69168 C 6538.08 1.60148 0.680348 0
M  V30 69169 O 6539.26 1.92242 0.600414 0
M  V30 69170 C 6536.33 3.39318 0.711614 0
M  V30 69171 C 6535.39 4.29062 -0.142833 0
M  V30 69172 C 6534.62 5.29285 0.685098 0
M  V30 69173 O 6534.84 5.37035 1.92222 0
M  V30 69174 O 6533.78 6.01826 0.0946315 0
M  V30 69175 H 6537.6 2.88256 -0.956138 0
M  V30 69176 H 6535.19 1.39597 -0.532273 0
M  V30 69177 H 6537.07 4.03717 1.20792 0
M  V30 69178 H 6535.74 2.8746 1.48824 0
M  V30 69179 H 6534.65 3.67766 -0.685486 0
M  V30 69180 H 6535.98 4.84223 -0.882526 0
M  V30 69181 N 6537.64 0.521612 1.48718 0
M  V30 69182 C 6538.55 -0.249765 2.33267 0
M  V30 69183 C 6539.56 -0.947245 1.45956 0
M  V30 69184 O 6540.74 -0.924063 1.7895 0
M  V30 69185 C 6537.8 -1.28813 3.21882 0
M  V30 69186 C 6536.86 -0.601892 4.2506 0
M  V30 69187 C 6536.1 -1.59078 5.09441 0
M  V30 69188 O 6536.32 -2.82265 4.95664 0
M  V30 69189 O 6535.25 -1.13477 5.91106 0
M  V30 69190 H 6539.08 0.442831 3.00454 0
M  V30 69191 H 6536.67 0.282645 1.46702 0
M  V30 69192 H 6538.55 -1.8884 3.76719 0
M  V30 69193 H 6537.22 -1.96328 2.57366 0
M  V30 69194 H 6536.13 0.0386571 3.7408 0
M  V30 69195 H 6537.46 0.0311735 4.9219 0
M  V30 69196 N 6539.11 -1.55501 0.256358 0
M  V30 69197 C 6540.08 -2.20487 -0.625937 0
M  V30 69198 C 6541.08 -1.17698 -1.09562 0
M  V30 69199 O 6542.27 -1.42722 -0.998806 0
M  V30 69200 C 6539.4 -2.85596 -1.86139 0
M  V30 69201 H 6540.59 -2.99842 -0.058807 0
M  V30 69202 H 6538.15 -1.56298 0.00686134 0
M  V30 69203 H 6538.88 -2.10203 -2.46951 0
M  V30 69204 H 6538.67 -3.60902 -1.53272 0
M  V30 69205 H 6540.16 -3.35301 -2.48923 0
M  V30 69206 N 6540.59 0.0166325 -1.57591 0
M  V30 69207 C 6541.84 0.705966 -1.90116 0
M  V30 69208 C 6542.17 1.74336 -0.855603 0
M  V30 69209 O 6541.45 1.9408 0.127806 0
M  V30 69210 C 6541.73 1.36424 -3.33257 0
M  V30 69211 C 6541.58 0.339518 -4.48517 0
M  V30 69212 C 6542.9 2.29492 -3.75528 0
M  V30 69213 H 6540.02 0.255174 -0.691415 0
M  V30 69214 H 6542.66 -0.0312464 -1.89974 0
M  V30 69215 H 6540.81 1.9926 -3.33508 0
M  V30 69216 H 6542.48 -0.287877 -4.60401 0
M  V30 69217 H 6540.73 -0.339951 -4.32466 0
M  V30 69218 H 6541.4 0.838834 -5.45589 0
M  V30 69219 H 6543.87 1.76689 -3.76723 0
M  V30 69220 H 6542.75 2.72525 -4.76468 0
M  V30 69221 H 6543.01 3.16697 -3.08472 0
M  V30 69222 N 6542.07 1.54925 0.289121 0
M  V30 69223 C 6543.02 1.83082 1.35886 0
M  V30 69224 C 6544 0.688681 1.45417 0
M  V30 69225 O 6545.2 0.949627 1.49369 0
M  V30 69226 C 6542.33 2.09206 2.72191 0
M  V30 69227 C 6541.41 3.29636 2.66835 0
M  V30 69228 N 6541.8 4.4992 2.31096 0
M  V30 69229 C 6540.1 3.31902 2.97921 0
M  V30 69230 C 6540.8 5.31971 2.35332 0
M  V30 69231 N 6539.78 4.69982 2.73163 0
M  V30 69232 H 6543.58 2.73638 1.07236 0
M  V30 69233 H 6541.09 1.54585 0.497731 0
M  V30 69234 H 6543.09 2.27528 3.49337 0
M  V30 69235 H 6541.75 1.19925 3.01742 0
M  V30 69236 H 6542.76 4.76309 2.03347 0
M  V30 69237 H 6539.44 2.52765 3.32289 0
M  V30 69238 H 6540.83 6.38108 2.10399 0
M  V30 69239 N 6543.55 -0.552884 1.47584 0
M  V30 69240 C 6544.46 -1.6869 1.63036 0
M  V30 69241 C 6545.47 -1.66262 0.513133 0
M  V30 69242 O 6546.65 -1.8563 0.781236 0
M  V30 69243 C 6543.72 -3.05191 1.64497 0
M  V30 69244 C 6542.78 -3.18654 2.87678 0
M  V30 69245 C 6542.01 -4.48643 2.89059 0
M  V30 69246 O 6542.23 -5.34365 1.99525 0
M  V30 69247 O 6541.17 -4.65988 3.80971 0
M  V30 69248 H 6544.99 -1.58595 2.59 0
M  V30 69249 H 6542.58 -0.723385 1.30719 0
M  V30 69250 H 6544.46 -3.86415 1.68111 0
M  V30 69251 H 6543.13 -3.15659 0.717004 0
M  V30 69252 H 6542.04 -2.36811 2.89606 0
M  V30 69253 H 6543.37 -3.13091 3.79782 0
M  V30 69254 N 6545.03 -1.35788 -0.799961 0
M  V30 69255 C 6545.99 -1.29115 -1.89372 0
M  V30 69256 C 6546.99 -0.201133 -1.59537 0
M  V30 69257 O 6548.18 -0.455256 -1.68146 0
M  V30 69258 C 6545.31 -0.998995 -3.25934 0
M  V30 69259 H 6546.5 -2.26377 -1.96707 0
M  V30 69260 H 6544.06 -1.20408 -0.996576 0
M  V30 69261 H 6544.79 -0.0305211 -3.24286 0
M  V30 69262 H 6544.58 -1.78768 -3.48976 0
M  V30 69263 H 6546.07 -0.978084 -4.05984 0
M  V30 69264 N 6546.5 1.0229 -1.19894 0
M  V30 69265 C 6547.75 1.7544 -1.00326 0
M  V30 69266 C 6548.07 1.8934 0.466422 0
M  V30 69267 O 6547.34 1.43133 1.33752 0
M  V30 69268 H 6545.92 0.649936 -0.368228 0
M  V30 69269 H 6548.59 1.23358 -1.50894 0
M  V30 69270 H 6547.68 2.76039 -1.45633 0
M  V30 69271 N 6547.98 1.00382 1.21496 0
M  V30 69272 C 6549.39 0.71934 1.72286 0
M  V30 69273 C 6549.75 -0.763091 1.80752 0
M  V30 69274 O 6548.87 -1.59612 1.46127 0
M  V30 69275 C 6549.47 1.29911 3.12903 0
M  V30 69276 C 6548.02 1.06378 3.61055 0
M  V30 69277 C 6547.17 1.41265 2.3862 0
M  V30 69278 H 6550.12 1.17486 1.06689 0
M  V30 69279 H 6550.14 0.68317 3.74317 0
M  V30 69280 H 6549.66 2.37805 3.06709 0
M  V30 69281 H 6547.76 0.00195301 3.726 0
M  V30 69282 H 6547.87 1.73484 4.46587 0
M  V30 69283 H 6546.23 0.831417 2.40748 0
M  V30 69284 H 6547.02 2.50187 2.35078 0
M  V30 69285 N 6549.46 -1.37035 0.778402 0
M  V30 69286 C 6550.71 -1.99132 0.345065 0
M  V30 69287 C 6551.03 -1.62096 -1.08396 0
M  V30 69288 O 6550.3 -0.889608 -1.74536 0
M  V30 69289 H 6548.88 -0.736535 0.124598 0
M  V30 69290 H 6551.54 -1.67409 0.998003 0
M  V30 69291 H 6550.64 -3.09151 0.428035 0
M  V30 69292 N 6550.94 -0.529492 -1.48439 0
M  V30 69293 C 6552.19 0.004776 -2.02099 0
M  V30 69294 C 6552.51 1.34814 -1.4089 0
M  V30 69295 O 6551.78 1.87298 -0.574118 0
M  V30 69296 H 6550.36 0.00475327 -0.746985 0
M  V30 69297 H 6553.02 -0.693212 -1.82155 0
M  V30 69298 H 6552.12 0.113465 -3.11894 0
M  V30 69299 N 6552.42 1.55363 -0.264601 0
M  V30 69300 C 6553.38 2.20816 0.614235 0
M  V30 69301 C 6554.38 1.18278 1.08936 0
M  V30 69302 O 6555.57 1.43249 0.991223 0
M  V30 69303 C 6552.7 2.86579 1.84622 0
M  V30 69304 H 6553.9 2.99869 0.0429048 0
M  V30 69305 H 6551.45 1.56293 -0.0151501 0
M  V30 69306 H 6552.18 2.1151 2.45833 0
M  V30 69307 H 6551.97 3.61709 1.51356 0
M  V30 69308 H 6553.46 3.36617 2.47141 0
M  V30 69309 N 6553.9 -0.00827481 1.57598 0
M  V30 69310 C 6555.17 -0.731421 1.8141 0
M  V30 69311 C 6555.55 -1.92447 0.867612 0
M  V30 69312 O 6554.9 -2.2834 -0.0855629 0
M  V30 69313 C 6555.11 -1.14493 3.29685 0
M  V30 69314 C 6556.46 -1.55223 3.9521 0
M  V30 69315 O 6557.48 -1.23895 3.33959 0
M  V30 69316 O 6556.34 -2.13446 5.03093 0
M  V30 69317 H 6553.44 -0.355429 0.746726 0
M  V30 69318 H 6555.98 0.0165446 1.69692 0
M  V30 69319 H 6554.75 -0.294178 3.90193 0
M  V30 69320 H 6554.38 -1.95226 3.4637 0
M  V30 69321 N 6555.37 -1.55076 -0.280901 0
M  V30 69322 C 6556.62 -1.74964 -1.01154 0
M  V30 69323 C 6556.94 -0.549384 -1.87101 0
M  V30 69324 O 6556.21 0.435915 -1.90988 0
M  V30 69325 H 6554.79 -0.645198 -0.376469 0
M  V30 69326 H 6557.45 -1.92466 -0.307036 0
M  V30 69327 H 6556.55 -2.64727 -1.65305 0
M  V30 69328 N 6556.85 0.54505 -1.47875 0
M  V30 69329 C 6557.81 1.63318 -1.6081 0
M  V30 69330 C 6558.81 1.53395 -0.482348 0
M  V30 69331 O 6560 1.57335 -0.747748 0
M  V30 69332 C 6557.14 3.02901 -1.56409 0
M  V30 69333 H 6558.33 1.53195 -2.5782 0
M  V30 69334 H 6555.88 0.765936 -1.36247 0
M  V30 69335 H 6556.62 3.18546 -0.608196 0
M  V30 69336 H 6556.4 3.11513 -2.38123 0
M  V30 69337 H 6557.89 3.82042 -1.68624 0
M  V30 69338 N 6558.33 1.3621 0.792749 0
M  V30 69339 C 6559.58 1.30448 1.55278 0
M  V30 69340 C 6559.91 -0.117003 1.93847 0
M  V30 69341 O 6559.18 -1.06962 1.62448 0
M  V30 69342 C 6559.47 2.22405 2.8321 0
M  V30 69343 C 6559.32 3.73235 2.51029 0
M  V30 69344 C 6560.64 2.13199 3.85012 0
M  V30 69345 H 6557.76 0.475191 0.563349 0
M  V30 69346 H 6560.4 1.66733 0.911045 0
M  V30 69347 H 6558.55 1.91591 3.37972 0
M  V30 69348 H 6560.22 4.14554 2.02343 0
M  V30 69349 H 6558.46 3.92835 1.84019 0
M  V30 69350 H 6559.14 4.32984 3.42387 0
M  V30 69351 H 6561.61 2.40315 3.39688 0
M  V30 69352 H 6560.49 2.79717 4.72281 0
M  V30 69353 H 6560.75 1.11823 4.27724 0
M  V30 69354 N 6559.81 -1.01652 1.20435 0
M  V30 69355 C 6560.77 -2.08357 0.954991 0
M  V30 69356 C 6561.77 -1.6065 -0.0694904 0
M  V30 69357 O 6562.96 -1.73402 0.166578 0
M  V30 69358 C 6560.09 -3.38078 0.437768 0
M  V30 69359 H 6561.29 -2.31912 1.9015 0
M  V30 69360 H 6558.84 -1.18453 1.01973 0
M  V30 69361 H 6559.57 -3.20198 -0.5142 0
M  V30 69362 H 6559.36 -3.7403 1.17659 0
M  V30 69363 H 6560.85 -4.16641 0.282796 0
M  V30 69364 N 6561.29 -1.01025 -1.20962 0
M  V30 69365 C 6562.53 -0.696973 -1.90447 0
M  V30 69366 C 6562.86 0.770843 -1.78246 0
M  V30 69367 O 6562.14 1.55935 -1.16252 0
M  V30 69368 C 6562.42 -1.12533 -3.42065 0
M  V30 69369 C 6562.28 -2.65298 -3.63231 0
M  V30 69370 C 6563.59 -0.691718 -4.3463 0
M  V30 69371 H 6560.71 -0.254672 -0.6916 0
M  V30 69372 H 6563.36 -1.25686 -1.42488 0
M  V30 69373 H 6561.51 -0.648953 -3.83042 0
M  V30 69374 H 6563.18 -3.20739 -3.31549 0
M  V30 69375 H 6561.42 -3.06568 -3.06918 0
M  V30 69376 H 6562.09 -2.90322 -4.69486 0
M  V30 69377 H 6564.57 -1.10115 -4.01265 0
M  V30 69378 H 6563.44 -1.01954 -5.39348 0
M  V30 69379 H 6563.7 0.406918 -4.40223 0
M  V30 69380 N 6562.76 1.36621 -0.785658 0
M  V30 69381 C 6563.99 2.03598 -0.36814 0
M  V30 69382 C 6564.41 1.59244 1.01424 0
M  V30 69383 O 6563.76 0.780113 1.64986 0
M  V30 69384 C 6563.82 3.59075 -0.417983 0
M  V30 69385 O 6563.54 4.01811 -1.74584 0
M  V30 69386 C 6565.04 4.43299 0.00938132 0
M  V30 69387 H 6562.26 0.6535 -0.152244 0
M  V30 69388 H 6564.8 1.74674 -1.06346 0
M  V30 69389 H 6562.96 3.86723 0.228883 0
M  V30 69390 H 6563.37 4.96389 -1.69407 0
M  V30 69391 H 6564.84 5.51947 -0.0766358 0
M  V30 69392 H 6565.32 4.26178 1.06154 0
M  V30 69393 H 6565.93 4.20905 -0.609828 0
M  V30 69394 N 6564.24 0.537356 1.48156 0
M  V30 69395 C 6565.52 -0.0587884 1.95512 0
M  V30 69396 C 6565.9 -1.50558 1.47972 0
M  V30 69397 O 6565.25 -2.17205 0.70953 0
M  V30 69398 C 6565.46 0.0660969 3.48937 0
M  V30 69399 C 6566.81 -0.0894138 4.24506 0
M  V30 69400 O 6567.83 -0.00733743 3.56199 0
M  V30 69401 O 6566.69 -0.262546 5.45869 0
M  V30 69402 H 6563.78 -0.0752025 0.823574 0
M  V30 69403 H 6566.33 0.602476 1.58645 0
M  V30 69404 H 6565.1 1.07363 3.76283 0
M  V30 69405 H 6564.72 -0.633684 3.92518 0
M  V30 69406 N 6565.72 -1.5522 0.272837 0
M  V30 69407 C 6566.97 -1.99152 -0.343916 0
M  V30 69408 C 6567.29 -1.16264 -1.56549 0
M  V30 69409 O 6566.56 -0.251608 -1.94277 0
M  V30 69410 H 6565.14 -0.73559 -0.130061 0
M  V30 69411 H 6567.8 -1.91206 0.377644 0
M  V30 69412 H 6566.9 -3.05565 -0.635344 0
M  V30 69413 N 6567.2 -8.31064e-05 -1.576 0
M  V30 69414 C 6568.45 0.683395 -1.90195 0
M  V30 69415 C 6568.77 1.74308 -0.874161 0
M  V30 69416 O 6568.04 1.957 0.0884206 0
M  V30 69417 H 6566.62 0.255406 -0.701981 0
M  V30 69418 H 6569.28 -0.0410287 -1.94857 0
M  V30 69419 H 6568.38 1.15459 -2.89958 0
M  V30 69420 N 6568.68 1.55223 0.272673 0
M  V30 69421 C 6570.09 1.66549 0.843692 0
M  V30 69422 C 6570.44 0.59274 1.87032 0
M  V30 69423 O 6569.56 -0.265705 2.14763 0
M  V30 69424 C 6570.16 3.01927 1.53707 0
M  V30 69425 C 6568.72 3.15279 2.05612 0
M  V30 69426 C 6567.86 2.62347 0.898285 0
M  V30 69427 H 6570.82 1.58624 0.0490161 0
M  V30 69428 H 6570.84 2.94933 2.40405 0
M  V30 69429 H 6570.35 3.79982 0.78963 0
M  V30 69430 H 6568.45 2.41998 2.83316 0
M  V30 69431 H 6568.56 4.21845 2.2712 0
M  V30 69432 H 6566.93 2.19513 1.29175 0
M  V30 69433 H 6567.71 3.42906 0.164347 0
M  V30 69434 N 6570.15 -0.5372 1.48162 0
M  V30 69435 C 6571.4 -1.29341 1.55811 0
M  V30 69436 C 6571.73 -1.93148 0.228904 0
M  V30 69437 O 6570.98 -1.79478 -0.780147 0
M  V30 69438 C 6571.28 -2.40947 2.63969 0
M  V30 69439 C 6570.95 -1.9484 4.0663 0
M  V30 69440 C 6569.61 -1.81982 4.45461 0
M  V30 69441 C 6571.96 -1.59907 4.96064 0
M  V30 69442 C 6569.29 -1.32517 5.71538 0
M  V30 69443 C 6571.64 -1.11906 6.22623 0
M  V30 69444 C 6570.31 -0.976603 6.60317 0
M  V30 69445 H 6569.58 -0.473292 0.570154 0
M  V30 69446 H 6572.22 -0.600276 1.81849 0
M  V30 69447 H 6570.53 -3.159 2.31764 0
M  V30 69448 H 6572.23 -2.99092 2.67104 0
M  V30 69449 H 6568.82 -2.05796 3.7596 0
M  V30 69450 H 6573 -1.68704 4.66747 0
M  V30 69451 H 6568.26 -1.20169 5.99474 0
M  V30 69452 H 6572.43 -0.839446 6.91322 0
M  V30 69453 H 6570.06 -0.591101 7.57898 0
M  V30 69454 N 6571.63 -1.36629 -0.785514 0
M  V30 69455 C 6573.05 -1.17127 -1.08413 0
M  V30 69456 C 6573.25 0.00197865 -2.015 0
M  V30 69457 O 6572.3 0.666149 -2.43554 0
M  V30 69458 C 6573.62 -2.48386 -1.69485 0
M  V30 69459 C 6575.17 -2.54784 -1.81808 0
M  V30 69460 C 6575.64 -3.86139 -2.46294 0
M  V30 69461 N 6577.13 -3.87506 -2.53759 0
M  V30 69462 C 6577.87 -4.85884 -3.04474 0
M  V30 69463 N 6577.36 -5.94655 -3.55467 0
M  V30 69464 N 6579.16 -4.733 -3.03222 0
M  V30 69465 H 6571.31 -2.11741 -0.167152 0
M  V30 69466 H 6573.57 -0.938082 -0.136771 0
M  V30 69467 H 6573.28 -3.34528 -1.08554 0
M  V30 69468 H 6573.15 -2.64476 -2.68946 0
M  V30 69469 H 6575.54 -1.69058 -2.41875 0
M  V30 69470 H 6575.62 -2.4259 -0.811404 0
M  V30 69471 H 6575.26 -4.72273 -1.8687 0
M  V30 69472 H 6575.19 -3.95631 -3.4754 0
M  V30 69473 H 6577.68 -3.08925 -2.17655 0
M  V30 69474 H 6578 -6.65689 -3.92527 0
M  V30 69475 H 6576.34 -5.98319 -3.53609 0
M  V30 69476 H 6579.53 -3.87452 -2.62676 0
M  V30 69477 H 6579.7 -5.50127 -3.42438 0
M  V30 69478 N 6573.11 1.01012 -1.20972 0
M  V30 69479 C 6574.52 1.5616 -1.02328 0
M  V30 69480 C 6574.87 1.91686 0.418445 0
M  V30 69481 O 6574 1.72935 1.30086 0
M  V30 69482 C 6574.59 2.83751 -1.85124 0
M  V30 69483 C 6573.15 3.35403 -1.70827 0
M  V30 69484 C 6572.3 2.08645 -1.82654 0
M  V30 69485 H 6575.25 0.833184 -1.35069 0
M  V30 69486 H 6575.27 3.55424 -1.35846 0
M  V30 69487 H 6574.78 2.57863 -2.90049 0
M  V30 69488 H 6572.88 3.66237 -0.685657 0
M  V30 69489 H 6573 4.07169 -2.52489 0
M  V30 69490 H 6571.36 2.21403 -1.25908 0
M  V30 69491 H 6572.14 1.85175 -2.89076 0
M  V30 69492 N 6574.59 1.01665 1.20424 0
M  V30 69493 C 6575.5 0.596603 2.26887 0
M  V30 69494 C 6576.51 -0.365901 1.70109 0
M  V30 69495 O 6577.69 -0.226836 2.00118 0
M  V30 69496 C 6574.76 -0.0584831 3.46651 0
M  V30 69497 C 6573.82 0.949971 4.18657 0
M  V30 69498 C 6573.05 0.326051 5.32703 0
M  V30 69499 O 6573.27 -0.874211 5.63661 0
M  V30 69500 O 6572.21 1.0428 5.92798 0
M  V30 69501 H 6576.03 1.48294 2.65033 0
M  V30 69502 H 6573.62 0.786149 1.27044 0
M  V30 69503 H 6575.5 -0.424343 4.19258 0
M  V30 69504 H 6574.17 -0.919016 3.1038 0
M  V30 69505 H 6573.08 1.3672 3.48222 0
M  V30 69506 H 6574.41 1.78047 4.58868 0
M  V30 69507 N 6576.07 -1.36202 0.792892 0
M  V30 69508 C 6577.31 -1.98755 0.366166 0
M  V30 69509 C 6577.64 -1.63237 -1.06671 0
M  V30 69510 O 6576.91 -0.90807 -1.73583 0
M  V30 69511 H 6575.49 -0.735172 0.132402 0
M  V30 69512 H 6578.15 -1.66341 1.0157 0
M  V30 69513 H 6577.24 -3.0868 0.460801 0
M  V30 69514 N 6577.55 -0.545206 -1.47869 0
M  V30 69515 C 6578.51 0.198597 -2.28338 0
M  V30 69516 C 6579.51 0.853816 -1.36259 0
M  V30 69517 O 6580.7 0.711522 -1.59006 0
M  V30 69518 C 6577.83 1.28899 -3.15591 0
M  V30 69519 H 6579.02 -0.508097 -2.95565 0
M  V30 69520 H 6576.58 -0.301697 -1.53361 0
M  V30 69521 H 6577.31 2.02846 -2.5303 0
M  V30 69522 H 6577.1 0.824107 -3.83342 0
M  V30 69523 H 6578.59 1.81174 -3.76252 0
M  V30 69524 N 6579.02 1.55073 -0.281065 0
M  V30 69525 C 6580.27 1.99332 0.33335 0
M  V30 69526 C 6580.59 1.17093 1.5593 0
M  V30 69527 O 6579.86 0.261907 1.94141 0
M  V30 69528 H 6578.44 0.73627 0.126159 0
M  V30 69529 H 6581.1 1.91003 -0.387779 0
M  V30 69530 H 6580.2 3.05897 0.61913 0
M  V30 69531 N 6580.5 0.00844102 1.57598 0
M  V30 69532 C 6581.75 -0.673299 1.90555 0
M  V30 69533 C 6582.07 -1.73842 0.883393 0
M  V30 69534 O 6581.34 -1.95744 -0.0780409 0
M  V30 69535 H 6579.92 -0.251679 0.703325 0
M  V30 69536 H 6582.58 0.0513619 1.94832 0
M  V30 69537 H 6581.68 -1.1392 2.90566 0
M  V30 69538 N 6581.98 -1.55366 -0.264437 0
M  V30 69539 C 6582.91 -1.91843 -1.33111 0
M  V30 69540 C 6583.89 -0.781272 -1.51097 0
M  V30 69541 O 6585.08 -1.04012 -1.63997 0
M  V30 69542 C 6582.21 -2.19783 -2.6891 0
M  V30 69543 C 6581.16 -3.35585 -2.65644 0
M  V30 69544 C 6580.49 -3.49025 -4.05075 0
M  V30 69545 C 6581.79 -4.71751 -2.24162 0
M  V30 69546 H 6583.48 -2.81188 -1.02829 0
M  V30 69547 H 6581.03 -1.3529 -0.493215 0
M  V30 69548 H 6582.98 -2.4389 -3.43651 0
M  V30 69549 H 6581.7 -1.27247 -3.00792 0
M  V30 69550 H 6580.36 -3.1146 -1.9336 0
M  V30 69551 H 6580.01 -2.5394 -4.34193 0
M  V30 69552 H 6579.71 -4.26889 -4.03782 0
M  V30 69553 H 6581.23 -3.75434 -4.81541 0
M  V30 69554 H 6582.65 -4.95345 -2.88628 0
M  V30 69555 H 6581.04 -5.52591 -2.34015 0
M  V30 69556 H 6582.11 -4.69995 -1.19303 0
M  V30 69557 N 6583.46 0.529335 -1.48445 0
M  V30 69558 C 6584.71 1.28259 -1.56186 0
M  V30 69559 C 6585.03 1.93544 -0.237823 0
M  V30 69560 O 6584.3 1.81358 0.740683 0
M  V30 69561 H 6582.88 0.476375 -0.575392 0
M  V30 69562 H 6585.54 0.615923 -1.84912 0
M  V30 69563 H 6584.63 2.06153 -2.34323 0
M  V30 69564 N 6584.94 1.37043 0.778257 0
M  V30 69565 C 6586.21 1.22432 1.52545 0
M  V30 69566 C 6586.59 -0.184853 2.10289 0
M  V30 69567 O 6585.94 -1.19177 1.94959 0
M  V30 69568 C 6586.15 2.31518 2.61152 0
M  V30 69569 C 6587.5 2.68739 3.28732 0
M  V30 69570 O 6588.52 2.30645 2.71443 0
M  V30 69571 O 6587.38 3.34343 4.32293 0
M  V30 69572 H 6584.48 0.477362 0.675318 0
M  V30 69573 H 6587.02 1.48806 0.815781 0
M  V30 69574 H 6585.79 3.25912 2.16557 0
M  V30 69575 H 6585.42 2.06572 3.39726 0
M  V30 69576 N 6586.41 -1.00369 1.21506 0
M  V30 69577 C 6587.35 -2.08887 0.91878 0
M  V30 69578 C 6588.32 -1.62045 -0.134191 0
M  V30 69579 O 6589.51 -1.88499 -0.00494315 0
M  V30 69580 C 6586.64 -3.36564 0.379822 0
M  V30 69581 C 6585.68 -4.02315 1.4158 0
M  V30 69582 S 6586.51 -4.44558 2.98544 0
M  V30 69583 C 6587.67 -5.7542 2.46258 0
M  V30 69584 H 6587.9 -2.33697 1.83774 0
M  V30 69585 H 6585.44 -1.13667 1.04495 0
M  V30 69586 H 6587.39 -4.10431 0.0754359 0
M  V30 69587 H 6586.06 -3.09802 -0.517845 0
M  V30 69588 H 6585.25 -4.94214 0.988337 0
M  V30 69589 H 6584.85 -3.34728 1.66833 0
M  V30 69590 H 6587.14 -6.51231 1.86826 0
M  V30 69591 H 6588.09 -6.22979 3.36605 0
M  V30 69592 H 6588.49 -5.32302 1.87922 0
M  V30 69593 N 6587.89 -1.02302 -1.19883 0
M  V30 69594 C 6589.14 -0.714658 -1.89042 0
M  V30 69595 C 6589.46 0.758586 -1.7964 0
M  V30 69596 O 6588.73 1.54612 -1.203 0
M  V30 69597 H 6587.31 -0.261354 -0.699788 0
M  V30 69598 H 6589.97 -1.296 -1.45568 0
M  V30 69599 H 6589.07 -1.00376 -2.95518 0
M  V30 69600 N 6589.37 1.3578 -0.800104 0
M  V30 69601 C 6590.65 1.9327 -0.300982 0
M  V30 69602 C 6591.03 1.73087 1.20847 0
M  V30 69603 O 6590.37 1.09606 2.00496 0
M  V30 69604 C 6590.58 3.41799 -0.70529 0
M  V30 69605 C 6591.93 4.18938 -0.691091 0
M  V30 69606 O 6592.96 3.50285 -0.646428 0
M  V30 69607 O 6591.82 5.41417 -0.743606 0
M  V30 69608 H 6588.91 0.823388 -0.0772039 0
M  V30 69609 H 6591.46 1.44896 -0.883367 0
M  V30 69610 H 6590.23 3.50192 -1.7459 0
M  V30 69611 H 6589.85 3.97481 -0.0973637 0
M  V30 69612 N 6590.85 0.55304 1.47578 0
M  V30 69613 C 6592.08 0.0321647 2.06875 0
M  V30 69614 C 6592.49 -1.25969 1.40632 0
M  V30 69615 O 6591.85 -1.75476 0.501442 0
M  V30 69616 C 6591.9 -0.17148 3.61093 0
M  V30 69617 O 6591.62 1.06921 4.24852 0
M  V30 69618 C 6593.12 -0.730113 4.37246 0
M  V30 69619 H 6590.34 0.0439503 0.669559 0
M  V30 69620 H 6592.88 0.765263 1.89642 0
M  V30 69621 H 6591.04 -0.854694 3.77854 0
M  V30 69622 H 6591.45 0.864331 5.17329 0
M  V30 69623 H 6592.93 -0.821915 5.45847 0
M  V30 69624 H 6593.4 -1.74043 4.03244 0
M  V30 69625 H 6594.01 -0.08273 4.2522 0
M  V30 69626 N 6592.33 -1.54922 0.289285 0
M  V30 69627 C 6593.55 -2.0431 -0.326355 0
M  V30 69628 C 6593.97 -1.16709 -1.48407 0
M  V30 69629 O 6593.33 -0.190183 -1.81506 0
M  V30 69630 C 6593.38 -3.52676 -0.793828 0
M  V30 69631 O 6593.1 -4.36946 0.317794 0
M  V30 69632 C 6594.6 -4.18012 -1.47583 0
M  V30 69633 H 6591.82 -0.667062 -0.0725921 0
M  V30 69634 H 6594.36 -2.00024 0.425506 0
M  V30 69635 H 6592.52 -3.5736 -1.49574 0
M  V30 69636 H 6592.93 -5.24482 -0.0440421 0
M  V30 69637 H 6594.41 -5.23385 -1.7542 0
M  V30 69638 H 6594.88 -3.67038 -2.41205 0
M  V30 69639 H 6595.49 -4.17371 -0.8174 0
M  V30 69640 N 6593.8 -0.0167987 -1.57591 0
M  V30 69641 C 6595.22 0.52374 -1.79203 0
M  V30 69642 C 6595.57 1.72979 -0.925887 0
M  V30 69643 O 6594.69 2.15991 -0.132906 0
M  V30 69644 C 6595.29 0.95692 -3.25005 0
M  V30 69645 C 6593.85 1.44265 -3.47656 0
M  V30 69646 C 6592.99 0.401612 -2.74376 0
M  V30 69647 H 6595.94 -0.242899 -1.5683 0
M  V30 69648 H 6595.96 1.82201 -3.3404 0
M  V30 69649 H 6595.48 0.0789369 -3.8802 0
M  V30 69650 H 6593.58 2.34097 -2.89878 0
M  V30 69651 H 6593.69 1.45853 -4.56359 0
M  V30 69652 H 6592.05 0.866995 -2.3949 0
M  V30 69653 H 6592.84 -0.467692 -3.40099 0
M  V30 69654 N 6595.28 1.55504 0.256194 0
M  V30 69655 C 6596.25 1.88741 1.30037 0
M  V30 69656 C 6597.25 0.76316 1.41536 0
M  V30 69657 O 6598.44 1.03123 1.40397 0
M  V30 69658 C 6595.57 2.10761 2.67942 0
M  V30 69659 H 6596.76 2.82098 1.01788 0
M  V30 69660 H 6594.31 1.48253 0.495056 0
M  V30 69661 H 6595.05 1.19841 3.01345 0
M  V30 69662 H 6594.83 2.92631 2.60978 0
M  V30 69663 H 6596.32 2.37691 3.43355 0
M  V30 69664 N 6596.76 -0.521455 1.48723 0
M  V30 69665 C 6597.67 -1.65194 1.66578 0
M  V30 69666 C 6598.69 -1.65136 0.548284 0
M  V30 69667 O 6599.86 -1.83932 0.820436 0
M  V30 69668 C 6596.93 -3.01633 1.70933 0
M  V30 69669 C 6595.99 -3.1248 2.94372 0
M  V30 69670 C 6595.22 -4.42411 2.9851 0
M  V30 69671 O 6595.44 -5.30013 2.10814 0
M  V30 69672 O 6594.38 -4.57802 3.9077 0
M  V30 69673 H 6598.2 -1.53066 2.62306 0
M  V30 69674 H 6595.79 -0.695495 1.32224 0
M  V30 69675 H 6597.67 -3.82762 1.7627 0
M  V30 69676 H 6596.35 -3.14067 0.783799 0
M  V30 69677 H 6595.25 -2.30615 2.94564 0
M  V30 69678 H 6596.59 -3.04965 3.86338 0
M  V30 69679 N 6598.24 -1.37454 -0.770978 0
M  V30 69680 C 6599.65 -1.29246 -1.34731 0
M  V30 69681 C 6600 0.0595874 -1.96109 0
M  V30 69682 O 6599.13 0.961432 -1.9387 0
M  V30 69683 C 6599.72 -2.3405 -2.44961 0
M  V30 69684 C 6598.28 -2.29474 -2.9836 0
M  V30 69685 C 6597.43 -2.1784 -1.71584 0
M  V30 69686 H 6600.38 -1.48065 -0.571178 0
M  V30 69687 H 6600.4 -1.98761 -3.2446 0
M  V30 69688 H 6599.91 -3.32443 -2.00259 0
M  V30 69689 H 6598.01 -1.34607 -3.47436 0
M  V30 69690 H 6598.12 -3.22918 -3.53922 0
M  V30 69691 H 6596.49 -1.64399 -1.94538 0
M  V30 69692 H 6597.27 -3.18148 -1.28984 0
M  V30 69693 N 6599.72 0.997234 -1.22037 0
M  V30 69694 C 6601.13 1.55066 -1.03978 0
M  V30 69695 C 6601.48 1.92119 0.398091 0
M  V30 69696 O 6600.6 1.74305 1.28245 0
M  V30 69697 C 6601.2 2.81771 -1.88124 0
M  V30 69698 C 6599.76 3.33572 -1.74375 0
M  V30 69699 C 6598.9 2.06696 -1.84857 0
M  V30 69700 H 6601.86 0.818811 -1.35945 0
M  V30 69701 H 6601.88 3.53963 -1.39608 0
M  V30 69702 H 6601.39 2.54772 -2.92768 0
M  V30 69703 H 6599.49 3.65489 -0.724463 0
M  V30 69704 H 6599.6 4.04468 -2.56793 0
M  V30 69705 H 6597.97 2.20055 -1.28249 0
M  V30 69706 H 6598.75 1.82099 -2.91024 0
M  V30 69707 N 6601.19 1.02936 1.19339 0
M  V30 69708 C 6602.42 0.745746 1.92993 0
M  V30 69709 C 6602.84 -0.695496 1.75523 0
M  V30 69710 O 6602.19 -1.473 1.07745 0
M  V30 69711 C 6602.25 1.0881 3.44736 0
M  V30 69712 O 6601.97 2.47275 3.61645 0
M  V30 69713 C 6603.47 0.827359 4.35511 0
M  V30 69714 H 6600.69 0.272833 0.613028 0
M  V30 69715 H 6603.23 1.37398 1.51466 0
M  V30 69716 H 6601.39 0.505034 3.84094 0
M  V30 69717 H 6601.8 2.60039 4.555 0
M  V30 69718 H 6603.27 1.11687 5.40583 0
M  V30 69719 H 6603.75 -0.238205 4.38554 0
M  V30 69720 H 6604.36 1.39318 4.01834 0
M  V30 69721 N 6602.67 -1.35353 0.807294 0
M  V30 69722 C 6604.08 -1.81224 0.448855 0
M  V30 69723 C 6604.43 -1.67039 -1.0292 0
M  V30 69724 O 6603.56 -1.20143 -1.79985 0
M  V30 69725 C 6604.15 -3.29025 0.807948 0
M  V30 69726 C 6602.71 -3.73036 0.502098 0
M  V30 69727 C 6601.86 -2.57334 1.03318 0
M  V30 69728 H 6604.81 -1.23322 0.998873 0
M  V30 69729 H 6604.83 -3.80353 0.105741 0
M  V30 69730 H 6604.34 -3.39318 1.88375 0
M  V30 69731 H 6602.45 -3.68292 -0.564934 0
M  V30 69732 H 6602.56 -4.67782 1.03522 0
M  V30 69733 H 6600.92 -2.50594 0.455471 0
M  V30 69734 H 6601.71 -2.70404 2.1151 0
M  V30 69735 N 6604.15 -0.560859 -1.47283 0
M  V30 69736 C 6605.06 0.187831 -2.33847 0
M  V30 69737 C 6606.08 0.908215 -1.48417 0
M  V30 69738 O 6607.25 0.876293 -1.81337 0
M  V30 69739 C 6604.32 1.20233 -3.25184 0
M  V30 69740 C 6603.38 0.488983 -4.26506 0
M  V30 69741 C 6602.61 1.45515 -5.13479 0
M  V30 69742 O 6602.83 2.69024 -5.02974 0
M  V30 69743 O 6601.77 0.97765 -5.93907 0
M  V30 69744 H 6605.59 -0.522335 -2.99174 0
M  V30 69745 H 6603.18 -0.321441 -1.45901 0
M  V30 69746 H 6605.06 1.78785 -3.81594 0
M  V30 69747 H 6603.74 1.89435 -2.6248 0
M  V30 69748 H 6602.64 -0.137824 -3.73846 0
M  V30 69749 H 6603.98 -0.161658 -4.91934 0
M  V30 69750 N 6605.63 1.54767 -0.297496 0
M  V30 69751 C 6606.88 1.99674 0.312189 0
M  V30 69752 C 6607.2 1.1874 1.5468 0
M  V30 69753 O 6606.47 0.282484 1.93853 0
M  V30 69754 H 6605.05 0.737566 0.118342 0
M  V30 69755 H 6607.71 1.90581 -0.408016 0
M  V30 69756 H 6606.81 3.06537 0.586651 0
M  V30 69757 N 6607.11 0.0251559 1.5758 0
M  V30 69758 C 6608.33 -0.668213 1.96341 0
M  V30 69759 C 6608.76 -1.65095 0.901401 0
M  V30 69760 O 6608.12 -1.80773 -0.138091 0
M  V30 69761 C 6608.16 -1.35439 3.34198 0
M  V30 69762 O 6607.27 -2.46957 3.30282 0
M  V30 69763 H 6606.61 -0.175853 0.64029 0
M  V30 69764 H 6609.14 0.0858302 2.0442 0
M  V30 69765 H 6609.15 -1.71209 3.7034 0
M  V30 69766 H 6607.82 -0.634001 4.11039 0
M  V30 69767 H 6606.4 -2.13328 3.05852 0
M  V30 69768 N 6608.59 -1.55637 -0.247944 0
M  V30 69769 C 6610 -1.67871 -0.817089 0
M  V30 69770 C 6610.35 -0.62242 -1.86066 0
M  V30 69771 O 6609.47 0.231504 -2.15158 0
M  V30 69772 C 6610.07 -3.04334 -1.48884 0
M  V30 69773 C 6608.63 -3.1851 -2.0057 0
M  V30 69774 C 6607.77 -2.63743 -0.856434 0
M  V30 69775 H 6610.72 -1.58682 -0.0237742 0
M  V30 69776 H 6610.75 -2.98721 -2.35683 0
M  V30 69777 H 6610.26 -3.8119 -0.729078 0
M  V30 69778 H 6608.36 -2.46474 -2.7943 0
M  V30 69779 H 6608.47 -4.25405 -2.2038 0
M  V30 69780 H 6606.84 -2.2154 -1.25666 0
M  V30 69781 H 6607.62 -3.43124 -0.109773 0
M  V30 69782 N 6610.06 0.513561 -1.48998 0
M  V30 69783 C 6611.31 1.26502 -1.57099 0
M  V30 69784 C 6611.63 1.93902 -0.257194 0
M  V30 69785 O 6612.83 2.70634 -0.216621 0
M  V30 69786 C 6611.29 2.29624 -2.7713 0
M  V30 69787 C 6610.9 1.68219 -4.15218 0
M  V30 69788 C 6612.64 3.05676 -2.94555 0
M  V30 69789 C 6610.55 2.69378 -5.26488 0
M  V30 69790 H 6609.48 0.475823 -0.584901 0
M  V30 69791 H 6612.13 0.540394 -1.75362 0
M  V30 69792 H 6610.51 3.05194 -2.52335 0
M  V30 69793 H 6611.68 0.987268 -4.501 0
M  V30 69794 H 6610 1.04602 -4.03048 0
M  V30 69795 H 6612.6 3.813 -3.74852 0
M  V30 69796 H 6612.94 3.62534 -2.04633 0
M  V30 69797 H 6613.47 2.37221 -3.19329 0
M  V30 69798 H 6610.21 2.17318 -6.18428 0
M  V30 69799 H 6609.73 3.37149 -4.96075 0
M  V30 69800 H 6611.41 3.32049 -5.55295 0
M  V30 69801 N 6611.54 1.37861 0.763678 0
M  V30 69802 C 6612.47 1.36985 1.89096 0
M  V30 69803 C 6613.45 0.237241 1.68437 0
M  V30 69804 O 6614.64 0.438813 1.89177 0
M  V30 69805 C 6611.77 1.18412 3.2649 0
M  V30 69806 C 6610.72 2.2877 3.61729 0
M  V30 69807 C 6610.05 1.95312 4.97752 0
M  V30 69808 C 6611.35 3.70991 3.67645 0
M  V30 69809 H 6613.04 2.31317 1.90087 0
M  V30 69810 H 6610.59 1.11346 0.913131 0
M  V30 69811 H 6612.54 1.16427 4.04997 0
M  V30 69812 H 6611.26 0.205387 3.25954 0
M  V30 69813 H 6609.92 2.29924 2.85535 0
M  V30 69814 H 6609.57 0.959481 4.93764 0
M  V30 69815 H 6609.27 2.69217 5.22299 0
M  V30 69816 H 6610.8 1.94928 5.7865 0
M  V30 69817 H 6612.21 3.71923 4.36287 0
M  V30 69818 H 6610.61 4.44016 4.03695 0
M  V30 69819 H 6611.68 4.04034 2.68112 0
M  V30 69820 N 6613.02 -0.990748 1.22564 0
M  V30 69821 C 6613.97 -2.08125 0.997628 0
M  V30 69822 C 6614.94 -1.65901 -0.0813827 0
M  V30 69823 O 6616.12 -1.90676 0.068643 0
M  V30 69824 C 6613.26 -3.40126 0.583794 0
M  V30 69825 C 6612.37 -3.95681 1.73381 0
M  V30 69826 C 6611.51 -5.1585 1.26775 0
M  V30 69827 C 6610.55 -5.63547 2.38918 0
M  V30 69828 N 6609.69 -6.74954 1.93344 0
M  V30 69829 H 6614.53 -2.26963 1.9311 0
M  V30 69830 H 6612.06 -1.11268 0.962172 0
M  V30 69831 H 6614.02 -4.15932 0.32502 0
M  V30 69832 H 6612.65 -3.21282 -0.312676 0
M  V30 69833 H 6611.7 -3.16727 2.10685 0
M  V30 69834 H 6613.01 -4.27058 2.57727 0
M  V30 69835 H 6612.17 -5.98952 0.966489 0
M  V30 69836 H 6610.91 -4.86102 0.394528 0
M  V30 69837 H 6609.91 -4.79032 2.69831 0
M  V30 69838 H 6611.14 -5.95319 3.2676 0
M  V30 69839 H 6609.08 -6.46984 1.08386 0
M  V30 69840 H 6609 -7.05661 2.71254 0
M  V30 69841 H 6610.27 -7.61556 1.66292 0
M  V30 69842 N 6614.5 -1.03568 -1.18792 0
M  V30 69843 C 6615.91 -0.753991 -1.40667 0
M  V30 69844 C 6616.11 0.658585 -1.90433 0
M  V30 69845 O 6615.17 1.42355 -2.08545 0
M  V30 69846 C 6616.48 -1.79586 -2.41183 0
M  V30 69847 C 6618.03 -1.81619 -2.54918 0
M  V30 69848 C 6618.51 -2.84785 -3.58694 0
M  V30 69849 N 6620 -2.83644 -3.66197 0
M  V30 69850 C 6620.73 -3.60122 -4.46206 0
M  V30 69851 N 6620.23 -4.46335 -5.29865 0
M  V30 69852 N 6622.02 -3.48633 -4.40921 0
M  V30 69853 H 6614.17 -1.94732 -0.848118 0
M  V30 69854 H 6616.43 -0.842287 -0.435036 0
M  V30 69855 H 6616.14 -2.80883 -2.11654 0
M  V30 69856 H 6616.01 -1.62383 -3.40458 0
M  V30 69857 H 6618.4 -0.809967 -2.83767 0
M  V30 69858 H 6618.48 -2.029 -1.55773 0
M  V30 69859 H 6618.13 -3.85584 -3.30587 0
M  V30 69860 H 6618.06 -2.60761 -4.57505 0
M  V30 69861 H 6620.55 -2.21121 -3.06454 0
M  V30 69862 H 6620.86 -5.01413 -5.88052 0
M  V30 69863 H 6619.21 -4.50405 -5.29302 0
M  V30 69864 H 6622.4 -2.80687 -3.74609 0
M  V30 69865 H 6622.57 -4.08485 -5.03035 0
M  V30 69866 N 6615.98 1.34923 -0.814461 0
M  V30 69867 C 6616.92 2.29668 -0.228341 0
M  V30 69868 C 6617.89 1.53188 0.642083 0
M  V30 69869 O 6619.08 1.81594 0.585509 0
M  V30 69870 C 6616.22 3.39653 0.61071 0
M  V30 69871 C 6615.33 4.31085 -0.28102 0
M  V30 69872 C 6614.47 5.28168 0.566789 0
M  V30 69873 C 6613.5 6.11237 -0.324853 0
M  V30 69874 N 6612.64 7.00434 0.483386 0
M  V30 69875 H 6617.48 2.79201 -1.04168 0
M  V30 69876 H 6615.02 1.37405 -0.525205 0
M  V30 69877 H 6616.98 4.02096 1.11241 0
M  V30 69878 H 6615.61 2.91376 1.38924 0
M  V30 69879 H 6614.66 3.69578 -0.900883 0
M  V30 69880 H 6615.97 4.89337 -0.966981 0
M  V30 69881 H 6615.12 5.96021 1.13331 0
M  V30 69882 H 6613.86 4.70432 1.28629 0
M  V30 69883 H 6612.87 5.42324 -0.903584 0
M  V30 69884 H 6614.09 6.71053 -1.04233 0
M  V30 69885 H 6612.04 6.45177 1.18671 0
M  V30 69886 H 6611.96 7.55862 -0.144363 0
M  V30 69887 H 6613.22 7.72626 1.03293 0
M  V30 69888 N 6617.45 0.568661 1.46983 0
M  V30 69889 C 6618.38 -0.16063 2.32947 0
M  V30 69890 C 6619.36 -0.897555 1.44492 0
M  V30 69891 O 6620.55 -0.875775 1.73332 0
M  V30 69892 C 6617.68 -1.18386 3.265 0
M  V30 69893 C 6616.63 -0.562671 4.24285 0
M  V30 69894 C 6615.96 -1.69136 5.07245 0
M  V30 69895 C 6617.26 0.491036 5.19987 0
M  V30 69896 H 6618.95 0.557071 2.94172 0
M  V30 69897 H 6616.5 0.269345 1.41459 0
M  V30 69898 H 6618.45 -1.70231 3.85486 0
M  V30 69899 H 6617.18 -1.93165 2.63353 0
M  V30 69900 H 6615.84 -0.0654231 3.66542 0
M  V30 69901 H 6615.48 -2.42847 4.40493 0
M  V30 69902 H 6615.18 -1.28144 5.73457 0
M  V30 69903 H 6616.71 -2.21284 5.69092 0
M  V30 69904 H 6618.12 0.058207 5.7327 0
M  V30 69905 H 6616.52 0.820478 5.94465 0
M  V30 69906 H 6617.59 1.38265 4.6477 0
M  V30 69907 N 6618.93 -1.54607 0.3057 0
M  V30 69908 C 6620.18 -1.99837 -0.301596 0
M  V30 69909 C 6620.5 -1.19559 -1.54048 0
M  V30 69910 O 6619.77 -0.292761 -1.937 0
M  V30 69911 H 6618.35 -0.738184 -0.114429 0
M  V30 69912 H 6621.01 -1.90362 0.418117 0
M  V30 69913 H 6620.11 -3.06844 -0.570386 0
M  V30 69914 N 6620.41 -0.0335124 -1.57564 0
M  V30 69915 C 6621.66 0.645125 -1.92265 0
M  V30 69916 C 6621.99 1.71526 -0.910633 0
M  V30 69917 O 6621.26 1.94388 0.0659965 0
M  V30 69918 C 6621.55 1.25753 -3.37429 0
M  V30 69919 C 6621.4 0.196654 -4.4937 0
M  V30 69920 C 6622.72 2.17428 -3.82639 0
M  V30 69921 H 6619.84 0.233048 -0.699183 0
M  V30 69922 H 6622.48 -0.0916694 -1.89779 0
M  V30 69923 H 6620.63 1.88549 -3.39679 0
M  V30 69924 H 6622.3 -0.434204 -4.59252 0
M  V30 69925 H 6620.54 -0.477364 -4.31165 0
M  V30 69926 H 6621.22 0.664835 -5.47982 0
M  V30 69927 H 6623.69 1.64614 -3.82154 0
M  V30 69928 H 6622.57 2.57229 -4.84897 0
M  V30 69929 H 6622.83 3.06723 -3.18392 0
M  V30 69930 N 6621.89 1.55767 0.239687 0
M  V30 69931 C 6623.17 1.68698 0.989967 0
M  V30 69932 C 6623.55 0.575508 2.03104 0
M  V30 69933 O 6622.89 -0.420052 2.24606 0
M  V30 69934 C 6623.1 3.0929 1.6168 0
M  V30 69935 C 6624.45 3.68122 2.11593 0
M  V30 69936 O 6625.48 3.12136 1.71608 0
M  V30 69937 O 6624.33 4.66282 2.85032 0
M  V30 69938 H 6621.43 0.686415 0.461263 0
M  V30 69939 H 6623.97 1.68094 0.232902 0
M  V30 69940 H 6622.75 3.81639 0.864155 0
M  V30 69941 H 6622.37 3.13936 2.43988 0
M  V30 69942 N 6623.37 -0.505652 1.49268 0
M  V30 69943 C 6624.61 -1.25758 1.58207 0
M  V30 69944 C 6624.94 -1.93141 0.268584 0
M  V30 69945 O 6624.21 -1.82513 -0.711737 0
M  V30 69946 H 6622.79 -0.467161 0.582898 0
M  V30 69947 H 6625.45 -0.586427 1.85868 0
M  V30 69948 H 6624.54 -2.02399 2.37573 0
M  V30 69949 N 6624.84 -1.38264 -0.756356 0
M  V30 69950 C 6626.09 -1.34519 -1.51765 0
M  V30 69951 C 6626.42 0.0655667 -1.94089 0
M  V30 69952 O 6625.7 1.02618 -1.65227 0
M  V30 69953 C 6625.98 -2.29836 -2.77214 0
M  V30 69954 C 6625.83 -3.7976 -2.41045 0
M  V30 69955 C 6627.15 -2.23332 -3.79224 0
M  V30 69956 H 6624.27 -0.48996 -0.550552 0
M  V30 69957 H 6626.91 -1.6909 -0.866518 0
M  V30 69958 H 6625.06 -2.00485 -3.32773 0
M  V30 69959 H 6626.74 -4.19773 -1.91281 0
M  V30 69960 H 6624.98 -3.97576 -1.73539 0
M  V30 69961 H 6625.65 -4.4191 -3.30787 0
M  V30 69962 H 6628.13 -2.49237 -3.33197 0
M  V30 69963 H 6627 -2.9214 -4.64699 0
M  V30 69964 H 6627.26 -1.23124 -4.24609 0
M  V30 69965 N 6626.32 0.984234 -1.23088 0
M  V30 69966 C 6627.23 2.11011 -1.02526 0
M  V30 69967 C 6628.25 1.73976 0.0290785 0
M  V30 69968 O 6629.42 2.00719 -0.16554 0
M  V30 69969 C 6626.49 3.41204 -0.614853 0
M  V30 69970 C 6625.55 3.92288 -1.7438 0
M  V30 69971 C 6624.78 5.16268 -1.35288 0
M  V30 69972 O 6625.01 5.69914 -0.235437 0
M  V30 69973 O 6623.94 5.61323 -2.17256 0
M  V30 69974 H 6627.77 2.31245 -1.96874 0
M  V30 69975 H 6625.35 1.09387 -1.01759 0
M  V30 69976 H 6627.23 4.19528 -0.396739 0
M  V30 69977 H 6625.91 3.2231 0.299681 0
M  V30 69978 H 6624.82 3.15099 -2.01652 0
M  V30 69979 H 6626.15 4.15631 -2.63651 0
M  V30 69980 N 6627.8 1.04196 1.18241 0
M  V30 69981 C 6628.71 0.644595 2.25571 0
M  V30 69982 C 6629.73 -0.329736 1.70847 0
M  V30 69983 O 6630.9 -0.184337 2.00555 0
M  V30 69984 C 6627.97 0.0150598 3.46697 0
M  V30 69985 C 6627.03 1.03856 4.16548 0
M  V30 69986 C 6626.26 0.438972 5.31892 0
M  V30 69987 O 6626.48 -0.754454 5.65388 0
M  V30 69988 O 6625.42 1.16831 5.90452 0
M  V30 69989 H 6629.24 1.53882 2.61828 0
M  V30 69990 H 6626.83 0.81292 1.25347 0
M  V30 69991 H 6628.71 -0.335317 4.20064 0
M  V30 69992 H 6627.39 -0.852973 3.1226 0
M  V30 69993 H 6626.29 1.44075 3.45244 0
M  V30 69994 H 6627.63 1.8774 4.54988 0
M  V30 69995 N 6629.28 -1.34489 0.821604 0
M  V30 69996 C 6630.19 -2.33323 0.244478 0
M  V30 69997 C 6631.2 -1.62562 -0.620441 0
M  V30 69998 O 6632.38 -1.94338 -0.528651 0
M  V30 69999 C 6629.45 -3.41726 -0.585188 0
M  V30 70000 C 6628.51 -4.28237 0.301978 0
M  V30 70001 C 6627.74 -5.31463 -0.488185 0
M  V30 70002 O 6627.96 -5.438 -1.72157 0
M  V30 70003 O 6626.9 -6.01762 0.128797 0
M  V30 70004 H 6630.72 -2.84509 1.06246 0
M  V30 70005 H 6628.31 -1.37525 0.583717 0
M  V30 70006 H 6630.19 -4.07922 -1.05725 0
M  V30 70007 H 6628.86 -2.92785 -1.38052 0
M  V30 70008 H 6627.77 -3.64969 0.821508 0
M  V30 70009 H 6629.1 -4.80614 1.06163 0
M  V30 70010 N 6630.76 -0.576448 -1.46679 0
M  V30 70011 C 6631.69 0.148274 -2.33029 0
M  V30 70012 C 6632.67 0.889879 -1.44966 0
M  V30 70013 O 6633.85 0.866571 -1.73794 0
M  V30 70014 C 6630.98 1.16653 -3.27123 0
M  V30 70015 C 6629.94 0.540162 -4.24578 0
M  V30 70016 C 6629.26 1.66443 -5.08135 0
M  V30 70017 C 6630.56 -0.518605 -5.19719 0
M  V30 70018 H 6632.26 -0.572664 -2.93872 0
M  V30 70019 H 6629.8 -0.276843 -1.41314 0
M  V30 70020 H 6631.76 1.68184 -3.86383 0
M  V30 70021 H 6630.48 1.91766 -2.64374 0
M  V30 70022 H 6629.14 0.0459836 -3.66571 0
M  V30 70023 H 6628.79 2.40508 -4.41775 0
M  V30 70024 H 6628.49 1.25101 -5.74128 0
M  V30 70025 H 6630.01 2.18263 -5.70257 0
M  V30 70026 H 6631.42 -0.0886081 -5.73232 0
M  V30 70027 H 6629.82 -0.851992 -5.94021 0
M  V30 70028 H 6630.89 -1.40728 -4.6403 0
M  V30 70029 N 6632.23 1.54442 -0.313895 0
M  V30 70030 C 6633.65 1.85867 0.176145 0
M  V30 70031 C 6634 1.23569 1.52398 0
M  V30 70032 O 6633.12 0.538126 2.09602 0
M  V30 70033 C 6633.72 3.37224 0.326392 0
M  V30 70034 C 6632.28 3.68634 0.760651 0
M  V30 70035 C 6631.42 2.77025 -0.123393 0
M  V30 70036 H 6634.37 1.49428 -0.534496 0
M  V30 70037 H 6634.39 3.62422 1.15889 0
M  V30 70038 H 6633.91 3.82537 -0.654733 0
M  V30 70039 H 6632.01 3.28847 1.75187 0
M  V30 70040 H 6632.12 4.75684 0.571102 0
M  V30 70041 H 6630.48 2.51548 0.399464 0
M  V30 70042 H 6631.27 3.25162 -1.10111 0
M  V30 70043 N 6633.71 0.0418679 1.57544 0
M  V30 70044 C 6635.12 -0.495164 1.80014 0
M  V30 70045 C 6635.47 -1.71484 0.953289 0
M  V30 70046 O 6634.6 -2.15753 0.167252 0
M  V30 70047 C 6635.19 -0.905093 3.26487 0
M  V30 70048 C 6633.75 -1.38716 3.49907 0
M  V30 70049 C 6632.9 -0.357911 2.74981 0
M  V30 70050 H 6635.85 0.267818 1.56424 0
M  V30 70051 H 6635.87 -1.76864 3.36897 0
M  V30 70052 H 6635.38 -0.0171964 3.88096 0
M  V30 70053 H 6633.49 -2.29456 2.93566 0
M  V30 70054 H 6633.6 -1.38574 4.58622 0
M  V30 70055 H 6631.96 -0.828785 2.40839 0
M  V30 70056 H 6632.75 0.52174 3.39312 0
M  V30 70057 N 6635.19 -1.55892 -0.231423 0
M  V30 70058 C 6636.1 -1.94759 -1.3079 0
M  V30 70059 C 6637.12 -0.850069 -1.51822 0
M  V30 70060 O 6638.29 -1.1528 -1.65144 0
M  V30 70061 C 6635.36 -2.24785 -2.63956 0
M  V30 70062 C 6634.42 -3.48052 -2.51313 0
M  V30 70063 C 6633.65 -3.76636 -3.78128 0
M  V30 70064 O 6633.87 -3.07048 -4.80706 0
M  V30 70065 O 6632.81 -4.70143 -3.75832 0
M  V30 70066 H 6636.63 -2.86479 -1.00815 0
M  V30 70067 H 6634.22 -1.42973 -0.433471 0
M  V30 70068 H 6636.1 -2.45336 -3.4262 0
M  V30 70069 H 6634.78 -1.36241 -2.93633 0
M  V30 70070 H 6633.68 -3.32791 -1.70882 0
M  V30 70071 H 6635.02 -4.36948 -2.26578 0
M  V30 70072 N 6636.67 0.497729 -1.49534 0
M  V30 70073 C 6638.08 1.07919 -1.52349 0
M  V30 70074 C 6638.43 1.9371 -0.311571 0
M  V30 70075 O 6637.56 2.0853 0.578295 0
M  V30 70076 C 6638.15 1.96391 -2.76073 0
M  V30 70077 C 6636.71 2.49694 -2.81656 0
M  V30 70078 C 6635.86 1.27391 -2.46306 0
M  V30 70079 H 6638.81 0.281494 -1.56184 0
M  V30 70080 H 6638.83 2.81121 -2.5642 0
M  V30 70081 H 6638.34 1.33923 -3.64261 0
M  V30 70082 H 6636.44 3.15791 -1.97755 0
M  V30 70083 H 6636.56 2.86623 -3.83907 0
M  V30 70084 H 6634.92 1.60019 -1.98157 0
M  V30 70085 H 6635.7 0.666272 -3.36772 0
M  V30 70086 N 6638.15 1.38663 0.749013 0
M  V30 70087 C 6639.06 1.38504 1.89351 0
M  V30 70088 C 6640.07 0.281566 1.71707 0
M  V30 70089 O 6641.25 0.520746 1.94551 0
M  V30 70090 C 6638.31 1.21333 3.24776 0
M  V30 70091 C 6637.38 2.41527 3.54913 0
M  V30 70092 C 6636.61 2.25165 4.83876 0
M  V30 70093 O 6636.83 1.24776 5.56585 0
M  V30 70094 O 6635.77 3.13853 5.13595 0
M  V30 70095 H 6639.59 2.34948 1.92439 0
M  V30 70096 H 6637.18 1.19631 0.894918 0
M  V30 70097 H 6639.06 1.13835 4.05733 0
M  V30 70098 H 6637.73 0.279762 3.22489 0
M  V30 70099 H 6636.64 2.546 2.74098 0
M  V30 70100 H 6637.97 3.33529 3.61966 0
M  V30 70101 N 6639.63 -0.977692 1.23608 0
M  V30 70102 C 6641.04 -1.53392 1.06432 0
M  V30 70103 C 6641.39 -1.92728 -0.367476 0
M  V30 70104 O 6640.51 -1.76323 -1.25456 0
M  V30 70105 C 6641.11 -2.78743 1.92583 0
M  V30 70106 C 6639.67 -3.30756 1.79659 0
M  V30 70107 C 6638.81 -2.03729 1.88122 0
M  V30 70108 H 6641.76 -0.79708 1.37231 0
M  V30 70109 H 6641.79 -3.51697 1.45221 0
M  V30 70110 H 6641.3 -2.50082 2.96784 0
M  V30 70111 H 6639.4 -3.6429 0.782517 0
M  V30 70112 H 6639.51 -4.00331 2.63195 0
M  V30 70113 H 6637.88 -2.17987 1.31734 0
M  V30 70114 H 6638.66 -1.77446 2.93884 0
M  V30 70115 N 6641.1 -1.04822 -1.17686 0
M  V30 70116 C 6642.01 -0.656549 -2.25226 0
M  V30 70117 C 6643.03 0.320671 -1.7102 0
M  V30 70118 O 6644.21 0.173699 -2.0065 0
M  V30 70119 C 6641.27 -0.0334457 -3.46684 0
M  V30 70120 C 6640.33 -1.06064 -4.15992 0
M  V30 70121 C 6639.56 -0.467174 -5.31651 0
M  V30 70122 O 6639.79 0.724459 -5.65781 0
M  V30 70123 O 6638.72 -1.19961 -5.89825 0
M  V30 70124 H 6642.55 -1.55269 -2.61008 0
M  V30 70125 H 6640.13 -0.819556 -1.24915 0
M  V30 70126 H 6642.01 0.313035 -4.20236 0
M  V30 70127 H 6640.69 0.836401 -3.12708 0
M  V30 70128 H 6639.6 -1.45904 -3.44475 0
M  V30 70129 H 6640.93 -1.90151 -4.53986 0
M  V30 70130 N 6642.58 1.34052 -0.828725 0
M  V30 70131 C 6643.99 1.80487 -0.47763 0
M  V30 70132 C 6644.34 1.68655 1.0025 0
M  V30 70133 O 6643.47 1.22991 1.78051 0
M  V30 70134 C 6644.06 3.27698 -0.860191 0
M  V30 70135 C 6642.62 3.7219 -0.561381 0
M  V30 70136 C 6641.77 2.55658 -1.07399 0
M  V30 70137 H 6644.72 1.21717 -1.01837 0
M  V30 70138 H 6644.74 3.80137 -0.166238 0
M  V30 70139 H 6644.25 3.36278 -1.93749 0
M  V30 70140 H 6642.35 3.69145 0.50627 0
M  V30 70141 H 6642.47 4.66076 -1.10951 0
M  V30 70142 H 6640.83 2.49838 -0.495281 0
M  V30 70143 H 6641.61 2.67005 -2.15785 0
M  V30 70144 N 6644.06 0.584219 1.46372 0
M  V30 70145 C 6644.97 -0.150604 2.34116 0
M  V30 70146 C 6645.99 -0.884488 1.49843 0
M  V30 70147 O 6647.16 -0.847333 1.82708 0
M  V30 70148 C 6644.23 -1.15045 3.27056 0
M  V30 70149 C 6643.29 -0.421068 4.2723 0
M  V30 70150 C 6642.52 -1.37328 5.15729 0
M  V30 70151 O 6642.74 -2.60988 5.0719 0
M  V30 70152 O 6641.68 -0.883041 5.95387 0
M  V30 70153 H 6645.5 0.569865 2.98306 0
M  V30 70154 H 6643.09 0.344612 1.45371 0
M  V30 70155 H 6644.97 -1.72692 3.8439 0
M  V30 70156 H 6643.65 -1.85236 2.65461 0
M  V30 70157 H 6642.55 0.197282 3.73579 0
M  V30 70158 H 6643.89 0.2399 4.91615 0
M  V30 70159 N 6645.54 -1.54274 0.322081 0
M  V30 70160 C 6646.95 -1.85958 -0.166286 0
M  V30 70161 C 6647.3 -1.24375 -1.51741 0
M  V30 70162 O 6646.42 -0.549235 -2.09314 0
M  V30 70163 C 6647.02 -3.37392 -0.308503 0
M  V30 70164 C 6645.58 -3.69032 -0.741091 0
M  V30 70165 C 6644.73 -2.76956 0.138083 0
M  V30 70166 H 6647.68 -1.49143 0.542413 0
M  V30 70167 H 6647.7 -3.63032 -1.13965 0
M  V30 70168 H 6647.21 -3.82185 0.675011 0
M  V30 70169 H 6645.31 -3.29772 -1.7344 0
M  V30 70170 H 6645.42 -4.7598 -0.545868 0
M  V30 70171 H 6643.79 -2.51756 -0.386118 0
M  V30 70172 H 6644.57 -3.24574 1.11834 0
M  V30 70173 N 6647.02 -0.0502223 -1.5752 0
M  V30 70174 C 6647.93 0.939713 -2.14957 0
M  V30 70175 C 6648.94 1.34233 -1.10713 0
M  V30 70176 O 6650.12 1.41945 -1.42876 0
M  V30 70177 C 6647.18 2.1965 -2.68244 0
M  V30 70178 C 6646.24 1.85232 -3.87282 0
M  V30 70179 C 6645.48 3.0492 -4.38018 0
M  V30 70180 O 6645.7 4.18261 -3.87833 0
M  V30 70181 O 6644.63 2.85989 -5.29617 0
M  V30 70182 H 6648.46 0.481234 -2.99863 0
M  V30 70183 H 6646.04 0.171621 -1.48411 0
M  V30 70184 H 6647.93 2.9339 -3.0249 0
M  V30 70185 H 6646.6 2.64638 -1.86409 0
M  V30 70186 H 6645.51 1.08811 -3.57926 0
M  V30 70187 H 6646.84 1.45045 -4.70343 0
M  V30 70188 N 6648.49 1.56012 0.223152 0
M  V30 70189 C 6649.42 1.95305 1.27978 0
M  V30 70190 C 6650.4 0.821058 1.48972 0
M  V30 70191 O 6651.59 1.08324 1.61182 0
M  V30 70192 C 6648.72 2.26836 2.62988 0
M  V30 70193 C 6647.67 3.4251 2.56653 0
M  V30 70194 C 6647 3.59643 3.95678 0
M  V30 70195 C 6648.3 4.77528 2.11576 0
M  V30 70196 H 6649.99 2.83815 0.953375 0
M  V30 70197 H 6647.54 1.3655 0.457172 0
M  V30 70198 H 6649.49 2.52915 3.37063 0
M  V30 70199 H 6648.22 1.35177 2.97313 0
M  V30 70200 H 6646.88 3.16477 1.85035 0
M  V30 70201 H 6646.52 2.65362 4.27308 0
M  V30 70202 H 6646.22 4.37444 3.92321 0
M  V30 70203 H 6647.75 3.88069 4.71418 0
M  V30 70204 H 6649.16 5.02823 2.75394 0
M  V30 70205 H 6647.56 5.58602 2.19281 0
M  V30 70206 H 6648.63 4.72992 1.06799 0
M  V30 70207 N 6649.97 -0.489791 1.49796 0
M  V30 70208 C 6650.88 -1.61624 1.70044 0
M  V30 70209 C 6651.9 -1.63936 0.583189 0
M  V30 70210 O 6653.07 -1.8215 0.859266 0
M  V30 70211 C 6650.14 -2.9794 1.77293 0
M  V30 70212 C 6649.2 -3.06165 3.00934 0
M  V30 70213 C 6648.43 -4.35979 3.07827 0
M  V30 70214 O 6648.66 -5.25422 2.22009 0
M  V30 70215 O 6647.59 -4.4941 4.00393 0
M  V30 70216 H 6651.42 -1.47468 2.65494 0
M  V30 70217 H 6649 -0.667292 1.3367 0
M  V30 70218 H 6650.88 -3.78937 1.84349 0
M  V30 70219 H 6649.56 -3.12334 0.850241 0
M  V30 70220 H 6648.46 -2.24314 2.99389 0
M  V30 70221 H 6649.8 -2.96702 3.9272 0
M  V30 70222 N 6651.45 -1.39059 -0.741649 0
M  V30 70223 C 6652.86 -1.32075 -1.31959 0
M  V30 70224 C 6653.21 0.0179763 -1.96192 0
M  V30 70225 O 6652.34 0.920093 -1.95865 0
M  V30 70226 C 6652.93 -2.39194 -2.39941 0
M  V30 70227 C 6651.49 -2.35751 -2.93425 0
M  V30 70228 C 6650.64 -2.2143 -1.66925 0
M  V30 70229 H 6653.59 -1.49243 -0.539642 0
M  V30 70230 H 6653.61 -2.05598 -3.20171 0
M  V30 70231 H 6653.12 -3.36616 -1.93162 0
M  V30 70232 H 6651.22 -1.41947 -3.44502 0
M  V30 70233 H 6651.34 -3.30353 -3.46992 0
M  V30 70234 H 6649.7 -1.68488 -1.91008 0
M  V30 70235 H 6650.48 -3.20812 -1.22207 0
M  V30 70236 N 6652.93 0.971123 -1.24125 0
M  V30 70237 C 6653.84 2.09912 -1.04758 0
M  V30 70238 C 6654.85 1.73997 0.0106244 0
M  V30 70239 O 6656.03 2.00532 -0.18682 0
M  V30 70240 C 6653.1 3.40533 -0.651008 0
M  V30 70241 C 6652.16 3.90417 -1.78531 0
M  V30 70242 C 6651.39 5.14804 -1.40756 0
M  V30 70243 O 6651.61 5.69632 -0.29587 0
M  V30 70244 O 6650.55 5.58987 -2.23198 0
M  V30 70245 H 6654.37 2.29144 -1.99316 0
M  V30 70246 H 6651.96 1.08301 -1.02913 0
M  V30 70247 H 6653.84 4.19084 -0.441213 0
M  V30 70248 H 6652.51 3.2261 0.265479 0
M  V30 70249 H 6651.42 3.12942 -2.04983 0
M  V30 70250 H 6652.75 4.12811 -2.68045 0
M  V30 70251 N 6654.41 1.05445 1.17129 0
M  V30 70252 C 6655.35 0.657656 2.21232 0
M  V30 70253 C 6656.32 -0.341458 1.62552 0
M  V30 70254 O 6657.51 -0.232293 1.89381 0
M  V30 70255 C 6654.65 0.0412395 3.45075 0
M  V30 70256 C 6653.76 1.08949 4.18036 0
M  V30 70257 C 6652.9 0.440127 5.29374 0
M  V30 70258 C 6651.94 1.47251 5.94124 0
M  V30 70259 N 6651.07 0.847123 6.96971 0
M  V30 70260 H 6655.91 1.54985 2.54526 0
M  V30 70261 H 6653.45 0.775071 1.25024 0
M  V30 70262 H 6655.41 -0.333611 4.15864 0
M  V30 70263 H 6654.04 -0.814403 3.12358 0
M  V30 70264 H 6653.09 1.58215 3.45937 0
M  V30 70265 H 6654.4 1.87306 4.62296 0
M  V30 70266 H 6653.56 0.0118325 6.06699 0
M  V30 70267 H 6652.29 -0.3754 4.86253 0
M  V30 70268 H 6651.3 1.9108 5.15528 0
M  V30 70269 H 6652.52 2.28998 6.39325 0
M  V30 70270 H 6650.47 0.0521534 6.55979 0
M  V30 70271 H 6650.39 1.56819 7.39556 0
M  V30 70272 H 6651.66 0.443688 7.78236 0
M  V30 70273 N 6655.88 -1.3361 0.835823 0
M  V30 70274 C 6656.85 -2.27579 0.27212 0
M  V30 70275 C 6657.85 -1.5083 -0.557407 0
M  V30 70276 O 6659.04 -1.7019 -0.37164 0
M  V30 70277 C 6656.17 -3.3527 -0.616996 0
M  V30 70278 H 6657.36 -2.78949 1.10126 0
M  V30 70279 H 6654.92 -1.43961 0.60867 0
M  V30 70280 H 6655.65 -2.89137 -1.46869 0
M  V30 70281 H 6655.44 -3.92093 -0.0234999 0
M  V30 70282 H 6656.93 -4.05332 -1.00478 0
M  V30 70283 N 6657.36 -0.591973 -1.4606 0
M  V30 70284 C 6658.64 -0.013815 -1.95595 0
M  V30 70285 C 6659.02 1.44962 -1.53458 0
M  V30 70286 O 6658.37 2.14422 -0.789656 0
M  V30 70287 C 6658.58 -0.195557 -3.48452 0
M  V30 70288 C 6659.93 -0.0682004 -4.24545 0
M  V30 70289 O 6660.95 -0.124869 -3.55981 0
M  V30 70290 O 6659.81 0.0597698 -5.46467 0
M  V30 70291 H 6656.9 0.0445843 -0.825797 0
M  V30 70292 H 6659.45 -0.660941 -1.563 0
M  V30 70293 H 6658.22 -1.21255 -3.72039 0
M  V30 70294 H 6657.84 0.487567 -3.94599 0
M  V30 70295 N 6658.84 1.54101 -0.330258 0
M  V30 70296 C 6659.8 2.23223 0.520026 0
M  V30 70297 C 6660.8 1.22792 1.03821 0
M  V30 70298 O 6661.99 1.47325 0.929574 0
M  V30 70299 C 6659.13 2.94151 1.72301 0
M  V30 70300 H 6660.32 2.99781 -0.0843186 0
M  V30 70301 H 6657.87 1.56088 -0.0814256 0
M  V30 70302 H 6658.61 2.21746 2.36641 0
M  V30 70303 H 6658.39 3.67804 1.35879 0
M  V30 70304 H 6659.88 3.46796 2.32642 0
M  V30 70305 N 6660.32 0.0585753 1.57491 0
M  V30 70306 C 6661.23 -0.9283 2.15452 0
M  V30 70307 C 6662.24 -1.33644 1.11423 0
M  V30 70308 O 6663.42 -1.41185 1.43627 0
M  V30 70309 C 6660.49 -2.18225 2.69405 0
M  V30 70310 C 6659.55 -1.83176 3.88259 0
M  V30 70311 C 6658.78 -3.02593 4.39629 0
M  V30 70312 O 6659 -4.16198 3.90045 0
M  V30 70313 O 6657.94 -2.83176 5.31126 0
M  V30 70314 H 6661.76 -0.465325 3.00114 0
M  V30 70315 H 6659.35 -0.163748 1.485 0
M  V30 70316 H 6661.23 -2.91782 3.04042 0
M  V30 70317 H 6659.9 -2.63646 1.8781 0
M  V30 70318 H 6658.81 -1.06912 3.58498 0
M  V30 70319 H 6660.14 -1.42548 4.71106 0
M  V30 70320 N 6661.8 -1.56128 -0.214875 0
M  V30 70321 C 6662.74 -1.93823 -1.2859 0
M  V30 70322 C 6663.74 -0.821094 -1.4817 0
M  V30 70323 O 6664.94 -1.00597 -1.49265 0
M  V30 70324 H 6661.32 -0.616044 -0.43127 0
M  V30 70325 H 6663.29 -2.8318 -0.940842 0
M  V30 70326 C 6662.04 -2.27703 -2.62767 0
M  V30 70327 H 6661.36 -3.13181 -2.48511 0
M  V30 70328 H 6662.8 -2.57957 -3.36503 0
M  V30 70329 C 6661.26 -1.10453 -3.18279 0
M  V30 70330 O 6661.79 -0.369156 -4 0
M  V30 70331 N 6660 -0.886579 -2.76746 0
M  V30 70332 H 6659.54 -1.4863 -2.10397 0
M  V30 70333 H 6659.5 -0.103822 -3.14229 0
M  V30 70334 N 6663.27 0.481841 -1.50054 0
M  V30 70335 C 6664.52 1.23225 -1.60187 0
M  V30 70336 C 6664.84 1.9269 -0.299277 0
M  V30 70337 O 6664.11 1.83623 0.682611 0
M  V30 70338 H 6662.69 0.457828 -0.590256 0
M  V30 70339 H 6665.36 0.556783 -1.86778 0
M  V30 70340 H 6664.45 1.98594 -2.40763 0
M  V30 70341 N 6664.75 1.3945 0.734264 0
M  V30 70342 C 6665.66 1.40505 1.87871 0
M  V30 70343 C 6666.68 0.299762 1.71398 0
M  V30 70344 O 6667.85 0.541351 1.93988 0
M  V30 70345 C 6664.92 1.24771 3.2347 0
M  V30 70346 C 6663.98 2.45277 3.52331 0
M  V30 70347 C 6663.21 2.30285 4.81461 0
M  V30 70348 O 6663.44 1.30672 5.55231 0
M  V30 70349 O 6662.37 3.19283 5.10237 0
M  V30 70350 H 6666.2 2.36976 1.89937 0
M  V30 70351 H 6663.78 1.20573 0.882179 0
M  V30 70352 H 6665.66 1.18132 4.04503 0
M  V30 70353 H 6664.34 0.313951 3.22174 0
M  V30 70354 H 6663.25 2.57492 2.71382 0
M  V30 70355 H 6664.58 3.3735 3.58408 0
M  V30 70356 N 6666.23 -0.964527 1.24638 0
M  V30 70357 C 6667.18 -2.05962 1.04155 0
M  V30 70358 C 6668.15 -1.66036 -0.0461744 0
M  V30 70359 O 6669.33 -1.90488 0.109073 0
M  V30 70360 C 6666.47 -3.38811 0.655809 0
M  V30 70361 C 6665.59 -3.91914 1.81735 0
M  V30 70362 C 6664.72 -5.13045 1.37689 0
M  V30 70363 C 6663.76 -5.58352 2.50818 0
M  V30 70364 N 6662.9 -6.70701 2.07617 0
M  V30 70365 H 6667.74 -2.22816 1.97881 0
M  V30 70366 H 6665.27 -1.09202 0.985557 0
M  V30 70367 H 6667.23 -4.15149 0.413173 0
M  V30 70368 H 6665.86 -3.21873 -0.244457 0
M  V30 70369 H 6664.91 -3.12186 2.17356 0
M  V30 70370 H 6666.23 -4.21495 2.66727 0
M  V30 70371 H 6665.38 -5.96767 1.09332 0
M  V30 70372 H 6664.12 -4.85155 0.497549 0
M  V30 70373 H 6663.12 -4.73201 2.79931 0
M  V30 70374 H 6664.35 -5.88254 3.39314 0
M  V30 70375 H 6662.3 -6.44539 1.22085 0
M  V30 70376 H 6662.21 -6.99748 2.86161 0
M  V30 70377 H 6663.48 -7.57857 1.82409 0
M  V30 70378 N 6667.71 -1.06064 -1.16568 0
M  V30 70379 C 6668.62 -0.6804 -2.24517 0
M  V30 70380 C 6669.64 0.302514 -1.7135 0
M  V30 70381 O 6670.81 0.152407 -2.00823 0
M  V30 70382 C 6667.88 -0.0702143 -3.46629 0
M  V30 70383 C 6666.94 -1.1047 -4.14843 0
M  V30 70384 C 6666.17 -0.523536 -5.31126 0
M  V30 70385 O 6666.39 0.66441 -5.66517 0
M  V30 70386 O 6665.33 -1.2621 -5.88519 0
M  V30 70387 H 6669.15 -1.58028 -2.59347 0
M  V30 70388 H 6666.74 -0.832759 -1.24038 0
M  V30 70389 H 6668.62 0.268446 -4.20544 0
M  V30 70390 H 6667.3 0.803187 -3.13577 0
M  V30 70391 H 6666.2 -1.4955 -3.42908 0
M  V30 70392 H 6667.54 -1.94955 -4.51944 0
M  V30 70393 N 6669.19 1.33165 -0.842897 0
M  V30 70394 C 6670.1 2.32904 -0.281567 0
M  V30 70395 C 6671.11 1.63529 0.594501 0
M  V30 70396 O 6672.29 1.95154 0.497667 0
M  V30 70397 C 6669.35 3.42613 0.530748 0
M  V30 70398 C 6668.42 4.27702 -0.370069 0
M  V30 70399 C 6667.65 5.32172 0.403572 0
M  V30 70400 O 6667.87 5.4647 1.63484 0
M  V30 70401 O 6666.81 6.01481 -0.224516 0
M  V30 70402 H 6670.63 2.82783 -1.10759 0
M  V30 70403 H 6668.22 1.36579 -0.605522 0
M  V30 70404 H 6670.1 4.09552 0.992221 0
M  V30 70405 H 6668.77 2.94945 1.33377 0
M  V30 70406 H 6667.68 3.63615 -0.879467 0
M  V30 70407 H 6669.01 4.78865 -1.13796 0
M  V30 70408 N 6670.67 0.599711 1.45744 0
M  V30 70409 C 6671.91 0.0919711 2.02591 0
M  V30 70410 C 6672.24 -1.2712 1.46813 0
M  V30 70411 O 6671.52 -1.83677 0.639755 0
M  V30 70412 C 6671.8 0.0445296 3.60072 0
M  V30 70413 C 6671.66 1.43781 4.26201 0
M  V30 70414 C 6672.97 -0.647379 4.35313 0
M  V30 70415 H 6670.09 0.0348959 0.736173 0
M  V30 70416 H 6672.74 0.770173 1.7369 0
M  V30 70417 H 6670.89 -0.533021 3.84826 0
M  V30 70418 H 6672.56 2.06184 4.12657 0
M  V30 70419 H 6670.8 2.00076 3.84905 0
M  V30 70420 H 6671.47 1.35693 5.35062 0
M  V30 70421 H 6673.95 -0.156557 4.15805 0
M  V30 70422 H 6672.82 -0.649654 5.45042 0
M  V30 70423 H 6673.08 -1.71198 4.07607 0
M  V30 70424 N 6672.14 -1.53923 0.338426 0
M  V30 70425 C 6673.55 -1.86124 -0.146553 0
M  V30 70426 C 6673.91 -1.25978 -1.50413 0
M  V30 70427 O 6673.03 -0.571404 -2.0872 0
M  V30 70428 C 6673.63 -3.37701 -0.272701 0
M  V30 70429 C 6672.18 -3.69798 -0.701908 0
M  V30 70430 C 6671.33 -2.76794 0.16745 0
M  V30 70431 H 6674.28 -1.48559 0.558201 0
M  V30 70432 H 6674.3 -3.6422 -1.10109 0
M  V30 70433 H 6673.82 -3.81447 0.715508 0
M  V30 70434 H 6671.92 -3.31593 -1.69933 0
M  V30 70435 H 6672.03 -4.76532 -0.495353 0
M  V30 70436 H 6670.39 -2.52152 -0.359394 0
M  V30 70437 H 6671.18 -3.23369 1.1527 0
M  V30 70438 N 6673.62 -0.0669266 -1.57458 0
M  V30 70439 C 6674.53 0.916861 -2.15942 0
M  V30 70440 C 6675.55 1.33052 -1.1213 0
M  V30 70441 O 6676.72 1.40421 -1.44374 0
M  V30 70442 C 6673.79 2.16793 -2.70558 0
M  V30 70443 C 6672.85 1.81114 -3.89225 0
M  V30 70444 C 6672.08 3.00257 -4.41227 0
M  V30 70445 O 6672.31 4.14124 -3.92247 0
M  V30 70446 O 6671.24 2.80356 -5.3262 0
M  V30 70447 H 6675.07 0.449402 -3.00357 0
M  V30 70448 H 6672.65 0.15587 -1.48585 0
M  V30 70449 H 6674.53 2.90165 -3.05585 0
M  V30 70450 H 6673.21 2.62646 -1.89206 0
M  V30 70451 H 6672.11 1.05009 -3.5906 0
M  V30 70452 H 6673.45 1.40048 -4.71855 0
M  V30 70453 N 6675.1 1.5624 0.206592 0
M  V30 70454 C 6676.51 1.69978 0.772294 0
M  V30 70455 C 6676.86 0.671533 1.8435 0
M  V30 70456 O 6675.99 -0.174377 2.15696 0
M  V30 70457 C 6676.58 3.08174 1.40763 0
M  V30 70458 C 6675.14 3.23716 1.92055 0
M  V30 70459 C 6674.29 2.65921 0.786206 0
M  V30 70460 H 6677.24 1.58689 -0.018306 0
M  V30 70461 H 6677.26 3.04864 2.2768 0
M  V30 70462 H 6676.77 3.82989 0.627756 0
M  V30 70463 H 6674.87 2.53796 2.72797 0
M  V30 70464 H 6674.99 4.31098 2.09024 0
M  V30 70465 H 6673.35 2.24794 1.19748 0
M  V30 70466 H 6674.13 3.43295 0.0187606 0
M  V30 70467 N 6676.58 -0.473876 1.50307 0
M  V30 70468 C 6677.81 -1.24951 1.64909 0
M  V30 70469 C 6678.22 -1.85871 0.331296 0
M  V30 70470 O 6677.58 -1.69099 -0.686431 0
M  V30 70471 C 6677.63 -2.36024 2.73816 0
M  V30 70472 O 6677.35 -1.77603 4.00486 0
M  V30 70473 C 6678.85 -3.26948 2.99366 0
M  V30 70474 H 6676.07 -0.377993 0.554402 0
M  V30 70475 H 6678.61 -0.56595 1.96513 0
M  V30 70476 H 6676.77 -3.0016 2.44914 0
M  V30 70477 H 6677.18 -2.50726 4.60692 0
M  V30 70478 H 6678.66 -4.01101 3.79238 0
M  V30 70479 H 6679.13 -3.85563 2.10328 0
M  V30 70480 H 6679.74 -2.68551 3.29788 0
M  V30 70481 N 6678.06 -1.39838 -0.726858 0
M  V30 70482 C 6679.47 -1.33467 -1.30551 0
M  V30 70483 C 6679.82 -0.00283349 -1.962 0
M  V30 70484 O 6678.94 0.899267 -1.9683 0
M  V30 70485 C 6679.54 -2.41725 -2.37391 0
M  V30 70486 C 6678.1 -2.3885 -2.90908 0
M  V30 70487 C 6677.24 -2.23188 -1.64567 0
M  V30 70488 H 6680.19 -1.49807 -0.523783 0
M  V30 70489 H 6680.22 -2.08983 -3.17973 0
M  V30 70490 H 6679.73 -3.38645 -1.89581 0
M  V30 70491 H 6677.83 -1.45593 -3.42977 0
M  V30 70492 H 6677.94 -3.34015 -3.43469 0
M  V30 70493 H 6676.31 -1.70504 -1.8921 0
M  V30 70494 H 6677.09 -3.2209 -1.18797 0
M  V30 70495 N 6679.53 0.957904 -1.25148 0
M  V30 70496 C 6680.44 2.08789 -1.06979 0
M  V30 70497 C 6681.46 1.73998 -0.00783086 0
M  V30 70498 O 6682.64 2.00322 -0.208078 0
M  V30 70499 C 6679.7 3.39823 -0.687089 0
M  V30 70500 C 6678.76 3.88501 -1.82662 0
M  V30 70501 C 6677.99 5.13282 -1.46209 0
M  V30 70502 O 6678.22 5.69286 -0.356271 0
M  V30 70503 O 6677.15 5.56588 -2.29114 0
M  V30 70504 H 6680.98 2.27017 -2.01735 0
M  V30 70505 H 6678.56 1.07204 -1.04056 0
M  V30 70506 H 6680.44 4.18592 -0.485638 0
M  V30 70507 H 6679.12 3.22873 0.231247 0
M  V30 70508 H 6678.03 3.10751 -2.0829 0
M  V30 70509 H 6679.36 4.09945 -2.72408 0
M  V30 70510 N 6681.01 1.06681 1.16004 0
M  V30 70511 C 6682.42 0.809654 1.6823 0
M  V30 70512 C 6682.77 -0.666206 1.84543 0
M  V30 70513 O 6681.9 -1.51642 1.54382 0
M  V30 70514 C 6682.49 1.46315 3.05577 0
M  V30 70515 C 6681.05 1.25367 3.54908 0
M  V30 70516 C 6680.2 1.53715 2.30796 0
M  V30 70517 H 6683.15 1.22977 1.00312 0
M  V30 70518 H 6683.17 0.880626 3.70169 0
M  V30 70519 H 6682.68 2.53728 2.93672 0
M  V30 70520 H 6680.79 0.199457 3.72066 0
M  V30 70521 H 6680.9 1.96913 4.36763 0
M  V30 70522 H 6679.26 0.957863 2.36002 0
M  V30 70523 H 6680.05 2.62296 2.21485 0
M  V30 70524 N 6682.49 -1.32716 0.849947 0
M  V30 70525 C 6683.9 -1.79704 0.506283 0
M  V30 70526 C 6684.25 -1.70228 -0.975537 0
M  V30 70527 O 6683.38 -1.25808 -1.76072 0
M  V30 70528 C 6683.97 -3.26288 0.912216 0
M  V30 70529 C 6682.53 -3.7125 0.620522 0
M  V30 70530 C 6681.68 -2.53917 1.11453 0
M  V30 70531 H 6684.63 -1.20081 1.0376 0
M  V30 70532 H 6684.65 -3.79824 0.226694 0
M  V30 70533 H 6684.16 -3.33153 1.99074 0
M  V30 70534 H 6682.26 -3.69903 -0.447479 0
M  V30 70535 H 6682.38 -4.64252 1.18352 0
M  V30 70536 H 6680.74 -2.49018 0.534965 0
M  V30 70537 H 6681.52 -2.63538 2.20006 0
M  V30 70538 N 6683.97 -0.607431 -1.45424 0
M  V30 70539 C 6684.92 0.111503 -2.3053 0
M  V30 70540 C 6685.89 0.860141 -1.42094 0
M  V30 70541 O 6687.07 0.845908 -1.71023 0
M  V30 70542 C 6684.21 1.10302 -3.26998 0
M  V30 70543 C 6683.32 0.355266 -4.30537 0
M  V30 70544 C 6682.46 1.33649 -5.14112 0
M  V30 70545 C 6681.5 0.576541 -6.09379 0
M  V30 70546 N 6680.63 1.50704 -6.85735 0
M  V30 70547 H 6685.47 -0.620247 -2.91474 0
M  V30 70548 H 6683.01 -0.317669 -1.43629 0
M  V30 70549 H 6684.97 1.691 -3.81393 0
M  V30 70550 H 6683.6 1.80218 -2.67808 0
M  V30 70551 H 6682.65 -0.348223 -3.78803 0
M  V30 70552 H 6683.96 -0.237685 -4.98233 0
M  V30 70553 H 6683.12 1.99654 -5.72908 0
M  V30 70554 H 6681.86 1.96337 -4.46434 0
M  V30 70555 H 6680.86 -0.0971418 -5.49714 0
M  V30 70556 H 6682.09 -0.0452922 -6.79085 0
M  V30 70557 H 6680.03 2.12157 -6.20746 0
M  V30 70558 H 6679.95 0.967518 -7.49783 0
M  V30 70559 H 6681.22 2.15667 -7.49071 0
M  V30 70560 N 6685.45 1.53742 -0.346584 0
M  V30 70561 C 6686.39 2.25122 0.508795 0
M  V30 70562 C 6687.36 1.25064 1.09308 0
M  V30 70563 O 6688.55 1.53803 1.12913 0
M  V30 70564 C 6685.69 3.02974 1.6523 0
M  V30 70565 C 6684.8 4.17891 1.09503 0
M  V30 70566 C 6683.94 4.83224 2.20608 0
M  V30 70567 C 6682.98 5.90205 1.62248 0
M  V30 70568 N 6682.11 6.49305 2.67108 0
M  V30 70569 H 6686.95 2.9781 -0.10644 0
M  V30 70570 H 6684.49 1.46959 -0.0643002 0
M  V30 70571 H 6686.45 3.46372 2.32555 0
M  V30 70572 H 6685.08 2.32577 2.23847 0
M  V30 70573 H 6684.13 3.79113 0.312618 0
M  V30 70574 H 6685.44 4.94829 0.628183 0
M  V30 70575 H 6684.6 5.29709 2.95793 0
M  V30 70576 H 6683.33 4.05717 2.70637 0
M  V30 70577 H 6682.34 5.431 0.855703 0
M  V30 70578 H 6683.56 6.69621 1.13067 0
M  V30 70579 H 6681.51 5.74661 3.16386 0
M  V30 70580 H 6681.43 7.21724 2.25055 0
M  V30 70581 H 6682.7 7.00443 3.42053 0
M  V30 70582 N 6686.92 0.075276 1.5742 0
M  V30 70583 C 6687.86 -0.920372 2.09909 0
M  V30 70584 C 6688.87 -1.25913 1.03198 0
M  V30 70585 O 6690.06 -1.2157 1.30702 0
M  V30 70586 C 6687.16 -2.23521 2.54738 0
M  V30 70587 C 6686.33 -2.07478 3.85061 0
M  V30 70588 C 6685.39 -3.22297 4.15946 0
M  V30 70589 O 6684.42 -2.97134 4.8549 0
M  V30 70590 N 6685.62 -4.47494 3.69769 0
M  V30 70591 H 6688.38 -0.472203 2.95957 0
M  V30 70592 H 6685.94 -0.110359 1.61523 0
M  V30 70593 H 6687.94 -2.99246 2.72459 0
M  V30 70594 H 6686.51 -2.59825 1.73809 0
M  V30 70595 H 6685.73 -1.16199 3.76685 0
M  V30 70596 H 6687.01 -1.94013 4.70358 0
M  V30 70597 H 6686.41 -4.70824 3.13594 0
M  V30 70598 H 6684.97 -5.20234 3.92683 0
M  V30 70599 N 6688.4 -1.56347 -0.198304 0
M  V30 70600 C 6689.37 -1.93437 -1.22942 0
M  V30 70601 C 6690.37 -0.815165 -1.38606 0
M  V30 70602 O 6691.56 -1.08262 -1.36473 0
M  V30 70603 C 6688.69 -2.2056 -2.59935 0
M  V30 70604 H 6689.88 -2.85681 -0.912476 0
M  V30 70605 H 6687.43 -1.49988 -0.439691 0
M  V30 70606 H 6688.17 -1.30943 -2.96689 0
M  V30 70607 H 6687.95 -3.02115 -2.49937 0
M  V30 70608 H 6689.44 -2.5027 -3.34297 0
M  V30 70609 N 6689.88 0.465898 -1.50556 0
M  V30 70610 C 6691.29 1.04663 -1.54604 0
M  V30 70611 C 6691.64 1.93006 -0.35259 0
M  V30 70612 O 6690.77 2.0971 0.533933 0
M  V30 70613 C 6691.36 1.90491 -2.80176 0
M  V30 70614 C 6689.92 2.43663 -2.86889 0
M  V30 70615 C 6689.07 1.22138 -2.48953 0
M  V30 70616 H 6692.02 0.248302 -1.56746 0
M  V30 70617 H 6692.04 2.75619 -2.62325 0
M  V30 70618 H 6691.55 1.26167 -3.6702 0
M  V30 70619 H 6689.65 3.11525 -2.04409 0
M  V30 70620 H 6689.77 2.78415 -3.899 0
M  V30 70621 H 6688.13 1.55779 -2.01507 0
M  V30 70622 H 6688.91 0.594688 -3.3811 0
M  V30 70623 N 6691.36 1.40221 0.719432 0
M  V30 70624 C 6692.77 1.34157 1.29841 0
M  V30 70625 C 6693.12 0.0132384 1.96196 0
M  V30 70626 O 6692.25 -0.888816 1.97304 0
M  V30 70627 C 6692.84 2.42981 2.36106 0
M  V30 70628 C 6691.4 2.40389 2.89638 0
M  V30 70629 C 6690.55 2.24058 1.63381 0
M  V30 70630 H 6693.5 1.50083 0.515831 0
M  V30 70631 H 6693.52 2.10666 3.1686 0
M  V30 70632 H 6693.03 3.39646 1.87782 0
M  V30 70633 H 6691.13 1.4741 3.422 0
M  V30 70634 H 6691.24 3.35832 3.41693 0
M  V30 70635 H 6689.61 1.71505 1.88303 0
M  V30 70636 H 6690.39 3.22716 1.17087 0
M  V30 70637 N 6692.84 -0.951253 1.25654 0
M  V30 70638 C 6694.06 -1.73618 1.13453 0
M  V30 70639 C 6694.49 -1.8557 -0.307467 0
M  V30 70640 O 6693.84 -1.3386 -1.22275 0
M  V30 70641 C 6693.89 -3.12612 1.79739 0
M  V30 70642 O 6693 -3.98025 1.07933 0
M  V30 70643 H 6692.34 -0.533066 0.3959 0
M  V30 70644 H 6694.87 -1.19211 1.66282 0
M  V30 70645 H 6694.88 -3.63054 1.8616 0
M  V30 70646 H 6693.55 -3.03229 2.84649 0
M  V30 70647 H 6692.13 -3.56486 1.09417 0
M  V30 70648 N 6694.31 -1.07295 -1.15437 0
M  V30 70649 C 6695.73 -0.818564 -1.67799 0
M  V30 70650 C 6696.08 0.65641 -1.84894 0
M  V30 70651 O 6695.2 1.50821 -1.55184 0
M  V30 70652 C 6695.8 -1.47934 -3.04797 0
M  V30 70653 C 6694.36 -1.27248 -3.54239 0
M  V30 70654 C 6693.5 -1.54937 -2.29978 0
M  V30 70655 H 6696.45 -1.23507 -0.996581 0
M  V30 70656 H 6696.47 -0.900245 -3.69697 0
M  V30 70657 H 6695.99 -2.55282 -2.92323 0
M  V30 70658 H 6694.09 -0.219186 -3.71955 0
M  V30 70659 H 6694.2 -1.99226 -4.35713 0
M  V30 70660 H 6692.56 -0.970366 -2.35491 0
M  V30 70661 H 6693.35 -2.63467 -2.20091 0
M  V30 70662 N 6695.79 1.32264 -0.856973 0
M  V30 70663 C 6697.2 1.79433 -0.515806 0
M  V30 70664 C 6697.56 1.70743 0.966496 0
M  V30 70665 O 6696.68 1.2674 1.75402 0
M  V30 70666 C 6697.28 3.258 -0.929507 0
M  V30 70667 C 6695.83 3.70916 -0.640202 0
M  V30 70668 C 6694.98 2.53322 -1.12798 0
M  V30 70669 H 6697.93 1.19529 -1.04396 0
M  V30 70670 H 6697.95 3.79699 -0.246834 0
M  V30 70671 H 6697.47 3.32093 -2.00838 0
M  V30 70672 H 6695.57 3.70135 0.427855 0
M  V30 70673 H 6695.68 4.63618 -1.20812 0
M  V30 70674 H 6694.04 2.48731 -0.548164 0
M  V30 70675 H 6694.83 2.62368 -2.214 0
M  V30 70676 N 6697.27 0.615135 1.45099 0
M  V30 70677 C 6698.68 0.197481 1.85653 0
M  V30 70678 C 6699.03 -1.24741 1.5144 0
M  V30 70679 O 6698.16 -1.9469 0.944711 0
M  V30 70680 C 6698.75 0.351625 3.3697 0
M  V30 70681 C 6697.31 -0.0113945 3.76398 0
M  V30 70682 C 6696.46 0.672535 2.69021 0
M  V30 70683 H 6699.41 0.821335 1.35793 0
M  V30 70684 H 6699.43 -0.414027 3.78241 0
M  V30 70685 H 6698.94 1.40333 3.6184 0
M  V30 70686 H 6697.04 -1.06198 3.57145 0
M  V30 70687 H 6697.16 0.387517 4.7753 0
M  V30 70688 H 6695.52 0.109418 2.54465 0
M  V30 70689 H 6696.3 1.72652 2.96726 0
M  V30 70690 N 6698.75 -1.53556 0.354732 0
M  V30 70691 C 6699.7 -2.25389 -0.496849 0
M  V30 70692 C 6700.67 -1.25642 -1.08643 0
M  V30 70693 O 6701.85 -1.54399 -1.12096 0
M  V30 70694 C 6698.99 -3.03846 -1.63621 0
M  V30 70695 C 6698.1 -4.18466 -1.07285 0
M  V30 70696 C 6697.24 -4.84387 -2.18042 0
M  V30 70697 C 6696.28 -5.91057 -1.59116 0
M  V30 70698 N 6695.42 -6.50713 -2.63661 0
M  V30 70699 H 6700.26 -2.97749 0.122232 0
M  V30 70700 H 6697.79 -1.46923 0.0720929 0
M  V30 70701 H 6699.75 -3.47601 -2.30715 0
M  V30 70702 H 6698.38 -2.33761 -2.22611 0
M  V30 70703 H 6697.43 -3.79274 -0.292508 0
M  V30 70704 H 6698.74 -4.95155 -0.601932 0
M  V30 70705 H 6697.9 -5.3127 -2.92979 0
M  V30 70706 H 6696.64 -4.07147 -2.68482 0
M  V30 70707 H 6695.64 -5.43546 -0.826889 0
M  V30 70708 H 6696.87 -6.70212 -1.09514 0
M  V30 70709 H 6694.81 -5.76331 -3.13334 0
M  V30 70710 H 6694.73 -7.22908 -2.21225 0
M  V30 70711 H 6696 -7.02247 -3.38333 0
M  V30 70712 N 6700.23 -0.0836233 -1.57378 0
M  V30 70713 C 6701.17 0.879427 -2.13389 0
M  V30 70714 C 6702.14 1.28748 -1.04943 0
M  V30 70715 O 6703.33 1.37126 -1.32669 0
M  V30 70716 C 6700.47 2.13738 -2.70943 0
M  V30 70717 C 6699.58 1.78089 -3.93584 0
M  V30 70718 C 6698.72 2.98584 -4.39342 0
M  V30 70719 C 6697.76 2.59008 -5.546 0
M  V30 70720 N 6696.89 3.723 -5.95262 0
M  V30 70721 H 6701.73 0.39492 -2.95372 0
M  V30 70722 H 6699.27 0.183272 -1.45954 0
M  V30 70723 H 6701.23 2.87392 -3.02426 0
M  V30 70724 H 6699.86 2.59708 -1.91707 0
M  V30 70725 H 6698.91 0.944495 -3.68488 0
M  V30 70726 H 6700.22 1.4498 -4.77265 0
M  V30 70727 H 6699.38 3.80504 -4.72548 0
M  V30 70728 H 6698.12 3.34895 -3.54537 0
M  V30 70729 H 6697.12 1.75511 -5.21033 0
M  V30 70730 H 6698.35 2.23854 -6.41145 0
M  V30 70731 H 6696.29 4.08351 -5.13406 0
M  V30 70732 H 6696.21 3.42998 -6.73712 0
M  V30 70733 H 6697.48 4.54764 -6.33095 0
M  V30 70734 N 6701.71 1.5645 0.190009 0
M  V30 70735 C 6702.62 1.98158 1.2558 0
M  V30 70736 C 6703.63 0.890023 1.49515 0
M  V30 70737 O 6704.81 1.19618 1.62029 0
M  V30 70738 C 6701.87 2.31704 2.57903 0
M  V30 70739 C 6700.93 3.54593 2.41996 0
M  V30 70740 C 6700.17 3.86529 3.68009 0
M  V30 70741 O 6700.39 3.19685 4.72396 0
M  V30 70742 O 6699.32 4.79942 3.63235 0
M  V30 70743 H 6703.15 2.89051 0.931836 0
M  V30 70744 H 6700.73 1.44072 0.395412 0
M  V30 70745 H 6702.62 2.54333 3.35995 0
M  V30 70746 H 6701.29 1.43978 2.89917 0
M  V30 70747 H 6700.2 3.37205 1.61999 0
M  V30 70748 H 6701.53 4.42801 2.14913 0
M  V30 70749 N 6703.18 -0.457907 1.50801 0
M  V30 70750 C 6704.09 -1.5798 1.73434 0
M  V30 70751 C 6705.11 -1.62662 0.617831 0
M  V30 70752 O 6706.29 -1.80286 0.897709 0
M  V30 70753 C 6703.35 -2.94112 1.83573 0
M  V30 70754 C 6702.41 -2.99713 3.0736 0
M  V30 70755 C 6701.64 -4.29352 3.17006 0
M  V30 70756 O 6701.87 -5.20594 2.33104 0
M  V30 70757 O 6700.8 -4.40816 4.09835 0
M  V30 70758 H 6704.63 -1.41803 2.68562 0
M  V30 70759 H 6702.21 -0.638788 1.35055 0
M  V30 70760 H 6704.09 -3.74942 1.92345 0
M  V30 70761 H 6702.77 -3.1046 0.9163 0
M  V30 70762 H 6701.68 -2.17914 3.0408 0
M  V30 70763 H 6703.01 -2.88305 3.98925 0
M  V30 70764 N 6704.66 -1.40601 -0.711986 0
M  V30 70765 C 6705.62 -1.40897 -1.80778 0
M  V30 70766 C 6706.62 -0.302186 -1.57935 0
M  V30 70767 O 6707.81 -0.561269 -1.6491 0
M  V30 70768 C 6704.95 -1.20425 -3.18921 0
M  V30 70769 H 6706.14 -2.38428 -1.81912 0
M  V30 70770 H 6703.69 -1.26502 -0.917984 0
M  V30 70771 H 6704.43 -0.236693 -3.23435 0
M  V30 70772 H 6704.21 -2.006 -3.36901 0
M  V30 70773 H 6705.7 -1.23429 -3.98942 0
M  V30 70774 N 6706.14 0.944576 -1.26157 0
M  V30 70775 C 6707.39 1.68704 -1.1128 0
M  V30 70776 C 6707.71 1.91923 0.345065 0
M  V30 70777 O 6706.98 1.5135 1.24379 0
M  V30 70778 H 6705.56 0.625203 -0.408816 0
M  V30 70779 H 6708.22 1.13512 -1.58433 0
M  V30 70780 H 6707.32 2.66218 -1.62893 0
M  V30 70781 N 6707.62 1.07905 1.14866 0
M  V30 70782 C 6708.87 0.804038 1.85417 0
M  V30 70783 C 6709.19 -0.672014 1.83055 0
M  V30 70784 O 6708.46 -1.48696 1.2754 0
M  V30 70785 H 6707.04 0.294444 0.686521 0
M  V30 70786 H 6709.7 1.36397 1.39218 0
M  V30 70787 H 6708.79 1.14361 2.90393 0
M  V30 70788 N 6709.1 -1.31808 0.863975 0
M  V30 70789 C 6710.01 -2.32427 0.318584 0
M  V30 70790 C 6711.02 -1.64454 -0.568409 0
M  V30 70791 O 6712.2 -1.95921 -0.466556 0
M  V30 70792 C 6709.26 -3.43414 -0.476174 0
M  V30 70793 C 6708.32 -4.27059 0.438065 0
M  V30 70794 C 6707.56 -5.32747 -0.318857 0
M  V30 70795 O 6707.78 -5.49001 -1.5477 0
M  V30 70796 O 6706.71 -6.01048 0.320178 0
M  V30 70797 H 6710.54 -2.80985 1.15244 0
M  V30 70798 H 6708.12 -1.35598 0.627174 0
M  V30 70799 H 6710.01 -4.11079 -0.92694 0
M  V30 70800 H 6708.68 -2.97029 -1.28668 0
M  V30 70801 H 6707.59 -3.6217 0.937204 0
M  V30 70802 H 6708.92 -4.76994 1.214 0
M  V30 70803 N 6710.57 -0.622821 -1.44771 0
M  V30 70804 C 6711.82 -0.124006 -2.0212 0
M  V30 70805 C 6712.15 1.2511 -1.48922 0
M  V30 70806 O 6711.4 1.8423 -0.660142 0
M  V30 70807 C 6711.7 -0.0510208 -3.57364 0
M  V30 70808 C 6711.37 -1.36381 -4.2978 0
M  V30 70809 C 6710.03 -1.72337 -4.49281 0
M  V30 70810 C 6712.38 -2.23072 -4.7105 0
M  V30 70811 C 6709.71 -2.94709 -5.0731 0
M  V30 70812 C 6712.06 -3.44707 -5.30434 0
M  V30 70813 C 6710.73 -3.80897 -5.48155 0
M  V30 70814 H 6710 -0.0453771 -0.739609 0
M  V30 70815 H 6712.64 -0.80748 -1.73643 0
M  V30 70816 H 6710.95 0.715788 -3.85206 0
M  V30 70817 H 6712.65 0.351322 -3.99458 0
M  V30 70818 H 6709.24 -1.07397 -4.14926 0
M  V30 70819 H 6713.42 -1.96589 -4.55704 0
M  V30 70820 H 6708.68 -3.22836 -5.19218 0
M  V30 70821 H 6712.85 -4.12122 -5.61363 0
M  V30 70822 H 6710.48 -4.75804 -5.92887 0
M  V30 70823 N 6712.05 1.53366 -0.362871 0
M  V30 70824 C 6713.3 2.022 0.220595 0
M  V30 70825 C 6713.65 1.24554 1.46643 0
M  V30 70826 O 6712.95 0.33006 1.88736 0
M  V30 70827 C 6713.14 3.52854 0.568231 0
M  V30 70828 C 6712.97 4.45089 -0.642361 0
M  V30 70829 C 6711.74 4.91955 -1.15361 0
M  V30 70830 C 6713.94 4.91733 -1.50675 0
M  V30 70831 N 6711.92 5.6819 -2.3245 0
M  V30 70832 C 6713.29 5.66284 -2.52433 0
M  V30 70833 C 6715.35 4.73811 -1.52994 0
M  V30 70834 C 6714.05 6.24817 -3.56364 0
M  V30 70835 C 6716.07 5.33209 -2.55817 0
M  V30 70836 C 6715.44 6.07643 -3.563 0
M  V30 70837 H 6711.54 0.780789 0.0435096 0
M  V30 70838 H 6714.12 1.87988 -0.506803 0
M  V30 70839 H 6712.29 3.67232 1.26471 0
M  V30 70840 H 6714.02 3.88413 1.13655 0
M  V30 70841 H 6710.78 4.68116 -0.718659 0
M  V30 70842 H 6711.2 6.10971 -2.91623 0
M  V30 70843 H 6715.84 4.15791 -0.766637 0
M  V30 70844 H 6713.56 6.81935 -4.33578 0
M  V30 70845 H 6717.15 5.21237 -2.58462 0
M  V30 70846 H 6716.03 6.52785 -4.34558 0
M  V30 70847 N 6713.53 0.0919683 1.57331 0
M  V30 70848 C 6714.78 -0.571344 1.93856 0
M  V30 70849 C 6715.1 -1.68915 0.974301 0
M  V30 70850 O 6714.37 -1.95883 0.0258287 0
M  V30 70851 H 6712.95 -0.214044 0.715677 0
M  V30 70852 H 6715.61 0.154566 1.94286 0
M  V30 70853 H 6714.71 -0.983573 2.96196 0
M  V30 70854 N 6715.01 -1.56549 -0.18171 0
M  V30 70855 C 6715.92 -1.98821 -1.24528 0
M  V30 70856 C 6716.93 -0.897939 -1.4904 0
M  V30 70857 O 6718.11 -1.20476 -1.61393 0
M  V30 70858 C 6715.18 -2.33068 -2.56671 0
M  V30 70859 C 6714.24 -3.55871 -2.40112 0
M  V30 70860 C 6713.47 -3.88475 -3.65954 0
M  V30 70861 O 6713.69 -3.22186 -4.70694 0
M  V30 70862 O 6712.63 -4.81861 -3.60684 0
M  V30 70863 H 6716.45 -2.89541 -0.916494 0
M  V30 70864 H 6714.04 -1.4428 -0.387766 0
M  V30 70865 H 6715.92 -2.56112 -3.34641 0
M  V30 70866 H 6714.59 -1.45514 -2.8915 0
M  V30 70867 H 6713.5 -3.38059 -1.60208 0
M  V30 70868 H 6714.83 -4.43935 -2.12562 0
M  V30 70869 N 6716.49 0.449904 -1.51042 0
M  V30 70870 C 6717.42 1.55278 -1.74387 0
M  V30 70871 C 6718.4 1.59417 -0.59332 0
M  V30 70872 O 6719.58 1.75346 -0.834718 0
M  V30 70873 C 6716.71 2.93456 -1.85744 0
M  V30 70874 C 6715.67 3.04181 -3.01094 0
M  V30 70875 C 6714.99 4.44215 -2.97618 0
M  V30 70876 C 6716.29 2.79426 -4.41269 0
M  V30 70877 H 6717.99 1.35994 -2.66732 0
M  V30 70878 H 6715.53 0.652796 -1.28353 0
M  V30 70879 H 6717.49 3.70559 -2.00659 0
M  V30 70880 H 6716.21 3.13944 -0.900373 0
M  V30 70881 H 6714.87 2.29516 -2.85864 0
M  V30 70882 H 6714.52 4.61652 -1.99715 0
M  V30 70883 H 6714.22 4.52324 -3.7507 0
M  V30 70884 H 6715.74 5.23309 -3.14611 0
M  V30 70885 H 6717.15 3.46268 -4.56915 0
M  V30 70886 H 6715.55 2.98958 -5.20331 0
M  V30 70887 H 6716.62 1.75121 -4.52173 0
M  V30 70888 N 6717.96 1.40976 0.704519 0
M  V30 70889 C 6718.87 1.44458 1.84849 0
M  V30 70890 C 6719.89 0.336051 1.70724 0
M  V30 70891 O 6721.07 0.582377 1.92796 0
M  V30 70892 C 6718.13 1.31604 3.20751 0
M  V30 70893 C 6717.19 2.52696 3.4705 0
M  V30 70894 C 6716.43 2.40446 4.76468 0
M  V30 70895 O 6716.65 1.4242 5.52334 0
M  V30 70896 O 6715.58 3.30034 5.0335 0
M  V30 70897 H 6719.41 2.40952 1.84867 0
M  V30 70898 H 6716.99 1.22418 0.856406 0
M  V30 70899 H 6718.88 1.26686 4.01906 0
M  V30 70900 H 6717.55 0.382218 3.21436 0
M  V30 70901 H 6716.46 2.63191 2.6586 0
M  V30 70902 H 6717.79 3.44876 3.51171 0
M  V30 70903 N 6719.44 -0.937872 1.26656 0
M  V30 70904 C 6720.69 -1.68694 1.12562 0
M  V30 70905 C 6721.02 -1.91381 -0.329681 0
M  V30 70906 O 6720.3 -1.49686 -1.24195 0
M  V30 70907 C 6720.58 -3.05971 1.89878 0
M  V30 70908 C 6720.43 -2.90589 3.43334 0
M  V30 70909 C 6721.75 -4.06141 1.69521 0
M  V30 70910 H 6718.87 -0.612235 0.410289 0
M  V30 70911 H 6721.51 -1.08905 1.55691 0
M  V30 70912 H 6719.66 -3.57008 1.53223 0
M  V30 70913 H 6721.33 -2.46748 3.8976 0
M  V30 70914 H 6719.58 -2.26145 3.70191 0
M  V30 70915 H 6720.25 -3.87969 3.92663 0
M  V30 70916 H 6722.72 -3.64077 2.01462 0
M  V30 70917 H 6721.6 -5.00203 2.26028 0
M  V30 70918 H 6721.86 -4.37434 0.640596 0
M  V30 70919 N 6720.92 -1.08513 -1.14292 0
M  V30 70920 C 6721.85 -0.673974 -2.19067 0
M  V30 70921 C 6722.87 0.279493 -1.60383 0
M  V30 70922 O 6724.05 0.0669813 -1.78374 0
M  V30 70923 C 6721.15 0.0289192 -3.38888 0
M  V30 70924 C 6720.33 -0.943719 -4.27098 0
M  V30 70925 C 6719.39 -0.275953 -5.25476 0
M  V30 70926 O 6718.41 -0.920697 -5.61704 0
M  V30 70927 N 6719.61 0.973711 -5.72275 0
M  V30 70928 H 6722.38 -1.57534 -2.54957 0
M  V30 70929 H 6719.94 -0.971355 -1.29523 0
M  V30 70930 H 6721.93 0.486618 -4.01764 0
M  V30 70931 H 6720.5 0.832397 -3.01314 0
M  V30 70932 H 6719.72 -1.58023 -3.6114 0
M  V30 70933 H 6721.01 -1.60277 -4.82896 0
M  V30 70934 H 6720.41 1.51726 -5.44973 0
M  V30 70935 H 6718.97 1.37489 -6.37134 0
M  V30 70936 N 6722.4 1.31347 -0.870953 0
M  V30 70937 C 6723.81 1.4934 -0.563011 0
M  V30 70938 C 6724.01 1.80152 0.90263 0
M  V30 70939 O 6723.07 1.88076 1.68474 0
M  V30 70940 C 6724.38 2.62651 -1.46407 0
M  V30 70941 C 6725.93 2.76534 -1.46621 0
M  V30 70942 C 6726.41 3.92943 -2.35287 0
M  V30 70943 N 6727.9 4.00231 -2.33172 0
M  V30 70944 C 6728.63 4.89578 -2.98497 0
M  V30 70945 N 6728.13 5.83821 -3.72995 0
M  V30 70946 N 6729.92 4.82832 -2.87801 0
M  V30 70947 H 6722.07 1.09616 -1.81929 0
M  V30 70948 H 6724.34 0.541736 -0.777963 0
M  V30 70949 H 6724.04 2.46661 -2.50702 0
M  V30 70950 H 6723.92 3.58813 -1.16333 0
M  V30 70951 H 6726.3 2.91938 -0.430844 0
M  V30 70952 H 6726.38 1.81036 -1.8072 0
M  V30 70953 H 6726.03 3.78297 -3.38901 0
M  V30 70954 H 6725.96 4.8775 -1.98512 0
M  V30 70955 H 6728.45 3.32805 -1.79023 0
M  V30 70956 H 6728.76 6.48728 -4.19966 0
M  V30 70957 H 6727.11 5.83796 -3.77103 0
M  V30 70958 H 6730.3 4.08183 -2.29138 0
M  V30 70959 H 6730.47 5.52259 -3.3899 0
M  V30 70960 N 6723.88 0.63049 1.44439 0
M  V30 70961 C 6725.12 0.134923 2.02351 0
M  V30 70962 C 6725.46 -1.23978 1.49476 0
M  V30 70963 O 6724.73 -1.82279 0.678571 0
M  V30 70964 C 6725.01 0.120896 3.59897 0
M  V30 70965 C 6724.87 1.52789 4.23055 0
M  V30 70966 C 6726.19 -0.554897 4.36588 0
M  V30 70967 H 6723.3 0.0505033 0.735268 0
M  V30 70968 H 6725.95 0.806842 1.72018 0
M  V30 70969 H 6724.1 -0.451273 3.8587 0
M  V30 70970 H 6725.77 2.1489 4.08191 0
M  V30 70971 H 6724.01 2.08195 3.80575 0
M  V30 70972 H 6724.68 1.47012 5.32063 0
M  V30 70973 H 6727.16 -0.0683235 4.16044 0
M  V30 70974 H 6726.03 -0.533897 5.46297 0
M  V30 70975 H 6726.3 -1.62513 4.11147 0
M  V30 70976 N 6725.36 -1.53171 0.370999 0
M  V30 70977 C 6726.3 -2.25903 -0.472916 0
M  V30 70978 C 6727.27 -1.26787 -1.07305 0
M  V30 70979 O 6728.46 -1.5558 -1.10452 0
M  V30 70980 C 6725.6 -3.05564 -1.60389 0
M  V30 70981 C 6724.71 -4.19581 -1.0284 0
M  V30 70982 C 6723.85 -4.86673 -2.12893 0
M  V30 70983 C 6722.88 -5.92712 -1.52838 0
M  V30 70984 N 6722.02 -6.53473 -2.56745 0
M  V30 70985 H 6726.86 -2.97603 0.153806 0
M  V30 70986 H 6724.4 -1.46839 0.087672 0
M  V30 70987 H 6726.36 -3.50028 -2.27015 0
M  V30 70988 H 6724.99 -2.36109 -2.20119 0
M  V30 70989 H 6724.04 -3.79563 -0.252265 0
M  V30 70990 H 6725.35 -4.95765 -0.549381 0
M  V30 70991 H 6724.5 -5.34348 -2.87328 0
M  V30 70992 H 6723.24 -4.09972 -2.64149 0
M  V30 70993 H 6722.25 -5.44393 -0.769192 0
M  V30 70994 H 6723.47 -6.71335 -1.02399 0
M  V30 70995 H 6721.42 -5.79622 -3.07204 0
M  V30 70996 H 6721.34 -7.25214 -2.13545 0
M  V30 70997 H 6722.6 -7.05796 -3.30866 0
M  V30 70998 N 6726.83 -0.100311 -1.5728 0
M  V30 70999 C 6728.08 0.562165 -1.9454 0
M  V30 71000 C 6728.41 1.67866 -0.982403 0
M  V30 71001 O 6727.66 1.957 -0.00291255 0
M  V30 71002 C 6727.96 1.15241 -3.38311 0
M  V30 71003 C 6727.63 0.159171 -4.50619 0
M  V30 71004 C 6726.29 -0.113995 -4.81065 0
M  V30 71005 C 6728.64 -0.518734 -5.18612 0
M  V30 71006 C 6725.97 -1.07167 -5.76829 0
M  V30 71007 C 6728.32 -1.46492 -6.15405 0
M  V30 71008 C 6726.99 -1.74626 -6.44253 0
M  V30 71009 H 6726.26 0.205711 -0.711874 0
M  V30 71010 H 6728.9 -0.177251 -1.90678 0
M  V30 71011 H 6727.21 1.96819 -3.38777 0
M  V30 71012 H 6728.91 1.67277 -3.64444 0
M  V30 71013 H 6725.5 0.382266 -4.26892 0
M  V30 71014 H 6729.68 -0.320842 -4.95262 0
M  V30 71015 H 6724.94 -1.29659 -5.97493 0
M  V30 71016 H 6729.11 -1.99599 -6.67183 0
M  V30 71017 H 6726.74 -2.48991 -7.18267 0
M  V30 71018 N 6728.31 1.56643 0.173405 0
M  V30 71019 C 6729.24 1.99278 1.21699 0
M  V30 71020 C 6730.22 0.868036 1.46284 0
M  V30 71021 O 6731.41 1.13397 1.57654 0
M  V30 71022 C 6728.54 2.35088 2.55638 0
M  V30 71023 C 6727.49 3.50502 2.45626 0
M  V30 71024 C 6726.82 3.72049 3.84036 0
M  V30 71025 C 6728.12 4.84017 1.96276 0
M  V30 71026 H 6729.81 2.86705 0.862599 0
M  V30 71027 H 6727.36 1.37935 0.413498 0
M  V30 71028 H 6729.31 2.63511 3.28846 0
M  V30 71029 H 6728.03 1.44567 2.92861 0
M  V30 71030 H 6726.69 3.22204 1.74873 0
M  V30 71031 H 6726.34 2.78822 4.18649 0
M  V30 71032 H 6726.04 4.49704 3.78206 0
M  V30 71033 H 6727.57 4.0287 4.58833 0
M  V30 71034 H 6728.98 5.1133 2.59257 0
M  V30 71035 H 6727.38 5.65295 2.01399 0
M  V30 71036 H 6728.45 4.76151 0.916975 0
M  V30 71037 N 6729.79 -0.441887 1.51278 0
M  V30 71038 C 6730.74 -1.55667 1.72831 0
M  V30 71039 C 6731.73 -1.58624 0.594534 0
M  V30 71040 O 6732.94 -1.62423 0.7758 0
M  V30 71041 H 6729.31 -0.517084 0.546011 0
M  V30 71042 H 6731.28 -1.34661 2.66287 0
M  V30 71043 C 6730.03 -2.93365 1.86634 0
M  V30 71044 H 6729.36 -2.91819 2.73279 0
M  V30 71045 H 6730.8 -3.70745 2.05728 0
M  V30 71046 C 6729.25 -3.31052 0.625017 0
M  V30 71047 O 6729.78 -4.01084 -0.222424 0
M  V30 71048 N 6727.99 -2.86767 0.470439 0
M  V30 71049 H 6727.54 -2.29947 1.16112 0
M  V30 71050 H 6727.5 -3.12345 -0.358887 0
M  V30 71051 N 6731.27 -1.41348 -0.697033 0
M  V30 71052 C 6732.5 -1.43771 -1.4837 0
M  V30 71053 C 6732.91 -0.0409723 -1.89156 0
M  V30 71054 O 6732.25 0.949729 -1.57244 0
M  V30 71055 C 6732.31 -2.28185 -2.77798 0
M  V30 71056 C 6731.97 -3.76367 -2.59224 0
M  V30 71057 C 6732.97 -4.68562 -2.25267 0
M  V30 71058 C 6730.66 -4.20392 -2.74911 0
M  V30 71059 C 6732.65 -6.02772 -2.07232 0
M  V30 71060 C 6730.34 -5.54667 -2.56492 0
M  V30 71061 C 6731.34 -6.45672 -2.22703 0
M  V30 71062 O 6731.02 -7.77469 -2.04444 0
M  V30 71063 H 6730.76 -0.491784 -0.463816 0
M  V30 71064 H 6733.31 -1.86259 -0.865836 0
M  V30 71065 H 6731.54 -1.80508 -3.41985 0
M  V30 71066 H 6733.23 -2.22327 -3.39596 0
M  V30 71067 H 6733.99 -4.3584 -2.12764 0
M  V30 71068 H 6729.87 -3.49863 -3.00194 0
M  V30 71069 H 6733.42 -6.73768 -1.80781 0
M  V30 71070 H 6729.31 -5.86969 -2.68585 0
M  V30 71071 H 6730.08 -7.88597 -2.19218 0
M  V30 71072 N 6732.75 0.931142 -1.27151 0
M  V30 71073 C 6733.68 2.04836 -1.12092 0
M  V30 71074 C 6734.66 1.70084 -0.0233261 0
M  V30 71075 O 6735.84 1.93196 -0.197187 0
M  V30 71076 C 6732.97 3.38799 -0.763718 0
M  V30 71077 C 6731.93 3.8765 -1.81416 0
M  V30 71078 C 6731.25 5.18379 -1.31102 0
M  V30 71079 C 6732.55 4.11421 -3.21761 0
M  V30 71080 H 6734.25 2.17693 -2.05549 0
M  V30 71081 H 6731.79 1.04603 -0.989658 0
M  V30 71082 H 6733.74 4.16431 -0.645201 0
M  V30 71083 H 6732.47 3.25946 0.206555 0
M  V30 71084 H 6731.13 3.12207 -1.92152 0
M  V30 71085 H 6730.78 5.01914 -0.330301 0
M  V30 71086 H 6730.48 5.52033 -2.01329 0
M  V30 71087 H 6732 5.98584 -1.20538 0
M  V30 71088 H 6733.41 4.79634 -3.14045 0
M  V30 71089 H 6731.81 4.56376 -3.89668 0
M  V30 71090 H 6732.88 3.16839 -3.67071 0
M  V30 71091 N 6734.22 1.09118 1.13715 0
M  V30 71092 C 6735.45 0.847153 1.89309 0
M  V30 71093 C 6735.87 -0.59568 1.78419 0
M  V30 71094 O 6735.23 -1.41817 1.12949 0
M  V30 71095 C 6735.28 1.28301 3.37003 0
M  V30 71096 O 6734.38 0.439483 4.10052 0
M  V30 71097 H 6733.72 0.307075 0.588728 0
M  V30 71098 H 6736.25 1.45449 1.43895 0
M  V30 71099 H 6736.26 1.26704 3.87827 0
M  V30 71100 H 6734.94 2.33381 3.44247 0
M  V30 71101 H 6733.52 0.519507 3.69264 0
M  V30 71102 N 6735.7 -1.30884 0.877907 0
M  V30 71103 C 6737.12 -1.49039 0.570923 0
M  V30 71104 C 6737.32 -1.80628 -0.893063 0
M  V30 71105 O 6736.37 -1.88967 -1.67475 0
M  V30 71106 C 6737.69 -2.61871 1.47798 0
M  V30 71107 C 6739.23 -2.75753 1.48086 0
M  V30 71108 C 6739.71 -3.9169 2.37367 0
M  V30 71109 N 6741.2 -3.98989 2.35292 0
M  V30 71110 C 6741.94 -4.87989 3.01089 0
M  V30 71111 N 6741.43 -5.81834 3.76086 0
M  V30 71112 N 6743.22 -4.81299 2.90357 0
M  V30 71113 H 6735.38 -1.0865 1.82507 0
M  V30 71114 H 6737.64 -0.537603 0.780825 0
M  V30 71115 H 6737.34 -2.45328 2.52006 0
M  V30 71116 H 6737.22 -3.58191 1.18234 0
M  V30 71117 H 6739.61 -2.91705 0.44632 0
M  V30 71118 H 6739.69 -1.80075 1.81677 0
M  V30 71119 H 6739.33 -3.76494 3.40902 0
M  V30 71120 H 6739.26 -4.86691 2.01096 0
M  V30 71121 H 6741.75 -3.31851 1.80786 0
M  V30 71122 H 6742.06 -6.46492 4.23401 0
M  V30 71123 H 6740.41 -5.81788 3.80194 0
M  V30 71124 H 6743.6 -4.06962 2.31299 0
M  V30 71125 H 6743.77 -5.50453 3.41914 0
M  V30 71126 N 6737.18 -0.638141 -1.44102 0
M  V30 71127 C 6738.13 0.0746923 -2.3248 0
M  V30 71128 C 6739.12 0.828624 -1.4775 0
M  V30 71129 O 6740.33 0.74073 -1.64052 0
M  V30 71130 H 6736.7 0.042929 -0.750774 0
M  V30 71131 H 6738.67 -0.688657 -2.90345 0
M  V30 71132 C 6737.42 1.03787 -3.31849 0
M  V30 71133 H 6736.75 0.467166 -3.97061 0
M  V30 71134 H 6738.19 1.50601 -3.96353 0
M  V30 71135 C 6736.64 2.12656 -2.61303 0
M  V30 71136 O 6737.17 3.20834 -2.41719 0
M  V30 71137 N 6735.38 1.88787 -2.20925 0
M  V30 71138 H 6734.93 1.00816 -2.37052 0
M  V30 71139 H 6734.89 2.61827 -1.74051 0
M  V30 71140 N 6738.66 1.52972 -0.379117 0
M  V30 71141 C 6739.9 2.01446 0.206315 0
M  V30 71142 C 6740.23 1.26595 1.47662 0
M  V30 71143 O 6739.49 0.351776 1.92512 0
M  V30 71144 C 6739.79 3.53437 0.530774 0
M  V30 71145 C 6739.45 4.46237 -0.646782 0
M  V30 71146 C 6738.11 4.71325 -0.969853 0
M  V30 71147 C 6740.47 5.01055 -1.43505 0
M  V30 71148 C 6737.79 5.48481 -2.08292 0
M  V30 71149 C 6740.15 5.79427 -2.53864 0
M  V30 71150 C 6738.81 6.02797 -2.86691 0
M  V30 71151 H 6738.08 0.737144 0.0754961 0
M  V30 71152 H 6740.73 1.84463 -0.514368 0
M  V30 71153 H 6739.03 3.68439 1.33265 0
M  V30 71154 H 6740.73 3.88428 0.996212 0
M  V30 71155 H 6737.32 4.26868 -0.384959 0
M  V30 71156 H 6741.5 4.81607 -1.1987 0
M  V30 71157 H 6736.76 5.64804 -2.34108 0
M  V30 71158 H 6740.93 6.20907 -3.15352 0
M  V30 71159 H 6738.56 6.62367 -3.73061 0
M  V30 71160 N 6740.14 0.10865 1.57225 0
M  V30 71161 C 6741.37 -0.559037 1.98893 0
M  V30 71162 C 6741.77 -1.61417 0.986974 0
M  V30 71163 O 6741.12 -1.83676 -0.0297736 0
M  V30 71164 C 6741.18 -1.25297 3.36958 0
M  V30 71165 C 6740.84 -0.347008 4.55681 0
M  V30 71166 C 6741.84 0.410269 5.18279 0
M  V30 71167 C 6739.53 -0.261102 5.01621 0
M  V30 71168 C 6741.52 1.24129 6.25197 0
M  V30 71169 C 6739.21 0.573559 6.08402 0
M  V30 71170 C 6740.2 1.32339 6.70056 0
M  V30 71171 O 6739.89 2.14422 7.74776 0
M  V30 71172 H 6739.62 -0.153458 0.658352 0
M  V30 71173 H 6742.18 0.188692 2.04531 0
M  V30 71174 H 6740.41 -2.04756 3.28043 0
M  V30 71175 H 6742.1 -1.81654 3.62983 0
M  V30 71176 H 6742.86 0.353712 4.83708 0
M  V30 71177 H 6738.74 -0.834417 4.53386 0
M  V30 71178 H 6742.29 1.82705 6.73249 0
M  V30 71179 H 6738.18 0.631547 6.42403 0
M  V30 71180 H 6738.95 2.07251 7.91827 0
M  V30 71181 N 6741.61 -1.56733 -0.165095 0
M  V30 71182 C 6742.84 -1.86487 -0.89612 0
M  V30 71183 C 6743.26 -0.694768 -1.75552 0
M  V30 71184 O 6742.61 0.335975 -1.79381 0
M  V30 71185 C 6742.67 -3.1533 -1.76775 0
M  V30 71186 O 6742.39 -4.2783 -0.943013 0
M  V30 71187 C 6743.89 -3.58473 -2.60791 0
M  V30 71188 H 6741.11 -0.618567 -0.260031 0
M  V30 71189 H 6743.65 -2.03847 -0.16332 0
M  V30 71190 H 6741.81 -2.99777 -2.45382 0
M  V30 71191 H 6742.22 -5.01391 -1.53972 0
M  V30 71192 H 6743.69 -4.51511 -3.17555 0
M  V30 71193 H 6744.17 -2.82889 -3.35962 0
M  V30 71194 H 6744.78 -3.76658 -1.97506 0
M  V30 71195 N 6743.09 0.433858 -1.5151 0
M  V30 71196 C 6744.02 1.5342 -1.76024 0
M  V30 71197 C 6745 1.58779 -0.610195 0
M  V30 71198 O 6746.19 1.7445 -0.853269 0
M  V30 71199 C 6743.32 2.9147 -1.88846 0
M  V30 71200 C 6742.27 3.00971 -3.04303 0
M  V30 71201 C 6741.6 4.41034 -3.02313 0
M  V30 71202 C 6742.9 2.74731 -4.44208 0
M  V30 71203 H 6744.59 1.33157 -2.68159 0
M  V30 71204 H 6742.14 0.639146 -1.29038 0
M  V30 71205 H 6744.09 3.6841 -2.04578 0
M  V30 71206 H 6742.82 3.12971 -0.93362 0
M  V30 71207 H 6741.47 2.26471 -2.88282 0
M  V30 71208 H 6741.12 4.59508 -2.046 0
M  V30 71209 H 6740.82 4.4832 -3.79846 0
M  V30 71210 H 6742.35 5.19943 -3.20143 0
M  V30 71211 H 6743.76 3.41402 -4.60562 0
M  V30 71212 H 6742.16 2.93422 -5.23472 0
M  V30 71213 H 6743.23 1.70315 -4.54005 0
M  V30 71214 N 6744.57 1.41715 0.689527 0
M  V30 71215 C 6745.99 1.24318 1.00087 0
M  V30 71216 C 6746.19 0.136835 2.01035 0
M  V30 71217 O 6745.24 -0.496787 2.47565 0
M  V30 71218 C 6746.56 2.59471 1.51971 0
M  V30 71219 C 6748.1 2.66703 1.63824 0
M  V30 71220 C 6748.58 4.02188 2.19109 0
M  V30 71221 N 6750.07 4.04066 2.26461 0
M  V30 71222 C 6750.8 5.05704 2.7028 0
M  V30 71223 N 6750.3 6.1773 3.13658 0
M  V30 71224 N 6752.09 4.93064 2.69897 0
M  V30 71225 H 6744.24 2.1239 0.0208909 0
M  V30 71226 H 6746.51 0.945275 0.0718235 0
M  V30 71227 H 6746.21 3.41211 0.85251 0
M  V30 71228 H 6746.09 2.82375 2.50088 0
M  V30 71229 H 6748.47 1.85318 2.29654 0
M  V30 71230 H 6748.56 2.47603 0.642362 0
M  V30 71231 H 6748.2 4.84024 1.53892 0
M  V30 71232 H 6748.13 4.18632 3.1946 0
M  V30 71233 H 6750.62 3.23185 1.95857 0
M  V30 71234 H 6750.93 6.91148 3.45737 0
M  V30 71235 H 6749.28 6.21257 3.11552 0
M  V30 71236 H 6752.47 4.04627 2.35361 0
M  V30 71237 H 6752.64 5.7241 3.03727 0
M  V30 71238 N 6746.05 -0.924386 1.27643 0
M  V30 71239 C 6747.3 -1.67243 1.14176 0
M  V30 71240 C 6747.62 -1.91985 -0.311762 0
M  V30 71241 O 6746.88 -1.51059 -1.24417 0
M  V30 71242 C 6747.18 -3.04315 1.87423 0
M  V30 71243 C 6746.84 -2.99271 3.37265 0
M  V30 71244 C 6745.51 -2.97602 3.78135 0
M  V30 71245 C 6747.86 -2.90313 4.3286 0
M  V30 71246 C 6745.19 -2.84763 5.12959 0
M  V30 71247 C 6747.54 -2.79015 5.67744 0
M  V30 71248 C 6746.2 -2.75698 6.07904 0
M  V30 71249 H 6745.47 -0.611985 0.417799 0
M  V30 71250 H 6748.12 -1.07778 1.58291 0
M  V30 71251 H 6746.42 -3.67504 1.35825 0
M  V30 71252 H 6748.12 -3.61076 1.74427 0
M  V30 71253 H 6744.71 -3.01358 3.04764 0
M  V30 71254 H 6748.89 -2.90697 4.02255 0
M  V30 71255 H 6744.15 -2.80584 5.43215 0
M  V30 71256 H 6748.32 -2.71049 6.41487 0
M  V30 71257 H 6745.95 -2.65506 7.12328 0
M  V30 71258 N 6747.53 -1.09719 -1.13135 0
M  V30 71259 C 6748.46 -0.761219 -2.20744 0
M  V30 71260 C 6749.44 0.262478 -1.68063 0
M  V30 71261 O 6750.62 0.129875 -1.93765 0
M  V30 71262 C 6747.75 -0.184237 -3.46811 0
M  V30 71263 C 6746.71 -1.13779 -4.126 0
M  V30 71264 C 6746.03 -0.422364 -5.33029 0
M  V30 71265 C 6747.33 -2.48143 -4.5959 0
M  V30 71266 H 6749.03 -1.66095 -2.49104 0
M  V30 71267 H 6746.57 -0.800051 -1.1973 0
M  V30 71268 H 6748.53 0.0628993 -4.21353 0
M  V30 71269 H 6747.25 0.7507 -3.17855 0
M  V30 71270 H 6745.91 -1.37025 -3.40029 0
M  V30 71271 H 6745.56 0.516808 -5.00338 0
M  V30 71272 H 6745.26 -1.05818 -5.77993 0
M  V30 71273 H 6746.78 -0.183599 -6.10324 0
M  V30 71274 H 6748.19 -2.29087 -5.2554 0
M  V30 71275 H 6746.59 -3.07541 -5.15305 0
M  V30 71276 H 6747.66 -3.08684 -3.73955 0
M  V30 71277 N 6749 1.30416 -0.884835 0
M  V30 71278 C 6749.97 2.26412 -0.356397 0
M  V30 71279 C 6750.97 1.52795 0.501044 0
M  V30 71280 O 6752.16 1.71452 0.308219 0
M  V30 71281 C 6749.29 3.37329 0.492138 0
M  V30 71282 H 6750.48 2.74669 -1.20403 0
M  V30 71283 H 6748.04 1.41603 -0.661681 0
M  V30 71284 H 6748.77 2.94388 1.36037 0
M  V30 71285 H 6748.56 3.9191 -0.122039 0
M  V30 71286 H 6750.05 4.08782 0.853655 0
M  V30 71287 N 6750.48 0.645774 1.43762 0
M  V30 71288 C 6751.41 -0.0369245 2.33471 0
M  V30 71289 C 6752.39 -0.819701 1.49047 0
M  V30 71290 O 6753.58 -0.782665 1.7773 0
M  V30 71291 C 6750.71 -1.00912 3.32316 0
M  V30 71292 C 6749.66 -0.336976 4.26671 0
M  V30 71293 C 6748.99 -1.4201 5.15497 0
M  V30 71294 C 6750.29 0.765979 5.16653 0
M  V30 71295 H 6751.98 0.712222 2.90805 0
M  V30 71296 H 6749.53 0.34395 1.39832 0
M  V30 71297 H 6751.48 -1.49558 3.93968 0
M  V30 71298 H 6750.21 -1.78934 2.73222 0
M  V30 71299 H 6748.86 0.128965 3.66373 0
M  V30 71300 H 6748.51 -2.19156 4.52747 0
M  V30 71301 H 6748.21 -0.97566 5.79443 0
M  V30 71302 H 6749.74 -1.90807 5.80022 0
M  V30 71303 H 6751.15 0.362003 5.72156 0
M  V30 71304 H 6749.55 1.13444 5.8928 0
M  V30 71305 H 6750.62 1.62707 4.56787 0
M  V30 71306 N 6751.96 -1.52769 0.387224 0
M  V30 71307 C 6753.21 -2.01553 -0.195629 0
M  V30 71308 C 6753.54 -1.27376 -1.46988 0
M  V30 71309 O 6752.79 -0.361981 -1.92323 0
M  V30 71310 C 6753.09 -3.53713 -0.512023 0
M  V30 71311 C 6752.76 -4.45888 0.670438 0
M  V30 71312 C 6751.42 -4.70804 0.994835 0
M  V30 71313 C 6753.77 -5.00287 1.4616 0
M  V30 71314 C 6751.1 -5.47369 2.11198 0
M  V30 71315 C 6753.45 -5.78073 2.56933 0
M  V30 71316 C 6752.11 -6.01268 2.89884 0
M  V30 71317 H 6751.38 -0.737534 -0.0715857 0
M  V30 71318 H 6754.03 -1.84187 0.524143 0
M  V30 71319 H 6752.34 -3.69141 -1.31309 0
M  V30 71320 H 6754.03 -3.88951 -0.975599 0
M  V30 71321 H 6750.62 -4.26658 0.407591 0
M  V30 71322 H 6754.81 -4.80964 1.22422 0
M  V30 71323 H 6750.06 -5.63554 2.371 0
M  V30 71324 H 6754.24 -6.19226 3.1864 0
M  V30 71325 H 6751.86 -6.60379 3.76568 0
M  V30 71326 N 6753.44 -0.116987 -1.57165 0
M  V30 71327 C 6754.37 0.830644 -2.18226 0
M  V30 71328 C 6755.35 1.27872 -1.12173 0
M  V30 71329 O 6756.53 1.34168 -1.40401 0
M  V30 71330 C 6753.66 2.08158 -2.78007 0
M  V30 71331 C 6752.62 1.77137 -3.89624 0
M  V30 71332 C 6751.94 3.09242 -4.36203 0
M  V30 71333 C 6753.24 1.04124 -5.11816 0
M  V30 71334 H 6754.94 0.321835 -2.97665 0
M  V30 71335 H 6752.48 0.153359 -1.43181 0
M  V30 71336 H 6754.44 2.74907 -3.19381 0
M  V30 71337 H 6753.16 2.6136 -1.95854 0
M  V30 71338 H 6751.82 1.12777 -3.48822 0
M  V30 71339 H 6751.47 3.60375 -3.50912 0
M  V30 71340 H 6751.17 2.89261 -5.1147 0
M  V30 71341 H 6752.69 3.77113 -4.80227 0
M  V30 71342 H 6754.11 1.61023 -5.50222 0
M  V30 71343 H 6752.5 0.942449 -5.92653 0
M  V30 71344 H 6753.57 0.0276465 -4.84892 0
M  V30 71345 N 6754.92 1.56818 0.156781 0
M  V30 71346 C 6755.88 1.96629 1.1777 0
M  V30 71347 C 6756.88 0.851627 1.36396 0
M  V30 71348 O 6758.07 1.11843 1.33555 0
M  V30 71349 C 6755.2 2.27374 2.53996 0
M  V30 71350 H 6756.4 2.88 0.836412 0
M  V30 71351 H 6753.95 1.51101 0.39977 0
M  V30 71352 H 6754.68 1.38763 2.93113 0
M  V30 71353 H 6754.47 3.08636 2.41839 0
M  V30 71354 H 6755.96 2.59046 3.27544 0
M  V30 71355 N 6756.4 -0.425817 1.51738 0
M  V30 71356 C 6757.64 -1.17427 1.64976 0
M  V30 71357 C 6757.97 -1.90918 0.371546 0
M  V30 71358 O 6757.23 -1.8477 -0.644866 0
M  V30 71359 C 6757.52 -2.20703 2.81114 0
M  V30 71360 C 6757.19 -1.6414 4.19963 0
M  V30 71361 C 6755.85 -1.48438 4.57733 0
M  V30 71362 C 6758.2 -1.2267 5.06559 0
M  V30 71363 C 6755.53 -0.897567 5.79794 0
M  V30 71364 C 6757.88 -0.654132 6.29209 0
M  V30 71365 C 6756.55 -0.484105 6.65742 0
M  V30 71366 H 6755.82 -0.429696 0.603691 0
M  V30 71367 H 6758.47 -0.463732 1.858 0
M  V30 71368 H 6756.77 -2.97838 2.54558 0
M  V30 71369 H 6758.47 -2.78455 2.88554 0
M  V30 71370 H 6755.06 -1.77341 3.9019 0
M  V30 71371 H 6759.24 -1.33617 4.77975 0
M  V30 71372 H 6754.5 -0.7537 6.06737 0
M  V30 71373 H 6758.67 -0.324327 6.95644 0
M  V30 71374 H 6756.3 -0.0272825 7.60195 0
M  V30 71375 N 6757.87 -1.42079 -0.682002 0
M  V30 71376 C 6758.84 -1.447 -1.77748 0
M  V30 71377 C 6759.84 -0.335618 -1.57259 0
M  V30 71378 O 6761.03 -0.596123 -1.63683 0
M  V30 71379 C 6758.16 -1.27163 -3.16295 0
M  V30 71380 H 6759.35 -2.42233 -1.76814 0
M  V30 71381 H 6756.9 -1.28421 -0.890944 0
M  V30 71382 H 6757.64 -0.305245 -3.2286 0
M  V30 71383 H 6757.42 -2.07701 -3.3257 0
M  V30 71384 H 6758.91 -1.31864 -3.96234 0
M  V30 71385 N 6759.35 0.917604 -1.28132 0
M  V30 71386 C 6760.6 1.66091 -1.1444 0
M  V30 71387 C 6760.91 1.93173 0.307145 0
M  V30 71388 O 6762.12 2.65553 0.565119 0
M  V30 71389 C 6760.58 2.99192 -2.00031 0
M  V30 71390 C 6760.18 2.79771 -3.49903 0
M  V30 71391 C 6761.93 3.77053 -1.95016 0
M  V30 71392 C 6759.83 4.08488 -4.27658 0
M  V30 71393 H 6758.76 0.623017 -0.424694 0
M  V30 71394 H 6761.42 1.0186 -1.52633 0
M  V30 71395 H 6759.8 3.64536 -1.54691 0
M  V30 71396 H 6760.97 2.2313 -4.03174 0
M  V30 71397 H 6759.29 2.15326 -3.56404 0
M  V30 71398 H 6761.88 4.72456 -2.50378 0
M  V30 71399 H 6762.23 4.0587 -0.926033 0
M  V30 71400 H 6762.76 3.18522 -2.38304 0
M  V30 71401 H 6759.5 3.84846 -5.30635 0
M  V30 71402 H 6759.02 4.64754 -3.79161 0
M  V30 71403 H 6760.7 4.76776 -4.37372 0
M  V30 71404 N 6760.83 1.10318 1.12551 0
M  V30 71405 C 6761.78 0.745746 2.20321 0
M  V30 71406 C 6762.77 -0.257542 1.67431 0
M  V30 71407 O 6763.98 -0.118038 1.79613 0
M  V30 71408 H 6760.35 0.22322 0.718106 0
M  V30 71409 H 6762.32 1.66359 2.47724 0
M  V30 71410 C 6761.07 0.192446 3.47167 0
M  V30 71411 H 6760.4 0.955679 3.8821 0
M  V30 71412 H 6761.84 -0.0196038 4.23995 0
M  V30 71413 C 6760.29 -1.07455 3.19304 0
M  V30 71414 O 6760.82 -2.15627 3.38922 0
M  V30 71415 N 6759.03 -0.992703 2.73119 0
M  V30 71416 H 6758.58 -0.112339 2.57355 0
M  V30 71417 H 6758.54 -1.84114 2.54852 0
M  V30 71418 N 6762.31 -1.29945 0.891739 0
M  V30 71419 C 6763.55 -1.95878 0.513604 0
M  V30 71420 C 6763.88 -1.70356 -0.938566 0
M  V30 71421 O 6763.14 -1.00487 -1.67931 0
M  V30 71422 C 6763.44 -3.4959 0.743053 0
M  V30 71423 C 6763.1 -3.95175 2.17135 0
M  V30 71424 C 6761.76 -4.07333 2.56191 0
M  V30 71425 C 6764.12 -4.1885 3.10184 0
M  V30 71426 C 6761.44 -4.4053 3.87493 0
M  V30 71427 C 6763.8 -4.53519 4.41025 0
M  V30 71428 C 6762.46 -4.63885 4.79965 0
M  V30 71429 H 6761.73 -0.71677 0.187941 0
M  V30 71430 H 6764.38 -1.54688 1.12888 0
M  V30 71431 H 6762.68 -3.91774 0.0447926 0
M  V30 71432 H 6764.38 -3.98688 0.429977 0
M  V30 71433 H 6760.97 -3.86223 1.85821 0
M  V30 71434 H 6765.15 -4.08931 2.81228 0
M  V30 71435 H 6760.41 -4.46757 4.17394 0
M  V30 71436 H 6764.58 -4.70788 5.13158 0
M  V30 71437 H 6762.21 -4.89364 5.81745 0
M  V30 71438 N 6763.79 -0.653389 -1.43418 0
M  V30 71439 C 6765.03 -0.164182 -2.01031 0
M  V30 71440 C 6765.35 1.22918 -1.52153 0
M  V30 71441 O 6766.55 1.81361 -2.02041 0
M  V30 71442 C 6765.01 -0.242709 -3.59081 0
M  V30 71443 C 6764.62 -1.63877 -4.16951 0
M  V30 71444 C 6766.36 0.188886 -4.2408 0
M  V30 71445 C 6764.27 -1.67121 -5.67296 0
M  V30 71446 H 6763.2 -0.0576166 -0.751795 0
M  V30 71447 H 6765.85 -0.815449 -1.64386 0
M  V30 71448 H 6764.23 0.476069 -3.93128 0
M  V30 71449 H 6765.41 -2.38291 -3.94403 0
M  V30 71450 H 6763.72 -2.01636 -3.64324 0
M  V30 71451 H 6766.32 0.184493 -5.34382 0
M  V30 71452 H 6766.66 1.22035 -3.98012 0
M  V30 71453 H 6767.19 -0.478147 -3.94916 0
M  V30 71454 H 6763.93 -2.68178 -5.98131 0
M  V30 71455 H 6763.45 -0.970327 -5.91899 0
M  V30 71456 H 6765.13 -1.41503 -6.31337 0
M  V30 71457 N 6765.26 1.52561 -0.39532 0
M  V30 71458 C 6766.19 2.29539 0.428263 0
M  V30 71459 C 6767.17 1.33174 1.05824 0
M  V30 71460 O 6768.36 1.62072 1.06987 0
M  V30 71461 C 6765.49 3.10665 1.55257 0
M  V30 71462 C 6764.44 4.14963 1.04833 0
M  V30 71463 C 6763.77 4.84349 2.26518 0
M  V30 71464 C 6765.07 5.2218 0.112049 0
M  V30 71465 H 6766.76 2.98634 -0.214024 0
M  V30 71466 H 6764.31 1.43621 -0.104374 0
M  V30 71467 H 6766.26 3.63277 2.1356 0
M  V30 71468 H 6764.99 2.39313 2.22254 0
M  V30 71469 H 6763.65 3.6334 0.487794 0
M  V30 71470 H 6763.29 4.0954 2.92037 0
M  V30 71471 H 6762.99 5.54848 1.93437 0
M  V30 71472 H 6764.52 5.39768 2.85452 0
M  V30 71473 H 6765.93 5.70115 0.603451 0
M  V30 71474 H 6764.33 5.99961 -0.129284 0
M  V30 71475 H 6765.4 4.77616 -0.837304 0
M  V30 71476 N 6766.74 0.12532 1.57101 0
M  V30 71477 C 6767.67 -0.819059 2.18663 0
M  V30 71478 C 6768.65 -1.27275 1.1285 0
M  V30 71479 O 6769.84 -1.33422 1.41111 0
M  V30 71480 C 6766.97 -2.06681 2.79107 0
M  V30 71481 C 6765.92 -1.75068 3.90558 0
M  V30 71482 C 6765.25 -3.06925 4.37837 0
M  V30 71483 C 6766.55 -1.01408 5.12361 0
M  V30 71484 H 6768.24 -0.306045 2.97832 0
M  V30 71485 H 6765.79 -0.145763 1.4326 0
M  V30 71486 H 6767.74 -2.73209 3.20834 0
M  V30 71487 H 6766.46 -2.60317 1.97237 0
M  V30 71488 H 6765.12 -1.10926 3.49415 0
M  V30 71489 H 6764.77 -3.58509 3.52818 0
M  V30 71490 H 6764.47 -2.86544 5.12997 0
M  V30 71491 H 6766 -3.74561 4.8222 0
M  V30 71492 H 6767.41 -1.58103 5.51068 0
M  V30 71493 H 6765.81 -0.911006 5.93145 0
M  V30 71494 H 6766.88 -0.00193111 4.849 0
M  V30 71495 N 6768.22 -1.56899 -0.148462 0
M  V30 71496 C 6769.47 -1.83269 -0.861322 0
M  V30 71497 C 6769.79 -0.705979 -1.81235 0
M  V30 71498 O 6769.05 0.30511 -1.93307 0
M  V30 71499 C 6769.35 -3.15959 -1.67047 0
M  V30 71500 C 6769.01 -4.42499 -0.866358 0
M  V30 71501 C 6767.68 -4.76864 -0.644511 0
M  V30 71502 C 6770.03 -5.20313 -0.303906 0
M  V30 71503 C 6767.36 -5.86507 0.150519 0
M  V30 71504 C 6769.71 -6.3079 0.478157 0
M  V30 71505 C 6768.37 -6.63707 0.710594 0
M  V30 71506 H 6767.64 -0.670629 -0.31518 0
M  V30 71507 H 6770.29 -1.91091 -0.125041 0
M  V30 71508 H 6768.59 -3.0358 -2.47682 0
M  V30 71509 H 6770.29 -3.33577 -2.22548 0
M  V30 71510 H 6766.88 -4.15556 -1.04933 0
M  V30 71511 H 6771.07 -4.9414 -0.462584 0
M  V30 71512 H 6766.32 -6.10453 0.340118 0
M  V30 71513 H 6770.5 -6.90281 0.921124 0
M  V30 71514 H 6768.12 -7.48502 1.3285 0
M  V30 71515 N 6769.7 0.417764 -1.51962 0
M  V30 71516 C 6770.93 1.18572 -1.69187 0
M  V30 71517 C 6771.34 1.84984 -0.397201 0
M  V30 71518 O 6770.68 1.72342 0.635921 0
M  V30 71519 C 6770.74 2.29745 -2.7651 0
M  V30 71520 C 6770.41 1.83541 -4.18523 0
M  V30 71521 C 6771.4 1.32795 -5.02655 0
M  V30 71522 C 6769.09 1.90637 -4.64718 0
M  V30 71523 C 6771.08 0.897561 -6.31049 0
M  V30 71524 C 6768.77 1.4721 -5.93104 0
M  V30 71525 C 6769.77 0.968535 -6.76098 0
M  V30 71526 O 6769.45 0.540501 -8.02081 0
M  V30 71527 H 6769.19 0.362675 -0.570476 0
M  V30 71528 H 6771.74 0.49878 -1.99252 0
M  V30 71529 H 6769.97 3.01776 -2.41802 0
M  V30 71530 H 6771.66 2.91538 -2.82419 0
M  V30 71531 H 6772.43 1.26692 -4.6816 0
M  V30 71532 H 6768.3 2.28776 -4.00228 0
M  V30 71533 H 6771.85 0.503825 -6.95778 0
M  V30 71534 H 6767.75 1.52989 -6.27108 0
M  V30 71535 H 6768.51 0.66459 -8.15797 0
M  V30 71536 N 6771.18 1.42439 0.674458 0
M  V30 71537 C 6772.12 1.45944 1.78799 0
M  V30 71538 C 6773.09 0.311357 1.63156 0
M  V30 71539 O 6774.28 0.51548 1.83705 0
M  V30 71540 C 6771.42 1.3679 3.16832 0
M  V30 71541 C 6770.53 2.61636 3.4376 0
M  V30 71542 C 6769.67 2.44622 4.71523 0
M  V30 71543 C 6768.71 3.64839 4.91486 0
M  V30 71544 N 6767.84 3.46766 6.1049 0
M  V30 71545 H 6772.68 2.41103 1.75138 0
M  V30 71546 H 6770.22 1.19702 0.854977 0
M  V30 71547 H 6772.18 1.2948 3.96599 0
M  V30 71548 H 6770.81 0.452258 3.19616 0
M  V30 71549 H 6769.86 2.7931 2.58244 0
M  V30 71550 H 6771.17 3.50997 3.54405 0
M  V30 71551 H 6770.33 2.349 5.59381 0
M  V30 71552 H 6769.06 1.52751 4.63161 0
M  V30 71553 H 6768.07 3.74993 4.0207 0
M  V30 71554 H 6769.29 4.57692 5.01692 0
M  V30 71555 H 6767.24 2.57612 6.03301 0
M  V30 71556 H 6767.16 4.29715 6.21998 0
M  V30 71557 H 6768.43 3.40856 7.01026 0
M  V30 71558 N 6772.65 -0.910796 1.28617 0
M  V30 71559 C 6773.9 -1.66268 1.16115 0
M  V30 71560 C 6774.23 -1.92037 -0.289012 0
M  V30 71561 O 6773.51 -1.52287 -1.20992 0
M  V30 71562 C 6773.79 -3.01875 1.96325 0
M  V30 71563 C 6773.64 -2.83241 3.4942 0
M  V30 71564 C 6774.96 -4.02454 1.78097 0
M  V30 71565 H 6772.08 -0.603394 0.423183 0
M  V30 71566 H 6774.72 -1.05578 1.57966 0
M  V30 71567 H 6772.87 -3.53678 1.60761 0
M  V30 71568 H 6774.55 -2.38425 3.94906 0
M  V30 71569 H 6772.79 -2.18241 3.74904 0
M  V30 71570 H 6773.46 -3.79553 4.00804 0
M  V30 71571 H 6775.94 -3.59722 2.09139 0
M  V30 71572 H 6774.81 -4.95296 2.36587 0
M  V30 71573 H 6775.07 -4.35977 0.733238 0
M  V30 71574 N 6774.13 -1.10913 -1.11965 0
M  V30 71575 C 6775.36 -0.877163 -1.87938 0
M  V30 71576 C 6775.78 0.56722 -1.79344 0
M  V30 71577 O 6775.14 1.40003 -1.15191 0
M  V30 71578 C 6775.19 -1.33647 -3.34919 0
M  V30 71579 O 6774.29 -0.504663 -4.09301 0
M  V30 71580 H 6773.63 -0.316402 -0.583769 0
M  V30 71581 H 6776.16 -1.4772 -1.41563 0
M  V30 71582 H 6776.17 -1.32858 -3.85763 0
M  V30 71583 H 6774.85 -2.38828 -3.40491 0
M  V30 71584 H 6773.43 -0.578188 -3.6839 0
M  V30 71585 N 6775.61 1.29471 -0.898618 0
M  V30 71586 C 6776.89 1.90505 -0.443516 0
M  V30 71587 C 6777.27 1.81574 1.07675 0
M  V30 71588 O 6776.62 1.24177 1.91814 0
M  V30 71589 C 6776.83 3.35626 -0.956885 0
M  V30 71590 C 6778.17 4.12658 -0.999946 0
M  V30 71591 O 6779.2 3.44525 -0.904481 0
M  V30 71592 O 6778.06 5.3441 -1.14317 0
M  V30 71593 H 6775.15 0.815393 -0.138068 0
M  V30 71594 H 6777.7 1.37944 -0.988413 0
M  V30 71595 H 6776.47 3.36276 -2.00085 0
M  V30 71596 H 6776.09 3.95664 -0.391937 0
M  V30 71597 N 6777.09 0.660986 1.43069 0
M  V30 71598 C 6778.31 0.183913 2.06583 0
M  V30 71599 C 6778.74 -1.14465 1.49263 0
M  V30 71600 O 6778.1 -1.70886 0.605618 0
M  V30 71601 C 6778.14 0.114624 3.60418 0
M  V30 71602 O 6777.25 -0.920925 4.01986 0
M  V30 71603 H 6776.59 0.098434 0.656663 0
M  V30 71604 H 6779.12 0.906103 1.83442 0
M  V30 71605 H 6779.13 -0.0661243 4.07946 0
M  V30 71606 H 6777.8 1.08443 4.01513 0
M  V30 71607 H 6776.38 -0.712337 3.66033 0
M  V30 71608 N 6778.57 -1.5235 0.403405 0
M  V30 71609 C 6779.98 -1.86578 -0.0674798 0
M  V30 71610 C 6780.33 -1.32244 -1.44934 0
M  V30 71611 O 6779.45 -0.659415 -2.06108 0
M  V30 71612 C 6780.05 -3.38553 -0.129225 0
M  V30 71613 C 6778.61 -3.72442 -0.544433 0
M  V30 71614 C 6777.75 -2.75835 0.284697 0
M  V30 71615 H 6780.71 -1.46058 0.620708 0
M  V30 71616 H 6780.73 -3.68563 -0.945616 0
M  V30 71617 H 6780.24 -3.78069 0.876649 0
M  V30 71618 H 6778.34 -3.38502 -1.55716 0
M  V30 71619 H 6778.45 -4.78204 -0.292793 0
M  V30 71620 H 6776.82 -2.53449 -0.252125 0
M  V30 71621 H 6777.6 -3.18189 1.28881 0
M  V30 71622 N 6780.04 -0.13365 -1.57032 0
M  V30 71623 C 6781.46 0.389368 -1.82595 0
M  V30 71624 C 6781.81 1.65635 -1.05165 0
M  V30 71625 O 6780.93 2.14411 -0.292757 0
M  V30 71626 C 6781.53 0.713202 -3.31208 0
M  V30 71627 C 6780.09 1.18079 -3.57399 0
M  V30 71628 C 6779.23 0.19698 -2.76599 0
M  V30 71629 H 6782.18 -0.358562 -1.54596 0
M  V30 71630 H 6782.2 1.56921 -3.46635 0
M  V30 71631 H 6781.72 -0.209104 -3.87536 0
M  V30 71632 H 6779.82 2.1195 -3.06444 0
M  V30 71633 H 6779.93 1.11599 -4.65921 0
M  V30 71634 H 6778.29 0.686959 -2.45261 0
M  V30 71635 H 6779.08 -0.718681 -3.35693 0
M  V30 71636 N 6781.52 1.56976 0.14014 0
M  V30 71637 C 6782.77 1.8336 0.849908 0
M  V30 71638 C 6783.09 0.715606 1.81395 0
M  V30 71639 O 6782.36 -0.262192 1.94137 0
M  V30 71640 H 6780.94 0.676472 0.316851 0
M  V30 71641 H 6783.6 1.94449 0.132505 0
M  V30 71642 H 6782.7 2.78535 1.408 0
M  V30 71643 N 6783 -0.409699 1.52182 0
M  V30 71644 C 6783.91 -1.52383 1.78372 0
M  V30 71645 C 6784.93 -1.60614 0.669268 0
M  V30 71646 O 6786.1 -1.77339 0.954611 0
M  V30 71647 C 6783.17 -2.88123 1.92837 0
M  V30 71648 C 6782.23 -2.89783 3.1674 0
M  V30 71649 C 6781.46 -4.19049 3.30505 0
M  V30 71650 O 6781.68 -5.12915 2.49549 0
M  V30 71651 O 6780.62 -4.27554 4.23652 0
M  V30 71652 H 6784.44 -1.33187 2.72938 0
M  V30 71653 H 6782.03 -0.595498 1.37019 0
M  V30 71654 H 6783.91 -3.68632 2.04177 0
M  V30 71655 H 6782.59 -3.07388 1.01461 0
M  V30 71656 H 6781.49 -2.08129 3.10859 0
M  V30 71657 H 6782.83 -2.75467 4.07895 0
M  V30 71658 N 6784.48 -1.42795 -0.666894 0
M  V30 71659 C 6785.76 -1.34166 -1.42333 0
M  V30 71660 C 6786.14 0.0171616 -2.11093 0
M  V30 71661 O 6785.48 1.03307 -2.03813 0
M  V30 71662 C 6785.69 -2.51539 -2.41928 0
M  V30 71663 C 6787.04 -2.94011 -3.06337 0
M  V30 71664 O 6788.07 -2.51486 -2.52256 0
M  V30 71665 O 6786.93 -3.67638 -4.04357 0
M  V30 71666 H 6784.02 -0.529516 -0.635249 0
M  V30 71667 H 6786.57 -1.54818 -0.694953 0
M  V30 71668 H 6785.34 -3.42091 -1.89973 0
M  V30 71669 H 6784.96 -2.32915 -3.22236 0
M  V30 71670 N 6785.96 0.903962 -1.29098 0
M  V30 71671 C 6787.23 1.63405 -1.07509 0
M  V30 71672 C 6787.61 2.07611 0.382237 0
M  V30 71673 O 6786.96 1.82859 1.37022 0
M  V30 71674 C 6787.17 2.81811 -2.05873 0
M  V30 71675 C 6788.52 3.52598 -2.36558 0
M  V30 71676 O 6789.54 2.91974 -2.04034 0
M  V30 71677 O 6788.4 4.61881 -2.92109 0
M  V30 71678 H 6785.5 0.717305 -0.411585 0
M  V30 71679 H 6788.04 0.952405 -1.40454 0
M  V30 71680 H 6786.82 2.46311 -3.0405 0
M  V30 71681 H 6786.44 3.57684 -1.73632 0
M  V30 71682 N 6787.44 1.11505 1.11375 0
M  V30 71683 C 6788.37 0.717804 2.16617 0
M  V30 71684 C 6789.35 -0.286329 1.60059 0
M  V30 71685 O 6790.53 -0.18259 1.87614 0
M  V30 71686 C 6787.66 0.0609051 3.38645 0
M  V30 71687 C 6786.7 1.03029 4.13869 0
M  V30 71688 S 6787.54 2.55313 4.70718 0
M  V30 71689 C 6788.69 1.90926 5.96069 0
M  V30 71690 H 6788.93 1.60929 2.49979 0
M  V30 71691 H 6786.46 0.933157 1.2301 0
M  V30 71692 H 6788.42 -0.311749 4.09315 0
M  V30 71693 H 6787.08 -0.807542 3.03542 0
M  V30 71694 H 6786.27 0.518117 5.0133 0
M  V30 71695 H 6785.87 1.34541 3.48963 0
M  V30 71696 H 6788.16 1.24612 6.65941 0
M  V30 71697 H 6789.11 2.76388 6.51932 0
M  V30 71698 H 6789.52 1.36914 5.47645 0
M  V30 71699 N 6788.91 -1.28992 0.905472 0
M  V30 71700 C 6789.82 -2.31296 0.392368 0
M  V30 71701 C 6790.84 -1.66179 -0.515802 0
M  V30 71702 O 6792.02 -1.97307 -0.403989 0
M  V30 71703 C 6789.08 -3.44756 -0.366679 0
M  V30 71704 C 6788.14 -4.25449 0.573709 0
M  V30 71705 C 6787.37 -5.33491 -0.149207 0
M  V30 71706 O 6787.6 -5.53647 -1.37225 0
M  V30 71707 O 6786.53 -5.99725 0.511235 0
M  V30 71708 H 6790.36 -2.77176 1.24125 0
M  V30 71709 H 6787.94 -1.33534 0.669996 0
M  V30 71710 H 6789.82 -4.1382 -0.795689 0
M  V30 71711 H 6788.5 -3.00972 -1.19153 0
M  V30 71712 H 6787.41 -3.59005 1.05195 0
M  V30 71713 H 6788.74 -4.7289 1.36514 0
M  V30 71714 N 6790.39 -0.668564 -1.42716 0
M  V30 71715 C 6791.64 -0.187875 -2.01225 0
M  V30 71716 C 6791.96 1.20772 -1.53099 0
M  V30 71717 O 6791.23 1.80974 -0.750026 0
M  V30 71718 H 6789.81 -0.0664664 -0.744037 0
M  V30 71719 H 6792.47 -0.863675 -1.74719 0
M  V30 71720 H 6791.57 -0.18433 -3.11555 0
M  V30 71721 N 6791.87 1.52134 -0.411479 0
M  V30 71722 C 6793.09 2.06739 0.165429 0
M  V30 71723 C 6793.52 1.27934 1.37893 0
M  V30 71724 O 6792.88 0.310208 1.78626 0
M  V30 71725 C 6792.93 3.57229 0.491935 0
M  V30 71726 O 6792.03 3.80826 1.58256 0
M  V30 71727 H 6791.37 0.663869 0.0131782 0
M  V30 71728 H 6793.9 1.96048 -0.585356 0
M  V30 71729 H 6793.91 4.01049 0.749892 0
M  V30 71730 H 6792.59 4.14019 -0.39514 0
M  V30 71731 H 6791.16 3.48884 1.31659 0
M  V30 71732 N 6793.35 0.141976 1.56959 0
M  V30 71733 C 6794.31 -0.785473 2.15321 0
M  V30 71734 C 6795.31 -1.17874 1.09373 0
M  V30 71735 O 6796.5 -1.10049 1.35037 0
M  V30 71736 C 6793.63 -2.06523 2.71222 0
M  V30 71737 H 6794.83 -0.277883 2.9861 0
M  V30 71738 H 6792.38 -0.107437 1.5593 0
M  V30 71739 H 6793.11 -2.6166 1.91585 0
M  V30 71740 H 6792.9 -1.7925 3.48729 0
M  V30 71741 H 6794.39 -2.72773 3.16204 0
M  V30 71742 N 6794.83 -1.57048 -0.131813 0
M  V30 71743 C 6795.79 -1.98477 -1.14627 0
M  V30 71744 C 6796.79 -0.873219 -1.35024 0
M  V30 71745 O 6797.98 -1.13953 -1.31758 0
M  V30 71746 C 6795.11 -2.31386 -2.50346 0
M  V30 71747 H 6796.3 -2.89294 -0.790487 0
M  V30 71748 H 6793.86 -1.51718 -0.375681 0
M  V30 71749 H 6794.59 -1.43409 -2.90868 0
M  V30 71750 H 6794.38 -3.12444 -2.36899 0
M  V30 71751 H 6795.87 -2.64224 -3.23381 0
M  V30 71752 N 6796.3 0.401623 -1.52397 0
M  V30 71753 C 6797.55 1.14561 -1.66494 0
M  V30 71754 C 6797.87 1.90832 -0.400997 0
M  V30 71755 O 6797.14 1.86983 0.584317 0
M  V30 71756 H 6795.72 0.425896 -0.613695 0
M  V30 71757 H 6798.38 0.456993 -1.89467 0
M  V30 71758 H 6797.48 1.85552 -2.50952 0
M  V30 71759 N 6797.78 1.43146 0.659312 0
M  V30 71760 C 6799.06 1.34919 1.4162 0
M  V30 71761 C 6799.44 -0.00596653 2.11099 0
M  V30 71762 O 6798.79 -1.02225 2.04358 0
M  V30 71763 C 6799 2.52818 2.40591 0
M  V30 71764 C 6800.34 2.95632 3.04774 0
M  V30 71765 O 6801.37 2.52821 2.50919 0
M  V30 71766 O 6800.23 3.69777 4.02402 0
M  V30 71767 H 6797.32 0.532878 0.632432 0
M  V30 71768 H 6799.87 1.55184 0.686732 0
M  V30 71769 H 6798.64 3.43093 1.88156 0
M  V30 71770 H 6798.26 2.34621 3.20997 0
M  V30 71771 N 6799.26 -0.897103 1.29576 0
M  V30 71772 C 6800.51 -1.65027 1.17872 0
M  V30 71773 C 6800.84 -1.92333 -0.268627 0
M  V30 71774 O 6800.11 -1.53562 -1.1937 0
M  V30 71775 C 6800.4 -2.99776 1.99516 0
M  V30 71776 C 6800.25 -2.79519 3.52405 0
M  V30 71777 C 6801.57 -4.00543 1.82356 0
M  V30 71778 H 6798.69 -0.598872 0.429559 0
M  V30 71779 H 6801.33 -1.03897 1.59077 0
M  V30 71780 H 6799.48 -3.51953 1.64503 0
M  V30 71781 H 6801.15 -2.34223 3.97413 0
M  V30 71782 H 6799.4 -2.14253 3.77198 0
M  V30 71783 H 6800.07 -3.75281 4.04807 0
M  V30 71784 H 6802.54 -3.57484 2.12943 0
M  V30 71785 H 6801.42 -4.92758 2.41827 0
M  V30 71786 H 6801.68 -4.35175 0.779438 0
M  V30 71787 N 6800.74 -1.12094 -1.10782 0
M  V30 71788 C 6801.96 -0.897047 -1.86997 0
M  V30 71789 C 6802.39 0.548166 -1.79935 0
M  V30 71790 O 6801.75 1.38773 -1.16669 0
M  V30 71791 C 6801.79 -1.37191 -3.33483 0
M  V30 71792 O 6800.9 -0.548046 -4.08742 0
M  V30 71793 H 6800.24 -0.322576 -0.58038 0
M  V30 71794 H 6802.77 -1.49213 -1.39988 0
M  V30 71795 H 6802.78 -1.36942 -3.84332 0
M  V30 71796 H 6801.45 -2.42426 -3.37939 0
M  V30 71797 H 6800.03 -0.617228 -3.67756 0
M  V30 71798 N 6802.22 1.2851 -0.9123 0
M  V30 71799 C 6803.46 1.94651 -0.543626 0
M  V30 71800 C 6803.79 1.72178 0.91541 0
M  V30 71801 O 6803.06 1.06066 1.64702 0
M  V30 71802 H 6801.64 0.720266 -0.198055 0
M  V30 71803 H 6804.3 1.56521 -1.16134 0
M  V30 71804 H 6803.39 3.03277 -0.736844 0
M  V30 71805 N 6803.69 0.676123 1.4236 0
M  V30 71806 C 6804.66 0.00779027 2.29199 0
M  V30 71807 C 6805.66 -0.727669 1.43393 0
M  V30 71808 O 6806.85 -0.565473 1.64767 0
M  V30 71809 C 6803.98 -0.999613 3.25915 0
M  V30 71810 H 6805.17 0.772141 2.8979 0
M  V30 71811 H 6802.73 0.438547 1.50022 0
M  V30 71812 H 6803.46 -1.79241 2.70265 0
M  V30 71813 H 6803.25 -0.475624 3.89205 0
M  V30 71814 H 6804.74 -1.46563 3.91036 0
M  V30 71815 N 6805.17 -1.51913 0.419541 0
M  V30 71816 C 6806.42 -2.01524 -0.152531 0
M  V30 71817 C 6806.74 -1.30656 -1.44755 0
M  V30 71818 O 6806.01 -0.435636 -1.90995 0
M  V30 71819 H 6804.59 -0.744638 -0.0593573 0
M  V30 71820 H 6807.25 -1.86736 0.558171 0
M  V30 71821 H 6806.35 -3.10229 -0.341206 0
M  V30 71822 N 6806.65 -0.150297 -1.56882 0
M  V30 71823 C 6807.88 0.510078 -2.0103 0
M  V30 71824 C 6808.3 1.5741 -1.02974 0
M  V30 71825 O 6807.66 1.81299 -0.00599718 0
M  V30 71826 C 6807.71 1.08454 -3.43904 0
M  V30 71827 O 6806.81 2.1993 -3.48862 0
M  V30 71828 H 6806.15 0.124417 -0.65224 0
M  V30 71829 H 6808.68 -0.248001 -2.03091 0
M  V30 71830 H 6808.69 1.41238 -3.82774 0
M  V30 71831 H 6807.37 0.305363 -4.14777 0
M  V30 71832 H 6805.94 1.88349 -3.21837 0
M  V30 71833 N 6808.13 1.57116 0.123482 0
M  V30 71834 C 6809.38 1.84251 0.830412 0
M  V30 71835 C 6809.7 0.734805 1.80626 0
M  V30 71836 O 6808.97 -0.241586 1.94405 0
M  V30 71837 H 6807.55 0.679795 0.309658 0
M  V30 71838 H 6810.21 1.94579 0.111874 0
M  V30 71839 H 6809.31 2.80013 1.37838 0
M  V30 71840 N 6809.61 -0.393535 1.52608 0
M  V30 71841 C 6810.85 -1.13676 1.67099 0
M  V30 71842 C 6811.18 -1.90617 0.411112 0
M  V30 71843 O 6810.45 -1.8729 -0.574392 0
M  V30 71844 H 6809.03 -0.422636 0.615945 0
M  V30 71845 H 6811.69 -0.446939 1.89706 0
M  V30 71846 H 6810.78 -1.84219 2.51932 0
M  V30 71847 N 6811.08 -1.43494 -0.651711 0
M  V30 71848 C 6812.31 -1.48849 -1.44426 0
M  V30 71849 C 6812.73 -0.108054 -1.87789 0
M  V30 71850 O 6812.09 0.898519 -1.57468 0
M  V30 71851 C 6812.14 -2.44073 -2.65445 0
M  V30 71852 O 6811.24 -1.92803 -3.64556 0
M  V30 71853 H 6810.59 -0.503414 -0.432978 0
M  V30 71854 H 6813.12 -1.88424 -0.797352 0
M  V30 71855 H 6813.13 -2.61427 -3.13241 0
M  V30 71856 H 6811.8 -3.44352 -2.33226 0
M  V30 71857 H 6810.38 -1.85117 -3.23707 0
M  V30 71858 N 6812.56 0.890219 -1.30049 0
M  V30 71859 C 6813.79 1.68008 -1.21607 0
M  V30 71860 C 6814.21 1.86826 0.218579 0
M  V30 71861 O 6813.57 1.39542 1.15749 0
M  V30 71862 C 6813.62 3.0368 -1.9445 0
M  V30 71863 O 6812.72 3.92422 -1.26801 0
M  V30 71864 H 6812.06 0.51357 -0.420883 0
M  V30 71865 H 6814.59 1.11142 -1.71781 0
M  V30 71866 H 6814.6 3.53759 -2.0327 0
M  V30 71867 H 6813.28 2.89303 -2.98792 0
M  V30 71868 H 6811.86 3.5086 -1.26301 0
M  V30 71869 N 6814.04 1.1268 1.10186 0
M  V30 71870 C 6815.29 0.881957 1.8184 0
M  V30 71871 C 6815.61 -0.593769 1.8574 0
M  V30 71872 O 6814.88 -1.43153 1.33732 0
M  V30 71873 H 6813.46 0.323297 0.673415 0
M  V30 71874 H 6816.12 1.42179 1.33308 0
M  V30 71875 H 6815.22 1.26575 2.85281 0
M  V30 71876 N 6815.52 -1.28025 0.919102 0
M  V30 71877 C 6816.77 -1.95386 0.565324 0
M  V30 71878 C 6817.12 -1.70981 -0.882235 0
M  V30 71879 O 6816.41 -1.02333 -1.61983 0
M  V30 71880 C 6816.61 -3.47936 0.817039 0
M  V30 71881 C 6816.44 -3.87173 2.28751 0
M  V30 71882 C 6815.21 -4.11063 2.93863 0
M  V30 71883 C 6817.4 -3.97421 3.26436 0
M  V30 71884 N 6815.39 -4.37014 4.31152 0
M  V30 71885 C 6816.76 -4.27648 4.48907 0
M  V30 71886 C 6818.81 -3.79965 3.21762 0
M  V30 71887 C 6817.52 -4.42236 5.67292 0
M  V30 71888 C 6819.54 -3.95773 4.39451 0
M  V30 71889 C 6818.9 -4.26378 5.60697 0
M  V30 71890 H 6815 -0.73862 0.256836 0
M  V30 71891 H 6817.59 -1.54567 1.18394 0
M  V30 71892 H 6815.76 -3.87732 0.22765 0
M  V30 71893 H 6817.49 -4.02444 0.426754 0
M  V30 71894 H 6814.24 -4.05565 2.44569 0
M  V30 71895 H 6814.67 -4.54063 5.02151 0
M  V30 71896 H 6819.31 -3.55351 2.29097 0
M  V30 71897 H 6817.03 -4.65679 6.6043 0
M  V30 71898 H 6820.61 -3.83696 4.37343 0
M  V30 71899 H 6819.49 -4.38349 6.50246 0
M  V30 71900 N 6817 -0.683663 -1.41999 0
M  V30 71901 C 6818.25 -0.209207 -2.01014 0
M  V30 71902 C 6818.57 1.19141 -1.54371 0
M  V30 71903 O 6817.84 1.80168 -0.769178 0
M  V30 71904 H 6816.42 -0.0743542 -0.74329 0
M  V30 71905 H 6819.08 -0.882158 -1.73793 0
M  V30 71906 H 6818.17 -0.217364 -3.11342 0
M  V30 71907 N 6818.48 1.51689 -0.427592 0
M  V30 71908 C 6819.41 2.30396 0.379478 0
M  V30 71909 C 6820.39 1.35389 1.02975 0
M  V30 71910 O 6821.57 1.64305 1.03525 0
M  V30 71911 C 6818.7 3.13888 1.48633 0
M  V30 71912 C 6817.66 4.17093 0.960074 0
M  V30 71913 C 6816.98 4.89045 2.16193 0
M  V30 71914 C 6818.28 5.223 0.00126137 0
M  V30 71915 H 6819.98 2.98113 -0.277321 0
M  V30 71916 H 6817.52 1.43368 -0.134815 0
M  V30 71917 H 6819.47 3.67725 2.05807 0
M  V30 71918 H 6818.2 2.43974 2.17127 0
M  V30 71919 H 6816.86 3.64293 0.410614 0
M  V30 71920 H 6816.51 4.15643 2.83285 0
M  V30 71921 H 6816.21 5.58826 1.81624 0
M  V30 71922 H 6817.73 5.45701 2.73939 0
M  V30 71923 H 6819.14 5.71267 0.482386 0
M  V30 71924 H 6817.54 5.99552 -0.256516 0
M  V30 71925 H 6818.61 4.75733 -0.938425 0
M  V30 71926 N 6819.95 0.158615 1.568 0
M  V30 71927 C 6821.2 -0.488609 1.96105 0
M  V30 71928 C 6821.52 -1.64631 1.04507 0
M  V30 71929 O 6820.79 -1.95597 0.108886 0
M  V30 71930 H 6819.37 -0.183497 0.724112 0
M  V30 71931 H 6822.03 0.23683 1.93456 0
M  V30 71932 H 6821.13 -0.857061 3.00101 0
M  V30 71933 N 6821.43 -1.57179 -0.115148 0
M  V30 71934 C 6822.39 -1.99682 -1.12516 0
M  V30 71935 C 6823.39 -0.887491 -1.3409 0
M  V30 71936 O 6824.58 -1.15344 -1.30542 0
M  V30 71937 C 6821.72 -2.34029 -2.47878 0
M  V30 71938 H 6822.91 -2.90117 -0.759759 0
M  V30 71939 H 6820.46 -1.52108 -0.359568 0
M  V30 71940 H 6821.2 -1.46486 -2.89331 0
M  V30 71941 H 6820.98 -3.14939 -2.33571 0
M  V30 71942 H 6822.47 -2.67639 -3.20561 0
M  V30 71943 N 6822.91 0.385437 -1.52814 0
M  V30 71944 C 6824.16 1.12788 -1.677 0
M  V30 71945 C 6824.48 1.90396 -0.421215 0
M  V30 71946 O 6823.75 1.87592 0.564452 0
M  V30 71947 H 6822.33 0.419363 -0.618178 0
M  V30 71948 H 6824.99 0.436872 -1.89941 0
M  V30 71949 H 6824.09 1.8288 -2.52906 0
M  V30 71950 N 6824.39 1.43837 0.644092 0
M  V30 71951 C 6825.3 1.52168 1.78555 0
M  V30 71952 C 6826.31 0.408158 1.69145 0
M  V30 71953 O 6827.49 0.663625 1.90153 0
M  V30 71954 C 6824.55 1.4509 3.14881 0
M  V30 71955 C 6823.62 2.67188 3.3602 0
M  V30 71956 C 6822.85 2.60438 4.65841 0
M  V30 71957 O 6823.07 1.65718 5.45796 0
M  V30 71958 O 6822.01 3.51086 4.88899 0
M  V30 71959 H 6825.83 2.48576 1.74481 0
M  V30 71960 H 6823.42 1.2594 0.803713 0
M  V30 71961 H 6825.3 1.43618 3.96171 0
M  V30 71962 H 6823.97 0.518206 3.19525 0
M  V30 71963 H 6822.88 2.7423 2.54458 0
M  V30 71964 H 6824.21 3.5946 3.36228 0
M  V30 71965 N 6825.87 -0.883309 1.3052 0
M  V30 71966 C 6826.78 -2.02196 1.1897 0
M  V30 71967 C 6827.79 -1.73657 0.109263 0
M  V30 71968 O 6828.97 -1.98768 0.324518 0
M  V30 71969 C 6826.03 -3.35239 0.884047 0
M  V30 71970 C 6825.09 -3.77191 2.05002 0
M  V30 71971 C 6824.33 -5.03885 1.75886 0
M  V30 71972 O 6824.55 -5.66241 0.687575 0
M  V30 71973 O 6823.48 -5.42283 2.61175 0
M  V30 71974 H 6827.31 -2.14869 2.14628 0
M  V30 71975 H 6824.89 -1.00955 1.1013 0
M  V30 71976 H 6826.78 -4.15049 0.728863 0
M  V30 71977 H 6825.45 -3.23672 -0.0426092 0
M  V30 71978 H 6824.36 -2.98078 2.26054 0
M  V30 71979 H 6825.69 -3.93365 2.95846 0
M  V30 71980 N 6827.34 -1.13263 -1.09587 0
M  V30 71981 C 6828.31 -0.811471 -2.14354 0
M  V30 71982 C 6829.31 0.178293 -1.59808 0
M  V30 71983 O 6830.5 -0.0485829 -1.74132 0
M  V30 71984 C 6827.63 -0.207455 -3.40268 0
M  V30 71985 H 6828.82 -1.73982 -2.44275 0
M  V30 71986 H 6826.37 -0.937039 -1.25097 0
M  V30 71987 H 6827.11 0.730194 -3.15973 0
M  V30 71988 H 6826.89 -0.920193 -3.81149 0
M  V30 71989 H 6828.38 0.000447733 -4.176 0
M  V30 71990 N 6828.82 1.27535 -0.925878 0
M  V30 71991 C 6829.73 2.30642 -0.429115 0
M  V30 71992 C 6830.75 1.66979 0.489299 0
M  V30 71993 O 6831.92 1.97924 0.372548 0
M  V30 71994 C 6828.99 3.45295 0.311785 0
M  V30 71995 C 6828.05 4.24483 -0.641322 0
M  V30 71996 C 6827.28 5.33661 0.064314 0
M  V30 71997 O 6827.51 5.5576 1.284 0
M  V30 71998 O 6826.44 5.98836 -0.606581 0
M  V30 71999 H 6830.27 2.75166 -1.28519 0
M  V30 72000 H 6827.85 1.32452 -0.691156 0
M  V30 72001 H 6829.73 4.15033 0.729753 0
M  V30 72002 H 6828.41 3.0283 1.14349 0
M  V30 72003 H 6827.32 3.57286 -1.10893 0
M  V30 72004 H 6828.65 4.70658 -1.4402 0
M  V30 72005 N 6830.3 0.691184 1.41635 0
M  V30 72006 C 6831.55 0.219864 2.009 0
M  V30 72007 C 6831.87 -1.18321 1.55001 0
M  V30 72008 O 6831.14 -1.79757 0.778722 0
M  V30 72009 H 6829.72 0.078295 0.742886 0
M  V30 72010 H 6832.38 0.891362 1.73323 0
M  V30 72011 H 6831.48 0.233873 3.11223 0
M  V30 72012 N 6831.78 -1.5146 0.43563 0
M  V30 72013 C 6833.06 -1.94663 -0.191261 0
M  V30 72014 C 6833.44 -1.37419 -1.60247 0
M  V30 72015 O 6832.78 -0.560575 -2.21517 0
M  V30 72016 C 6832.99 -3.48582 -0.170726 0
M  V30 72017 C 6834.34 -4.22922 -0.377134 0
M  V30 72018 O 6835.37 -3.55329 -0.248917 0
M  V30 72019 O 6834.22 -5.42831 -0.632184 0
M  V30 72020 H 6831.32 -0.816576 -0.130889 0
M  V30 72021 H 6833.86 -1.62366 0.493486 0
M  V30 72022 H 6832.64 -3.82698 0.81594 0
M  V30 72023 H 6832.26 -3.87316 -0.898455 0
M  V30 72024 N 6833.26 -0.166928 -1.56713 0
M  V30 72025 C 6834.17 0.777674 -2.21335 0
M  V30 72026 C 6835.18 1.25651 -1.20365 0
M  V30 72027 O 6836.36 1.30956 -1.53012 0
M  V30 72028 C 6833.42 1.99148 -2.83798 0
M  V30 72029 C 6832.48 1.55994 -3.99955 0
M  V30 72030 C 6831.72 2.71589 -4.59429 0
M  V30 72031 O 6831.94 3.8834 -4.1779 0
M  V30 72032 O 6830.87 2.45916 -5.49372 0
M  V30 72033 H 6834.7 0.257477 -3.02607 0
M  V30 72034 H 6832.29 0.0610606 -1.49275 0
M  V30 72035 H 6834.17 2.70144 -3.2342 0
M  V30 72036 H 6832.84 2.50082 -2.05526 0
M  V30 72037 H 6831.75 0.819616 -3.65011 0
M  V30 72038 H 6833.08 1.09756 -4.79807 0
M  V30 72039 N 6834.73 1.57238 0.106811 0
M  V30 72040 C 6836.01 1.76481 0.843433 0
M  V30 72041 C 6836.39 0.745568 1.97496 0
M  V30 72042 O 6835.74 -0.228186 2.27358 0
M  V30 72043 C 6835.95 3.2188 1.34886 0
M  V30 72044 C 6837.3 3.8473 1.79634 0
M  V30 72045 O 6838.32 3.25557 1.44537 0
M  V30 72046 O 6837.18 4.88761 2.44489 0
M  V30 72047 H 6834.27 0.723038 0.401429 0
M  V30 72048 H 6836.82 1.69463 0.0896033 0
M  V30 72049 H 6835.59 3.87589 0.537606 0
M  V30 72050 H 6835.22 3.33484 2.16504 0
M  V30 72051 N 6836.21 -0.377327 1.53016 0
M  V30 72052 C 6837.12 -1.48565 1.81564 0
M  V30 72053 C 6838.14 -1.59158 0.703186 0
M  V30 72054 O 6839.31 -1.75274 0.992013 0
M  V30 72055 C 6836.38 -2.83968 1.98905 0
M  V30 72056 C 6835.44 -2.82999 3.22816 0
M  V30 72057 C 6834.67 -4.11944 3.39319 0
M  V30 72058 O 6834.9 -5.07506 2.60372 0
M  V30 72059 O 6833.83 -4.18472 4.32626 0
M  V30 72060 H 6837.66 -1.27368 2.75701 0
M  V30 72061 H 6835.24 -0.5663 1.38251 0
M  V30 72062 H 6837.12 -3.64219 2.1195 0
M  V30 72063 H 6835.8 -3.05167 1.07958 0
M  V30 72064 H 6834.71 -2.01489 3.15203 0
M  V30 72065 H 6836.04 -2.66753 4.13647 0
M  V30 72066 N 6837.69 -1.44177 -0.636455 0
M  V30 72067 C 6838.64 -1.50925 -1.76987 0
M  V30 72068 C 6839.63 -0.381382 -1.65051 0
M  V30 72069 O 6840.84 -0.556101 -1.71194 0
M  V30 72070 H 6837.21 -0.473486 -0.584222 0
M  V30 72071 H 6839.18 -2.46329 -1.68419 0
M  V30 72072 C 6837.93 -1.46551 -3.15306 0
M  V30 72073 H 6837.26 -2.3265 -3.25137 0
M  V30 72074 H 6838.7 -1.55332 -3.94522 0
M  V30 72075 C 6837.16 -0.185482 -3.36389 0
M  V30 72076 O 6837.69 0.746479 -3.94703 0
M  V30 72077 N 6835.89 -0.0903138 -2.9046 0
M  V30 72078 H 6835.44 -0.849545 -2.43188 0
M  V30 72079 H 6835.4 0.765393 -3.04941 0
M  V30 72080 N 6839.17 0.876375 -1.30986 0
M  V30 72081 C 6840.1 1.98585 -1.12424 0
M  V30 72082 C 6841.08 1.62573 -0.0294936 0
M  V30 72083 O 6842.26 1.87593 -0.184697 0
M  V30 72084 C 6839.39 3.31036 -0.716451 0
M  V30 72085 C 6838.44 3.86033 -1.81331 0
M  V30 72086 S 6839.27 4.12272 -3.41749 0
M  V30 72087 C 6840.43 5.47729 -3.02892 0
M  V30 72088 H 6840.66 2.14026 -2.0635 0
M  V30 72089 H 6838.19 1.02579 -1.15399 0
M  V30 72090 H 6840.15 4.0759 -0.487912 0
M  V30 72091 H 6838.81 3.1344 0.203583 0
M  V30 72092 H 6838 4.81766 -1.48046 0
M  V30 72093 H 6837.61 3.16248 -1.99658 0
M  V30 72094 H 6839.9 6.29135 -2.51387 0
M  V30 72095 H 6840.84 5.85959 -3.97564 0
M  V30 72096 H 6841.25 5.10699 -2.40514 0
M  V30 72097 N 6840.65 1.13843 1.08985 0
M  V30 72098 C 6841.89 0.904315 1.81521 0
M  V30 72099 C 6842.23 -0.567968 1.85709 0
M  V30 72100 O 6841.5 -1.42049 1.32862 0
M  V30 72101 C 6841.78 1.49852 3.27439 0
M  V30 72102 C 6841.64 3.04023 3.31496 0
M  V30 72103 C 6842.96 1.17047 4.2425 0
M  V30 72104 H 6840.07 0.329958 0.659012 0
M  V30 72105 H 6842.72 1.40744 1.27637 0
M  V30 72106 H 6840.87 1.07064 3.73456 0
M  V30 72107 H 6842.54 3.55599 2.93848 0
M  V30 72108 H 6840.78 3.38779 2.70945 0
M  V30 72109 H 6841.45 3.40702 4.34311 0
M  V30 72110 H 6843.93 1.54029 3.86541 0
M  V30 72111 H 6842.8 1.61265 5.24676 0
M  V30 72112 H 6843.07 0.0848605 4.42019 0
M  V30 72113 N 6842.12 -1.27042 0.932629 0
M  V30 72114 C 6843.35 -1.97958 0.591277 0
M  V30 72115 C 6843.76 -1.69722 -0.836129 0
M  V30 72116 O 6843.11 -0.957119 -1.56796 0
M  V30 72117 C 6843.17 -3.51733 0.743268 0
M  V30 72118 C 6842.83 -4.03601 2.14371 0
M  V30 72119 C 6843.83 -4.15998 3.11837 0
M  V30 72120 C 6841.51 -4.37826 2.46198 0
M  V30 72121 C 6843.51 -4.619 4.39235 0
M  V30 72122 C 6841.19 -4.83418 3.73831 0
M  V30 72123 C 6842.19 -4.95415 4.70163 0
M  V30 72124 O 6841.88 -5.40005 5.95525 0
M  V30 72125 H 6841.61 -0.638365 0.222409 0
M  V30 72126 H 6844.17 -1.62735 1.25325 0
M  V30 72127 H 6842.4 -3.86692 0.0241778 0
M  V30 72128 H 6844.09 -4.03862 0.406243 0
M  V30 72129 H 6844.85 -3.89811 2.8857 0
M  V30 72130 H 6840.73 -4.27728 1.71958 0
M  V30 72131 H 6844.27 -4.71178 5.14429 0
M  V30 72132 H 6840.17 -5.09047 3.96915 0
M  V30 72133 H 6840.94 -5.58247 5.98584 0
M  V30 72134 N 6843.6 -0.698686 -1.41266 0
M  V30 72135 C 6844.83 -0.239752 -2.05204 0
M  V30 72136 C 6845.24 1.11725 -1.5269 0
M  V30 72137 O 6844.58 1.70994 -0.671313 0
M  V30 72138 C 6844.65 -0.123316 -3.59288 0
M  V30 72139 C 6844.31 -1.41286 -4.34612 0
M  V30 72140 C 6845.31 -2.35135 -4.63689 0
M  V30 72141 C 6842.99 -1.66709 -4.73828 0
M  V30 72142 C 6844.99 -3.52667 -5.30947 0
M  V30 72143 C 6842.67 -2.84526 -5.40822 0
M  V30 72144 C 6843.67 -3.77328 -5.69309 0
M  V30 72145 O 6843.36 -4.93081 -6.34923 0
M  V30 72146 H 6843.09 -0.108572 -0.667224 0
M  V30 72147 H 6845.65 -0.952698 -1.81969 0
M  V30 72148 H 6843.88 0.645427 -3.81276 0
M  V30 72149 H 6845.56 0.298842 -4.04798 0
M  V30 72150 H 6846.33 -2.16752 -4.33871 0
M  V30 72151 H 6842.21 -0.953373 -4.51034 0
M  V30 72152 H 6845.75 -4.2512 -5.53099 0
M  V30 72153 H 6841.65 -3.02825 -5.70059 0
M  V30 72154 H 6842.42 -4.92936 -6.53419 0
M  V30 72155 N 6845.08 1.51226 -0.443656 0
M  V30 72156 C 6846.33 2.0214 0.120689 0
M  V30 72157 C 6846.66 1.32744 1.42159 0
M  V30 72158 O 6845.91 0.433111 1.90847 0
M  V30 72159 C 6846.21 3.5537 0.380392 0
M  V30 72160 C 6845.88 4.43092 -0.835464 0
M  V30 72161 C 6844.54 4.66787 -1.16889 0
M  V30 72162 C 6846.89 4.94517 -1.64627 0
M  V30 72163 C 6844.22 5.39153 -2.31368 0
M  V30 72164 C 6846.57 5.68138 -2.78211 0
M  V30 72165 C 6845.23 5.90095 -3.12 0
M  V30 72166 H 6844.5 0.739683 0.0441633 0
M  V30 72167 H 6847.15 1.82115 -0.592142 0
M  V30 72168 H 6845.46 3.7376 1.17518 0
M  V30 72169 H 6847.15 3.92304 0.83057 0
M  V30 72170 H 6843.74 4.24851 -0.565661 0
M  V30 72171 H 6847.93 4.76089 -1.40188 0
M  V30 72172 H 6843.18 5.54366 -2.57853 0
M  V30 72173 H 6847.36 6.06974 -3.41403 0
M  V30 72174 H 6844.98 6.45948 -4.00818 0
M  V30 72175 N 6846.56 0.175237 1.56623 0
M  V30 72176 C 6847.49 -0.749078 2.21158 0
M  V30 72177 C 6848.47 -1.2362 1.16842 0
M  V30 72178 O 6849.66 -1.28865 1.45284 0
M  V30 72179 C 6846.79 -1.97696 2.85541 0
M  V30 72180 C 6845.74 -1.62554 3.9593 0
M  V30 72181 C 6845.07 -2.9284 4.4738 0
M  V30 72182 C 6846.37 -0.850566 5.15328 0
M  V30 72183 H 6848.06 -0.211137 2.98655 0
M  V30 72184 H 6845.61 -0.100112 1.43652 0
M  V30 72185 H 6847.56 -2.62864 3.29364 0
M  V30 72186 H 6846.28 -2.53911 2.05419 0
M  V30 72187 H 6844.94 -0.997532 3.52767 0
M  V30 72188 H 6844.59 -3.47103 3.64045 0
M  V30 72189 H 6844.29 -2.70079 5.21854 0
M  V30 72190 H 6845.81 -3.5903 4.93892 0
M  V30 72191 H 6847.23 -1.40491 5.55819 0
M  V30 72192 H 6845.62 -0.72184 5.95743 0
M  V30 72193 H 6846.69 0.152337 4.84661 0
M  V30 72194 N 6848.04 -1.57292 -0.098471 0
M  V30 72195 C 6848.95 -2.05143 -1.13814 0
M  V30 72196 C 6849.96 -0.97568 -1.44071 0
M  V30 72197 O 6851.14 -1.28861 -1.5478 0
M  V30 72198 C 6848.2 -2.46346 -2.43956 0
M  V30 72199 C 6847.27 -3.68099 -2.20911 0
M  V30 72200 C 6846.5 -4.07328 -3.44847 0
M  V30 72201 O 6846.72 -3.46683 -4.52954 0
M  V30 72202 O 6845.66 -5.00303 -3.34635 0
M  V30 72203 H 6849.48 -2.93992 -0.761726 0
M  V30 72204 H 6847.07 -1.46133 -0.310741 0
M  V30 72205 H 6848.95 -2.7349 -3.20595 0
M  V30 72206 H 6847.62 -1.60636 -2.8103 0
M  V30 72207 H 6846.53 -3.46076 -1.42063 0
M  V30 72208 H 6847.86 -4.54578 -1.88731 0
M  V30 72209 N 6849.52 0.369207 -1.53214 0
M  V30 72210 C 6850.43 1.476 -1.8235 0
M  V30 72211 C 6851.44 1.58783 -0.711616 0
M  V30 72212 O 6852.62 1.74746 -1.00129 0
M  V30 72213 C 6849.68 2.82909 -2.00408 0
M  V30 72214 C 6848.74 2.81283 -3.24312 0
M  V30 72215 C 6847.98 4.10139 -3.41499 0
M  V30 72216 O 6848.2 5.06118 -2.6306 0
M  V30 72217 O 6847.13 4.16171 -4.34839 0
M  V30 72218 H 6850.96 1.25904 -2.76373 0
M  V30 72219 H 6848.54 0.558961 -1.3855 0
M  V30 72220 H 6850.43 3.63089 -2.13878 0
M  V30 72221 H 6849.1 3.0459 -1.09575 0
M  V30 72222 H 6848.01 1.99814 -3.16267 0
M  V30 72223 H 6849.34 2.64556 -4.15055 0
M  V30 72224 N 6850.99 1.44512 0.6288 0
M  V30 72225 C 6852.22 1.51127 1.4204 0
M  V30 72226 C 6852.64 0.137916 1.87594 0
M  V30 72227 O 6852 -0.873353 1.58878 0
M  V30 72228 C 6852.05 2.48265 2.61528 0
M  V30 72229 O 6851.15 1.98578 3.61442 0
M  V30 72230 H 6850.49 0.510239 0.424915 0
M  V30 72231 H 6853.02 1.89668 0.767274 0
M  V30 72232 H 6853.03 2.66377 3.09043 0
M  V30 72233 H 6851.71 3.48019 2.27718 0
M  V30 72234 H 6850.29 1.90244 3.20721 0
M  V30 72235 N 6852.47 -0.869416 1.31449 0
M  V30 72236 C 6853.7 -1.65527 1.2413 0
M  V30 72237 C 6854.11 -1.87808 -0.193288 0
M  V30 72238 O 6853.47 -1.43662 -1.1255 0
M  V30 72239 C 6853.52 -3.02293 1.98245 0
M  V30 72240 O 6853.24 -2.81008 3.36104 0
M  V30 72241 C 6854.74 -3.96738 1.97772 0
M  V30 72242 H 6851.96 -0.516032 0.428896 0
M  V30 72243 H 6854.51 -1.08516 1.73334 0
M  V30 72244 H 6852.66 -3.55993 1.52801 0
M  V30 72245 H 6853.08 -3.67882 3.73849 0
M  V30 72246 H 6854.55 -4.90017 2.54139 0
M  V30 72247 H 6855.03 -4.28572 0.960363 0
M  V30 72248 H 6855.63 -3.48975 2.43097 0
M  V30 72249 N 6853.95 -1.14419 -1.08379 0
M  V30 72250 C 6855.2 -0.910774 -1.80414 0
M  V30 72251 C 6855.52 0.564145 -1.86661 0
M  V30 72252 O 6854.79 1.41007 -1.35992 0
M  V30 72253 H 6853.37 -0.333969 -0.668187 0
M  V30 72254 H 6856.03 -1.44282 -1.31029 0
M  V30 72255 H 6855.13 -1.31097 -2.83231 0
M  V30 72256 N 6855.43 1.26546 -0.939353 0
M  V30 72257 C 6856.66 1.97642 -0.601767 0
M  V30 72258 C 6857.07 1.70163 0.827117 0
M  V30 72259 O 6856.41 0.965421 1.56286 0
M  V30 72260 C 6856.47 3.51333 -0.76191 0
M  V30 72261 C 6856.13 4.02459 -2.16508 0
M  V30 72262 C 6857.13 4.14338 -3.14038 0
M  V30 72263 C 6854.82 4.36514 -2.48517 0
M  V30 72264 C 6856.81 4.59564 -4.41679 0
M  V30 72265 C 6854.5 4.81429 -3.7639 0
M  V30 72266 C 6855.5 4.92914 -4.72784 0
M  V30 72267 O 6855.18 5.36839 -5.9838 0
M  V30 72268 H 6854.92 0.637177 -0.225791 0
M  V30 72269 H 6857.47 1.62068 -1.26186 0
M  V30 72270 H 6855.7 3.86674 -0.0446847 0
M  V30 72271 H 6857.39 4.03641 -0.427655 0
M  V30 72272 H 6858.15 3.88275 -2.90633 0
M  V30 72273 H 6854.03 4.2681 -1.74224 0
M  V30 72274 H 6857.58 4.68443 -5.1692 0
M  V30 72275 H 6853.47 5.06935 -3.99609 0
M  V30 72276 H 6854.24 5.55065 -6.01536 0
M  V30 72277 N 6856.91 0.706168 1.40894 0
M  V30 72278 C 6857.84 -0.00316747 2.282 0
M  V30 72279 C 6858.82 -0.777245 1.4282 0
M  V30 72280 O 6860 -0.765853 1.72241 0
M  V30 72281 C 6857.13 -1.01188 3.23231 0
M  V30 72282 C 6856.17 -0.329731 4.25224 0
M  V30 72283 S 6857.01 0.935576 5.27264 0
M  V30 72284 C 6858.16 -0.0712761 6.25859 0
M  V30 72285 H 6858.4 0.737295 2.88013 0
M  V30 72286 H 6855.93 0.496833 1.46188 0
M  V30 72287 H 6857.89 -1.58868 3.78512 0
M  V30 72288 H 6856.55 -1.72499 2.62494 0
M  V30 72289 H 6855.74 -1.09195 4.92029 0
M  V30 72290 H 6855.34 0.174266 3.73594 0
M  V30 72291 H 6857.63 -0.921167 6.71208 0
M  V30 72292 H 6858.58 0.563137 7.05857 0
M  V30 72293 H 6858.99 -0.430791 5.62854 0
M  V30 72294 N 6858.38 -1.50989 0.45167 0
M  V30 72295 C 6859.29 -2.31848 -0.358308 0
M  V30 72296 C 6860.31 -1.41379 -1.0143 0
M  V30 72297 O 6861.49 -1.74444 -1.00653 0
M  V30 72298 C 6858.55 -3.15523 -1.43688 0
M  V30 72299 C 6857.61 -4.21789 -0.799519 0
M  V30 72300 C 6856.85 -5.01465 -1.82669 0
M  V30 72301 O 6857.07 -4.81957 -3.05079 0
M  V30 72302 O 6856 -5.85169 -1.40928 0
M  V30 72303 H 6859.83 -3.02193 0.302192 0
M  V30 72304 H 6857.41 -1.47861 0.213903 0
M  V30 72305 H 6859.3 -3.675 -2.06207 0
M  V30 72306 H 6857.97 -2.47927 -2.0812 0
M  V30 72307 H 6856.88 -3.73853 -0.135887 0
M  V30 72308 H 6858.21 -4.918 -0.198459 0
M  V30 72309 N 6859.86 -0.183541 -1.56528 0
M  V30 72310 C 6861.27 0.33108 -1.83741 0
M  V30 72311 C 6861.62 1.62205 -1.10381 0
M  V30 72312 O 6860.75 2.13371 -0.360822 0
M  V30 72313 C 6861.34 0.60747 -3.3331 0
M  V30 72314 C 6859.9 1.06649 -3.60975 0
M  V30 72315 C 6859.05 0.108883 -2.77086 0
M  V30 72316 H 6862 -0.407564 -1.53377 0
M  V30 72317 H 6862.02 1.45814 -3.51452 0
M  V30 72318 H 6861.53 -0.33229 -3.86675 0
M  V30 72319 H 6859.64 2.02093 -3.13032 0
M  V30 72320 H 6859.75 0.967199 -4.69236 0
M  V30 72321 H 6858.11 0.608583 -2.47322 0
M  V30 72322 H 6858.9 -0.825116 -3.33237 0
M  V30 72323 N 6861.34 1.57342 0.090128 0
M  V30 72324 C 6862.3 2.01447 1.09325 0
M  V30 72325 C 6863.3 0.908711 1.32662 0
M  V30 72326 O 6864.49 1.17407 1.28691 0
M  V30 72327 C 6861.63 2.37942 2.44123 0
M  V30 72328 H 6862.82 2.91289 0.713508 0
M  V30 72329 H 6860.37 1.52661 0.335323 0
M  V30 72330 H 6861.11 1.5107 2.86964 0
M  V30 72331 H 6860.89 3.18615 2.28531 0
M  V30 72332 H 6862.38 2.72705 3.16262 0
M  V30 72333 N 6862.82 -0.361077 1.53408 0
M  V30 72334 C 6863.75 -1.44847 1.83144 0
M  V30 72335 C 6864.73 -1.55686 0.685256 0
M  V30 72336 O 6865.91 -1.70181 0.93553 0
M  V30 72337 C 6863.04 -2.82128 2.02537 0
M  V30 72338 C 6862 -2.86109 3.18317 0
M  V30 72339 C 6861.32 -4.26108 3.23011 0
M  V30 72340 C 6862.62 -2.53224 4.5681 0
M  V30 72341 H 6864.32 -1.20211 2.74207 0
M  V30 72342 H 6861.86 -0.576852 1.31941 0
M  V30 72343 H 6863.82 -3.58229 2.21923 0
M  V30 72344 H 6862.54 -3.08161 1.08188 0
M  V30 72345 H 6861.2 -2.12459 2.98759 0
M  V30 72346 H 6860.85 -4.49223 2.26291 0
M  V30 72347 H 6860.55 -4.29687 4.00803 0
M  V30 72348 H 6862.07 -5.04076 3.44586 0
M  V30 72349 H 6863.49 -3.19039 4.76326 0
M  V30 72350 H 6861.88 -2.68113 5.36876 0
M  V30 72351 H 6862.95 -1.4846 4.61614 0
M  V30 72352 N 6864.3 -1.44844 -0.621128 0
M  V30 72353 C 6865.71 -1.28951 -0.940412 0
M  V30 72354 C 6865.91 -0.232596 -2.00153 0
M  V30 72355 O 6864.97 0.378105 -2.49653 0
M  V30 72356 C 6866.28 -2.66426 -1.39419 0
M  V30 72357 C 6867.83 -2.74216 -1.50913 0
M  V30 72358 C 6868.3 -4.12184 -1.9967 0
M  V30 72359 N 6869.8 -4.14411 -2.06925 0
M  V30 72360 C 6870.53 -5.18023 -2.45844 0
M  V30 72361 N 6870.03 -6.31992 -2.83828 0
M  V30 72362 N 6871.82 -5.05379 -2.46065 0
M  V30 72363 H 6863.97 -2.12248 0.0804668 0
M  V30 72364 H 6866.23 -0.947626 -0.0266414 0
M  V30 72365 H 6865.94 -3.4489 -0.688743 0
M  V30 72366 H 6865.81 -2.93986 -2.36331 0
M  V30 72367 H 6868.2 -1.96064 -2.20551 0
M  V30 72368 H 6868.28 -2.50386 -0.523495 0
M  V30 72369 H 6867.93 -4.90816 -1.30623 0
M  V30 72370 H 6867.86 -4.33397 -2.99123 0
M  V30 72371 H 6870.35 -3.32161 -1.80215 0
M  V30 72372 H 6870.66 -7.06857 -3.12367 0
M  V30 72373 H 6869 -6.35414 -2.81556 0
M  V30 72374 H 6872.2 -4.15395 -2.15788 0
M  V30 72375 H 6872.37 -5.8625 -2.76071 0
M  V30 72376 N 6865.77 0.862433 -1.31908 0
M  V30 72377 C 6867.01 1.62998 -1.23333 0
M  V30 72378 C 6867.38 1.90917 0.203624 0
M  V30 72379 O 6868.58 2.65608 0.412992 0
M  V30 72380 C 6866.85 2.91967 -2.06131 0
M  V30 72381 S 6868.41 3.828 -2.14498 0
M  V30 72382 H 6865.23 0.55917 -0.439146 0
M  V30 72383 H 6867.83 1.02194 -1.66663 0
M  V30 72384 H 6866.53 2.69391 -3.09608 0
M  V30 72385 H 6866.06 3.57792 -1.63549 0
M  V30 72386 H 6868.08 4.79171 -1.2888 0
M  V30 72387 N 6867.25 1.14992 1.07771 0
M  V30 72388 C 6868.18 0.865671 2.1686 0
M  V30 72389 C 6869.16 -0.181994 1.69124 0
M  V30 72390 O 6870.35 -0.0372791 1.94164 0
M  V30 72391 C 6867.48 0.349495 3.45537 0
M  V30 72392 C 6866.43 1.33335 4.06701 0
M  V30 72393 C 6865.76 0.676198 5.30407 0
M  V30 72394 C 6867.06 2.69788 4.47227 0
M  V30 72395 H 6868.75 1.77791 2.40896 0
M  V30 72396 H 6866.3 0.856264 1.15776 0
M  V30 72397 H 6868.25 0.138205 4.21173 0
M  V30 72398 H 6866.98 -0.598193 3.21075 0
M  V30 72399 H 6865.63 1.53092 3.33104 0
M  V30 72400 H 6865.28 -0.277502 5.02234 0
M  V30 72401 H 6864.98 1.33274 5.72286 0
M  V30 72402 H 6866.51 0.474583 6.08753 0
M  V30 72403 H 6867.92 2.539 5.14011 0
M  V30 72404 H 6866.32 3.31776 5.00045 0
M  V30 72405 H 6867.39 3.26175 3.58801 0
M  V30 72406 N 6868.73 -1.26046 0.946051 0
M  V30 72407 C 6869.96 -1.98145 0.612629 0
M  V30 72408 C 6870.38 -1.69931 -0.806534 0
M  V30 72409 O 6869.74 -0.950189 -1.54406 0
M  V30 72410 C 6869.79 -3.50018 0.867166 0
M  V30 72411 O 6868.89 -4.12359 -0.0583159 0
M  V30 72412 H 6868.23 -0.621468 0.233822 0
M  V30 72413 H 6870.76 -1.60388 1.27031 0
M  V30 72414 H 6870.77 -4.00279 0.790003 0
M  V30 72415 H 6869.45 -3.69884 1.90155 0
M  V30 72416 H 6868.02 -3.72834 0.0703207 0
M  V30 72417 N 6870.21 -0.71363 -1.40517 0
M  V30 72418 C 6871.14 -0.0745094 -2.33381 0
M  V30 72419 C 6872.12 0.747655 -1.52788 0
M  V30 72420 O 6873.3 0.696976 -1.81262 0
M  V30 72421 C 6870.43 0.84942 -3.36752 0
M  V30 72422 C 6869.39 0.133021 -4.27793 0
M  V30 72423 C 6868.71 1.17253 -5.21685 0
M  V30 72424 C 6870.01 -1.01161 -5.1241 0
M  V30 72425 H 6871.71 -0.850158 -2.87076 0
M  V30 72426 H 6869.25 -0.410274 -1.38032 0
M  V30 72427 H 6871.21 1.30591 -4.00655 0
M  V30 72428 H 6869.93 1.65694 -2.81448 0
M  V30 72429 H 6868.59 -0.303619 -3.65341 0
M  V30 72430 H 6868.24 1.97306 -4.62687 0
M  V30 72431 H 6867.94 0.698089 -5.83438 0
M  V30 72432 H 6869.46 1.62916 -5.88465 0
M  V30 72433 H 6870.88 -0.634574 -5.69777 0
M  V30 72434 H 6869.27 -1.4143 -5.83196 0
M  V30 72435 H 6870.34 -1.84315 -4.48504 0
M  V30 72436 N 6871.69 1.50747 -0.459671 0
M  V30 72437 C 6872.62 2.31149 0.330523 0
M  V30 72438 C 6873.6 1.37543 1.0008 0
M  V30 72439 O 6874.78 1.66464 1.00016 0
M  V30 72440 C 6871.91 3.1697 1.41941 0
M  V30 72441 C 6870.87 4.19036 0.871387 0
M  V30 72442 C 6870.19 4.9352 2.05771 0
M  V30 72443 C 6871.49 5.22185 -0.109526 0
M  V30 72444 H 6873.19 2.97458 -0.340493 0
M  V30 72445 H 6870.73 1.43049 -0.165195 0
M  V30 72446 H 6872.69 3.72008 1.9796 0
M  V30 72447 H 6871.41 2.48525 2.11904 0
M  V30 72448 H 6870.07 3.65082 0.33325 0
M  V30 72449 H 6869.72 4.21558 2.74405 0
M  V30 72450 H 6869.42 5.62553 1.6973 0
M  V30 72451 H 6870.94 5.51389 2.62302 0
M  V30 72452 H 6872.35 5.72162 0.361103 0
M  V30 72453 H 6870.75 5.98873 -0.383632 0
M  V30 72454 H 6871.82 4.73635 -1.03912 0
M  V30 72455 N 6873.17 0.191839 1.56428 0
M  V30 72456 C 6874.12 -0.74307 2.15552 0
M  V30 72457 C 6875.1 -1.17858 1.09537 0
M  V30 72458 O 6876.29 -1.13752 1.35608 0
M  V30 72459 C 6873.42 -1.96376 2.81587 0
M  V30 72460 C 6872.51 -1.5493 3.94788 0
M  V30 72461 N 6872.9 -0.845613 4.98681 0
M  V30 72462 C 6871.2 -1.83884 4.06328 0
M  V30 72463 C 6871.9 -0.638419 5.78186 0
M  V30 72464 N 6870.87 -1.18615 5.30501 0
M  V30 72465 H 6874.67 -0.196684 2.93241 0
M  V30 72466 H 6872.19 -0.00807466 1.62398 0
M  V30 72467 H 6874.19 -2.64398 3.22335 0
M  V30 72468 H 6872.85 -2.5149 2.05385 0
M  V30 72469 H 6873.86 -0.501432 5.15467 0
M  V30 72470 H 6870.53 -2.4053 3.4125 0
M  V30 72471 H 6871.92 -0.0804387 6.71852 0
M  V30 72472 N 6874.64 -1.57388 -0.0817825 0
M  V30 72473 C 6875.87 -1.90975 -0.796007 0
M  V30 72474 C 6876.29 -0.786847 -1.71622 0
M  V30 72475 O 6875.64 0.240417 -1.80909 0
M  V30 72476 C 6875.69 -3.24257 -1.59812 0
M  V30 72477 O 6875.42 -4.32228 -0.714904 0
M  V30 72478 C 6876.92 -3.71793 -2.41423 0
M  V30 72479 H 6874.14 -0.631481 -0.226877 0
M  V30 72480 H 6876.68 -2.04426 -0.0550361 0
M  V30 72481 H 6874.84 -3.12363 -2.29146 0
M  V30 72482 H 6875.25 -5.08848 -1.27178 0
M  V30 72483 H 6876.72 -4.6771 -2.93175 0
M  V30 72484 H 6877.2 -3.003 -3.20494 0
M  V30 72485 H 6877.81 -3.86598 -1.77263 0
M  V30 72486 N 6876.12 0.352936 -1.53597 0
M  V30 72487 C 6877.05 1.43874 -1.83909 0
M  V30 72488 C 6878.03 1.55321 -0.693502 0
M  V30 72489 O 6879.22 1.69682 -0.944541 0
M  V30 72490 C 6876.35 2.81049 -2.04031 0
M  V30 72491 C 6875.3 2.84417 -3.19829 0
M  V30 72492 C 6874.63 4.24389 -3.25266 0
M  V30 72493 C 6875.93 2.50798 -4.58146 0
M  V30 72494 H 6877.62 1.18756 -2.74841 0
M  V30 72495 H 6875.17 0.569847 -1.32245 0
M  V30 72496 H 6877.12 3.57047 -2.23819 0
M  V30 72497 H 6875.84 3.07582 -1.09821 0
M  V30 72498 H 6874.5 2.10872 -2.99881 0
M  V30 72499 H 6874.15 4.48017 -2.2867 0
M  V30 72500 H 6873.85 4.27555 -4.03076 0
M  V30 72501 H 6875.38 5.02242 -3.47254 0
M  V30 72502 H 6876.79 3.16509 -4.78012 0
M  V30 72503 H 6875.19 2.65262 -5.3829 0
M  V30 72504 H 6876.26 1.4601 -4.62395 0
M  V30 72505 N 6877.6 1.45171 0.613438 0
M  V30 72506 C 6878.85 1.49103 1.37463 0
M  V30 72507 C 6879.18 0.130004 1.93764 0
M  V30 72508 O 6878.45 -0.854766 1.74711 0
M  V30 72509 C 6878.74 2.56556 2.52688 0
M  V30 72510 C 6878.59 4.02081 2.01621 0
M  V30 72511 C 6879.91 2.60346 3.54835 0
M  V30 72512 H 6877.03 0.542856 0.498474 0
M  V30 72513 H 6879.67 1.76949 0.692032 0
M  V30 72514 H 6877.82 2.32942 3.10918 0
M  V30 72515 H 6879.49 4.36885 1.48085 0
M  V30 72516 H 6877.73 4.13016 1.32666 0
M  V30 72517 H 6878.41 4.72943 2.84656 0
M  V30 72518 H 6880.88 2.8149 3.06436 0
M  V30 72519 H 6879.76 3.37403 4.32955 0
M  V30 72520 H 6880.02 1.65212 4.1007 0
M  V30 72521 N 6879.08 -0.855426 1.32364 0
M  V30 72522 C 6880.04 -1.94549 1.21174 0
M  V30 72523 C 6881.04 -1.60232 0.134993 0
M  V30 72524 O 6882.23 -1.69885 0.385338 0
M  V30 72525 C 6879.36 -3.29786 0.863366 0
M  V30 72526 H 6880.56 -2.05899 2.18049 0
M  V30 72527 H 6878.11 -1.04551 1.16184 0
M  V30 72528 H 6878.84 -3.24134 -0.103598 0
M  V30 72529 H 6878.63 -3.5607 1.64185 0
M  V30 72530 H 6880.12 -4.09681 0.809372 0
M  V30 72531 N 6880.56 -1.15562 -1.0716 0
M  V30 72532 C 6881.8 -0.931699 -1.79793 0
M  V30 72533 C 6882.13 0.541051 -1.86823 0
M  V30 72534 O 6881.39 1.41729 -1.3495 0
M  V30 72535 C 6881.68 -1.49349 -3.24699 0
M  V30 72536 C 6881.35 -2.98706 -3.37766 0
M  V30 72537 C 6880.01 -3.39479 -3.41039 0
M  V30 72538 C 6882.36 -3.94683 -3.40403 0
M  V30 72539 C 6879.69 -4.74867 -3.44555 0
M  V30 72540 C 6882.04 -5.29946 -3.45457 0
M  V30 72541 C 6880.71 -5.70212 -3.47008 0
M  V30 72542 H 6879.98 -0.340933 -0.65791 0
M  V30 72543 H 6882.63 -1.44136 -1.26084 0
M  V30 72544 H 6880.93 -0.90506 -3.81203 0
M  V30 72545 H 6882.63 -1.29602 -3.79479 0
M  V30 72546 H 6879.22 -2.6619 -3.35918 0
M  V30 72547 H 6883.4 -3.64255 -3.37094 0
M  V30 72548 H 6878.66 -5.05406 -3.44056 0
M  V30 72549 H 6882.83 -6.0411 -3.46445 0
M  V30 72550 H 6880.46 -6.75102 -3.49486 0
M  V30 72551 N 6882.03 1.25543 -0.952722 0
M  V30 72552 C 6882.96 2.28313 -0.489408 0
M  V30 72553 C 6883.94 1.6367 0.463273 0
M  V30 72554 O 6885.13 1.90784 0.36264 0
M  V30 72555 C 6882.26 3.46501 0.23542 0
M  V30 72556 C 6881.21 4.23311 -0.631817 0
M  V30 72557 C 6880.54 5.34232 0.223642 0
M  V30 72558 C 6881.84 4.86164 -1.90897 0
M  V30 72559 H 6883.53 2.67319 -1.34836 0
M  V30 72560 H 6881.08 1.28505 -0.649796 0
M  V30 72561 H 6883.03 4.17518 0.570662 0
M  V30 72562 H 6881.76 3.0648 1.12861 0
M  V30 72563 H 6880.42 3.54074 -0.950115 0
M  V30 72564 H 6880.06 4.90452 1.11653 0
M  V30 72565 H 6879.76 5.86537 -0.3533 0
M  V30 72566 H 6881.29 6.08083 0.553893 0
M  V30 72567 H 6882.7 5.49335 -1.64026 0
M  V30 72568 H 6881.1 5.48637 -2.43141 0
M  V30 72569 H 6882.17 4.08457 -2.61325 0
M  V30 72570 N 6883.51 0.721072 1.40137 0
M  V30 72571 C 6884.75 0.267442 2.02643 0
M  V30 72572 C 6885.12 -1.11993 1.55954 0
M  V30 72573 O 6886.32 -1.67086 2.10561 0
M  V30 72574 C 6884.59 0.350469 3.55677 0
M  V30 72575 S 6886.15 -0.025369 4.38793 0
M  V30 72576 H 6882.96 0.105701 0.703099 0
M  V30 72577 H 6885.57 0.944506 1.7117 0
M  V30 72578 H 6884.27 1.36174 3.8715 0
M  V30 72579 H 6883.8 -0.344889 3.91885 0
M  V30 72580 H 6885.82 -1.24579 4.80307 0
M  V30 72581 N 6884.99 -1.50502 0.467659 0
M  V30 72582 C 6886.24 -2.01498 -0.0901806 0
M  V30 72583 C 6886.55 -1.3547 -1.41093 0
M  V30 72584 O 6887.76 -1.77604 -2.05351 0
M  V30 72585 C 6886.21 -3.5928 -0.21123 0
M  V30 72586 C 6885.82 -4.34263 1.10088 0
M  V30 72587 C 6887.57 -4.18329 -0.721213 0
M  V30 72588 C 6885.47 -5.8382 0.943812 0
M  V30 72589 H 6884.4 -0.753068 -0.0374773 0
M  V30 72590 H 6887.05 -1.73343 0.602035 0
M  V30 72591 H 6885.44 -3.84008 -0.967149 0
M  V30 72592 H 6886.61 -4.21262 1.86749 0
M  V30 72593 H 6884.92 -3.86808 1.54171 0
M  V30 72594 H 6887.52 -5.27809 -0.855702 0
M  V30 72595 H 6887.86 -3.79484 -1.71166 0
M  V30 72596 H 6888.4 -3.97793 -0.0227746 0
M  V30 72597 H 6885.14 -6.27131 1.90752 0
M  V30 72598 H 6884.66 -5.99405 0.217529 0
M  V30 72599 H 6886.34 -6.44127 0.609055 0
M  V30 72600 N 6886.47 -0.200132 -1.56324 0
M  V30 72601 C 6887.72 0.437549 -1.96897 0
M  V30 72602 C 6888.03 1.62409 -1.09007 0
M  V30 72603 O 6889.24 2.3299 -1.39385 0
M  V30 72604 C 6887.69 0.82984 -3.50202 0
M  V30 72605 C 6887.3 -0.332697 -4.46763 0
M  V30 72606 C 6889.04 1.43432 -3.99534 0
M  V30 72607 C 6886.95 0.080835 -5.91345 0
M  V30 72608 H 6885.88 0.167244 -0.735218 0
M  V30 72609 H 6888.53 -0.292949 -1.81147 0
M  V30 72610 H 6886.91 1.61715 -3.61475 0
M  V30 72611 H 6888.09 -1.11024 -4.47225 0
M  V30 72612 H 6886.4 -0.849004 -4.07653 0
M  V30 72613 H 6889 1.75626 -5.05034 0
M  V30 72614 H 6889.34 2.34259 -3.44134 0
M  V30 72615 H 6889.88 0.710884 -3.91397 0
M  V30 72616 H 6886.61 -0.793376 -6.50681 0
M  V30 72617 H 6886.13 0.823132 -5.94125 0
M  V30 72618 H 6887.81 0.514912 -6.44948 0
M  V30 72619 N 6887.95 1.57429 0.0734347 0
M  V30 72620 C 6889.19 1.868 0.771374 0
M  V30 72621 C 6889.52 0.791898 1.78196 0
M  V30 72622 O 6888.79 -0.179615 1.95075 0
M  V30 72623 H 6887.37 0.689302 0.287874 0
M  V30 72624 H 6890.03 1.94836 0.0499133 0
M  V30 72625 H 6889.12 2.84256 1.28859 0
M  V30 72626 N 6889.42 -0.344785 1.53782 0
M  V30 72627 C 6890.65 -1.10365 1.74652 0
M  V30 72628 C 6891.06 -1.82878 0.485007 0
M  V30 72629 O 6890.41 -1.7518 -0.55297 0
M  V30 72630 C 6890.47 -2.16291 2.87156 0
M  V30 72631 C 6890.13 -1.63363 4.26804 0
M  V30 72632 C 6891.13 -1.08661 5.08418 0
M  V30 72633 C 6888.81 -1.68247 4.73284 0
M  V30 72634 C 6890.81 -0.595458 6.34613 0
M  V30 72635 C 6888.49 -1.18744 5.99452 0
M  V30 72636 C 6889.49 -0.644857 6.79949 0
M  V30 72637 O 6889.18 -0.157202 8.03746 0
M  V30 72638 H 6888.91 -0.335044 0.58713 0
M  V30 72639 H 6891.47 -0.403146 2.01405 0
M  V30 72640 H 6889.7 -2.89896 2.55925 0
M  V30 72641 H 6891.39 -2.77732 2.96007 0
M  V30 72642 H 6892.15 -1.04211 4.73672 0
M  V30 72643 H 6888.03 -2.0942 4.10688 0
M  V30 72644 H 6891.57 -0.171287 6.9739 0
M  V30 72645 H 6887.47 -1.22895 6.33693 0
M  V30 72646 H 6888.24 -0.274606 8.18039 0
M  V30 72647 N 6890.9 -1.45495 -0.60573 0
M  V30 72648 C 6891.85 -1.54645 -1.73746 0
M  V30 72649 C 6892.84 -0.416306 -1.64205 0
M  V30 72650 O 6894.05 -0.592288 -1.69976 0
M  V30 72651 H 6890.43 -0.485771 -0.574047 0
M  V30 72652 H 6892.4 -2.49845 -1.63156 0
M  V30 72653 C 6891.15 -1.53206 -3.12127 0
M  V30 72654 H 6890.47 -2.39495 -3.20129 0
M  V30 72655 H 6891.91 -1.63666 -3.91139 0
M  V30 72656 C 6890.37 -0.256794 -3.3592 0
M  V30 72657 O 6890.9 0.662589 -3.96198 0
M  V30 72658 N 6889.1 -0.151904 -2.90203 0
M  V30 72659 H 6888.65 -0.900937 -2.41331 0
M  V30 72660 H 6888.61 0.700538 -3.06496 0
M  V30 72661 N 6892.38 0.848394 -1.32816 0
M  V30 72662 C 6893.62 1.61681 -1.25055 0
M  V30 72663 C 6893.98 1.91122 0.183363 0
M  V30 72664 O 6895.19 2.66031 0.384797 0
M  V30 72665 C 6893.46 2.89764 -2.09216 0
M  V30 72666 S 6895.02 3.80504 -2.18546 0
M  V30 72667 H 6891.83 0.554481 -0.445052 0
M  V30 72668 H 6894.44 1.0042 -1.67738 0
M  V30 72669 H 6893.14 2.66092 -3.12447 0
M  V30 72670 H 6892.67 3.56038 -1.67334 0
M  V30 72671 H 6894.69 4.77777 -1.33955 0
M  V30 72672 N 6893.86 1.16129 1.06545 0
M  V30 72673 C 6894.79 0.888623 2.1593 0
M  V30 72674 C 6895.77 -0.164046 1.69307 0
M  V30 72675 O 6896.95 -0.0166833 1.94193 0
M  V30 72676 C 6894.08 0.386124 3.45147 0
M  V30 72677 C 6893.04 1.37641 4.05264 0
M  V30 72678 C 6892.36 0.732417 5.2966 0
M  V30 72679 C 6893.66 2.74516 4.4434 0
M  V30 72680 H 6895.36 1.80336 2.38997 0
M  V30 72681 H 6892.9 0.868495 1.14861 0
M  V30 72682 H 6894.86 0.182869 4.21003 0
M  V30 72683 H 6893.58 -0.564105 3.21691 0
M  V30 72684 H 6892.24 1.56617 3.31462 0
M  V30 72685 H 6891.89 -0.224218 5.025 0
M  V30 72686 H 6891.59 1.39337 5.70841 0
M  V30 72687 H 6893.11 0.539123 6.08215 0
M  V30 72688 H 6894.53 2.59338 5.11289 0
M  V30 72689 H 6892.92 3.37061 4.96497 0
M  V30 72690 H 6893.99 3.29962 3.55321 0
M  V30 72691 N 6895.34 -1.25036 0.959367 0
M  V30 72692 C 6896.28 -2.25707 0.482176 0
M  V30 72693 C 6897.25 -1.59375 -0.467855 0
M  V30 72694 O 6898.44 -1.86976 -0.380061 0
M  V30 72695 C 6895.58 -3.44336 -0.229441 0
M  V30 72696 C 6894.69 -4.25291 0.75838 0
M  V30 72697 C 6893.83 -5.31195 0.0237204 0
M  V30 72698 C 6892.87 -6.0384 1.00216 0
M  V30 72699 N 6892 -7.01467 0.29806 0
M  V30 72700 H 6896.84 -2.65894 1.34552 0
M  V30 72701 H 6894.38 -1.30716 0.674661 0
M  V30 72702 H 6896.34 -4.11968 -0.658639 0
M  V30 72703 H 6894.97 -3.05011 -1.0568 0
M  V30 72704 H 6894.02 -3.57277 1.30605 0
M  V30 72705 H 6895.33 -4.75559 1.50483 0
M  V30 72706 H 6894.49 -6.04924 -0.463882 0
M  V30 72707 H 6893.22 -4.81813 -0.755487 0
M  V30 72708 H 6892.23 -5.28922 1.50072 0
M  V30 72709 H 6893.45 -6.55311 1.78168 0
M  V30 72710 H 6891.4 -6.54369 -0.462323 0
M  V30 72711 H 6891.32 -7.49575 0.983523 0
M  V30 72712 H 6892.59 -7.79319 -0.167849 0
M  V30 72713 N 6896.81 -0.728493 -1.39752 0
M  V30 72714 C 6898.06 -0.273998 -2.00941 0
M  V30 72715 C 6898.39 1.13386 -1.57662 0
M  V30 72716 O 6897.67 1.77172 -0.802528 0
M  V30 72717 C 6897.95 -0.368535 -3.58209 0
M  V30 72718 C 6897.8 -1.8157 -4.11525 0
M  V30 72719 C 6899.12 0.252822 -4.39373 0
M  V30 72720 H 6896.24 -0.101034 -0.730042 0
M  V30 72721 H 6898.88 -0.923425 -1.66051 0
M  V30 72722 H 6897.03 0.184384 -3.88062 0
M  V30 72723 H 6898.71 -2.42499 -3.92418 0
M  V30 72724 H 6896.95 -2.33918 -3.65329 0
M  V30 72725 H 6897.62 -1.83315 -5.20672 0
M  V30 72726 H 6900.1 -0.218443 -4.15526 0
M  V30 72727 H 6898.97 0.156296 -5.48677 0
M  V30 72728 H 6899.23 1.33804 -4.21365 0
M  V30 72729 N 6898.29 1.50251 -0.475634 0
M  V30 72730 C 6899.7 1.86687 -0.0216158 0
M  V30 72731 C 6900.05 1.39008 1.3846 0
M  V30 72732 O 6899.18 0.757001 2.02728 0
M  V30 72733 C 6899.77 3.38784 -0.0324501 0
M  V30 72734 C 6898.33 3.74615 0.366116 0
M  V30 72735 C 6897.48 2.74162 -0.415977 0
M  V30 72736 H 6900.43 1.4293 -0.689687 0
M  V30 72737 H 6900.45 3.72654 0.768693 0
M  V30 72738 H 6899.96 3.73456 -1.05603 0
M  V30 72739 H 6898.07 3.45545 1.39388 0
M  V30 72740 H 6898.18 4.79057 0.0643024 0
M  V30 72741 H 6896.54 2.54363 0.130914 0
M  V30 72742 H 6897.33 3.11678 -1.43916 0
M  V30 72743 N 6899.77 0.20842 1.56216 0
M  V30 72744 C 6900.7 -0.701999 2.22698 0
M  V30 72745 C 6901.68 -1.21114 1.19438 0
M  V30 72746 O 6902.87 -1.25754 1.47985 0
M  V30 72747 C 6900 -1.91595 2.8967 0
M  V30 72748 C 6898.95 -1.54119 3.99289 0
M  V30 72749 C 6898.28 -2.83284 4.53491 0
M  V30 72750 C 6899.58 -0.741066 5.17016 0
M  V30 72751 H 6901.27 -0.14774 2.99035 0
M  V30 72752 H 6898.82 -0.0696193 1.43832 0
M  V30 72753 H 6900.77 -2.55818 3.34865 0
M  V30 72754 H 6899.49 -2.49496 2.10759 0
M  V30 72755 H 6898.15 -0.922481 3.54804 0
M  V30 72756 H 6897.8 -3.39303 3.71326 0
M  V30 72757 H 6897.5 -2.58949 5.27465 0
M  V30 72758 H 6899.02 -3.48473 5.01397 0
M  V30 72759 H 6900.44 -1.2867 5.58674 0
M  V30 72760 H 6898.84 -0.595312 5.9714 0
M  V30 72761 H 6899.91 0.255107 4.84228 0
M  V30 72762 N 6901.25 -1.57466 -0.0650849 0
M  V30 72763 C 6902.49 -1.87855 -0.764094 0
M  V30 72764 C 6902.83 -0.801589 -1.76885 0
M  V30 72765 O 6902.1 0.187426 -1.93595 0
M  V30 72766 C 6902.39 -3.28905 -1.46607 0
M  V30 72767 C 6902.24 -4.47261 -0.477279 0
M  V30 72768 C 6903.56 -3.68294 -2.40931 0
M  V30 72769 H 6900.68 -0.683241 -0.276315 0
M  V30 72770 H 6903.32 -1.89981 -0.0271866 0
M  V30 72771 H 6901.47 -3.27223 -2.09421 0
M  V30 72772 H 6903.14 -4.61068 0.146165 0
M  V30 72773 H 6901.38 -4.33307 0.206804 0
M  V30 72774 H 6902.05 -5.42752 -1.00621 0
M  V30 72775 H 6904.53 -3.71112 -1.8819 0
M  V30 72776 H 6903.41 -4.67862 -2.87048 0
M  V30 72777 H 6903.67 -2.98588 -3.26033 0
M  V30 72778 N 6902.73 0.336625 -1.53963 0
M  V30 72779 C 6903.98 1.07354 -1.70757 0
M  V30 72780 C 6904.29 1.8959 -0.481161 0
M  V30 72781 O 6905.5 2.66273 -0.530186 0
M  V30 72782 C 6903.95 1.95803 -3.01976 0
M  V30 72783 C 6903.56 1.18741 -4.31977 0
M  V30 72784 C 6905.3 2.6931 -3.28135 0
M  V30 72785 C 6903.21 2.0626 -5.54266 0
M  V30 72786 H 6902.14 0.404501 -0.636313 0
M  V30 72787 H 6904.79 0.332586 -1.80461 0
M  V30 72788 H 6903.17 2.73745 -2.86146 0
M  V30 72789 H 6904.35 0.456607 -4.58532 0
M  V30 72790 H 6902.66 0.569728 -4.12484 0
M  V30 72791 H 6905.26 3.35072 -4.1669 0
M  V30 72792 H 6905.6 3.36249 -2.45444 0
M  V30 72793 H 6906.14 1.98436 -3.44772 0
M  V30 72794 H 6902.87 1.43851 -6.39521 0
M  V30 72795 H 6902.39 2.7711 -5.31949 0
M  V30 72796 H 6904.07 2.65151 -5.90173 0
M  V30 72797 N 6904.21 1.45814 0.598006 0
M  V30 72798 C 6905.45 1.5033 1.35673 0
M  V30 72799 C 6905.78 0.148841 1.9393 0
M  V30 72800 O 6905.04 -0.853694 1.76098 0
M  V30 72801 C 6905.33 2.5378 2.51656 0
M  V30 72802 C 6905 3.98226 2.11487 0
M  V30 72803 C 6903.66 4.37555 2.00247 0
M  V30 72804 C 6906.01 4.89027 1.80282 0
M  V30 72805 C 6903.34 5.6557 1.56037 0
M  V30 72806 C 6905.69 6.17463 1.37556 0
M  V30 72807 C 6904.36 6.55714 1.24881 0
M  V30 72808 H 6903.63 0.550096 0.496463 0
M  V30 72809 H 6906.28 1.79211 0.674957 0
M  V30 72810 H 6904.58 2.18503 3.25213 0
M  V30 72811 H 6906.28 2.54508 3.09881 0
M  V30 72812 H 6902.87 3.67129 2.21166 0
M  V30 72813 H 6907.05 4.59372 1.87859 0
M  V30 72814 H 6902.31 5.93993 1.44854 0
M  V30 72815 H 6906.48 6.8726 1.12459 0
M  V30 72816 H 6904.11 7.54806 0.903988 0
M  V30 72817 N 6905.68 -0.841338 1.33264 0
M  V30 72818 C 6906.63 -1.95097 1.23312 0
M  V30 72819 C 6907.6 -1.6572 0.112291 0
M  V30 72820 O 6908.79 -1.88581 0.290138 0
M  V30 72821 C 6905.93 -3.31018 0.975758 0
M  V30 72822 C 6905.04 -3.72808 2.18262 0
M  V30 72823 C 6904.17 -4.97586 1.85962 0
M  V30 72824 C 6903.21 -5.31904 3.02894 0
M  V30 72825 N 6902.35 -6.47858 2.70599 0
M  V30 72826 H 6907.19 -2.02941 2.18218 0
M  V30 72827 H 6904.73 -0.993116 1.08516 0
M  V30 72828 H 6906.68 -4.09321 0.806986 0
M  V30 72829 H 6905.31 -3.22738 0.0634457 0
M  V30 72830 H 6904.37 -2.90048 2.46122 0
M  V30 72831 H 6905.68 -3.94153 3.05687 0
M  V30 72832 H 6904.83 -5.8363 1.65714 0
M  V30 72833 H 6903.57 -4.78204 0.957704 0
M  V30 72834 H 6902.58 -4.44365 3.23759 0
M  V30 72835 H 6903.8 -5.53235 3.93838 0
M  V30 72836 H 6901.75 -6.29969 1.82963 0
M  V30 72837 H 6901.66 -6.69287 3.51554 0
M  V30 72838 H 6902.93 -7.37021 2.53812 0
M  V30 72839 N 6907.16 -1.16692 -1.05928 0
M  V30 72840 C 6908.58 -0.912611 -1.30933 0
M  V30 72841 C 6908.78 0.43243 -1.96805 0
M  V30 72842 O 6907.83 1.17111 -2.23699 0
M  V30 72843 C 6909.15 -2.06441 -2.18638 0
M  V30 72844 C 6910.69 -2.10059 -2.32043 0
M  V30 72845 C 6911.17 -3.24604 -3.23105 0
M  V30 72846 N 6912.66 -3.24344 -3.30689 0
M  V30 72847 C 6913.4 -4.09615 -4.01252 0
M  V30 72848 N 6912.89 -5.04981 -4.74306 0
M  V30 72849 N 6914.68 -3.9759 -3.9734 0
M  V30 72850 H 6906.84 -2.03281 -0.61567 0
M  V30 72851 H 6909.1 -0.887202 -0.33403 0
M  V30 72852 H 6908.8 -3.03612 -1.77518 0
M  V30 72853 H 6908.68 -2.0091 -3.19241 0
M  V30 72854 H 6911.07 -1.13479 -2.72409 0
M  V30 72855 H 6911.15 -2.19653 -1.31095 0
M  V30 72856 H 6910.79 -4.21445 -2.83455 0
M  V30 72857 H 6910.72 -3.12245 -4.24041 0
M  V30 72858 H 6913.21 -2.55291 -2.78631 0
M  V30 72859 H 6913.52 -5.66457 -5.25686 0
M  V30 72860 H 6911.87 -5.08958 -4.73273 0
M  V30 72861 H 6915.06 -3.22387 -3.39388 0
M  V30 72862 H 6915.23 -4.64265 -4.52064 0
M  V30 72863 N 6908.64 1.24525 -0.965984 0
M  V30 72864 C 6909.55 2.2916 -0.502275 0
M  V30 72865 C 6910.57 1.68451 0.435928 0
M  V30 72866 O 6911.74 1.99009 0.309392 0
M  V30 72867 C 6908.81 3.46112 0.201774 0
M  V30 72868 C 6907.87 4.22227 -0.776043 0
M  V30 72869 C 6907.1 5.33596 -0.105499 0
M  V30 72870 O 6907.32 5.59564 1.10654 0
M  V30 72871 O 6906.26 5.96603 -0.796789 0
M  V30 72872 H 6910.08 2.70938 -1.37208 0
M  V30 72873 H 6907.67 1.30186 -0.732944 0
M  V30 72874 H 6909.55 4.17145 0.597344 0
M  V30 72875 H 6908.23 3.06314 1.04657 0
M  V30 72876 H 6907.13 3.53577 -1.22204 0
M  V30 72877 H 6908.47 4.65838 -1.58921 0
M  V30 72878 N 6910.12 0.735894 1.39364 0
M  V30 72879 C 6911.06 0.0965041 2.30598 0
M  V30 72880 C 6912.03 -0.728716 1.49261 0
M  V30 72881 O 6913.22 -0.688494 1.77945 0
M  V30 72882 C 6910.36 -0.804128 3.35601 0
M  V30 72883 C 6909.47 0.0338039 4.31987 0
M  V30 72884 C 6908.61 -0.868185 5.24057 0
M  V30 72885 C 6907.65 -0.0255548 6.12095 0
M  V30 72886 N 6906.78 -0.883526 6.96519 0
M  V30 72887 H 6911.62 0.880152 2.84706 0
M  V30 72888 H 6909.16 0.445693 1.40186 0
M  V30 72889 H 6911.12 -1.34075 3.95069 0
M  V30 72890 H 6909.75 -1.55374 2.82946 0
M  V30 72891 H 6908.8 0.687858 3.74129 0
M  V30 72892 H 6910.11 0.685297 4.9407 0
M  V30 72893 H 6909.27 -1.47262 5.88557 0
M  V30 72894 H 6908.01 -1.55346 4.62298 0
M  V30 72895 H 6907.01 0.591674 5.46607 0
M  V30 72896 H 6908.24 0.656512 6.75919 0
M  V30 72897 H 6906.18 -1.55407 6.37326 0
M  V30 72898 H 6906.1 -0.288533 7.55449 0
M  V30 72899 H 6907.37 -1.47349 7.65447 0
M  V30 72900 N 6911.6 -1.49997 0.483595 0
M  V30 72901 C 6912.51 -2.32555 -0.309049 0
M  V30 72902 C 6913.52 -1.43498 -0.984084 0
M  V30 72903 O 6914.7 -1.7654 -0.969305 0
M  V30 72904 C 6911.76 -3.185 -1.36963 0
M  V30 72905 C 6910.82 -4.2339 -0.709872 0
M  V30 72906 C 6910.06 -5.05227 -1.71992 0
M  V30 72907 O 6910.28 -4.8832 -2.94787 0
M  V30 72908 O 6909.21 -5.88027 -1.28484 0
M  V30 72909 H 6913.04 -3.01484 0.366223 0
M  V30 72910 H 6910.62 -1.47374 0.245218 0
M  V30 72911 H 6912.51 -3.71792 -1.98366 0
M  V30 72912 H 6911.18 -2.52286 -2.02814 0
M  V30 72913 H 6910.09 -3.74057 -0.0565566 0
M  V30 72914 H 6911.42 -4.9211 -0.0940962 0
M  V30 72915 N 6913.07 -0.216701 -1.56103 0
M  V30 72916 C 6914 0.690179 -2.23067 0
M  V30 72917 C 6914.98 1.20479 -1.20079 0
M  V30 72918 O 6916.17 1.24968 -1.4865 0
M  V30 72919 C 6913.3 1.90056 -2.90682 0
M  V30 72920 C 6912.25 1.51999 -4.001 0
M  V30 72921 C 6911.58 2.80875 -4.54987 0
M  V30 72922 C 6912.88 0.713637 -5.17402 0
M  V30 72923 H 6914.57 0.13188 -2.99109 0
M  V30 72924 H 6912.12 0.0619906 -1.43867 0
M  V30 72925 H 6914.07 2.54039 -3.36217 0
M  V30 72926 H 6912.8 2.48375 -2.12079 0
M  V30 72927 H 6911.46 0.903652 -3.55288 0
M  V30 72928 H 6911.1 3.37329 -3.7312 0
M  V30 72929 H 6910.8 2.56148 -5.28831 0
M  V30 72930 H 6912.33 3.45809 -5.03238 0
M  V30 72931 H 6913.74 1.25705 -5.59349 0
M  V30 72932 H 6912.14 0.563636 -5.97447 0
M  V30 72933 H 6913.21 -0.280783 -4.84086 0
M  V30 72934 N 6914.55 1.57498 0.0567332 0
M  V30 72935 C 6915.51 2.0372 1.05027 0
M  V30 72936 C 6916.51 0.936646 1.30704 0
M  V30 72937 O 6917.7 1.2011 1.26172 0
M  V30 72938 C 6914.84 2.43067 2.39021 0
M  V30 72939 H 6916.03 2.92737 0.651561 0
M  V30 72940 H 6913.58 1.53338 0.302866 0
M  V30 72941 H 6914.32 1.57123 2.83695 0
M  V30 72942 H 6914.1 3.23391 2.21722 0
M  V30 72943 H 6915.59 2.79352 3.10407 0
M  V30 72944 N 6916.03 -0.328455 1.54139 0
M  V30 72945 C 6917.45 -0.672498 1.4474 0
M  V30 72946 C 6917.65 -1.91843 0.616318 0
M  V30 72947 O 6916.7 -2.52246 0.1132 0
M  V30 72948 C 6918.01 -0.851065 2.88405 0
M  V30 72949 C 6919.56 -0.94872 2.98276 0
M  V30 72950 C 6920.04 -1.15949 4.4308 0
M  V30 72951 N 6921.53 -1.22634 4.46671 0
M  V30 72952 C 6922.26 -1.40722 5.55864 0
M  V30 72953 N 6921.76 -1.55884 6.75035 0
M  V30 72954 N 6923.55 -1.43391 5.43503 0
M  V30 72955 H 6915.7 0.49053 2.06658 0
M  V30 72956 H 6917.97 0.157628 0.934803 0
M  V30 72957 H 6917.67 -0.00685691 3.51699 0
M  V30 72958 H 6917.55 -1.74835 3.34234 0
M  V30 72959 H 6919.93 -1.78344 2.35112 0
M  V30 72960 H 6920.01 -0.0280086 2.55785 0
M  V30 72961 H 6919.66 -0.329647 5.06829 0
M  V30 72962 H 6919.59 -2.094 4.83176 0
M  V30 72963 H 6922.08 -1.12381 3.60803 0
M  V30 72964 H 6922.39 -1.69364 7.54013 0
M  V30 72965 H 6920.74 -1.52992 6.77952 0
M  V30 72966 H 6923.93 -1.31138 4.49356 0
M  V30 72967 H 6924.1 -1.57145 6.28657 0
M  V30 72968 N 6917.51 -1.46129 -0.590264 0
M  V30 72969 C 6918.46 -1.5612 -1.69986 0
M  V30 72970 C 6919.43 -0.405952 -1.61063 0
M  V30 72971 O 6920.61 -0.621708 -1.80387 0
M  V30 72972 C 6917.75 -1.55029 -3.08318 0
M  V30 72973 C 6916.86 -2.81233 -3.27921 0
M  V30 72974 C 6916 -2.71697 -4.56458 0
M  V30 72975 C 6915.04 -3.92874 -4.69379 0
M  V30 72976 N 6914.17 -3.81769 -5.89234 0
M  V30 72977 H 6919.01 -2.50904 -1.60784 0
M  V30 72978 H 6916.55 -1.24483 -0.783733 0
M  V30 72979 H 6918.51 -1.52383 -3.88375 0
M  V30 72980 H 6917.14 -0.637834 -3.16436 0
M  V30 72981 H 6916.19 -2.93891 -2.4152 0
M  V30 72982 H 6917.5 -3.71063 -3.33338 0
M  V30 72983 H 6916.66 -2.67114 -5.44734 0
M  V30 72984 H 6915.4 -1.79494 -4.53468 0
M  V30 72985 H 6914.4 -3.97797 -3.79523 0
M  V30 72986 H 6915.63 -4.86163 -4.74154 0
M  V30 72987 H 6913.57 -2.92348 -5.87255 0
M  V30 72988 H 6913.49 -4.65248 -5.95886 0
M  V30 72989 H 6914.76 -3.81148 -6.7996 0
M  V30 72990 N 6918.99 0.834259 -1.33708 0
M  V30 72991 C 6919.92 1.95957 -1.26977 0
M  V30 72992 C 6920.9 1.69442 -0.149426 0
M  V30 72993 O 6922.08 1.91201 -0.339952 0
M  V30 72994 C 6919.21 3.322 -1.01293 0
M  V30 72995 C 6918.17 3.73125 -2.09671 0
M  V30 72996 C 6917.49 5.07226 -1.69193 0
M  V30 72997 C 6918.79 3.8642 -3.51393 0
M  V30 72998 H 6920.49 2.01846 -2.2113 0
M  V30 72999 H 6918.03 0.969737 -1.06452 0
M  V30 73000 H 6919.99 4.10498 -0.952322 0
M  V30 73001 H 6918.71 3.2658 -0.0357925 0
M  V30 73002 H 6917.37 2.97093 -2.14782 0
M  V30 73003 H 6917.02 4.98082 -0.701699 0
M  V30 73004 H 6916.72 5.35578 -2.41722 0
M  V30 73005 H 6918.24 5.87994 -1.64607 0
M  V30 73006 H 6919.65 4.55018 -3.48758 0
M  V30 73007 H 6918.05 4.26214 -4.22447 0
M  V30 73008 H 6919.12 2.88738 -3.89562 0
M  V30 73009 N 6920.46 1.17252 1.05308 0
M  V30 73010 C 6921.37 0.902794 2.16534 0
M  V30 73011 C 6922.39 -0.128615 1.73524 0
M  V30 73012 O 6923.57 0.0503763 2.01337 0
M  V30 73013 C 6920.63 0.418538 3.44164 0
M  V30 73014 C 6919.69 1.51639 4.01627 0
M  V30 73015 C 6918.93 1.05515 5.23166 0
M  V30 73016 O 6919.15 -0.0911708 5.70327 0
M  V30 73017 O 6918.08 1.8477 5.72838 0
M  V30 73018 H 6921.91 1.83315 2.42135 0
M  V30 73019 H 6919.49 0.953307 1.15032 0
M  V30 73020 H 6921.38 0.155948 4.21111 0
M  V30 73021 H 6920.05 -0.483681 3.20066 0
M  V30 73022 H 6918.96 1.83285 3.26125 0
M  V30 73023 H 6920.29 2.39428 4.30041 0
M  V30 73024 N 6921.94 -1.24011 0.972574 0
M  V30 73025 C 6923.19 -1.92216 0.637136 0
M  V30 73026 C 6923.52 -1.7598 -0.828326 0
M  V30 73027 O 6922.77 -1.10963 -1.61201 0
M  V30 73028 C 6923.07 -3.44157 0.963875 0
M  V30 73029 C 6922.74 -3.80566 2.41827 0
M  V30 73030 C 6921.4 -3.90215 2.81577 0
M  V30 73031 C 6923.75 -3.98276 3.36193 0
M  V30 73032 C 6921.08 -4.14995 4.14724 0
M  V30 73033 C 6923.43 -4.24553 4.68975 0
M  V30 73034 C 6922.1 -4.32422 5.08495 0
M  V30 73035 H 6921.37 -0.703367 0.233144 0
M  V30 73036 H 6924.01 -1.47196 1.22497 0
M  V30 73037 H 6922.32 -3.90696 0.293856 0
M  V30 73038 H 6924.01 -3.95147 0.682658 0
M  V30 73039 H 6920.6 -3.73624 2.10007 0
M  V30 73040 H 6924.79 -3.90218 3.06665 0
M  V30 73041 H 6920.04 -4.19308 4.44962 0
M  V30 73042 H 6924.22 -4.372 5.4206 0
M  V30 73043 H 6921.85 -4.51377 6.11689 0
M  V30 73044 N 6923.42 -0.743275 -1.38972 0
M  V30 73045 C 6924.7 -0.220807 -1.9435 0
M  V30 73046 C 6925.08 1.27901 -1.67942 0
M  V30 73047 O 6924.43 2.04857 -1.01222 0
M  V30 73048 C 6924.64 -0.563352 -3.44423 0
M  V30 73049 C 6925.98 -0.517269 -4.21437 0
M  V30 73050 O 6927.01 -0.501032 -3.52659 0
M  V30 73051 O 6925.87 -0.519092 -5.44029 0
M  V30 73052 H 6922.96 -0.0430906 -0.825877 0
M  V30 73053 H 6925.51 -0.822696 -1.48424 0
M  V30 73054 H 6924.28 -1.5996 -3.57111 0
M  V30 73055 H 6923.9 0.0670786 -3.97543 0
M  V30 73056 N 6924.9 1.49738 -0.491543 0
M  V30 73057 C 6926.15 2.02022 0.0562076 0
M  V30 73058 C 6926.47 1.37414 1.38356 0
M  V30 73059 O 6925.74 0.526266 1.88699 0
M  V30 73060 H 6924.32 0.746622 0.0237621 0
M  V30 73061 H 6926.98 1.83861 -0.64663 0
M  V30 73062 H 6926.08 3.11504 0.192803 0
M  V30 73063 N 6926.38 0.224977 1.55986 0
M  V30 73064 C 6927.31 -0.678339 2.2343 0
M  V30 73065 C 6928.29 -1.1984 1.20716 0
M  V30 73066 O 6929.47 -1.24178 1.4931 0
M  V30 73067 C 6926.6 -1.88512 2.91686 0
M  V30 73068 C 6925.56 -1.49875 4.00901 0
M  V30 73069 C 6924.88 -2.78459 4.5647 0
M  V30 73070 C 6926.18 -0.686188 5.17773 0
M  V30 73071 H 6927.88 -0.116015 2.99175 0
M  V30 73072 H 6925.42 -0.0543601 1.43897 0
M  V30 73073 H 6927.38 -2.52252 3.3756 0
M  V30 73074 H 6926.1 -2.47247 2.13393 0
M  V30 73075 H 6924.76 -0.884797 3.55762 0
M  V30 73076 H 6924.41 -3.35345 3.74904 0
M  V30 73077 H 6924.11 -2.5334 5.30182 0
M  V30 73078 H 6925.63 -3.43136 5.05065 0
M  V30 73079 H 6927.04 -1.22737 5.60008 0
M  V30 73080 H 6925.44 -0.531944 5.97738 0
M  V30 73081 H 6926.51 0.306451 4.83931 0
M  V30 73082 N 6927.85 -1.57526 -0.0483799 0
M  V30 73083 C 6929.08 -1.92341 -0.754224 0
M  V30 73084 C 6929.49 -0.82141 -1.70439 0
M  V30 73085 O 6928.84 0.212444 -1.82467 0
M  V30 73086 C 6928.9 -3.22814 -1.58214 0
M  V30 73087 C 6928.56 -4.49964 -0.798836 0
M  V30 73088 C 6929.56 -5.19789 -0.107626 0
M  V30 73089 C 6927.24 -4.96531 -0.759083 0
M  V30 73090 C 6929.24 -6.34447 0.612851 0
M  V30 73091 C 6926.92 -6.1109 -0.034849 0
M  V30 73092 C 6927.92 -6.79901 0.649896 0
M  V30 73093 O 6927.61 -7.92271 1.36241 0
M  V30 73094 H 6927.34 -0.639808 -0.218223 0
M  V30 73095 H 6929.9 -2.05394 -0.0158212 0
M  V30 73096 H 6928.13 -3.06034 -2.3639 0
M  V30 73097 H 6929.82 -3.431 -2.1688 0
M  V30 73098 H 6930.58 -4.84827 -0.129493 0
M  V30 73099 H 6926.46 -4.42829 -1.28154 0
M  V30 73100 H 6930 -6.88091 1.14787 0
M  V30 73101 H 6925.9 -6.45499 -0.010991 0
M  V30 73102 H 6926.67 -8.08523 1.27409 0
M  V30 73103 N 6929.33 0.320276 -1.54311 0
M  V30 73104 C 6930.58 1.05537 -1.71886 0
M  V30 73105 C 6930.89 1.89069 -0.501243 0
M  V30 73106 O 6932.1 2.65696 -0.558398 0
M  V30 73107 C 6930.56 1.92589 -3.04036 0
M  V30 73108 C 6930.16 1.14153 -4.33213 0
M  V30 73109 C 6931.91 2.65814 -3.30973 0
M  V30 73110 C 6929.82 2.00369 -5.56423 0
M  V30 73111 H 6928.75 0.397729 -0.640568 0
M  V30 73112 H 6931.4 0.313427 -1.80803 0
M  V30 73113 H 6929.78 2.70695 -2.89033 0
M  V30 73114 H 6930.95 0.407948 -4.58991 0
M  V30 73115 H 6929.27 0.525947 -4.13065 0
M  V30 73116 H 6931.86 3.30634 -4.20221 0
M  V30 73117 H 6932.21 3.33626 -2.48996 0
M  V30 73118 H 6932.74 1.94768 -3.46858 0
M  V30 73119 H 6929.48 1.3706 -6.41011 0
M  V30 73120 H 6929 2.71452 -5.34859 0
M  V30 73121 H 6930.68 2.58877 -5.92952 0
M  V30 73122 N 6930.81 1.4644 0.582507 0
M  V30 73123 C 6932.04 1.55331 1.36674 0
M  V30 73124 C 6932.45 0.194508 1.87795 0
M  V30 73125 O 6931.81 -0.808232 1.63627 0
M  V30 73126 C 6931.86 2.55826 2.55412 0
M  V30 73127 O 6931.58 3.86428 2.06409 0
M  V30 73128 C 6933.08 2.74659 3.47961 0
M  V30 73129 H 6930.3 0.525281 0.417517 0
M  V30 73130 H 6932.85 1.91849 0.708118 0
M  V30 73131 H 6931 2.22312 3.17264 0
M  V30 73132 H 6931.42 4.41126 2.83739 0
M  V30 73133 H 6932.89 3.48896 4.27756 0
M  V30 73134 H 6933.37 1.81574 3.99909 0
M  V30 73135 H 6933.97 3.0927 2.91945 0
M  V30 73136 N 6932.29 -0.827157 1.34149 0
M  V30 73137 C 6933.2 -1.96969 1.27438 0
M  V30 73138 C 6934.22 -1.73037 0.182819 0
M  V30 73139 O 6935.39 -1.97213 0.40853 0
M  V30 73140 C 6932.46 -3.31188 1.02544 0
M  V30 73141 C 6931.52 -3.68156 2.20815 0
M  V30 73142 C 6930.75 -4.95972 1.97099 0
M  V30 73143 O 6930.97 -5.62815 0.927118 0
M  V30 73144 O 6929.91 -5.30718 2.8394 0
M  V30 73145 H 6933.73 -2.05572 2.23548 0
M  V30 73146 H 6931.32 -0.961928 1.14312 0
M  V30 73147 H 6933.2 -4.11584 0.904243 0
M  V30 73148 H 6931.88 -3.23561 0.0947095 0
M  V30 73149 H 6930.78 -2.88222 2.38493 0
M  V30 73150 H 6932.12 -3.80464 3.12263 0
M  V30 73151 N 6933.77 -1.17809 -1.04684 0
M  V30 73152 C 6934.7 -0.857209 -2.12567 0
M  V30 73153 C 6935.71 0.142562 -1.62175 0
M  V30 73154 O 6936.9 -0.0844328 -1.783 0
M  V30 73155 C 6934 -0.258394 -3.37914 0
M  V30 73156 C 6933.17 -1.30229 -4.17563 0
M  V30 73157 C 6932.23 -0.720303 -5.21247 0
M  V30 73158 O 6931.26 -1.39343 -5.51881 0
M  V30 73159 N 6932.46 0.485202 -5.78469 0
M  V30 73160 H 6935.23 -1.78575 -2.40689 0
M  V30 73161 H 6932.79 -1.07763 -1.20825 0
M  V30 73162 H 6934.78 0.144371 -4.04442 0
M  V30 73163 H 6933.35 0.574037 -3.07284 0
M  V30 73164 H 6932.57 -1.88061 -3.46448 0
M  V30 73165 H 6933.86 -2.00626 -4.67575 0
M  V30 73166 H 6933.26 1.04993 -5.55871 0
M  V30 73167 H 6931.81 0.829966 -6.46494 0
M  V30 73168 N 6935.25 1.23494 -0.979137 0
M  V30 73169 C 6936.66 1.737 -0.684483 0
M  V30 73170 C 6937.01 1.79178 0.799354 0
M  V30 73171 O 6936.13 1.42881 1.62523 0
M  V30 73172 C 6936.73 3.15457 -1.23581 0
M  V30 73173 C 6935.29 3.63125 -0.990821 0
M  V30 73174 C 6934.43 2.41417 -1.36429 0
M  V30 73175 H 6937.38 1.09035 -1.15313 0
M  V30 73176 H 6937.41 3.75617 -0.607615 0
M  V30 73177 H 6936.92 3.11438 -2.31577 0
M  V30 73178 H 6935.02 3.72528 0.0731171 0
M  V30 73179 H 6935.13 4.49992 -1.64451 0
M  V30 73180 H 6933.5 2.42374 -0.782744 0
M  V30 73181 H 6934.28 2.40071 -2.454 0
M  V30 73182 N 6936.72 0.750634 1.38576 0
M  V30 73183 C 6937.63 0.122948 2.34278 0
M  V30 73184 C 6938.65 -0.704047 1.5912 0
M  V30 73185 O 6939.83 -0.628887 1.91329 0
M  V30 73186 C 6936.89 -0.761908 3.38225 0
M  V30 73187 C 6935.95 0.0791223 4.29227 0
M  V30 73188 C 6935.18 -0.763595 5.28209 0
M  V30 73189 O 6935.41 -2.00173 5.34123 0
M  V30 73190 O 6934.34 -0.183963 6.01619 0
M  V30 73191 H 6938.17 0.913241 2.89644 0
M  V30 73192 H 6935.75 0.511492 1.40371 0
M  V30 73193 H 6937.63 -1.26772 4.01879 0
M  V30 73194 H 6936.31 -1.53075 2.85219 0
M  V30 73195 H 6935.22 0.630815 3.68743 0
M  V30 73196 H 6936.55 0.810545 4.8548 0
M  V30 73197 N 6938.2 -1.49476 0.499477 0
M  V30 73198 C 6939.48 -1.95299 -0.108526 0
M  V30 73199 C 6939.86 -1.44092 -1.54275 0
M  V30 73200 O 6939.21 -0.654023 -2.1894 0
M  V30 73201 C 6939.42 -3.48993 -0.022727 0
M  V30 73202 C 6940.76 -4.24141 -0.197419 0
M  V30 73203 O 6941.79 -3.56065 -0.0979857 0
M  V30 73204 O 6940.65 -5.45024 -0.401382 0
M  V30 73205 H 6937.74 -0.821393 -0.0961376 0
M  V30 73206 H 6940.29 -1.60127 0.561907 0
M  V30 73207 H 6939.06 -3.78893 0.977521 0
M  V30 73208 H 6938.68 -3.90778 -0.733373 0
M  V30 73209 N 6939.68 -0.233246 -1.55864 0
M  V30 73210 C 6940.96 0.444887 -1.90473 0
M  V30 73211 C 6941.34 1.76884 -1.15218 0
M  V30 73212 O 6940.68 2.26955 -0.265239 0
M  V30 73213 C 6940.89 0.626378 -3.43333 0
M  V30 73214 C 6942.24 0.928491 -4.14324 0
M  V30 73215 O 6943.27 0.712741 -3.48996 0
M  V30 73216 O 6942.13 1.33859 -5.29853 0
M  V30 73217 H 6939.22 0.236844 -0.79236 0
M  V30 73218 H 6941.77 -0.276299 -1.67436 0
M  V30 73219 H 6940.54 -0.307028 -3.90094 0
M  V30 73220 H 6940.16 1.39862 -3.72189 0
M  V30 73221 N 6941.16 1.57549 0.0400252 0
M  V30 73222 C 6942.43 1.799 0.767822 0
M  V30 73223 C 6942.81 0.828662 1.94156 0
M  V30 73224 O 6942.16 -0.13155 2.28121 0
M  V30 73225 C 6942.37 3.27311 1.21112 0
M  V30 73226 C 6943.72 3.92002 1.63154 0
M  V30 73227 O 6944.74 3.31395 1.30599 0
M  V30 73228 O 6943.6 4.98691 2.23539 0
M  V30 73229 H 6940.7 0.739413 0.370402 0
M  V30 73230 H 6943.24 1.69691 0.0176475 0
M  V30 73231 H 6942.02 3.89521 0.372732 0
M  V30 73232 H 6941.64 3.42367 2.02165 0
M  V30 73233 N 6942.64 -0.312088 1.54479 0
M  V30 73234 C 6943.88 -1.05021 1.73489 0
M  V30 73235 C 6944.21 -1.87296 0.513224 0
M  V30 73236 O 6943.49 -1.88233 -0.489764 0
M  V30 73237 C 6943.77 -1.96542 3.01733 0
M  V30 73238 C 6943.63 -1.17522 4.34176 0
M  V30 73239 C 6944.94 -2.9589 3.25787 0
M  V30 73240 H 6942.06 -0.380398 0.631242 0
M  V30 73241 H 6944.71 -0.325833 1.87185 0
M  V30 73242 H 6942.86 -2.58309 2.90188 0
M  V30 73243 H 6944.53 -0.581271 4.57623 0
M  V30 73244 H 6942.77 -0.477698 4.31162 0
M  V30 73245 H 6943.44 -1.84784 5.20153 0
M  V30 73246 H 6945.92 -2.44249 3.3687 0
M  V30 73247 H 6944.79 -3.57101 4.16857 0
M  V30 73248 H 6945.05 -3.68961 2.43557 0
M  V30 73249 N 6944.11 -1.46747 -0.574732 0
M  V30 73250 C 6945.06 -1.57914 -1.68321 0
M  V30 73251 C 6946.03 -0.423012 -1.60623 0
M  V30 73252 O 6947.22 -0.640805 -1.79717 0
M  V30 73253 C 6944.36 -1.58291 -3.06656 0
M  V30 73254 C 6943.47 -2.84695 -3.2492 0
M  V30 73255 C 6942.6 -2.76523 -4.53551 0
M  V30 73256 C 6941.64 -3.9783 -4.65186 0
M  V30 73257 N 6940.78 -3.87997 -5.85152 0
M  V30 73258 H 6945.62 -2.52595 -1.58113 0
M  V30 73259 H 6943.16 -1.25307 -0.770486 0
M  V30 73260 H 6945.11 -1.56494 -3.86737 0
M  V30 73261 H 6943.74 -0.67136 -3.15741 0
M  V30 73262 H 6942.8 -2.96437 -2.38389 0
M  V30 73263 H 6944.11 -3.74577 -3.29383 0
M  V30 73264 H 6943.26 -2.72876 -5.4187 0
M  V30 73265 H 6942 -1.84294 -4.51539 0
M  V30 73266 H 6941.01 -4.018 -3.75282 0
M  V30 73267 H 6942.23 -4.91165 -4.68971 0
M  V30 73268 H 6940.18 -2.9856 -5.84121 0
M  V30 73269 H 6940.09 -4.71542 -5.90918 0
M  V30 73270 H 6941.36 -3.88339 -6.7588 0
M  V30 73271 N 6945.59 0.820031 -1.34585 0
M  V30 73272 C 6946.84 1.5733 -1.26854 0
M  V30 73273 C 6947.16 1.94338 0.160565 0
M  V30 73274 O 6946.43 1.62515 1.09387 0
M  V30 73275 H 6945.01 0.583391 -0.466545 0
M  V30 73276 H 6947.67 0.978939 -1.68531 0
M  V30 73277 H 6946.77 2.4948 -1.87526 0
M  V30 73278 N 6947.07 1.18362 1.04058 0
M  V30 73279 C 6948 0.86847 2.12109 0
M  V30 73280 C 6949.02 -0.133959 1.62248 0
M  V30 73281 O 6950.2 0.0938873 1.78253 0
M  V30 73282 C 6947.3 0.276311 3.37772 0
M  V30 73283 C 6946.48 1.32442 4.16867 0
M  V30 73284 C 6945.54 0.747936 5.20857 0
M  V30 73285 O 6944.56 1.42268 5.51134 0
M  V30 73286 N 6945.76 -0.454517 5.78718 0
M  V30 73287 H 6948.53 1.79849 2.39738 0
M  V30 73288 H 6946.09 1.08402 1.20252 0
M  V30 73289 H 6948.08 -0.12292 4.04513 0
M  V30 73290 H 6946.65 -0.557733 3.07584 0
M  V30 73291 H 6945.87 1.89896 3.45446 0
M  V30 73292 H 6947.16 2.03103 4.66505 0
M  V30 73293 H 6946.56 -1.02044 5.5642 0
M  V30 73294 H 6945.12 -0.795669 6.46925 0
M  V30 73295 N 6948.55 -1.22973 0.985673 0
M  V30 73296 C 6949.79 -1.92115 0.668099 0
M  V30 73297 C 6950.15 -1.75417 -0.790362 0
M  V30 73298 O 6949.44 -1.10776 -1.56331 0
M  V30 73299 C 6949.64 -3.43116 1.00032 0
M  V30 73300 C 6949.47 -3.74503 2.48953 0
M  V30 73301 C 6948.24 -3.94908 3.15239 0
M  V30 73302 C 6950.43 -3.79559 3.47044 0
M  V30 73303 N 6948.42 -4.13545 4.53711 0
M  V30 73304 C 6949.79 -4.03251 4.70944 0
M  V30 73305 C 6951.84 -3.62375 3.41451 0
M  V30 73306 C 6950.54 -4.11543 5.89936 0
M  V30 73307 C 6952.57 -3.71922 4.59813 0
M  V30 73308 C 6951.93 -3.96057 5.8251 0
M  V30 73309 H 6948.03 -0.723967 0.295627 0
M  V30 73310 H 6950.62 -1.48074 1.26421 0
M  V30 73311 H 6948.79 -3.8598 0.432858 0
M  V30 73312 H 6950.52 -3.99616 0.639481 0
M  V30 73313 H 6947.27 -3.92031 2.65723 0
M  V30 73314 H 6947.7 -4.26807 5.25514 0
M  V30 73315 H 6952.34 -3.42707 2.47612 0
M  V30 73316 H 6950.06 -4.30017 6.84187 0
M  V30 73317 H 6953.64 -3.59974 4.57067 0
M  V30 73318 H 6952.52 -4.03265 6.72568 0
M  V30 73319 N 6950.03 -0.757973 -1.38176 0
M  V30 73320 C 6951.3 -0.241408 -1.94105 0
M  V30 73321 C 6951.68 1.26113 -1.69289 0
M  V30 73322 O 6951.03 2.03772 -1.03389 0
M  V30 73323 C 6951.24 -0.599851 -3.43806 0
M  V30 73324 C 6952.59 -0.561939 -4.20865 0
M  V30 73325 O 6953.61 -0.538408 -3.52107 0
M  V30 73326 O 6952.47 -0.576765 -5.43448 0
M  V30 73327 H 6949.57 -0.0518477 -0.825373 0
M  V30 73328 H 6952.11 -0.838393 -1.47543 0
M  V30 73329 H 6950.88 -1.63738 -3.55395 0
M  V30 73330 H 6950.51 0.0249101 -3.97592 0
M  V30 73331 N 6951.5 1.49209 -0.507397 0
M  V30 73332 C 6952.92 1.58758 -0.163766 0
M  V30 73333 C 6953.12 1.51195 1.332 0
M  V30 73334 O 6952.18 1.38922 2.10848 0
M  V30 73335 C 6953.49 2.91293 -0.746249 0
M  V30 73336 C 6955.04 3.04772 -0.712933 0
M  V30 73337 C 6955.51 4.39936 -1.27359 0
M  V30 73338 N 6957 4.46444 -1.23457 0
M  V30 73339 C 6957.74 5.49491 -1.6385 0
M  V30 73340 N 6957.23 6.59609 -2.11867 0
M  V30 73341 N 6959.03 5.40242 -1.55227 0
M  V30 73342 H 6951.18 1.52367 -1.4798 0
M  V30 73343 H 6953.44 0.722136 -0.614185 0
M  V30 73344 H 6953.15 3.02415 -1.7955 0
M  V30 73345 H 6953.02 3.76613 -0.210335 0
M  V30 73346 H 6955.41 2.93277 0.327501 0
M  V30 73347 H 6955.49 2.2112 -1.28607 0
M  V30 73348 H 6955.13 4.52184 -2.31284 0
M  V30 73349 H 6955.06 5.22239 -0.676341 0
M  V30 73350 H 6957.55 3.67443 -0.882821 0
M  V30 73351 H 6957.87 7.34345 -2.40742 0
M  V30 73352 H 6956.21 6.60633 -2.15845 0
M  V30 73353 H 6959.4 4.53106 -1.17528 0
M  V30 73354 H 6959.58 6.20422 -1.87029 0
M  V30 73355 N 6952.98 0.241508 1.55739 0
M  V30 73356 C 6953.91 -0.654603 2.24137 0
M  V30 73357 C 6954.89 -1.18553 1.2198 0
M  V30 73358 O 6956.08 -1.22587 1.50619 0
M  V30 73359 C 6953.21 -1.85408 2.93669 0
M  V30 73360 C 6952.16 -1.45615 4.02468 0
M  V30 73361 C 6951.49 -2.73601 4.59398 0
M  V30 73362 C 6952.79 -0.631233 5.18472 0
M  V30 73363 H 6954.48 -0.0842774 2.99281 0
M  V30 73364 H 6952.03 -0.0390948 1.43947 0
M  V30 73365 H 6953.98 -2.48658 3.40216 0
M  V30 73366 H 6952.71 -2.4497 2.16003 0
M  V30 73367 H 6951.36 -0.847014 3.56681 0
M  V30 73368 H 6951.01 -3.3135 3.78439 0
M  V30 73369 H 6950.71 -2.47702 5.32839 0
M  V30 73370 H 6952.24 -3.37759 5.08676 0
M  V30 73371 H 6953.65 -1.16791 5.61278 0
M  V30 73372 H 6952.05 -0.468516 5.98268 0
M  V30 73373 H 6953.12 0.357761 4.83578 0
M  V30 73374 N 6954.46 -1.57568 -0.0316694 0
M  V30 73375 C 6955.71 -1.89433 -0.724075 0
M  V30 73376 C 6956.04 -0.838928 -1.75145 0
M  V30 73377 O 6955.31 0.14632 -1.93949 0
M  V30 73378 C 6955.6 -3.3194 -1.39598 0
M  V30 73379 C 6955.45 -4.48172 -0.382301 0
M  V30 73380 C 6956.77 -3.73321 -2.33065 0
M  V30 73381 H 6953.89 -0.688949 -0.26176 0
M  V30 73382 H 6956.53 -1.89995 0.0131172 0
M  V30 73383 H 6954.68 -3.31592 -2.02433 0
M  V30 73384 H 6956.35 -4.60655 0.243932 0
M  V30 73385 H 6954.6 -4.32771 0.298668 0
M  V30 73386 H 6955.27 -5.44764 -0.890858 0
M  V30 73387 H 6957.74 -3.7502 -1.80276 0
M  V30 73388 H 6956.62 -4.73845 -2.77059 0
M  V30 73389 H 6956.88 -3.05436 -3.19626 0
M  V30 73390 N 6955.94 0.303891 -1.54642 0
M  V30 73391 C 6956.87 1.3795 -1.88393 0
M  V30 73392 C 6957.85 1.53036 -0.742566 0
M  V30 73393 O 6959.03 1.66591 -0.998046 0
M  V30 73394 C 6956.16 2.74416 -2.12869 0
M  V30 73395 C 6955.12 2.74098 -3.28716 0
M  V30 73396 C 6954.44 4.13826 -3.38603 0
M  V30 73397 C 6955.74 2.36095 -4.65893 0
M  V30 73398 H 6957.44 1.09952 -2.7848 0
M  V30 73399 H 6954.98 0.527486 -1.33991 0
M  V30 73400 H 6956.94 3.49746 -2.35065 0
M  V30 73401 H 6955.66 3.03933 -1.19551 0
M  V30 73402 H 6954.32 2.01224 -3.06438 0
M  V30 73403 H 6953.97 4.40515 -2.42808 0
M  V30 73404 H 6953.67 4.14515 -4.16475 0
M  V30 73405 H 6955.19 4.9094 -3.63057 0
M  V30 73406 H 6956.61 3.01141 -4.87839 0
M  V30 73407 H 6955 2.48002 -5.46457 0
M  V30 73408 H 6956.07 1.31225 -4.66806 0
M  V30 73409 N 6957.42 1.47049 0.566942 0
M  V30 73410 C 6958.36 1.59197 1.69585 0
M  V30 73411 C 6959.36 0.459695 1.63043 0
M  V30 73412 O 6960.56 0.637146 1.68346 0
M  V30 73413 H 6956.94 0.50082 0.560966 0
M  V30 73414 H 6958.91 2.54083 1.56474 0
M  V30 73415 C 6957.66 1.61427 3.07955 0
M  V30 73416 H 6956.98 2.47898 3.13666 0
M  V30 73417 H 6958.42 1.73979 3.86662 0
M  V30 73418 C 6956.88 0.345766 3.35121 0
M  V30 73419 O 6957.41 -0.557311 3.97815 0
M  V30 73420 N 6955.62 0.228793 2.89698 0
M  V30 73421 H 6955.16 0.964605 2.38858 0
M  V30 73422 H 6955.12 -0.619029 3.08246 0
M  V30 73423 N 6958.89 -0.812882 1.35018 0
M  V30 73424 C 6960.12 -1.60113 1.31039 0
M  V30 73425 C 6960.54 -1.88459 -0.113459 0
M  V30 73426 O 6959.89 -1.48307 -1.06355 0
M  V30 73427 C 6959.95 -2.93613 2.10887 0
M  V30 73428 O 6959.67 -2.665 3.4772 0
M  V30 73429 C 6961.17 -3.87993 2.14421 0
M  V30 73430 H 6958.39 -0.497377 0.450396 0
M  V30 73431 H 6960.93 -1.01066 1.7778 0
M  V30 73432 H 6959.09 -3.49191 1.67762 0
M  V30 73433 H 6959.5 -3.51695 3.89116 0
M  V30 73434 H 6960.97 -4.78798 2.74694 0
M  V30 73435 H 6961.45 -4.24113 1.14127 0
M  V30 73436 H 6962.06 -3.38351 2.5768 0
M  V30 73437 N 6960.37 -1.18913 -1.03429 0
M  V30 73438 C 6961.78 -0.991607 -1.5819 0
M  V30 73439 C 6962.13 0.45698 -1.90804 0
M  V30 73440 O 6961.26 1.33544 -1.70279 0
M  V30 73441 C 6961.85 -1.7937 -2.87423 0
M  V30 73442 C 6960.41 -1.64035 -3.38777 0
M  V30 73443 C 6959.56 -1.78414 -2.12283 0
M  V30 73444 H 6962.51 -1.33363 -0.860228 0
M  V30 73445 H 6962.53 -1.28657 -3.58089 0
M  V30 73446 H 6962.04 -2.84795 -2.63654 0
M  V30 73447 H 6960.15 -0.61173 -3.67544 0
M  V30 73448 H 6960.26 -2.44234 -4.12173 0
M  V30 73449 H 6958.62 -1.21422 -2.23895 0
M  V30 73450 H 6959.41 -2.85287 -1.90962 0
M  V30 73451 N 6961.85 1.22448 -0.99218 0
M  V30 73452 C 6963.08 1.95735 -0.685748 0
M  V30 73453 C 6963.5 1.72808 0.742909 0
M  V30 73454 O 6962.86 1.00684 1.50773 0
M  V30 73455 C 6962.91 3.46558 -0.996475 0
M  V30 73456 O 6962.01 4.12291 -0.0947686 0
M  V30 73457 H 6961.35 0.612362 -0.256727 0
M  V30 73458 H 6963.88 1.55563 -1.32896 0
M  V30 73459 H 6963.89 3.97071 -0.938019 0
M  V30 73460 H 6962.57 3.62571 -2.03752 0
M  V30 73461 H 6961.14 3.72316 -0.208647 0
M  V30 73462 N 6963.33 0.76529 1.37772 0
M  V30 73463 C 6964.58 0.326693 1.99847 0
M  V30 73464 C 6964.9 -1.09496 1.60751 0
M  V30 73465 O 6964.16 -1.76655 0.842114 0
M  V30 73466 C 6964.46 0.41024 3.55038 0
M  V30 73467 C 6964.12 1.78921 4.13882 0
M  V30 73468 C 6962.79 2.16657 4.29666 0
M  V30 73469 C 6965.14 2.69325 4.46222 0
M  V30 73470 C 6962.47 3.44246 4.75091 0
M  V30 73471 C 6964.82 3.96316 4.93069 0
M  V30 73472 C 6963.48 4.34105 5.07059 0
M  V30 73473 H 6962.75 0.119545 0.731293 0
M  V30 73474 H 6965.4 0.978055 1.6464 0
M  V30 73475 H 6963.7 -0.324672 3.90452 0
M  V30 73476 H 6965.4 0.0522814 4.00966 0
M  V30 73477 H 6961.99 1.48591 4.02018 0
M  V30 73478 H 6966.18 2.41432 4.33618 0
M  V30 73479 H 6961.43 3.73427 4.84109 0
M  V30 73480 H 6965.61 4.665 5.1706 0
M  V30 73481 H 6963.23 5.3303 5.42018 0
M  V30 73482 N 6964.81 -1.48938 0.515303 0
M  V30 73483 C 6966.22 -1.86565 0.0711051 0
M  V30 73484 C 6966.57 -1.4263 -1.34726 0
M  V30 73485 O 6965.69 -0.810485 -2.00649 0
M  V30 73486 C 6966.29 -3.38579 0.122261 0
M  V30 73487 C 6964.85 -3.75454 -0.266665 0
M  V30 73488 C 6964 -2.72963 0.48852 0
M  V30 73489 H 6966.95 -1.41051 0.72734 0
M  V30 73490 H 6966.97 -3.74562 -0.66962 0
M  V30 73491 H 6966.48 -3.70525 1.15468 0
M  V30 73492 H 6964.58 -3.4912 -1.30178 0
M  V30 73493 H 6964.69 -4.79059 0.0627337 0
M  V30 73494 H 6963.06 -2.54621 -0.0634279 0
M  V30 73495 H 6963.84 -3.07753 1.52129 0
M  V30 73496 N 6966.29 -0.249764 -1.55608 0
M  V30 73497 C 6967.51 0.381198 -2.03867 0
M  V30 73498 C 6967.94 1.50543 -1.12777 0
M  V30 73499 O 6967.29 1.80894 -0.121284 0
M  V30 73500 C 6967.34 0.863631 -3.50105 0
M  V30 73501 O 6966.45 1.97298 -3.62142 0
M  V30 73502 H 6965.79 0.0826847 -0.658832 0
M  V30 73503 H 6968.32 -0.376658 -2.01103 0
M  V30 73504 H 6968.33 1.1661 -3.90981 0
M  V30 73505 H 6967 0.0409623 -4.1588 0
M  V30 73506 H 6965.58 1.675 -3.33164 0
M  V30 73507 N 6967.76 1.57583 0.0233128 0
M  V30 73508 C 6968.71 2.08029 1.04052 0
M  V30 73509 C 6969.71 0.995276 1.37079 0
M  V30 73510 O 6970.91 1.18012 1.35916 0
M  V30 73511 H 6967.29 0.663941 0.353109 0
M  V30 73512 H 6969.26 2.92523 0.589299 0
M  V30 73513 C 6968.01 2.57983 2.3311 0
M  V30 73514 H 6967.33 3.41091 2.08559 0
M  V30 73515 H 6968.77 2.96983 3.02617 0
M  V30 73516 C 6967.23 1.48358 3.02475 0
M  V30 73517 O 6967.76 0.853105 3.92537 0
M  V30 73518 N 6965.96 1.21672 2.63902 0
M  V30 73519 H 6965.51 1.73126 1.90749 0
M  V30 73520 H 6965.47 0.485382 3.10631 0
M  V30 73521 N 6969.24 -0.295686 1.54801 0
M  V30 73522 C 6970.47 -1.04753 1.78074 0
M  V30 73523 C 6970.88 -1.81242 0.542943 0
M  V30 73524 O 6970.22 -1.7685 -0.496958 0
M  V30 73525 C 6970.28 -2.07045 2.93892 0
M  V30 73526 C 6969.95 -1.49702 4.31785 0
M  V30 73527 C 6970.95 -0.924312 5.11618 0
M  V30 73528 C 6968.63 -1.53105 4.78398 0
M  V30 73529 C 6970.62 -0.393259 6.36186 0
M  V30 73530 C 6968.31 -0.996129 6.02927 0
M  V30 73531 C 6969.31 -0.42821 6.81656 0
M  V30 73532 O 6969 0.0985832 8.0384 0
M  V30 73533 H 6968.73 -0.316195 0.597492 0
M  V30 73534 H 6971.28 -0.338867 2.02585 0
M  V30 73535 H 6969.51 -2.81607 2.65018 0
M  V30 73536 H 6971.2 -2.68174 3.04693 0
M  V30 73537 H 6971.97 -0.890885 4.76748 0
M  V30 73538 H 6967.85 -1.96248 4.17142 0
M  V30 73539 H 6971.39 0.0506692 6.97582 0
M  V30 73540 H 6967.29 -1.02672 6.37282 0
M  V30 73541 H 6968.06 -0.0142139 8.18499 0
M  V30 73542 N 6970.72 -1.47348 -0.559135 0
M  V30 73543 C 6971.97 -1.55086 -1.31606 0
M  V30 73544 C 6972.32 -0.209523 -1.91256 0
M  V30 73545 O 6971.61 0.784564 -1.748 0
M  V30 73546 C 6971.81 -2.60363 -2.44839 0
M  V30 73547 C 6971.64 -4.04602 -1.96284 0
M  V30 73548 C 6970.41 -4.7207 -1.80216 0
M  V30 73549 C 6972.6 -4.91681 -1.50846 0
M  V30 73550 N 6970.59 -6.00835 -1.2598 0
M  V30 73551 C 6971.96 -6.10457 -1.08362 0
M  V30 73552 C 6974.01 -4.78139 -1.3888 0
M  V30 73553 C 6972.72 -7.17186 -0.551021 0
M  V30 73554 C 6974.74 -5.84963 -0.87021 0
M  V30 73555 C 6974.1 -7.02927 -0.45529 0
M  V30 73556 H 6970.2 -0.622215 -0.473679 0
M  V30 73557 H 6972.79 -1.84088 -0.634006 0
M  V30 73558 H 6970.96 -2.33231 -3.10577 0
M  V30 73559 H 6972.69 -2.57955 -3.11836 0
M  V30 73560 H 6969.44 -4.27948 -2.02873 0
M  V30 73561 H 6969.87 -6.6943 -1.00956 0
M  V30 73562 H 6974.51 -3.87306 -1.69571 0
M  V30 73563 H 6972.23 -8.07768 -0.231733 0
M  V30 73564 H 6975.81 -5.76531 -0.781203 0
M  V30 73565 H 6974.69 -7.84177 -0.0602279 0
M  V30 73566 N 6972.2 0.80571 -1.35448 0
M  V30 73567 C 6973.47 1.5498 -1.19333 0
M  V30 73568 C 6973.85 2.09874 0.227183 0
M  V30 73569 O 6973.2 1.92519 1.2308 0
M  V30 73570 C 6973.41 2.65763 -2.2621 0
M  V30 73571 C 6974.76 3.3408 -2.62061 0
M  V30 73572 O 6975.78 2.76034 -2.2513 0
M  V30 73573 O 6974.64 4.38941 -3.25566 0
M  V30 73574 H 6971.74 0.684799 -0.463659 0
M  V30 73575 H 6974.28 0.845596 -1.47132 0
M  V30 73576 H 6973.06 2.23079 -3.21483 0
M  V30 73577 H 6972.68 3.43819 -1.99686 0
M  V30 73578 N 6973.68 1.1946 1.02797 0
M  V30 73579 C 6974.62 0.933157 2.11094 0
M  V30 73580 C 6975.59 -0.13236 1.65572 0
M  V30 73581 O 6976.78 0.00997637 1.90797 0
M  V30 73582 C 6973.92 0.478928 3.41761 0
M  V30 73583 C 6973.03 1.61131 4.00825 0
M  V30 73584 C 6972.17 1.10853 5.19505 0
M  V30 73585 C 6971.2 2.21475 5.70627 0
M  V30 73586 N 6970.34 1.72497 6.8058 0
M  V30 73587 H 6975.18 1.8604 2.32794 0
M  V30 73588 H 6972.72 0.927501 1.14175 0
M  V30 73589 H 6974.68 0.196965 4.16735 0
M  V30 73590 H 6973.31 -0.411324 3.20169 0
M  V30 73591 H 6972.36 2.00846 3.23056 0
M  V30 73592 H 6973.67 2.44472 4.34781 0
M  V30 73593 H 6972.82 0.78185 6.01641 0
M  V30 73594 H 6971.56 0.244863 4.87085 0
M  V30 73595 H 6970.57 2.54972 4.87103 0
M  V30 73596 H 6971.79 3.08299 6.05086 0
M  V30 73597 H 6969.74 0.884399 6.50011 0
M  V30 73598 H 6969.66 2.49427 7.13668 0
M  V30 73599 H 6970.92 1.42795 7.66309 0
M  V30 73600 N 6975.15 -1.2192 0.99866 0
M  V30 73601 C 6976.4 -1.90821 0.677764 0
M  V30 73602 C 6976.73 -1.77698 -0.790811 0
M  V30 73603 O 6975.98 -1.14358 -1.58811 0
M  V30 73604 C 6976.28 -3.42035 1.03666 0
M  V30 73605 C 6975.95 -3.75351 2.49845 0
M  V30 73606 C 6974.61 -3.84155 2.89791 0
M  V30 73607 C 6976.96 -3.91055 3.44566 0
M  V30 73608 C 6974.29 -4.06105 4.23434 0
M  V30 73609 C 6976.64 -4.1451 4.77875 0
M  V30 73610 C 6975.31 -4.21539 5.17553 0
M  V30 73611 H 6974.58 -0.698263 0.248011 0
M  V30 73612 H 6977.22 -1.44565 1.25592 0
M  V30 73613 H 6975.53 -3.89985 0.376662 0
M  V30 73614 H 6977.23 -3.9361 0.76632 0
M  V30 73615 H 6973.82 -3.69085 2.17885 0
M  V30 73616 H 6978 -3.83626 3.14873 0
M  V30 73617 H 6973.26 -4.09775 4.53756 0
M  V30 73618 H 6977.43 -4.25604 5.51212 0
M  V30 73619 H 6975.06 -4.383 6.21125 0
M  V30 73620 N 6976.63 -0.772586 -1.37364 0
M  V30 73621 C 6977.88 -0.337787 -1.99967 0
M  V30 73622 C 6978.21 1.08313 -1.61189 0
M  V30 73623 O 6977.49 1.74529 -0.858487 0
M  V30 73624 C 6977.77 -0.48231 -3.56855 0
M  V30 73625 C 6977.62 -1.9457 -4.0554 0
M  V30 73626 C 6978.94 0.112911 -4.39955 0
M  V30 73627 H 6976.06 -0.124209 -0.726458 0
M  V30 73628 H 6978.7 -0.975785 -1.63029 0
M  V30 73629 H 6976.85 0.0608312 -3.88452 0
M  V30 73630 H 6978.52 -2.54861 -3.84504 0
M  V30 73631 H 6976.77 -2.45422 -3.57702 0
M  V30 73632 H 6977.44 -1.99787 -5.14577 0
M  V30 73633 H 6979.91 -0.350529 -4.14621 0
M  V30 73634 H 6978.79 -0.0183408 -5.48897 0
M  V30 73635 H 6979.05 1.20331 -4.25409 0
M  V30 73636 N 6978.11 1.48662 -0.523194 0
M  V30 73637 C 6979.06 2.29514 0.243277 0
M  V30 73638 C 6980.03 1.36938 0.940066 0
M  V30 73639 O 6981.21 1.65901 0.942416 0
M  V30 73640 C 6978.35 3.20148 1.28838 0
M  V30 73641 C 6977.47 4.27797 0.601125 0
M  V30 73642 C 6976.6 5.05619 1.62858 0
M  V30 73643 C 6975.64 6.05079 0.924407 0
M  V30 73644 N 6974.78 6.75985 1.89708 0
M  V30 73645 H 6979.62 2.94546 -0.452389 0
M  V30 73646 H 6977.15 1.45212 -0.234935 0
M  V30 73647 H 6979.11 3.71089 1.90654 0
M  V30 73648 H 6977.74 2.57054 1.95252 0
M  V30 73649 H 6976.79 3.80175 -0.130823 0
M  V30 73650 H 6978.11 4.98777 0.0478955 0
M  V30 73651 H 6977.26 5.6054 2.3212 0
M  V30 73652 H 6976 4.34463 2.21569 0
M  V30 73653 H 6975 5.49369 0.217676 0
M  V30 73654 H 6976.23 6.78231 0.343494 0
M  V30 73655 H 6974.17 6.07584 2.47341 0
M  V30 73656 H 6974.09 7.43016 1.39511 0
M  V30 73657 H 6975.36 7.35498 2.5819 0
M  V30 73658 N 6979.59 0.258013 1.55474 0
M  V30 73659 C 6981 -0.0965723 1.59308 0
M  V30 73660 C 6981.2 -1.56014 1.27523 0
M  V30 73661 O 6980.26 -2.30632 1.02787 0
M  V30 73662 C 6981.57 0.262639 2.99551 0
M  V30 73663 C 6983.12 0.207848 3.12309 0
M  V30 73664 C 6983.6 0.541252 4.54791 0
M  V30 73665 N 6985.09 0.492164 4.60578 0
M  V30 73666 C 6985.82 0.723157 5.68822 0
M  V30 73667 N 6985.32 1.01786 6.85282 0
M  V30 73668 N 6987.11 0.65311 5.58293 0
M  V30 73669 H 6979.26 1.21233 1.74402 0
M  V30 73670 H 6981.53 0.488583 0.812398 0
M  V30 73671 H 6981.23 1.27984 3.27586 0
M  V30 73672 H 6981.11 -0.404882 3.75021 0
M  V30 73673 H 6983.49 -0.800045 2.84048 0
M  V30 73674 H 6983.57 0.909381 2.3909 0
M  V30 73675 H 6983.22 1.54675 4.83775 0
M  V30 73676 H 6983.15 -0.181883 5.26286 0
M  V30 73677 H 6985.64 0.273564 3.76909 0
M  V30 73678 H 6985.95 1.18124 7.63719 0
M  V30 73679 H 6984.3 1.05546 6.86939 0
M  V30 73680 H 6987.49 0.422838 4.66186 0
M  V30 73681 H 6987.66 0.836521 6.42578 0
M  V30 73682 N 6981.07 -1.57593 -0.0149554 0
M  V30 73683 C 6982.01 -2.07472 -1.01115 0
M  V30 73684 C 6982.98 -0.966865 -1.35059 0
M  V30 73685 O 6984.17 -1.23835 -1.45154 0
M  V30 73686 C 6981.31 -2.57047 -2.30263 0
M  V30 73687 C 6980.42 -3.81677 -2.02353 0
M  V30 73688 C 6979.56 -4.1981 -3.25473 0
M  V30 73689 C 6978.6 -5.37318 -2.93182 0
M  V30 73690 N 6977.73 -5.70816 -4.08796 0
M  V30 73691 H 6982.57 -2.92324 -0.578856 0
M  V30 73692 H 6980.11 -1.44522 -0.274184 0
M  V30 73693 H 6982.07 -2.83862 -3.05742 0
M  V30 73694 H 6980.7 -1.75091 -2.71188 0
M  V30 73695 H 6979.75 -3.61861 -1.17308 0
M  V30 73696 H 6981.06 -4.67265 -1.74542 0
M  V30 73697 H 6980.22 -4.47829 -4.0931 0
M  V30 73698 H 6978.95 -3.32901 -3.5641 0
M  V30 73699 H 6977.96 -5.09038 -2.0775 0
M  V30 73700 H 6979.18 -6.25891 -2.63509 0
M  V30 73701 H 6977.13 -4.86865 -4.39657 0
M  V30 73702 H 6977.05 -6.50944 -3.84457 0
M  V30 73703 H 6978.32 -6.03418 -4.93464 0
M  V30 73704 N 6982.54 0.287472 -1.54956 0
M  V30 73705 C 6983.79 1.02248 -1.75138 0
M  V30 73706 C 6984.12 1.86455 -0.542956 0
M  V30 73707 O 6983.4 1.88988 0.459756 0
M  V30 73708 C 6983.68 1.91717 -3.04822 0
M  V30 73709 C 6983.53 1.10599 -4.35991 0
M  V30 73710 C 6984.85 2.90669 -3.30453 0
M  V30 73711 H 6981.97 0.370308 -0.637214 0
M  V30 73712 H 6984.61 0.296013 -1.8768 0
M  V30 73713 H 6982.76 2.53659 -2.9426 0
M  V30 73714 H 6984.44 0.508394 -4.5849 0
M  V30 73715 H 6982.68 0.409043 -4.31867 0
M  V30 73716 H 6983.35 1.76485 -5.23027 0
M  V30 73717 H 6985.83 2.38859 -3.40714 0
M  V30 73718 H 6984.7 3.50424 -4.22485 0
M  V30 73719 H 6984.96 3.6504 -2.49396 0
M  V30 73720 N 6984.02 1.47642 0.551313 0
M  V30 73721 C 6984.95 1.63454 1.66749 0
M  V30 73722 C 6985.93 0.483828 1.63074 0
M  V30 73723 O 6987.12 0.713865 1.80603 0
M  V30 73724 C 6984.25 1.65412 3.05379 0
M  V30 73725 C 6983.2 2.79769 3.23903 0
M  V30 73726 C 6982.53 2.66804 4.63379 0
M  V30 73727 C 6983.83 4.213 3.08713 0
M  V30 73728 H 6985.52 2.56894 1.53772 0
M  V30 73729 H 6983.07 1.2363 0.73835 0
M  V30 73730 H 6985.02 1.75064 3.83315 0
M  V30 73731 H 6983.75 0.685363 3.19328 0
M  V30 73732 H 6982.4 2.69638 2.48377 0
M  V30 73733 H 6982.05 1.67943 4.74135 0
M  V30 73734 H 6981.75 3.43526 4.76721 0
M  V30 73735 H 6983.28 2.78392 5.43443 0
M  V30 73736 H 6984.69 4.32377 3.76461 0
M  V30 73737 H 6983.09 4.98855 3.33562 0
M  V30 73738 H 6984.16 4.39254 2.05387 0
M  V30 73739 N 6985.5 -0.798516 1.35873 0
M  V30 73740 C 6986.78 -1.54345 1.20154 0
M  V30 73741 C 6987.16 -2.09992 -0.21605 0
M  V30 73742 O 6986.51 -1.93169 -1.22058 0
M  V30 73743 C 6986.72 -2.6456 2.27616 0
M  V30 73744 C 6988.06 -3.32685 2.63829 0
M  V30 73745 O 6989.09 -2.74837 2.2659 0
M  V30 73746 O 6987.95 -4.37208 3.27889 0
M  V30 73747 H 6985.04 -0.68233 0.467284 0
M  V30 73748 H 6987.59 -0.837781 1.47578 0
M  V30 73749 H 6986.36 -2.21371 3.22662 0
M  V30 73750 H 6985.98 -3.42755 2.01506 0
M  V30 73751 N 6986.98 -1.20003 -1.02162 0
M  V30 73752 C 6987.93 -0.944339 -2.10597 0
M  V30 73753 C 6988.9 0.123577 -1.6564 0
M  V30 73754 O 6990.08 -0.0200947 -1.90789 0
M  V30 73755 C 6987.22 -0.497045 -3.41502 0
M  V30 73756 C 6986.33 -1.63255 -3.99965 0
M  V30 73757 C 6985.47 -1.13606 -5.18909 0
M  V30 73758 C 6984.51 -2.24498 -5.69444 0
M  V30 73759 N 6983.64 -1.76104 -6.79656 0
M  V30 73760 H 6988.48 -1.87272 -2.31804 0
M  V30 73761 H 6986.02 -0.933543 -1.13681 0
M  V30 73762 H 6987.98 -0.219063 -4.16624 0
M  V30 73763 H 6986.61 0.394339 -3.20382 0
M  V30 73764 H 6985.66 -2.02557 -3.21986 0
M  V30 73765 H 6986.97 -2.46775 -4.33479 0
M  V30 73766 H 6986.13 -0.813746 -6.01218 0
M  V30 73767 H 6984.87 -0.27069 -4.86948 0
M  V30 73768 H 6983.87 -2.57552 -4.85744 0
M  V30 73769 H 6985.1 -3.11503 -6.03442 0
M  V30 73770 H 6983.04 -0.918858 -6.49533 0
M  V30 73771 H 6982.96 -2.53208 -7.12335 0
M  V30 73772 H 6984.23 -1.46857 -7.65541 0
M  V30 73773 N 6988.46 1.21389 -1.00511 0
M  V30 73774 C 6989.41 2.21595 -0.536619 0
M  V30 73775 C 6990.39 1.55802 0.401832 0
M  V30 73776 O 6991.58 1.75543 0.226665 0
M  V30 73777 C 6988.71 3.43033 0.135265 0
M  V30 73778 C 6987.8 4.16014 -0.824212 0
M  V30 73779 N 6988.19 4.65559 -1.97708 0
M  V30 73780 C 6986.49 4.41346 -0.642619 0
M  V30 73781 C 6987.19 5.2134 -2.5803 0
M  V30 73782 N 6986.16 5.1072 -1.86189 0
M  V30 73783 H 6989.97 2.57556 -1.4157 0
M  V30 73784 H 6987.48 1.37197 -0.868951 0
M  V30 73785 H 6989.48 4.1403 0.488365 0
M  V30 73786 H 6988.14 3.08581 1.01033 0
M  V30 73787 H 6989.15 4.61135 -2.35744 0
M  V30 73788 H 6985.82 4.17088 0.185358 0
M  V30 73789 H 6987.21 5.7013 -3.5553 0
M  V30 73790 N 6989.93 0.77986 1.36952 0
M  V30 73791 C 6991.18 0.347184 1.99096 0
M  V30 73792 C 6991.5 -1.08224 1.62212 0
M  V30 73793 O 6990.77 -1.74441 0.891465 0
M  V30 73794 H 6989.35 0.125381 0.736402 0
M  V30 73795 H 6992.02 0.999784 1.67303 0
M  V30 73796 H 6991.11 0.431325 3.09105 0
M  V30 73797 N 6991.41 -1.48383 0.531071 0
M  V30 73798 C 6992.69 -1.95485 -0.0670757 0
M  V30 73799 C 6993.07 -1.47332 -1.51183 0
M  V30 73800 O 6992.42 -0.700316 -2.17504 0
M  V30 73801 C 6992.63 -3.48962 0.0513046 0
M  V30 73802 C 6993.98 -4.24464 -0.107408 0
M  V30 73803 O 6995 -3.56193 -0.022437 0
M  V30 73804 O 6993.86 -5.45753 -0.285684 0
M  V30 73805 H 6990.95 -0.823247 -0.078693 0
M  V30 73806 H 6993.5 -1.58899 0.595746 0
M  V30 73807 H 6992.27 -3.76735 1.05767 0
M  V30 73808 H 6991.89 -3.92246 -0.650318 0
M  V30 73809 N 6992.89 -0.266254 -1.55335 0
M  V30 73810 C 6994.14 0.353644 -1.98576 0
M  V30 73811 C 6994.45 1.5764 -1.15798 0
M  V30 73812 O 6995.66 2.26868 -1.49141 0
M  V30 73813 C 6994.12 0.680561 -3.53407 0
M  V30 73814 C 6993.72 -0.521885 -4.4495 0
M  V30 73815 C 6995.47 1.26358 -4.05258 0
M  V30 73816 C 6993.37 -0.170047 -5.91155 0
M  V30 73817 H 6992.3 0.13591 -0.74165 0
M  V30 73818 H 6994.96 -0.369516 -1.79741 0
M  V30 73819 H 6993.34 1.46238 -3.68009 0
M  V30 73820 H 6994.51 -1.29892 -4.42114 0
M  V30 73821 H 6992.83 -1.02114 -4.03685 0
M  V30 73822 H 6995.42 1.54047 -5.12029 0
M  V30 73823 H 6995.77 2.19452 -3.5376 0
M  V30 73824 H 6996.3 0.544239 -3.94059 0
M  V30 73825 H 6993.04 -1.06864 -6.46731 0
M  V30 73826 H 6992.56 0.570402 -5.97082 0
M  V30 73827 H 6994.24 0.240905 -6.46551 0
M  V30 73828 N 6994.37 1.57599 0.00659769 0
M  V30 73829 C 6995.6 1.94273 0.702964 0
M  V30 73830 C 6996.01 0.86631 1.68201 0
M  V30 73831 O 6995.35 -0.163991 1.82967 0
M  V30 73832 C 6995.41 3.26895 1.49599 0
M  V30 73833 C 6995.08 4.51924 0.679255 0
M  V30 73834 C 6996.07 5.19891 -0.0302249 0
M  V30 73835 C 6993.76 4.98369 0.62717 0
M  V30 73836 C 6995.75 6.32599 -0.780848 0
M  V30 73837 C 6993.44 6.10968 -0.127183 0
M  V30 73838 C 6994.44 6.77939 -0.829931 0
M  V30 73839 O 6994.13 7.8838 -1.57199 0
M  V30 73840 H 6993.86 0.645369 0.201183 0
M  V30 73841 H 6996.41 2.05364 -0.0386409 0
M  V30 73842 H 6994.64 3.12194 2.28193 0
M  V30 73843 H 6996.33 3.4873 2.07707 0
M  V30 73844 H 6997.1 4.85 0.000903877 0
M  V30 73845 H 6992.98 4.46071 1.16368 0
M  V30 73846 H 6996.52 6.84806 -1.3299 0
M  V30 73847 H 6992.42 6.45301 -0.160156 0
M  V30 73848 H 6993.18 8.04861 -1.48801 0
M  V30 73849 N 6995.85 -0.279251 1.55106 0
M  V30 73850 C 6997.1 -1.00968 1.75071 0
M  V30 73851 C 6997.42 -1.87042 0.551374 0
M  V30 73852 O 6996.69 -1.91035 -0.433883 0
M  V30 73853 H 6995.27 -0.375782 0.645598 0
M  V30 73854 H 6997.93 -0.304988 1.92499 0
M  V30 73855 H 6997.02 -1.65024 2.64903 0
M  V30 73856 N 6997.33 -1.47933 -0.543476 0
M  V30 73857 C 6998.74 -1.33755 -0.870736 0
M  V30 73858 C 6998.94 -0.338365 -1.98639 0
M  V30 73859 O 6998 0.245238 -2.51306 0
M  V30 73860 C 6999.31 -2.73442 -1.251 0
M  V30 73861 C 7000.86 -2.8183 -1.36165 0
M  V30 73862 C 7001.33 -4.22189 -1.77541 0
M  V30 73863 N 7002.82 -4.24797 -1.84667 0
M  V30 73864 C 7003.56 -5.30327 -2.18039 0
M  V30 73865 N 7003.06 -6.46148 -2.49929 0
M  V30 73866 N 7004.85 -5.17712 -2.1893 0
M  V30 73867 H 6997 -2.11523 0.192861 0
M  V30 73868 H 6999.26 -0.947706 0.0236277 0
M  V30 73869 H 6998.97 -3.48056 -0.504956 0
M  V30 73870 H 6998.84 -3.061 -2.20415 0
M  V30 73871 H 7001.23 -2.0748 -2.09848 0
M  V30 73872 H 7001.31 -2.52809 -0.390035 0
M  V30 73873 H 7000.95 -4.9705 -1.04423 0
M  V30 73874 H 7000.88 -4.48644 -2.75729 0
M  V30 73875 H 7003.38 -3.41247 -1.62354 0
M  V30 73876 H 7003.69 -7.22421 -2.74459 0
M  V30 73877 H 7002.03 -6.49446 -2.47478 0
M  V30 73878 H 7005.22 -4.2625 -1.93465 0
M  V30 73879 H 7005.4 -6.00059 -2.44607 0
M  V30 73880 N 6998.8 0.791299 -1.36295 0
M  V30 73881 C 6999.71 1.9352 -1.32616 0
M  V30 73882 C 7000.73 1.72491 -0.228632 0
M  V30 73883 O 7001.91 1.96061 -0.460674 0
M  V30 73884 C 6998.97 3.28353 -1.11289 0
M  V30 73885 C 6998.03 3.62172 -2.30499 0
M  V30 73886 C 6997.26 4.90571 -2.10179 0
M  V30 73887 O 6997.49 5.60159 -1.07601 0
M  V30 73888 O 6996.42 5.23003 -2.97911 0
M  V30 73889 H 7000.25 1.99573 -2.2892 0
M  V30 73890 H 6997.83 0.931282 -1.16822 0
M  V30 73891 H 6999.71 4.09042 -1.01305 0
M  V30 73892 H 6998.39 3.23197 -0.180463 0
M  V30 73893 H 6997.3 2.81798 -2.46051 0
M  V30 73894 H 6998.63 3.72051 -3.22241 0
M  V30 73895 N 7000.28 1.20543 1.01524 0
M  V30 73896 C 7001.7 0.960578 1.27456 0
M  V30 73897 C 7001.9 -0.359089 1.98275 0
M  V30 73898 O 7000.95 -1.08728 2.27891 0
M  V30 73899 C 7002.27 2.14413 2.10826 0
M  V30 73900 C 7003.81 2.18527 2.24087 0
M  V30 73901 C 7004.29 3.36372 3.10835 0
M  V30 73902 N 7005.78 3.36394 3.18423 0
M  V30 73903 C 7006.52 4.24225 3.85773 0
M  V30 73904 N 7006.01 5.22237 4.55237 0
M  V30 73905 N 7007.8 4.12063 3.8231 0
M  V30 73906 H 6999.96 2.05426 0.539799 0
M  V30 73907 H 7002.22 0.898988 0.300872 0
M  V30 73908 H 7001.92 3.09991 1.66127 0
M  V30 73909 H 7001.8 2.1262 3.11564 0
M  V30 73910 H 7004.19 1.23511 2.6801 0
M  V30 73911 H 7004.27 2.24368 1.22853 0
M  V30 73912 H 7003.91 4.31675 2.67618 0
M  V30 73913 H 7003.84 3.27768 4.1216 0
M  V30 73914 H 7006.33 2.65456 2.68964 0
M  V30 73915 H 7006.64 5.85578 5.043 0
M  V30 73916 H 7004.99 5.26172 4.54057 0
M  V30 73917 H 7008.18 3.34761 3.27189 0
M  V30 73918 H 7008.35 4.80723 4.34522 0
M  V30 73919 N 7001.76 -1.20854 1.01154 0
M  V30 73920 C 7003.01 -1.8941 0.693314 0
M  V30 73921 C 7003.32 -1.7938 -0.779874 0
M  V30 73922 O 7004.53 -2.43024 -1.21045 0
M  V30 73923 C 7002.98 -3.39669 1.18967 0
M  V30 73924 C 7002.59 -3.58295 2.6894 0
M  V30 73925 C 7004.34 -4.1381 0.946638 0
M  V30 73926 C 7002.24 -5.02353 3.12082 0
M  V30 73927 H 7001.17 -0.709343 0.255633 0
M  V30 73928 H 7003.82 -1.36753 1.22356 0
M  V30 73929 H 7002.21 -3.91619 0.587435 0
M  V30 73930 H 7003.38 -3.16754 3.34669 0
M  V30 73931 H 7001.69 -2.97517 2.9133 0
M  V30 73932 H 7004.29 -5.20017 1.24445 0
M  V30 73933 H 7004.63 -4.16136 -0.117 0
M  V30 73934 H 7005.17 -3.67945 1.51199 0
M  V30 73935 H 7001.91 -5.0518 4.17701 0
M  V30 73936 H 7001.43 -5.44724 2.5107 0
M  V30 73937 H 7003.11 -5.70902 3.04433 0
M  V30 73938 N 7003.24 -0.787112 -1.36537 0
M  V30 73939 C 7004.2 -0.189899 -2.28412 0
M  V30 73940 C 7005.2 0.61142 -1.48722 0
M  V30 73941 O 7006.39 0.432753 -1.68739 0
M  V30 73942 C 7003.52 0.737463 -3.32828 0
M  V30 73943 H 7004.72 -0.999981 -2.82737 0
M  V30 73944 H 7002.27 -0.556375 -1.46062 0
M  V30 73945 H 7003 1.57197 -2.83654 0
M  V30 73946 H 7002.79 0.164838 -3.91753 0
M  V30 73947 H 7004.28 1.15026 -4.01446 0
M  V30 73948 N 7004.72 1.48099 -0.538933 0
M  V30 73949 C 7005.63 2.33542 0.222525 0
M  V30 73950 C 7006.64 1.47052 0.930147 0
M  V30 73951 O 7007.82 1.80016 0.903116 0
M  V30 73952 C 7004.88 3.23364 1.25047 0
M  V30 73953 C 7003.94 4.25733 0.552244 0
M  V30 73954 C 7003.18 5.11263 1.53122 0
M  V30 73955 O 7003.4 4.98924 2.76461 0
M  V30 73956 O 7002.33 5.9239 1.06571 0
M  V30 73957 H 7006.16 2.99917 -0.477865 0
M  V30 73958 H 7003.74 1.46362 -0.299746 0
M  V30 73959 H 7005.63 3.78898 1.8443 0
M  V30 73960 H 7004.3 2.59639 1.93311 0
M  V30 73961 H 7003.21 3.74009 -0.0823112 0
M  V30 73962 H 7004.54 4.9212 -0.0886121 0
M  V30 73963 N 7006.19 0.274488 1.55191 0
M  V30 73964 C 7007.12 -0.606913 2.25475 0
M  V30 73965 C 7008.11 -1.15939 1.24467 0
M  V30 73966 O 7009.29 -1.19365 1.53185 0
M  V30 73967 C 7006.42 -1.79137 2.97535 0
M  V30 73968 C 7005.37 -1.37045 4.05466 0
M  V30 73969 C 7004.7 -2.63795 4.65098 0
M  V30 73970 C 7006 -0.521115 5.19694 0
M  V30 73971 H 7007.69 -0.0207765 2.99393 0
M  V30 73972 H 7005.24 -0.00855272 1.43997 0
M  V30 73973 H 7007.19 -2.41385 3.45414 0
M  V30 73974 H 7005.92 -2.40333 2.21151 0
M  V30 73975 H 7004.58 -0.771166 3.58397 0
M  V30 73976 H 7004.22 -3.23248 3.85383 0
M  V30 73977 H 7003.92 -2.36344 5.37973 0
M  V30 73978 H 7005.45 -3.26894 5.15726 0
M  V30 73979 H 7006.86 -1.04859 5.63629 0
M  V30 73980 H 7005.26 -0.341509 5.99127 0
M  V30 73981 H 7006.33 0.460255 4.82711 0
M  V30 73982 N 7007.67 -1.576 0.00176024 0
M  V30 73983 C 7008.6 -2.11568 -0.987979 0
M  V30 73984 C 7009.58 -1.02524 -1.35731 0
M  V30 73985 O 7010.77 -1.30216 -1.44075 0
M  V30 73986 C 7007.9 -2.62043 -2.27927 0
M  V30 73987 C 7006.85 -3.75629 -2.0515 0
M  V30 73988 C 7006.18 -4.12425 -3.40308 0
M  V30 73989 C 7007.48 -5.02833 -1.41267 0
M  V30 73990 H 7009.17 -2.94515 -0.538616 0
M  V30 73991 H 7006.72 -1.41677 -0.257637 0
M  V30 73992 H 7008.67 -2.98426 -2.97523 0
M  V30 73993 H 7007.4 -1.7622 -2.7498 0
M  V30 73994 H 7006.05 -3.39643 -1.3798 0
M  V30 73995 H 7005.7 -3.23623 -3.85068 0
M  V30 73996 H 7005.4 -4.88952 -3.25883 0
M  V30 73997 H 7006.93 -4.51368 -4.11216 0
M  V30 73998 H 7008.34 -5.36976 -2.00823 0
M  V30 73999 H 7006.74 -5.84176 -1.37325 0
M  V30 74000 H 7007.81 -4.83392 -0.382108 0
M  V30 74001 N 7009.15 0.271021 -1.55252 0
M  V30 74002 C 7010.4 1.00038 -1.75604 0
M  V30 74003 C 7010.72 1.86747 -0.561286 0
M  V30 74004 O 7009.99 1.91262 0.423746 0
M  V30 74005 H 7008.57 0.372353 -0.647582 0
M  V30 74006 H 7011.23 0.294775 -1.92658 0
M  V30 74007 H 7010.33 1.63616 -2.65774 0
M  V30 74008 N 7010.63 1.48219 0.535623 0
M  V30 74009 C 7011.56 1.56885 1.65718 0
M  V30 74010 C 7012.54 0.419625 1.57092 0
M  V30 74011 O 7013.72 0.630446 1.77645 0
M  V30 74012 C 7010.85 1.49158 3.04088 0
M  V30 74013 C 7009.9 2.68852 3.31091 0
M  V30 74014 S 7010.73 4.30871 3.17979 0
M  V30 74015 C 7011.89 4.25733 4.58805 0
M  V30 74016 H 7012.12 2.51767 1.58116 0
M  V30 74017 H 7009.65 1.36682 0.718146 0
M  V30 74018 H 7011.61 1.45387 3.83892 0
M  V30 74019 H 7010.27 0.55623 3.09136 0
M  V30 74020 H 7009.46 2.59568 4.32019 0
M  V30 74021 H 7009.07 2.69856 2.58947 0
M  V30 74022 H 7011.36 3.95318 5.50209 0
M  V30 74023 H 7012.3 5.26821 4.73144 0
M  V30 74024 H 7012.71 3.5628 4.37864 0
M  V30 74025 N 7012.11 -0.78406 1.36712 0
M  V30 74026 C 7013.38 -1.53062 1.21784 0
M  V30 74027 C 7013.76 -2.10209 -0.193765 0
M  V30 74028 O 7013.11 -1.94453 -1.20002 0
M  V30 74029 C 7013.32 -2.62131 2.30409 0
M  V30 74030 C 7014.67 -3.29868 2.67343 0
M  V30 74031 O 7015.69 -2.72418 2.29493 0
M  V30 74032 O 7014.55 -4.33706 3.32508 0
M  V30 74033 H 7011.65 -0.677336 0.474495 0
M  V30 74034 H 7014.19 -0.822082 1.48458 0
M  V30 74035 H 7012.96 -2.17936 3.24992 0
M  V30 74036 H 7012.59 -3.40599 2.0513 0
M  V30 74037 N 7013.58 -1.2108 -1.00883 0
M  V30 74038 C 7014.51 -0.990634 -2.11444 0
M  V30 74039 C 7015.5 0.0830803 -1.69897 0
M  V30 74040 O 7016.68 -0.0759876 -1.94051 0
M  V30 74041 C 7013.81 -0.550358 -3.42912 0
M  V30 74042 C 7012.76 -1.5682 -3.98236 0
M  V30 74043 C 7012.09 -0.98429 -5.25562 0
M  V30 74044 C 7013.39 -2.95403 -4.30737 0
M  V30 74045 H 7015.08 -1.91533 -2.3012 0
M  V30 74046 H 7012.63 -0.922308 -1.10587 0
M  V30 74047 H 7014.58 -0.383526 -4.19651 0
M  V30 74048 H 7013.31 0.409979 -3.24017 0
M  V30 74049 H 7011.97 -1.72253 -3.23612 0
M  V30 74050 H 7011.61 -0.0157868 -5.02998 0
M  V30 74051 H 7011.31 -1.66414 -5.63543 0
M  V30 74052 H 7012.84 -0.828697 -6.0495 0
M  V30 74053 H 7014.25 -2.83437 -4.98334 0
M  V30 74054 H 7012.65 -3.60366 -4.7985 0
M  V30 74055 H 7013.72 -3.46539 -3.39174 0
M  V30 74056 N 7015.06 1.20316 -1.01793 0
M  V30 74057 C 7016.03 2.21367 -0.594089 0
M  V30 74058 C 7017.03 1.5724 0.33647 0
M  V30 74059 O 7018.22 1.73751 0.124977 0
M  V30 74060 C 7015.35 3.40643 0.132254 0
M  V30 74061 H 7016.54 2.60379 -1.48805 0
M  V30 74062 H 7014.09 1.33802 -0.807873 0
M  V30 74063 H 7014.83 3.07136 1.04106 0
M  V30 74064 H 7014.61 3.88416 -0.536255 0
M  V30 74065 H 7016.1 4.15522 0.416095 0
M  V30 74066 N 7016.54 0.794341 1.36118 0
M  V30 74067 C 7017.77 0.381096 2.0336 0
M  V30 74068 C 7018.18 -1.00408 1.59887 0
M  V30 74069 O 7017.54 -1.64486 0.790602 0
M  V30 74070 C 7017.59 0.440838 3.58802 0
M  V30 74071 O 7017.31 1.77139 4.00691 0
M  V30 74072 C 7018.81 0.0188455 4.43296 0
M  V30 74073 H 7016.03 0.156402 0.652518 0
M  V30 74074 H 7018.58 1.07456 1.73993 0
M  V30 74075 H 7016.73 -0.204254 3.86861 0
M  V30 74076 H 7017.15 1.72564 4.953 0
M  V30 74077 H 7018.62 0.111779 5.51887 0
M  V30 74078 H 7019.1 -1.03438 4.26846 0
M  V30 74079 H 7019.7 0.636617 4.20508 0
M  V30 74080 N 7018.02 -1.47811 0.546779 0
M  V30 74081 C 7018.95 -2.32683 -0.195194 0
M  V30 74082 C 7019.93 -1.43144 -0.918906 0
M  V30 74083 O 7021.11 -1.72012 -0.90141 0
M  V30 74084 C 7018.24 -3.24706 -1.2322 0
M  V30 74085 C 7017.2 -4.23403 -0.625595 0
M  V30 74086 C 7016.52 -5.04678 -1.76647 0
M  V30 74087 C 7017.82 -5.20658 0.413789 0
M  V30 74088 H 7019.52 -2.94966 0.51334 0
M  V30 74089 H 7017.06 -1.41843 0.248315 0
M  V30 74090 H 7019.02 -3.82916 -1.75935 0
M  V30 74091 H 7017.74 -2.60456 -1.97053 0
M  V30 74092 H 7016.4 -3.66404 -0.119829 0
M  V30 74093 H 7016.05 -4.36839 -2.4936 0
M  V30 74094 H 7015.75 -5.71491 -1.36643 0
M  V30 74095 H 7017.27 -5.65744 -2.29708 0
M  V30 74096 H 7018.69 -5.73294 -0.0269019 0
M  V30 74097 H 7017.08 -5.95617 0.732139 0
M  V30 74098 H 7018.15 -4.66771 1.3135 0
M  V30 74099 N 7019.5 -0.282715 -1.55043 0
M  V30 74100 C 7020.41 0.611351 -2.26494 0
M  V30 74101 C 7021.42 1.16377 -1.29354 0
M  V30 74102 O 7022.6 1.19245 -1.62304 0
M  V30 74103 C 7019.66 1.77548 -2.97788 0
M  V30 74104 C 7018.72 1.25897 -4.10425 0
M  V30 74105 C 7017.96 2.36761 -4.78309 0
M  V30 74106 O 7018.18 3.56279 -4.45445 0
M  V30 74107 O 7017.11 2.04487 -5.66099 0
M  V30 74108 H 7020.94 0.0323014 -3.03683 0
M  V30 74109 H 7018.53 -0.0498363 -1.49317 0
M  V30 74110 H 7020.41 2.45409 -3.42567 0
M  V30 74111 H 7019.08 2.34147 -2.2351 0
M  V30 74112 H 7017.99 0.546602 -3.70085 0
M  V30 74113 H 7019.32 0.73863 -4.86626 0
M  V30 74114 N 7020.98 1.57597 -0.0101181 0
M  V30 74115 C 7022.22 1.90182 0.671844 0
M  V30 74116 C 7022.54 0.886223 1.74372 0
M  V30 74117 O 7023.74 1.10265 2.48101 0
M  V30 74118 C 7022.2 3.37636 1.24618 0
M  V30 74119 C 7021.81 4.47514 0.208602 0
M  V30 74120 C 7023.55 3.79317 1.90575 0
M  V30 74121 C 7021.46 5.86052 0.793505 0
M  V30 74122 H 7020.39 0.709678 0.254702 0
M  V30 74123 H 7023.04 1.83357 -0.0723173 0
M  V30 74124 H 7021.42 3.39331 2.04134 0
M  V30 74125 H 7022.6 4.57351 -0.562704 0
M  V30 74126 H 7020.91 4.14917 -0.351108 0
M  V30 74127 H 7023.51 4.80164 2.35259 0
M  V30 74128 H 7023.85 3.13366 2.74057 0
M  V30 74129 H 7024.38 3.79965 1.17778 0
M  V30 74130 H 7021.12 6.555 -0.00275421 0
M  V30 74131 H 7020.64 5.79859 1.53374 0
M  V30 74132 H 7022.32 6.34028 1.28907 0
M  V30 74133 N 7022.45 -0.262784 1.55394 0
M  V30 74134 C 7023.68 -1.01098 1.80518 0
M  V30 74135 C 7024.1 -1.79553 0.583628 0
M  V30 74136 O 7023.45 -1.76929 -0.447492 0
M  V30 74137 C 7023.5 -1.96148 3.03658 0
M  V30 74138 O 7023.23 -1.20871 4.21096 0
M  V30 74139 C 7024.73 -2.82697 3.41463 0
M  V30 74140 H 7021.95 -0.298204 0.601095 0
M  V30 74141 H 7024.49 -0.290475 2.02427 0
M  V30 74142 H 7022.65 -2.63648 2.83846 0
M  V30 74143 H 7023.06 -1.85025 4.90781 0
M  V30 74144 H 7024.53 -3.45169 4.3077 0
M  V30 74145 H 7025.01 -3.52994 2.61327 0
M  V30 74146 H 7025.62 -2.20674 3.6357 0
M  V30 74147 N 7023.93 -1.48501 -0.527755 0
M  V30 74148 C 7024.89 -1.62705 -1.61431 0
M  V30 74149 C 7025.89 -0.500217 -1.52822 0
M  V30 74150 O 7027.08 -0.766058 -1.56452 0
M  V30 74151 C 7024.22 -1.59934 -3.01055 0
M  V30 74152 H 7025.41 -2.59591 -1.50175 0
M  V30 74153 H 7022.96 -1.37131 -0.749983 0
M  V30 74154 H 7023.7 -0.645331 -3.17814 0
M  V30 74155 H 7023.48 -2.41742 -3.08712 0
M  V30 74156 H 7024.97 -1.73071 -3.80048 0
M  V30 74157 N 7025.41 0.776798 -1.37126 0
M  V30 74158 C 7026.36 1.87998 -1.28999 0
M  V30 74159 C 7027.34 1.59903 -0.178849 0
M  V30 74160 O 7028.54 1.72119 -0.412796 0
M  V30 74161 C 7025.66 3.25396 -1.09419 0
M  V30 74162 C 7024.75 3.59459 -2.25055 0
M  V30 74163 N 7025.14 3.6474 -3.50426 0
M  V30 74164 C 7023.44 3.89595 -2.17098 0
M  V30 74165 C 7024.14 3.95406 -4.26649 0
M  V30 74166 N 7023.12 4.11044 -3.5573 0
M  V30 74167 H 7026.92 1.90325 -2.2395 0
M  V30 74168 H 7024.43 0.972983 -1.30026 0
M  V30 74169 H 7026.43 4.0431 -1.01682 0
M  V30 74170 H 7025.09 3.24336 -0.153803 0
M  V30 74171 H 7026.1 3.47071 -3.84399 0
M  V30 74172 H 7022.78 3.96386 -1.31088 0
M  V30 74173 H 7024.17 4.0631 -5.35128 0
M  V30 74174 N 7026.89 1.21613 1.0024 0
M  V30 74175 C 7027.84 0.974801 2.11188 0
M  V30 74176 C 7028.83 -0.0788411 1.69216 0
M  V30 74177 O 7030.04 0.0727754 1.79853 0
M  V30 74178 H 7026.41 0.297989 0.690439 0
M  V30 74179 H 7028.38 1.9165 2.2872 0
M  V30 74180 C 7027.13 0.558898 3.43179 0
M  V30 74181 H 7026.45 1.36129 3.75911 0
M  V30 74182 H 7027.89 0.429376 4.2182 0
M  V30 74183 C 7026.35 -0.730474 3.28886 0
M  V30 74184 O 7026.88 -1.78535 3.59845 0
M  V30 74185 N 7025.09 -0.697983 2.82093 0
M  V30 74186 H 7024.64 0.160746 2.57098 0
M  V30 74187 H 7024.59 -1.56099 2.72911 0
M  V30 74188 N 7028.37 -1.19774 1.0243 0
M  V30 74189 C 7029.28 -2.26503 0.611038 0
M  V30 74190 C 7030.29 -1.70339 -0.355062 0
M  V30 74191 O 7031.47 -2.00259 -0.21409 0
M  V30 74192 C 7028.53 -3.46681 -0.0364093 0
M  V30 74193 C 7027.59 -4.18044 0.97661 0
M  V30 74194 C 7026.83 -5.32485 0.359964 0
M  V30 74195 O 7027.05 -5.64206 -0.838303 0
M  V30 74196 O 7025.98 -5.92122 1.08053 0
M  V30 74197 H 7029.81 -2.64084 1.49979 0
M  V30 74198 H 7027.39 -1.2654 0.794223 0
M  V30 74199 H 7029.28 -4.1952 -0.397638 0
M  V30 74200 H 7027.95 -3.10959 -0.899234 0
M  V30 74201 H 7026.86 -3.47344 1.38934 0
M  V30 74202 H 7028.19 -4.57725 1.80965 0
M  V30 74203 N 7029.84 -0.801549 -1.35694 0
M  V30 74204 C 7031.26 -0.484676 -1.52063 0
M  V30 74205 C 7031.46 0.994992 -1.7522 0
M  V30 74206 O 7030.52 1.78017 -1.79071 0
M  V30 74207 C 7031.83 -1.32566 -2.69901 0
M  V30 74208 C 7033.38 -1.32059 -2.83777 0
M  V30 74209 C 7033.85 -2.14558 -4.04634 0
M  V30 74210 N 7035.34 -2.12068 -4.11803 0
M  V30 74211 C 7036.08 -2.72663 -5.04423 0
M  V30 74212 N 7035.57 -3.42165 -6.02408 0
M  V30 74213 N 7037.37 -2.62331 -4.9713 0
M  V30 74214 H 7029.52 -1.75989 -1.18919 0
M  V30 74215 H 7031.78 -0.748772 -0.581416 0
M  V30 74216 H 7031.49 -2.3755 -2.5935 0
M  V30 74217 H 7031.36 -0.975373 -3.64371 0
M  V30 74218 H 7033.75 -0.278615 -2.93782 0
M  V30 74219 H 7033.83 -1.71072 -1.90179 0
M  V30 74220 H 7033.47 -3.18793 -3.9539 0
M  V30 74221 H 7033.4 -1.72908 -4.97404 0
M  V30 74222 H 7035.89 -1.61494 -3.41655 0
M  V30 74223 H 7036.21 -3.85701 -6.69668 0
M  V30 74224 H 7034.55 -3.46269 -6.02597 0
M  V30 74225 H 7037.74 -2.07625 -4.19535 0
M  V30 74226 H 7037.92 -3.09845 -5.69122 0
M  V30 74227 N 7031.32 1.47519 -0.55461 0
M  V30 74228 C 7032.27 2.29979 0.194539 0
M  V30 74229 C 7033.24 1.38901 0.910808 0
M  V30 74230 O 7034.42 1.67863 0.907014 0
M  V30 74231 C 7031.56 3.22809 1.22018 0
M  V30 74232 C 7030.68 4.28976 0.510248 0
M  V30 74233 C 7029.81 5.0896 1.52096 0
M  V30 74234 C 7028.85 6.06904 0.795853 0
M  V30 74235 N 7027.99 6.79856 1.75327 0
M  V30 74236 H 7032.83 2.9352 -0.514765 0
M  V30 74237 H 7030.36 1.44681 -0.265683 0
M  V30 74238 H 7032.32 3.75049 1.8274 0
M  V30 74239 H 7030.95 2.61137 1.89756 0
M  V30 74240 H 7030 3.79812 -0.211434 0
M  V30 74241 H 7031.32 4.98766 -0.0579133 0
M  V30 74242 H 7030.47 5.65338 2.20178 0
M  V30 74243 H 7029.21 4.39065 2.12304 0
M  V30 74244 H 7028.21 5.49707 0.101098 0
M  V30 74245 H 7029.44 6.78807 0.199553 0
M  V30 74246 H 7027.39 6.12694 2.34397 0
M  V30 74247 H 7027.3 7.45808 1.23719 0
M  V30 74248 H 7028.57 7.4081 2.42531 0
M  V30 74249 N 7032.8 0.290933 1.54891 0
M  V30 74250 C 7034.21 -0.203718 1.85585 0
M  V30 74251 C 7034.56 -1.54216 1.21293 0
M  V30 74252 O 7033.69 -2.10378 0.506952 0
M  V30 74253 C 7034.28 -0.376417 3.36702 0
M  V30 74254 C 7032.84 -0.815291 3.67464 0
M  V30 74255 C 7031.99 0.0822548 2.77178 0
M  V30 74256 H 7034.94 0.512255 1.50205 0
M  V30 74257 H 7034.96 -1.21256 3.60662 0
M  V30 74258 H 7034.47 0.597873 3.83467 0
M  V30 74259 H 7032.57 -1.80049 3.2621 0
M  V30 74260 H 7032.69 -0.641655 4.74784 0
M  V30 74261 H 7031.05 -0.436762 2.50927 0
M  V30 74262 H 7031.83 1.05272 3.26761 0
M  V30 74263 N 7034.28 -1.57589 0.0184757 0
M  V30 74264 C 7035.23 -2.10714 -0.985 0
M  V30 74265 C 7036.22 -1.03127 -1.34392 0
M  V30 74266 O 7037.43 -1.21574 -1.3274 0
M  V30 74267 H 7033.8 -0.67307 -0.335382 0
M  V30 74268 H 7035.77 -2.93983 -0.511534 0
M  V30 74269 C 7034.52 -2.64073 -2.26188 0
M  V30 74270 H 7033.84 -3.46501 -1.99442 0
M  V30 74271 H 7035.28 -3.04902 -2.94636 0
M  V30 74272 C 7033.74 -1.56326 -2.98436 0
M  V30 74273 O 7034.27 -0.956879 -3.90137 0
M  V30 74274 N 7032.48 -1.28626 -2.60584 0
M  V30 74275 H 7032.03 -1.78122 -1.86092 0
M  V30 74276 H 7031.98 -0.567569 -3.09235 0
M  V30 74277 N 7035.76 0.254539 -1.55531 0
M  V30 74278 C 7037.17 0.824198 -1.67523 0
M  V30 74279 C 7037.52 1.86328 -0.614527 0
M  V30 74280 O 7036.64 2.15058 0.240623 0
M  V30 74281 C 7037.24 1.50173 -3.037 0
M  V30 74282 C 7035.8 2.01918 -3.17657 0
M  V30 74283 C 7034.94 0.867607 -2.63378 0
M  V30 74284 H 7037.9 0.0305006 -1.58671 0
M  V30 74285 H 7037.92 2.36947 -2.97719 0
M  V30 74286 H 7037.43 0.74523 -3.80878 0
M  V30 74287 H 7035.53 2.80472 -2.45288 0
M  V30 74288 H 7035.64 2.22181 -4.24467 0
M  V30 74289 H 7034.01 1.26604 -2.21006 0
M  V30 74290 H 7034.79 0.124317 -3.43075 0
M  V30 74291 N 7037.23 1.48779 0.519872 0
M  V30 74292 C 7038.65 1.50731 1.10169 0
M  V30 74293 C 7039 0.282781 1.94151 0
M  V30 74294 O 7038.12 -0.609188 2.07648 0
M  V30 74295 C 7038.72 2.73127 2.00467 0
M  V30 74296 C 7037.28 2.77918 2.53848 0
M  V30 74297 C 7036.42 2.44388 1.31034 0
M  V30 74298 H 7039.37 1.55748 0.304648 0
M  V30 74299 H 7039.39 2.52218 2.84897 0
M  V30 74300 H 7038.91 3.62233 1.39316 0
M  V30 74301 H 7037.01 1.93045 3.18691 0
M  V30 74302 H 7037.12 3.79609 2.9229 0
M  V30 74303 H 7035.48 1.9576 1.62943 0
M  V30 74304 H 7036.27 3.35746 0.716193 0
M  V30 74305 N 7038.71 -0.769515 1.37536 0
M  V30 74306 C 7040.12 -1.34593 1.29389 0
M  V30 74307 C 7040.47 -1.96116 -0.0575004 0
M  V30 74308 O 7039.6 -1.93972 -0.959368 0
M  V30 74309 C 7040.19 -2.44712 2.34311 0
M  V30 74310 C 7038.75 -2.98116 2.29791 0
M  V30 74311 C 7037.9 -1.71352 2.18022 0
M  V30 74312 H 7040.85 -0.569602 1.48126 0
M  V30 74313 H 7040.87 -3.24249 1.99106 0
M  V30 74314 H 7040.38 -1.99905 3.32656 0
M  V30 74315 H 7038.49 -3.47292 1.34977 0
M  V30 74316 H 7038.6 -3.53578 3.23295 0
M  V30 74317 H 7036.96 -1.94363 1.64605 0
M  V30 74318 H 7037.75 -1.28645 3.18285 0
M  V30 74319 N 7040.19 -1.22143 -0.995934 0
M  V30 74320 C 7041.44 -1.04209 -1.73161 0
M  V30 74321 C 7041.76 0.42413 -1.90332 0
M  V30 74322 O 7041.03 1.30531 -1.46077 0
M  V30 74323 H 7039.61 -0.382614 -0.641573 0
M  V30 74324 H 7042.27 -1.53604 -1.19966 0
M  V30 74325 H 7041.37 -1.51746 -2.72726 0
M  V30 74326 N 7041.67 1.1923 -1.03063 0
M  V30 74327 C 7042.6 2.24739 -0.633616 0
M  V30 74328 C 7043.58 1.66285 0.358247 0
M  V30 74329 O 7044.76 1.92704 0.240574 0
M  V30 74330 C 7041.89 3.47297 0.0145817 0
M  V30 74331 C 7040.85 4.18436 -0.899748 0
M  V30 74332 C 7040.17 5.34573 -0.116563 0
M  V30 74333 C 7041.47 4.7304 -2.21429 0
M  V30 74334 H 7043.17 2.58203 -1.51564 0
M  V30 74335 H 7040.71 1.24113 -0.730205 0
M  V30 74336 H 7042.67 4.20302 0.303981 0
M  V30 74337 H 7041.39 3.13037 0.931412 0
M  V30 74338 H 7040.05 3.47315 -1.17337 0
M  V30 74339 H 7039.7 4.96559 0.802357 0
M  V30 74340 H 7039.4 5.83103 -0.7256 0
M  V30 74341 H 7040.92 6.10374 0.166054 0
M  V30 74342 H 7042.34 5.37791 -1.98629 0
M  V30 74343 H 7040.73 5.32063 -2.7754 0
M  V30 74344 H 7041.8 3.91011 -2.86773 0
M  V30 74345 N 7043.15 0.808734 1.35267 0
M  V30 74346 C 7044.08 0.235104 2.32313 0
M  V30 74347 C 7045.06 -0.640626 1.57575 0
M  V30 74348 O 7046.24 -0.570453 1.85633 0
M  V30 74349 C 7043.37 -0.615421 3.41804 0
M  V30 74350 C 7042.33 0.161992 4.27693 0
M  V30 74351 C 7041.65 -0.81037 5.28524 0
M  V30 74352 C 7042.95 1.36219 5.04224 0
M  V30 74353 H 7044.65 1.0459 2.80538 0
M  V30 74354 H 7042.19 0.504387 1.34878 0
M  V30 74355 H 7044.15 -1.0268 4.08699 0
M  V30 74356 H 7042.87 -1.45912 2.92194 0
M  V30 74357 H 7041.53 0.554573 3.62381 0
M  V30 74358 H 7041.18 -1.64963 4.7518 0
M  V30 74359 H 7040.88 -0.294513 5.86861 0
M  V30 74360 H 7042.4 -1.21991 5.9829 0
M  V30 74361 H 7043.81 1.02557 5.64052 0
M  V30 74362 H 7042.21 1.81269 5.72068 0
M  V30 74363 H 7043.28 2.14774 4.34741 0
M  V30 74364 N 7044.62 -1.47223 0.562426 0
M  V30 74365 C 7045.85 -2.0685 0.0453365 0
M  V30 74366 C 7046.27 -1.41431 -1.25071 0
M  V30 74367 O 7045.62 -0.512605 -1.75153 0
M  V30 74368 C 7045.68 -3.61195 -0.148484 0
M  V30 74369 O 7045.4 -4.24163 1.09624 0
M  V30 74370 C 7046.9 -4.37702 -0.702257 0
M  V30 74371 H 7044.12 -0.669266 0.0482127 0
M  V30 74372 H 7046.66 -1.89151 0.777323 0
M  V30 74373 H 7044.82 -3.78391 -0.830618 0
M  V30 74374 H 7045.23 -5.16768 0.897254 0
M  V30 74375 H 7046.7 -5.46359 -0.787142 0
M  V30 74376 H 7047.18 -4.04344 -1.71472 0
M  V30 74377 H 7047.79 -4.25264 -0.0556529 0
M  V30 74378 N 7046.1 -0.299143 -1.54735 0
M  V30 74379 C 7047.35 0.304017 -2.01115 0
M  V30 74380 C 7047.7 1.51668 -1.18384 0
M  V30 74381 O 7047 1.89939 -0.251735 0
M  V30 74382 C 7047.19 0.71365 -3.50203 0
M  V30 74383 C 7047.02 -0.457767 -4.47364 0
M  V30 74384 C 7045.79 -0.949194 -4.96305 0
M  V30 74385 C 7047.99 -1.30213 -4.97543 0
M  V30 74386 N 7045.97 -2.08757 -5.77316 0
M  V30 74387 C 7047.34 -2.28802 -5.76238 0
M  V30 74388 C 7049.4 -1.33271 -4.79732 0
M  V30 74389 C 7048.1 -3.30223 -6.39019 0
M  V30 74390 C 7050.12 -2.3355 -5.43331 0
M  V30 74391 C 7049.49 -3.30869 -6.21856 0
M  V30 74392 H 7045.59 0.0757582 -0.778322 0
M  V30 74393 H 7048.17 -0.428636 -1.89923 0
M  V30 74394 H 7046.34 1.41548 -3.61689 0
M  V30 74395 H 7048.07 1.29619 -3.83381 0
M  V30 74396 H 7044.83 -0.524478 -4.70687 0
M  V30 74397 H 7045.25 -2.6611 -6.22507 0
M  V30 74398 H 7049.89 -0.594051 -4.18606 0
M  V30 74399 H 7047.61 -4.0501 -6.9928 0
M  V30 74400 H 7051.2 -2.36688 -5.31479 0
M  V30 74401 H 7050.08 -4.07194 -6.70196 0
M  V30 74402 N 7047.58 1.57577 -0.0268328 0
M  V30 74403 C 7048.51 2.13113 0.954195 0
M  V30 74404 C 7049.49 1.0467 1.34083 0
M  V30 74405 O 7050.68 1.32491 1.41985 0
M  V30 74406 C 7047.81 2.65636 2.2373 0
M  V30 74407 C 7046.76 3.78846 1.99148 0
M  V30 74408 C 7046.09 4.17787 3.33704 0
M  V30 74409 C 7047.39 5.05017 1.3325 0
M  V30 74410 H 7049.08 2.95335 0.491693 0
M  V30 74411 H 7046.63 1.42068 0.235065 0
M  V30 74412 H 7048.58 3.03121 2.92738 0
M  V30 74413 H 7047.3 1.80572 2.72142 0
M  V30 74414 H 7045.96 3.41795 1.32559 0
M  V30 74415 H 7045.61 3.29708 3.7987 0
M  V30 74416 H 7045.31 4.94074 3.18063 0
M  V30 74417 H 7046.83 4.57853 4.03983 0
M  V30 74418 H 7048.25 5.40103 1.92254 0
M  V30 74419 H 7046.65 5.86287 1.28014 0
M  V30 74420 H 7047.72 4.83939 0.305156 0
M  V30 74421 N 7049.06 -0.246288 1.55664 0
M  V30 74422 C 7049.99 -1.33133 1.8534 0
M  V30 74423 C 7050.97 -1.4635 0.708541 0
M  V30 74424 O 7052.15 -1.62555 0.95436 0
M  V30 74425 C 7049.28 -2.70476 2.03864 0
M  V30 74426 C 7048.33 -2.74405 3.26503 0
M  V30 74427 S 7049.16 -2.30953 4.83136 0
M  V30 74428 C 7050.32 -3.70219 5.04667 0
M  V30 74429 H 7050.55 -1.07762 2.77082 0
M  V30 74430 H 7048.08 -0.447302 1.47779 0
M  V30 74431 H 7050.04 -3.49557 2.1522 0
M  V30 74432 H 7048.7 -2.93084 1.12962 0
M  V30 74433 H 7047.89 -3.75272 3.36432 0
M  V30 74434 H 7047.5 -2.03368 3.13875 0
M  V30 74435 H 7049.79 -4.6572 4.92048 0
M  V30 74436 H 7050.73 -3.65223 6.06645 0
M  V30 74437 H 7051.14 -3.62761 4.3251 0
M  V30 74438 N 7050.54 -1.49052 -0.511975 0
M  V30 74439 C 7051.76 -1.61937 -1.29581 0
M  V30 74440 C 7052.19 -0.286552 -1.85905 0
M  V30 74441 O 7051.55 0.744339 -1.65316 0
M  V30 74442 C 7051.59 -2.68262 -2.40973 0
M  V30 74443 O 7050.7 -2.26672 -3.44519 0
M  V30 74444 H 7050.04 -0.542391 -0.383025 0
M  V30 74445 H 7052.57 -1.95166 -0.614128 0
M  V30 74446 H 7052.58 -2.90093 -2.86898 0
M  V30 74447 H 7051.25 -3.65014 -1.99342 0
M  V30 74448 H 7049.83 -2.15128 -3.04589 0
M  V30 74449 N 7052.02 0.762211 -1.37942 0
M  V30 74450 C 7053.26 1.5164 -1.32997 0
M  V30 74451 C 7053.58 1.95436 0.0801891 0
M  V30 74452 O 7054.78 2.70327 0.252153 0
M  V30 74453 C 7053.24 2.73872 -2.33499 0
M  V30 74454 C 7052.85 2.37137 -3.80092 0
M  V30 74455 C 7054.59 3.51789 -2.37581 0
M  V30 74456 C 7052.5 3.55929 -4.72301 0
M  V30 74457 H 7051.43 0.569344 -0.494331 0
M  V30 74458 H 7054.08 0.833997 -1.63453 0
M  V30 74459 H 7052.46 3.44051 -1.96074 0
M  V30 74460 H 7053.64 1.74681 -4.26407 0
M  V30 74461 H 7051.95 1.72375 -3.79046 0
M  V30 74462 H 7054.55 4.40098 -3.03674 0
M  V30 74463 H 7054.89 3.92331 -1.3922 0
M  V30 74464 H 7055.42 2.88616 -2.73762 0
M  V30 74465 H 7052.16 3.2046 -5.71826 0
M  V30 74466 H 7051.68 4.17458 -4.30685 0
M  V30 74467 H 7053.36 4.22621 -4.89898 0
M  V30 74468 N 7053.49 1.22669 0.989443 0
M  V30 74469 C 7054.77 0.961778 1.70321 0
M  V30 74470 C 7055.15 -0.522171 2.0454 0
M  V30 74471 O 7054.5 -1.49109 1.73144 0
M  V30 74472 C 7054.71 1.86284 2.95126 0
M  V30 74473 C 7056.06 2.12098 3.67831 0
M  V30 74474 O 7057.08 1.83761 3.0514 0
M  V30 74475 O 7055.94 2.60109 4.8063 0
M  V30 74476 H 7053.03 0.361985 0.74357 0
M  V30 74477 H 7055.58 1.33671 1.04548 0
M  V30 74478 H 7054.35 2.86644 2.66367 0
M  V30 74479 H 7053.97 1.48972 3.68637 0
M  V30 74480 N 7054.97 -1.18681 1.03694 0
M  V30 74481 C 7056.22 -1.88847 0.739223 0
M  V30 74482 C 7056.55 -1.79919 -0.730947 0
M  V30 74483 O 7055.83 -1.19696 -1.53307 0
M  V30 74484 C 7056.11 -3.39473 1.20124 0
M  V30 74485 C 7055.96 -3.57232 2.73323 0
M  V30 74486 C 7057.28 -4.32981 0.788362 0
M  V30 74487 H 7054.4 -0.685756 0.270015 0
M  V30 74488 H 7057.04 -1.39653 1.28829 0
M  V30 74489 H 7055.19 -3.81501 0.734116 0
M  V30 74490 H 7056.86 -3.24322 3.28044 0
M  V30 74491 H 7055.11 -3.00013 3.13328 0
M  V30 74492 H 7055.78 -4.62902 3.00708 0
M  V30 74493 H 7058.25 -3.98713 1.19026 0
M  V30 74494 H 7057.13 -5.36943 1.13943 0
M  V30 74495 H 7057.39 -4.41021 -0.308756 0
M  V30 74496 N 7056.45 -0.815896 -1.34837 0
M  V30 74497 C 7057.4 -0.230785 -2.29643 0
M  V30 74498 C 7058.37 0.640452 -1.53256 0
M  V30 74499 O 7059.55 0.583576 -1.81656 0
M  V30 74500 C 7056.69 0.607096 -3.39718 0
M  V30 74501 C 7055.8 -0.285607 -4.31055 0
M  V30 74502 C 7054.94 0.561168 -5.28228 0
M  V30 74503 C 7053.98 -0.331357 -6.11202 0
M  V30 74504 N 7053.12 0.475932 -7.00485 0
M  V30 74505 H 7057.96 -1.04465 -2.7909 0
M  V30 74506 H 7055.49 -0.526667 -1.37349 0
M  V30 74507 H 7057.45 1.10813 -4.02214 0
M  V30 74508 H 7056.08 1.38613 -2.91524 0
M  V30 74509 H 7055.13 -0.904816 -3.69482 0
M  V30 74510 H 7056.44 -0.972188 -4.89234 0
M  V30 74511 H 7055.6 1.12697 -5.96141 0
M  V30 74512 H 7054.34 1.28128 -4.70568 0
M  V30 74513 H 7053.34 -0.909355 -5.42228 0
M  V30 74514 H 7054.57 -1.04948 -6.70942 0
M  V30 74515 H 7052.51 1.17985 -6.45303 0
M  V30 74516 H 7052.43 -0.152407 -7.55846 0
M  V30 74517 H 7053.7 1.02471 -7.72735 0
M  V30 74518 N 7057.93 1.46922 -0.570225 0
M  V30 74519 C 7059.16 2.06523 -0.056224 0
M  V30 74520 C 7059.57 1.42144 1.24867 0
M  V30 74521 O 7058.91 0.51651 1.76289 0
M  V30 74522 C 7058.97 3.58961 0.196845 0
M  V30 74523 C 7058.63 4.45459 -1.02056 0
M  V30 74524 C 7059.63 4.82771 -1.92946 0
M  V30 74525 C 7057.32 4.86782 -1.2389 0
M  V30 74526 C 7059.31 5.60219 -3.04028 0
M  V30 74527 C 7057 5.63992 -2.35279 0
M  V30 74528 C 7058 6.00623 -3.25178 0
M  V30 74529 O 7057.68 6.76276 -4.34634 0
M  V30 74530 H 7057.42 0.674238 -0.0487765 0
M  V30 74531 H 7059.97 1.89724 -0.787015 0
M  V30 74532 H 7058.2 3.74021 0.982102 0
M  V30 74533 H 7059.89 4.00534 0.657821 0
M  V30 74534 H 7060.65 4.51435 -1.77289 0
M  V30 74535 H 7056.53 4.57728 -0.548291 0
M  V30 74536 H 7060.08 5.8873 -3.74223 0
M  V30 74537 H 7055.97 5.94741 -2.50904 0
M  V30 74538 H 7056.74 6.94685 -4.32844 0
M  V30 74539 N 7059.41 0.307345 1.54574 0
M  V30 74540 C 7060.34 -0.599691 2.21216 0
M  V30 74541 C 7061.35 -1.09259 1.20691 0
M  V30 74542 O 7062.54 -1.00896 1.47249 0
M  V30 74543 C 7059.64 -1.83374 2.85004 0
M  V30 74544 C 7058.81 -1.48226 4.11519 0
M  V30 74545 C 7057.87 -2.57212 4.59051 0
M  V30 74546 O 7056.9 -2.22038 5.24107 0
M  V30 74547 N 7058.1 -3.87864 4.31905 0
M  V30 74548 H 7060.86 -0.0291494 2.99686 0
M  V30 74549 H 7058.43 0.129824 1.61379 0
M  V30 74550 H 7060.42 -2.55643 3.13733 0
M  V30 74551 H 7058.99 -2.31252 2.10336 0
M  V30 74552 H 7058.21 -0.591916 3.89731 0
M  V30 74553 H 7059.5 -1.2229 4.93885 0
M  V30 74554 H 7058.89 -4.19248 3.798 0
M  V30 74555 H 7057.45 -4.56413 4.65328 0
M  V30 74556 N 7060.88 -1.57561 0.0351891 0
M  V30 74557 C 7062.13 -1.91227 -0.641503 0
M  V30 74558 C 7062.45 -0.913852 -1.7294 0
M  V30 74559 O 7063.65 -1.14198 -2.46315 0
M  V30 74560 C 7062.11 -3.39576 -1.19231 0
M  V30 74561 C 7061.72 -4.47789 -0.13738 0
M  V30 74562 C 7063.46 -3.82301 -1.84517 0
M  V30 74563 C 7061.37 -5.87241 -0.700168 0
M  V30 74564 H 7060.3 -0.71364 -0.24338 0
M  V30 74565 H 7062.95 -1.83219 0.101479 0
M  V30 74566 H 7061.33 -3.42535 -1.9871 0
M  V30 74567 H 7062.5 -4.56398 0.635394 0
M  V30 74568 H 7060.82 -4.14306 0.417073 0
M  V30 74569 H 7063.42 -4.83846 -2.2759 0
M  V30 74570 H 7063.76 -3.17687 -2.69037 0
M  V30 74571 H 7064.29 -3.8179 -1.11718 0
M  V30 74572 H 7061.03 -6.55413 0.107038 0
M  V30 74573 H 7060.55 -5.82226 -1.44129 0
M  V30 74574 H 7062.23 -6.35999 -1.18804 0
M  V30 74575 N 7062.36 0.238029 -1.55792 0
M  V30 74576 C 7063.61 0.96194 -1.79216 0
M  V30 74577 C 7063.96 1.82622 -0.60556 0
M  V30 74578 O 7063.26 1.87358 0.400941 0
M  V30 74579 C 7063.45 1.84859 -3.05879 0
M  V30 74580 C 7063.28 1.07163 -4.36745 0
M  V30 74581 C 7062.05 0.773161 -4.9935 0
M  V30 74582 C 7064.25 0.444898 -5.12372 0
M  V30 74583 N 7062.23 -0.0269274 -6.13894 0
M  V30 74584 C 7063.6 -0.219349 -6.19612 0
M  V30 74585 C 7065.65 0.35626 -4.96624 0
M  V30 74586 C 7064.36 -0.963734 -7.12815 0
M  V30 74587 C 7066.38 -0.374616 -5.90212 0
M  V30 74588 C 7065.75 -1.02747 -6.96866 0
M  V30 74589 H 7061.84 0.332811 -0.707644 0
M  V30 74590 H 7064.43 0.234266 -1.93286 0
M  V30 74591 H 7062.6 2.54822 -2.93122 0
M  V30 74592 H 7064.33 2.50873 -3.17561 0
M  V30 74593 H 7061.09 1.08714 -4.60954 0
M  V30 74594 H 7061.51 -0.415324 -6.75725 0
M  V30 74595 H 7066.15 0.84666 -4.14236 0
M  V30 74596 H 7063.87 -1.46571 -7.94697 0
M  V30 74597 H 7067.46 -0.443983 -5.80103 0
M  V30 74598 H 7066.34 -1.58398 -7.68036 0
M  V30 74599 N 7063.84 1.49322 0.504063 0
M  V30 74600 C 7064.79 1.65765 1.60595 0
M  V30 74601 C 7065.76 0.499166 1.58422 0
M  V30 74602 O 7066.94 0.725821 1.76455 0
M  V30 74603 C 7064.08 1.72741 2.98755 0
M  V30 74604 C 7063.19 2.99873 3.10967 0
M  V30 74605 C 7062.33 2.97847 4.39841 0
M  V30 74606 C 7061.37 4.19572 4.45675 0
M  V30 74607 N 7060.51 4.15474 5.65973 0
M  V30 74608 H 7065.35 2.59851 1.45882 0
M  V30 74609 H 7062.88 1.28841 0.709823 0
M  V30 74610 H 7064.84 1.74767 3.7883 0
M  V30 74611 H 7063.47 0.82124 3.12179 0
M  V30 74612 H 7062.52 3.07473 2.23975 0
M  V30 74613 H 7063.83 3.89866 3.11137 0
M  V30 74614 H 7062.99 2.98419 5.28234 0
M  V30 74615 H 7061.73 2.05628 4.42231 0
M  V30 74616 H 7060.73 4.19248 3.55685 0
M  V30 74617 H 7061.96 5.12981 4.45003 0
M  V30 74618 H 7059.9 3.26089 5.69211 0
M  V30 74619 H 7059.82 4.99199 5.67747 0
M  V30 74620 H 7061.09 4.20144 6.56582 0
M  V30 74621 N 7065.32 -0.754884 1.38345 0
M  V30 74622 C 7066.57 -1.51397 1.34481 0
M  V30 74623 C 7066.89 -1.9439 -0.0655433 0
M  V30 74624 O 7066.15 -1.6563 -1.04236 0
M  V30 74625 C 7066.45 -2.78063 2.24535 0
M  V30 74626 C 7066.11 -2.54039 3.72525 0
M  V30 74627 C 7064.78 -2.47196 4.12853 0
M  V30 74628 C 7067.13 -2.33019 4.6621 0
M  V30 74629 C 7064.46 -2.17347 5.44956 0
M  V30 74630 C 7066.81 -2.04691 5.98569 0
M  V30 74631 C 7065.47 -1.96304 6.37982 0
M  V30 74632 H 7064.74 -0.554001 0.492101 0
M  V30 74633 H 7067.39 -0.868133 1.70692 0
M  V30 74634 H 7065.69 -3.4729 1.81375 0
M  V30 74635 H 7067.39 -3.36015 2.1885 0
M  V30 74636 H 7063.98 -2.60235 3.40552 0
M  V30 74637 H 7068.16 -2.37286 4.359 0
M  V30 74638 H 7063.42 -2.09361 5.74437 0
M  V30 74639 H 7067.59 -1.8743 6.70703 0
M  V30 74640 H 7065.22 -1.72939 7.40268 0
M  V30 74641 N 7066.8 -1.23192 -0.982923 0
M  V30 74642 C 7068.04 -1.0604 -1.72046 0
M  V30 74643 C 7068.37 0.403919 -1.90771 0
M  V30 74644 O 7067.64 1.28974 -1.47453 0
M  V30 74645 H 7066.22 -0.389397 -0.637479 0
M  V30 74646 H 7068.88 -1.54868 -1.1833 0
M  V30 74647 H 7067.97 -1.5463 -2.71102 0
M  V30 74648 N 7068.27 1.1813 -1.04322 0
M  V30 74649 C 7069.52 1.88453 -0.749227 0
M  V30 74650 C 7069.85 1.80304 0.721395 0
M  V30 74651 O 7069.13 1.20508 1.5267 0
M  V30 74652 C 7069.41 3.38832 -1.21923 0
M  V30 74653 C 7069.26 3.55777 -2.75214 0
M  V30 74654 C 7070.58 4.32557 -0.811313 0
M  V30 74655 H 7067.7 0.684314 -0.273648 0
M  V30 74656 H 7070.34 1.38968 -1.29568 0
M  V30 74657 H 7068.49 3.81106 -0.754338 0
M  V30 74658 H 7070.17 3.22577 -3.2976 0
M  V30 74659 H 7068.41 2.98347 -3.14915 0
M  V30 74660 H 7069.08 4.61301 -3.03159 0
M  V30 74661 H 7071.56 3.98076 -1.21139 0
M  V30 74662 H 7070.43 5.36332 -1.16789 0
M  V30 74663 H 7070.69 4.41178 0.285363 0
M  V30 74664 N 7069.75 0.823035 1.34402 0
M  V30 74665 C 7071 0.407562 1.97539 0
M  V30 74666 C 7071.31 -1.03491 1.65979 0
M  V30 74667 O 7072.52 -1.5543 2.22607 0
M  V30 74668 C 7070.98 0.67781 3.5346 0
M  V30 74669 C 7070.58 2.13391 3.93914 0
M  V30 74670 C 7072.33 0.328507 4.23227 0
M  V30 74671 C 7070.24 2.34904 5.42747 0
M  V30 74672 H 7069.17 0.148662 0.739199 0
M  V30 74673 H 7071.82 1.0094 1.53243 0
M  V30 74674 H 7070.2 0.00579847 3.96 0
M  V30 74675 H 7071.37 2.84509 3.62479 0
M  V30 74676 H 7069.69 2.44466 3.37084 0
M  V30 74677 H 7072.28 0.467075 5.32656 0
M  V30 74678 H 7072.63 -0.727008 4.09903 0
M  V30 74679 H 7073.16 0.9551 3.86164 0
M  V30 74680 H 7069.9 3.38962 5.61057 0
M  V30 74681 H 7069.42 1.6833 5.75695 0
M  V30 74682 H 7071.1 2.17269 6.09429 0
M  V30 74683 N 7071.23 -1.46618 0.578009 0
M  V30 74684 C 7072.48 -2.02406 0.0617946 0
M  V30 74685 C 7072.81 -1.45004 -1.29631 0
M  V30 74686 O 7072.06 -0.603178 -1.86173 0
M  V30 74687 C 7072.36 -3.57351 -0.0588948 0
M  V30 74688 C 7072.03 -4.33771 1.231 0
M  V30 74689 C 7070.69 -4.54368 1.5844 0
M  V30 74690 C 7073.04 -4.77687 2.08482 0
M  V30 74691 C 7070.37 -5.16132 2.7897 0
M  V30 74692 C 7072.72 -5.40783 3.28233 0
M  V30 74693 C 7071.38 -5.59608 3.63861 0
M  V30 74694 H 7070.65 -0.740655 0.0226122 0
M  V30 74695 H 7073.3 -1.76044 0.753702 0
M  V30 74696 H 7071.61 -3.82823 -0.833902 0
M  V30 74697 H 7073.3 -3.98189 -0.473992 0
M  V30 74698 H 7069.89 -4.18033 0.945872 0
M  V30 74699 H 7074.08 -4.61534 1.82483 0
M  V30 74700 H 7069.33 -5.28899 3.06717 0
M  V30 74701 H 7073.51 -5.73771 3.94665 0
M  V30 74702 H 7071.13 -6.07238 4.57347 0
M  V30 74703 N 7072.71 -0.315538 -1.54409 0
M  V30 74704 C 7073.94 0.29163 -2.04834 0
M  V30 74705 C 7074.35 1.46404 -1.19211 0
M  V30 74706 O 7073.71 1.81157 -0.220963 0
M  V30 74707 C 7073.76 0.733853 -3.53973 0
M  V30 74708 O 7073.48 -0.391912 -4.36344 0
M  V30 74709 C 7074.98 1.40467 -4.20457 0
M  V30 74710 H 7072.2 0.0612595 -0.668198 0
M  V30 74711 H 7074.75 -0.459395 -1.99273 0
M  V30 74712 H 7072.9 1.43487 -3.59848 0
M  V30 74713 H 7073.31 -0.0449854 -5.24481 0
M  V30 74714 H 7074.79 1.66511 -5.26287 0
M  V30 74715 H 7075.27 2.34941 -3.71079 0
M  V30 74716 H 7075.87 0.746441 -4.18698 0
M  V30 74717 N 7074.19 1.5754 -0.0435444 0
M  V30 74718 C 7075.46 1.83717 0.671382 0
M  V30 74719 C 7075.84 0.930415 1.8949 0
M  V30 74720 O 7075.19 -0.0104434 2.28498 0
M  V30 74721 C 7075.4 3.33271 1.03592 0
M  V30 74722 C 7076.75 4.001 1.42146 0
M  V30 74723 O 7077.77 3.37852 1.12849 0
M  V30 74724 O 7076.63 5.09839 1.9679 0
M  V30 74725 H 7073.73 0.758008 0.330686 0
M  V30 74726 H 7076.27 1.69546 -0.0723267 0
M  V30 74727 H 7075.04 3.90949 0.165732 0
M  V30 74728 H 7074.67 3.52602 1.83733 0
M  V30 74729 N 7075.66 -0.229763 1.55916 0
M  V30 74730 C 7076.61 -1.30434 1.92587 0
M  V30 74731 C 7077.61 -1.48947 0.806918 0
M  V30 74732 O 7078.81 -1.50218 0.991686 0
M  V30 74733 H 7075.19 -0.437128 0.611901 0
M  V30 74734 H 7077.16 -0.967821 2.82269 0
M  V30 74735 C 7075.91 -2.64928 2.25185 0
M  V30 74736 H 7075.23 -2.51488 3.10796 0
M  V30 74737 H 7076.67 -3.38949 2.54734 0
M  V30 74738 C 7075.13 -3.19319 1.07411 0
M  V30 74739 O 7075.66 -4.00334 0.33097 0
M  V30 74740 N 7073.87 -2.77579 0.860131 0
M  V30 74741 H 7073.41 -2.11805 1.46616 0
M  V30 74742 H 7073.37 -3.14313 0.0738329 0
M  V30 74743 N 7077.14 -1.49587 -0.496137 0
M  V30 74744 C 7078.37 -1.63302 -1.27856 0
M  V30 74745 C 7078.79 -0.306253 -1.8559 0
M  V30 74746 O 7078.15 0.726763 -1.66096 0
M  V30 74747 C 7078.2 -2.70803 -2.38114 0
M  V30 74748 O 7077.3 -2.30314 -3.42096 0
M  V30 74749 H 7076.64 -0.546423 -0.377251 0
M  V30 74750 H 7079.17 -1.95806 -0.593393 0
M  V30 74751 H 7079.18 -2.93119 -2.83805 0
M  V30 74752 H 7077.86 -3.67108 -1.9546 0
M  V30 74753 H 7076.44 -2.18347 -3.0229 0
M  V30 74754 N 7078.62 0.747537 -1.38743 0
M  V30 74755 C 7079.87 1.50682 -1.35282 0
M  V30 74756 C 7080.2 1.94422 0.0552334 0
M  V30 74757 O 7079.45 1.66181 1.03356 0
M  V30 74758 C 7079.75 2.76868 -2.26006 0
M  V30 74759 C 7079.42 2.5206 -3.73867 0
M  V30 74760 C 7078.08 2.45003 -4.14158 0
M  V30 74761 C 7080.43 2.30544 -4.67439 0
M  V30 74762 C 7077.76 2.14454 -5.46101 0
M  V30 74763 C 7080.11 2.01514 -5.99646 0
M  V30 74764 C 7078.77 1.92918 -6.39014 0
M  V30 74765 H 7078.04 0.551384 -0.495032 0
M  V30 74766 H 7080.69 0.859068 -1.7115 0
M  V30 74767 H 7079 3.46323 -1.83214 0
M  V30 74768 H 7080.69 3.34849 -2.20628 0
M  V30 74769 H 7077.28 2.58426 -3.41927 0
M  V30 74770 H 7081.47 2.34971 -4.37153 0
M  V30 74771 H 7076.72 2.06312 -5.75539 0
M  V30 74772 H 7080.9 1.8387 -6.71688 0
M  V30 74773 H 7078.52 1.69011 -7.41174 0
M  V30 74774 N 7080.1 1.23712 0.976376 0
M  V30 74775 C 7081.03 1.04635 2.08743 0
M  V30 74776 C 7082.01 -0.0380059 1.70058 0
M  V30 74777 O 7083.2 0.12741 1.93782 0
M  V30 74778 C 7080.33 0.641082 3.41332 0
M  V30 74779 C 7079.28 1.67323 3.93938 0
M  V30 74780 C 7078.61 1.12329 5.22768 0
M  V30 74781 C 7079.91 3.0672 4.22753 0
M  V30 74782 H 7081.6 1.97567 2.24961 0
M  V30 74783 H 7079.15 0.951304 1.08103 0
M  V30 74784 H 7081.1 0.494655 4.18487 0
M  V30 74785 H 7079.82 -0.323928 3.2499 0
M  V30 74786 H 7078.48 1.80772 3.18931 0
M  V30 74787 H 7078.13 0.149142 5.02779 0
M  V30 74788 H 7077.83 1.81296 5.58932 0
M  V30 74789 H 7079.35 0.988797 6.02541 0
M  V30 74790 H 7080.77 2.96549 4.90644 0
M  V30 74791 H 7079.16 3.72962 4.70127 0
M  V30 74792 H 7080.23 3.5541 3.29867 0
M  V30 74793 N 7081.58 -1.17575 1.04947 0
M  V30 74794 C 7082.81 -1.91421 0.777267 0
M  V30 74795 C 7083.22 -1.76919 -0.670554 0
M  V30 74796 O 7082.56 -1.10221 -1.46959 0
M  V30 74797 C 7082.62 -3.43047 1.07513 0
M  V30 74798 C 7082.28 -3.81331 2.51864 0
M  V30 74799 C 7083.28 -3.84381 3.50067 0
M  V30 74800 C 7080.97 -4.12367 2.86808 0
M  V30 74801 C 7082.96 -4.17932 4.81261 0
M  V30 74802 C 7080.65 -4.45586 4.18206 0
M  V30 74803 C 7081.65 -4.48346 5.15242 0
M  V30 74804 O 7081.33 -4.80785 6.44283 0
M  V30 74805 H 7081.07 -0.61426 0.282242 0
M  V30 74806 H 7083.62 -1.50049 1.40266 0
M  V30 74807 H 7081.85 -3.84701 0.392639 0
M  V30 74808 H 7083.54 -3.98151 0.78933 0
M  V30 74809 H 7084.3 -3.60531 3.2441 0
M  V30 74810 H 7080.18 -4.09391 2.11944 0
M  V30 74811 H 7083.73 -4.20001 5.56997 0
M  V30 74812 H 7079.62 -4.68898 4.43627 0
M  V30 74813 H 7080.39 -4.98652 6.49067 0
M  V30 74814 N 7083.06 -0.830151 -1.33964 0
M  V30 74815 C 7083.99 -0.272033 -2.3191 0
M  V30 74816 C 7084.97 0.615477 -1.58575 0
M  V30 74817 O 7086.15 0.540848 -1.86517 0
M  V30 74818 C 7083.28 0.560965 -3.4274 0
M  V30 74819 C 7082.24 -0.230014 -4.27381 0
M  V30 74820 C 7081.56 0.726184 -5.29746 0
M  V30 74821 C 7082.86 -1.44224 -5.01993 0
M  V30 74822 H 7084.56 -1.0904 -2.78838 0
M  V30 74823 H 7082.1 -0.525781 -1.34058 0
M  V30 74824 H 7084.05 0.961651 -4.10281 0
M  V30 74825 H 7082.78 1.41245 -2.94478 0
M  V30 74826 H 7081.44 -0.612155 -3.61453 0
M  V30 74827 H 7081.09 1.57383 -4.77744 0
M  V30 74828 H 7080.79 0.201111 -5.87256 0
M  V30 74829 H 7082.31 1.12457 -6.00155 0
M  V30 74830 H 7083.72 -1.11518 -5.62349 0
M  V30 74831 H 7082.12 -1.90347 -5.69112 0
M  V30 74832 H 7083.19 -2.21663 -4.3127 0
M  V30 74833 N 7084.53 1.46309 -0.585776 0
M  V30 74834 C 7085.78 2.0197 -0.0723845 0
M  V30 74835 C 7086.1 1.45935 1.29337 0
M  V30 74836 O 7085.37 0.645206 1.8497 0
M  V30 74837 H 7083.95 0.746622 -0.0237684 0
M  V30 74838 H 7086.61 1.79376 -0.762249 0
M  V30 74839 H 7085.71 3.12099 -0.00569225 0
M  V30 74840 N 7086.01 0.323722 1.54239 0
M  V30 74841 C 7087.26 -0.271983 2.01573 0
M  V30 74842 C 7087.61 -1.49765 1.20782 0
M  V30 74843 O 7086.91 -1.89515 0.281921 0
M  V30 74844 C 7087.1 -0.657846 3.51294 0
M  V30 74845 C 7086.93 0.52888 4.46579 0
M  V30 74846 C 7085.7 1.02803 4.94732 0
M  V30 74847 C 7087.9 1.38112 4.95409 0
M  V30 74848 N 7085.88 2.17915 5.73922 0
M  V30 74849 C 7087.25 2.3794 5.72525 0
M  V30 74850 C 7089.3 1.40886 4.77551 0
M  V30 74851 C 7088.01 3.40348 6.33684 0
M  V30 74852 C 7090.03 2.42164 5.39546 0
M  V30 74853 C 7089.4 3.4072 6.16514 0
M  V30 74854 H 7085.49 -0.0633661 0.779428 0
M  V30 74855 H 7088.08 0.458797 1.89217 0
M  V30 74856 H 7086.25 -1.35776 3.63895 0
M  V30 74857 H 7087.98 -1.23503 3.85395 0
M  V30 74858 H 7084.74 0.599294 4.69793 0
M  V30 74859 H 7085.16 2.7598 6.18194 0
M  V30 74860 H 7089.8 0.660572 4.17608 0
M  V30 74861 H 7087.52 4.16083 6.92748 0
M  V30 74862 H 7091.11 2.45113 5.27646 0
M  V30 74863 H 7089.99 4.17805 6.63633 0
M  V30 74864 N 7087.49 -1.57515 0.0518986 0
M  V30 74865 C 7088.72 -1.96748 -0.630376 0
M  V30 74866 C 7089.13 -0.92814 -1.6487 0
M  V30 74867 O 7088.47 0.0959711 -1.83449 0
M  V30 74868 C 7088.53 -3.32222 -1.37364 0
M  V30 74869 C 7088.2 -4.54133 -0.511059 0
M  V30 74870 C 7089.19 -5.19421 0.223158 0
M  V30 74871 C 7086.88 -5.00354 -0.441771 0
M  V30 74872 C 7088.87 -6.29265 1.01509 0
M  V30 74873 C 7086.56 -6.10075 0.353852 0
M  V30 74874 C 7087.56 -6.74392 1.08097 0
M  V30 74875 O 7087.25 -7.82003 1.86351 0
M  V30 74876 H 7086.98 -0.652391 -0.177092 0
M  V30 74877 H 7089.53 -2.05079 0.114834 0
M  V30 74878 H 7087.76 -3.20448 -2.16449 0
M  V30 74879 H 7089.45 -3.56198 -1.94621 0
M  V30 74880 H 7090.22 -4.84669 0.179101 0
M  V30 74881 H 7086.1 -4.50083 -0.997325 0
M  V30 74882 H 7089.64 -6.79398 1.58315 0
M  V30 74883 H 7085.54 -6.44262 0.399545 0
M  V30 74884 H 7086.3 -7.98783 1.7857 0
M  V30 74885 N 7088.97 0.221492 -1.56036 0
M  V30 74886 C 7089.9 1.30168 -1.87434 0
M  V30 74887 C 7090.88 1.45205 -0.731735 0
M  V30 74888 O 7092.06 1.61016 -0.980101 0
M  V30 74889 C 7089.19 2.67198 -2.08141 0
M  V30 74890 C 7088.24 2.69176 -3.30827 0
M  V30 74891 S 7089.07 2.23238 -4.8675 0
M  V30 74892 C 7090.22 3.62144 -5.10493 0
M  V30 74893 H 7090.46 1.03341 -2.78762 0
M  V30 74894 H 7087.99 0.423735 -1.48472 0
M  V30 74895 H 7089.95 3.46089 -2.20754 0
M  V30 74896 H 7088.61 2.9125 -1.17611 0
M  V30 74897 H 7087.8 3.69872 -3.4236 0
M  V30 74898 H 7087.4 1.98349 -3.1707 0
M  V30 74899 H 7089.7 4.57833 -4.99395 0
M  V30 74900 H 7090.64 3.55526 -6.12378 0
M  V30 74901 H 7091.05 3.55834 -4.38226 0
M  V30 74902 N 7090.45 1.49848 0.488197 0
M  V30 74903 C 7091.69 1.60217 1.24332 0
M  V30 74904 C 7092.02 0.293752 1.91965 0
M  V30 74905 O 7091.3 -0.703622 1.81327 0
M  V30 74906 C 7091.58 2.77048 2.30036 0
M  V30 74907 C 7091.44 4.17722 1.66819 0
M  V30 74908 C 7092.75 2.89482 3.31494 0
M  V30 74909 H 7089.87 0.583149 0.450673 0
M  V30 74910 H 7092.52 1.82177 0.539577 0
M  V30 74911 H 7090.67 2.58455 2.90058 0
M  V30 74912 H 7092.34 4.47863 1.10526 0
M  V30 74913 H 7090.58 4.22773 0.971856 0
M  V30 74914 H 7091.25 4.95366 2.4355 0
M  V30 74915 H 7093.73 3.06448 2.81477 0
M  V30 74916 H 7092.6 3.72883 4.02802 0
M  V30 74917 H 7092.86 1.99371 3.94593 0
M  V30 74918 N 7091.92 -0.740169 1.39138 0
M  V30 74919 C 7092.86 -1.86269 1.3183 0
M  V30 74920 C 7093.83 -1.61452 0.192879 0
M  V30 74921 O 7095.02 -1.84784 0.372463 0
M  V30 74922 C 7092.15 -3.2215 1.04581 0
M  V30 74923 C 7091.19 -3.65834 2.19243 0
M  V30 74924 S 7092.02 -3.75804 3.81486 0
M  V30 74925 C 7093.18 -5.14483 3.56452 0
M  V30 74926 H 7093.41 -1.92183 2.26832 0
M  V30 74927 H 7090.95 -0.90451 1.25132 0
M  V30 74928 H 7092.9 -4.00615 0.895439 0
M  V30 74929 H 7091.57 -3.13898 0.112743 0
M  V30 74930 H 7090.76 -4.6443 1.95757 0
M  V30 74931 H 7090.36 -2.9456 2.30457 0
M  V30 74932 H 7092.65 -6.00657 3.13397 0
M  V30 74933 H 7093.6 -5.42995 4.5449 0
M  V30 74934 H 7094 -4.83915 2.90666 0
M  V30 74935 N 7093.4 -1.24228 -0.969802 0
M  V30 74936 C 7094.63 -1.10863 -1.75283 0
M  V30 74937 C 7095.05 0.334981 -1.85093 0
M  V30 74938 O 7094.41 1.24248 -1.3203 0
M  V30 74939 C 7094.46 -1.75079 -3.15246 0
M  V30 74940 O 7093.56 -1.02013 -3.99584 0
M  V30 74941 H 7092.9 -0.387943 -0.538884 0
M  V30 74942 H 7095.43 -1.64494 -1.21667 0
M  V30 74943 H 7095.44 -1.8075 -3.65778 0
M  V30 74944 H 7094.12 -2.80116 -3.07421 0
M  V30 74945 H 7092.69 -1.04113 -3.58071 0
M  V30 74946 N 7094.88 1.17017 -1.05569 0
M  V30 74947 C 7095.81 2.23344 -0.681144 0
M  V30 74948 C 7096.79 1.67007 0.322895 0
M  V30 74949 O 7097.98 1.93171 0.199645 0
M  V30 74950 C 7095.11 3.4725 -0.0590884 0
M  V30 74951 C 7094.06 4.16433 -0.988302 0
M  V30 74952 C 7093.39 5.34205 -0.229927 0
M  V30 74953 C 7094.69 4.68237 -2.31413 0
M  V30 74954 H 7096.38 2.5493 -1.57006 0
M  V30 74955 H 7093.93 1.22536 -0.756367 0
M  V30 74956 H 7095.88 4.20852 0.21476 0
M  V30 74957 H 7094.6 3.14942 0.864802 0
M  V30 74958 H 7093.26 3.44748 -1.24678 0
M  V30 74959 H 7092.91 4.9815 0.696849 0
M  V30 74960 H 7092.61 5.81432 -0.849122 0
M  V30 74961 H 7094.13 6.10589 0.0365474 0
M  V30 74962 H 7095.55 5.33457 -2.09992 0
M  V30 74963 H 7093.95 5.26057 -2.88764 0
M  V30 74964 H 7095.02 3.8484 -2.95002 0
M  V30 74965 N 7096.36 0.837244 1.33521 0
M  V30 74966 C 7097.29 0.284328 2.31762 0
M  V30 74967 C 7098.27 -0.607058 1.58899 0
M  V30 74968 O 7099.45 -0.530949 1.86801 0
M  V30 74969 C 7096.58 -0.542781 3.43032 0
M  V30 74970 C 7095.54 0.252676 4.27253 0
M  V30 74971 C 7094.86 -0.69808 5.30124 0
M  V30 74972 C 7096.16 1.46884 5.01221 0
M  V30 74973 H 7097.86 1.10517 2.78256 0
M  V30 74974 H 7095.4 0.532883 1.33777 0
M  V30 74975 H 7097.36 -0.939879 4.10785 0
M  V30 74976 H 7096.08 -1.39682 2.95223 0
M  V30 74977 H 7094.74 0.631315 3.61123 0
M  V30 74978 H 7094.39 -1.54847 4.78572 0
M  V30 74979 H 7094.09 -0.169964 5.87354 0
M  V30 74980 H 7095.61 -1.09273 6.00743 0
M  V30 74981 H 7097.03 1.14499 5.6175 0
M  V30 74982 H 7095.42 1.93363 5.68094 0
M  V30 74983 H 7096.49 2.23947 4.30088 0
M  V30 74984 N 7097.84 -1.45997 0.593527 0
M  V30 74985 C 7099.08 -2.01929 0.0830945 0
M  V30 74986 C 7099.41 -1.46618 -1.28561 0
M  V30 74987 O 7098.68 -0.655006 -1.84625 0
M  V30 74988 H 7097.26 -0.746485 0.0277276 0
M  V30 74989 H 7099.92 -1.78969 0.771751 0
M  V30 74990 H 7099.01 -3.12092 0.0222436 0
M  V30 74991 N 7099.31 -0.331898 -1.54066 0
M  V30 74992 C 7100.26 0.545984 -2.21366 0
M  V30 74993 C 7101.25 1.07517 -1.19703 0
M  V30 74994 O 7102.44 1.01081 -1.45299 0
M  V30 74995 C 7099.57 1.70226 -2.98124 0
M  V30 74996 C 7098.66 1.18757 -4.07133 0
M  V30 74997 N 7099.05 0.393199 -5.04269 0
M  V30 74998 C 7097.34 1.46554 -4.21234 0
M  V30 74999 C 7098.05 0.115265 -5.81586 0
M  V30 75000 N 7097.02 0.703702 -5.39026 0
M  V30 75001 H 7100.82 -0.0681301 -2.93821 0
M  V30 75002 H 7098.34 -0.138171 -1.61811 0
M  V30 75003 H 7100.33 2.34303 -3.4483 0
M  V30 75004 H 7098.99 2.31977 -2.27193 0
M  V30 75005 H 7100.01 0.0353026 -5.17888 0
M  V30 75006 H 7096.68 2.08829 -3.6152 0
M  V30 75007 H 7098.07 -0.52478 -6.69848 0
M  V30 75008 N 7100.79 1.57485 -0.0602512 0
M  V30 75009 C 7102.02 1.9708 0.619933 0
M  V30 75010 C 7102.43 0.936871 1.64376 0
M  V30 75011 O 7101.77 -0.086241 1.83497 0
M  V30 75012 C 7101.84 3.32946 1.356 0
M  V30 75013 C 7101.5 4.54398 0.486968 0
M  V30 75014 C 7102.5 5.19295 -0.250701 0
M  V30 75015 C 7100.18 5.00581 0.41523 0
M  V30 75016 C 7102.18 6.28718 -1.04845 0
M  V30 75017 C 7099.86 6.09878 -0.386201 0
M  V30 75018 C 7100.86 6.73809 -1.11672 0
M  V30 75019 O 7100.55 7.81004 -1.90495 0
M  V30 75020 H 7100.28 0.653321 0.17363 0
M  V30 75021 H 7102.83 2.05015 -0.125708 0
M  V30 75022 H 7101.06 3.21591 2.14746 0
M  V30 75023 H 7102.75 3.57226 1.9273 0
M  V30 75024 H 7103.52 4.84567 -0.204802 0
M  V30 75025 H 7099.4 4.50605 0.973442 0
M  V30 75026 H 7102.94 6.78549 -1.61915 0
M  V30 75027 H 7098.84 6.44041 -0.433706 0
M  V30 75028 H 7099.61 7.97825 -1.82804 0
M  V30 75029 N 7102.27 -0.213214 1.56151 0
M  V30 75030 C 7103.22 -1.28384 1.93959 0
M  V30 75031 C 7104.21 -1.48083 0.82267 0
M  V30 75032 O 7105.42 -1.49158 1.00756 0
M  V30 75033 H 7101.79 -0.430614 0.616503 0
M  V30 75034 H 7103.76 -0.937828 2.8328 0
M  V30 75035 C 7102.51 -2.62525 2.27982 0
M  V30 75036 H 7101.84 -2.48177 3.13445 0
M  V30 75037 H 7103.28 -3.36228 2.58315 0
M  V30 75038 C 7101.74 -3.18162 1.10792 0
M  V30 75039 O 7102.27 -3.99961 0.373412 0
M  V30 75040 N 7100.47 -2.76651 0.889523 0
M  V30 75041 H 7100.02 -2.10238 1.48854 0
M  V30 75042 H 7099.98 -3.14217 0.107166 0
M  V30 75043 N 7103.75 -1.50105 -0.480243 0
M  V30 75044 C 7104.7 -1.68813 -1.60015 0
M  V30 75045 C 7105.69 -0.553972 -1.60086 0
M  V30 75046 O 7106.9 -0.734213 -1.64345 0
M  V30 75047 H 7103.27 -0.532674 -0.530813 0
M  V30 75048 H 7105.24 -2.62774 -1.41394 0
M  V30 75049 C 7103.99 -1.79108 -2.9802 0
M  V30 75050 H 7103.31 -2.65764 -2.9868 0
M  V30 75051 H 7104.75 -1.96226 -3.75861 0
M  V30 75052 C 7103.21 -0.540563 -3.32535 0
M  V30 75053 O 7103.74 0.324426 -4.00388 0
M  V30 75054 N 7101.95 -0.397306 -2.87871 0
M  V30 75055 H 7101.5 -1.10223 -2.32828 0
M  V30 75056 H 7101.45 0.43826 -3.1133 0
M  V30 75057 N 7105.23 0.732779 -1.39528 0
M  V30 75058 C 7106.47 1.49238 -1.36873 0
M  V30 75059 C 7106.8 1.94469 0.0346093 0
M  V30 75060 O 7106.06 1.67268 1.01587 0
M  V30 75061 C 7106.36 2.74455 -2.2893 0
M  V30 75062 C 7106.02 2.4808 -3.76519 0
M  V30 75063 C 7104.68 2.40597 -4.16733 0
M  V30 75064 C 7107.04 2.25573 -4.69858 0
M  V30 75065 C 7104.36 2.0865 -5.48345 0
M  V30 75066 C 7106.72 1.95142 -6.01749 0
M  V30 75067 C 7105.38 1.86129 -6.41024 0
M  V30 75068 H 7104.65 0.546102 -0.500853 0
M  V30 75069 H 7107.3 0.840867 -1.72051 0
M  V30 75070 H 7105.6 3.4436 -1.86877 0
M  V30 75071 H 7107.3 3.3249 -2.24168 0
M  V30 75072 H 7103.89 2.54785 -3.44649 0
M  V30 75073 H 7108.07 2.30321 -4.3962 0
M  V30 75074 H 7103.33 2.00196 -5.77695 0
M  V30 75075 H 7107.5 1.76736 -6.736 0
M  V30 75076 H 7105.13 1.6114 -7.42925 0
M  V30 75077 N 7106.7 1.24741 0.9632 0
M  V30 75078 C 7107.95 1.08979 1.70675 0
M  V30 75079 C 7108.28 -0.370651 1.90936 0
M  V30 75080 O 7107.53 -1.29003 1.47162 0
M  V30 75081 C 7107.83 1.77976 3.09934 0
M  V30 75082 C 7107.5 3.27903 3.095 0
M  V30 75083 C 7106.16 3.68805 3.09089 0
M  V30 75084 C 7108.51 4.23728 3.03486 0
M  V30 75085 C 7105.84 5.0396 3.00402 0
M  V30 75086 C 7108.19 5.58896 2.96341 0
M  V30 75087 C 7106.86 5.99138 2.94261 0
M  V30 75088 H 7106.13 0.398782 0.624543 0
M  V30 75089 H 7108.77 1.54902 1.12594 0
M  V30 75090 H 7107.08 1.24459 3.71506 0
M  V30 75091 H 7108.78 1.63241 3.66269 0
M  V30 75092 H 7105.37 2.95353 3.10588 0
M  V30 75093 H 7109.55 3.93125 3.0293 0
M  V30 75094 H 7104.81 5.3433 2.97155 0
M  V30 75095 H 7108.98 6.32848 2.90647 0
M  V30 75096 H 7106.61 7.03826 2.87285 0
M  V30 75097 N 7108.18 -1.16455 1.06188 0
M  V30 75098 C 7109.43 -1.8696 0.777961 0
M  V30 75099 C 7109.76 -1.8164 -0.695506 0
M  V30 75100 O 7109.01 -1.22615 -1.52525 0
M  V30 75101 C 7109.31 -3.36059 1.21651 0
M  V30 75102 C 7108.98 -3.61579 2.6939 0
M  V30 75103 C 7107.64 -3.68253 3.09746 0
M  V30 75104 C 7109.99 -3.7224 3.6481 0
M  V30 75105 C 7107.32 -3.83088 4.44365 0
M  V30 75106 C 7109.67 -3.88596 4.99175 0
M  V30 75107 C 7108.34 -3.93512 5.3917 0
M  V30 75108 H 7107.61 -0.684135 0.284676 0
M  V30 75109 H 7110.25 -1.37704 1.33078 0
M  V30 75110 H 7108.56 -3.8744 0.582855 0
M  V30 75111 H 7110.25 -3.88994 0.973887 0
M  V30 75112 H 7106.84 -3.57017 2.37143 0
M  V30 75113 H 7111.03 -3.66396 3.34766 0
M  V30 75114 H 7106.28 -3.85147 4.74839 0
M  V30 75115 H 7110.46 -3.95787 5.72997 0
M  V30 75116 H 7108.09 -4.0476 6.43486 0
M  V30 75117 N 7109.66 -0.844313 -1.33076 0
M  V30 75118 C 7110.62 -0.286605 -2.27401 0
M  V30 75119 C 7111.62 0.547792 -1.51182 0
M  V30 75120 O 7112.81 0.360796 -1.70423 0
M  V30 75121 C 7109.95 0.595636 -3.35656 0
M  V30 75122 H 7111.14 -1.119 -2.78242 0
M  V30 75123 H 7108.69 -0.617825 -1.43571 0
M  V30 75124 H 7109.43 1.45025 -2.90066 0
M  V30 75125 H 7109.21 -0.00146671 -3.921 0
M  V30 75126 H 7110.7 0.978954 -4.05963 0
M  V30 75127 N 7111.14 1.4568 -0.601261 0
M  V30 75128 C 7112.1 2.2893 0.111278 0
M  V30 75129 C 7113.1 1.3942 0.801173 0
M  V30 75130 O 7114.29 1.61607 0.650298 0
M  V30 75131 C 7111.42 3.20282 1.16756 0
M  V30 75132 H 7112.62 2.93409 -0.620567 0
M  V30 75133 H 7110.17 1.52097 -0.360026 0
M  V30 75134 H 7110.91 2.6059 1.93038 0
M  V30 75135 H 7110.69 3.86209 0.677154 0
M  V30 75136 H 7112.18 3.82895 1.66677 0
M  V30 75137 N 7112.62 0.340063 1.53887 0
M  V30 75138 C 7113.57 -0.534237 2.21653 0
M  V30 75139 C 7114.55 -1.06881 1.20272 0
M  V30 75140 O 7115.74 -1.00309 1.45833 0
M  V30 75141 C 7112.87 -1.68643 2.99023 0
M  V30 75142 C 7111.96 -1.16596 4.07757 0
M  V30 75143 N 7112.35 -0.366451 5.04471 0
M  V30 75144 C 7110.65 -1.44318 4.22005 0
M  V30 75145 C 7111.35 -0.0844208 5.81639 0
M  V30 75146 N 7110.32 -0.675107 5.39392 0
M  V30 75147 H 7114.13 0.0837111 2.93781 0
M  V30 75148 H 7111.64 0.14675 1.61736 0
M  V30 75149 H 7113.64 -2.32471 3.46068 0
M  V30 75150 H 7112.3 -2.30769 2.2842 0
M  V30 75151 H 7113.31 -0.00783728 5.17899 0
M  V30 75152 H 7109.99 -2.06909 3.62623 0
M  V30 75153 H 7111.38 0.560296 6.6956 0
M  V30 75154 N 7114.1 -1.57451 0.0686022 0
M  V30 75155 C 7115.03 -2.15568 -0.897357 0
M  V30 75156 C 7116.01 -1.08188 -1.3126 0
M  V30 75157 O 7117.19 -1.36209 -1.38422 0
M  V30 75158 C 7114.32 -2.71474 -2.16608 0
M  V30 75159 C 7113.28 -3.83992 -1.89034 0
M  V30 75160 C 7112.6 -4.26488 -3.2251 0
M  V30 75161 C 7113.9 -5.08372 -1.19813 0
M  V30 75162 H 7115.6 -2.96535 -0.413217 0
M  V30 75163 H 7113.14 -1.42642 -0.197315 0
M  V30 75164 H 7115.09 -3.10776 -2.84598 0
M  V30 75165 H 7113.82 -1.87724 -2.67259 0
M  V30 75166 H 7112.48 -3.45189 -1.2345 0
M  V30 75167 H 7112.13 -3.39664 -3.70995 0
M  V30 75168 H 7111.83 -5.02334 -3.04852 0
M  V30 75169 H 7113.35 -4.68403 -3.91702 0
M  V30 75170 H 7114.76 -5.4501 -1.77867 0
M  V30 75171 H 7113.16 -5.89475 -1.12425 0
M  V30 75172 H 7114.23 -4.84578 -0.176741 0
M  V30 75173 N 7115.57 0.204929 -1.56262 0
M  V30 75174 C 7116.5 1.2569 -1.96785 0
M  V30 75175 C 7117.48 1.48004 -0.838387 0
M  V30 75176 O 7118.67 1.59907 -1.10197 0
M  V30 75177 C 7115.8 2.60323 -2.2989 0
M  V30 75178 C 7114.75 2.52638 -3.45482 0
M  V30 75179 C 7114.08 3.91454 -3.64236 0
M  V30 75180 C 7115.38 2.05988 -4.79965 0
M  V30 75181 H 7117.07 0.920188 -2.84909 0
M  V30 75182 H 7114.62 0.441205 -1.37074 0
M  V30 75183 H 7116.57 3.34089 -2.56832 0
M  V30 75184 H 7115.3 2.95715 -1.38638 0
M  V30 75185 H 7113.96 1.81329 -3.18615 0
M  V30 75186 H 7113.6 4.24182 -2.70331 0
M  V30 75187 H 7113.3 3.8719 -4.41993 0
M  V30 75188 H 7114.83 4.66857 -3.93544 0
M  V30 75189 H 7116.24 2.69507 -5.06003 0
M  V30 75190 H 7114.64 2.12747 -5.61123 0
M  V30 75191 H 7115.71 1.01272 -4.74207 0
M  V30 75192 N 7117.05 1.50357 0.472276 0
M  V30 75193 C 7118.33 1.51804 1.23348 0
M  V30 75194 C 7118.71 0.262041 2.09467 0
M  V30 75195 O 7118.06 -0.754577 2.15681 0
M  V30 75196 C 7118.27 2.81312 2.06553 0
M  V30 75197 C 7119.61 3.31927 2.64782 0
M  V30 75198 O 7120.64 2.82626 2.16797 0
M  V30 75199 O 7119.5 4.17865 3.52209 0
M  V30 75200 H 7116.59 0.608845 0.559675 0
M  V30 75201 H 7119.14 1.62646 0.484195 0
M  V30 75202 H 7117.91 3.64202 1.43084 0
M  V30 75203 H 7117.53 2.73469 2.88618 0
M  V30 75204 N 7118.53 -0.72537 1.39915 0
M  V30 75205 C 7119.78 -1.48061 1.3697 0
M  V30 75206 C 7120.09 -1.95579 -0.0283447 0
M  V30 75207 O 7121.3 -2.709 -0.180392 0
M  V30 75208 C 7119.75 -2.67585 2.40678 0
M  V30 75209 C 7119.36 -2.26977 3.86246 0
M  V30 75210 C 7121.11 -3.45366 2.46825 0
M  V30 75211 C 7119.01 -3.43281 4.81572 0
M  V30 75212 H 7117.94 -0.556038 0.509252 0
M  V30 75213 H 7120.59 -0.790367 1.65606 0
M  V30 75214 H 7118.98 -3.38731 2.05127 0
M  V30 75215 H 7120.15 -1.63314 4.30889 0
M  V30 75216 H 7118.46 -1.62264 3.83483 0
M  V30 75217 H 7121.06 -4.31892 3.15235 0
M  V30 75218 H 7121.4 -3.88502 1.49573 0
M  V30 75219 H 7121.94 -2.81256 2.81318 0
M  V30 75220 H 7118.68 -3.05187 5.80122 0
M  V30 75221 H 7118.2 -4.05892 4.41601 0
M  V30 75222 H 7119.88 -4.09484 5.00931 0
M  V30 75223 N 7120.01 -1.2525 -0.956571 0
M  V30 75224 C 7120.97 -1.05548 -2.03451 0
M  V30 75225 C 7121.97 -0.00894796 -1.60798 0
M  V30 75226 O 7123.16 -0.250955 -1.72383 0
M  V30 75227 C 7120.29 -0.602142 -3.3554 0
M  V30 75228 H 7121.49 -2.01235 -2.22361 0
M  V30 75229 H 7119.04 -1.07629 -1.13339 0
M  V30 75230 H 7119.77 0.357414 -3.22324 0
M  V30 75231 H 7119.56 -1.35762 -3.67846 0
M  V30 75232 H 7121.05 -0.485673 -4.14766 0
M  V30 75233 N 7121.49 1.1589 -1.06804 0
M  V30 75234 C 7122.42 2.194 -0.627619 0
M  V30 75235 C 7123.4 1.58738 0.352269 0
M  V30 75236 O 7124.58 1.86698 0.260013 0
M  V30 75237 C 7121.71 3.38607 0.0791774 0
M  V30 75238 C 7120.75 4.17775 -0.858278 0
M  V30 75239 S 7121.59 4.80873 -2.35631 0
M  V30 75240 C 7122.74 6.03454 -1.66115 0
M  V30 75241 H 7122.98 2.56419 -1.50454 0
M  V30 75242 H 7120.51 1.26764 -0.881494 0
M  V30 75243 H 7122.47 4.07675 0.480735 0
M  V30 75244 H 7121.13 2.99943 0.932366 0
M  V30 75245 H 7120.32 5.03043 -0.310373 0
M  V30 75246 H 7119.92 3.54227 -1.19996 0
M  V30 75247 H 7122.21 6.70525 -0.969691 0
M  V30 75248 H 7123.16 6.62803 -2.49194 0
M  V30 75249 H 7123.57 5.52838 -1.14151 0
M  V30 75250 N 7122.96 0.851359 1.32626 0
M  V30 75251 C 7124.21 0.452232 1.96975 0
M  V30 75252 C 7124.53 -0.994731 1.6772 0
M  V30 75253 O 7123.8 -1.6947 0.982679 0
M  V30 75254 H 7122.38 0.16424 0.728721 0
M  V30 75255 H 7125.04 1.08706 1.61768 0
M  V30 75256 H 7124.14 0.594569 3.06384 0
M  V30 75257 N 7124.44 -1.45359 0.608979 0
M  V30 75258 C 7125.69 -2.02529 0.104869 0
M  V30 75259 C 7126.02 -1.47619 -1.26183 0
M  V30 75260 O 7125.3 -0.651437 -1.83266 0
M  V30 75261 C 7125.58 -3.60037 0.067456 0
M  V30 75262 C 7125.43 -4.25277 1.46492 0
M  V30 75263 C 7126.75 -4.35716 -0.619647 0
M  V30 75264 H 7123.87 -0.735936 0.0395827 0
M  V30 75265 H 7126.51 -1.73196 0.781217 0
M  V30 75266 H 7124.66 -3.85158 -0.508506 0
M  V30 75267 H 7126.33 -4.11336 2.08807 0
M  V30 75268 H 7124.58 -3.83624 2.02523 0
M  V30 75269 H 7125.25 -5.34187 1.39097 0
M  V30 75270 H 7127.72 -4.15897 -0.130078 0
M  V30 75271 H 7126.6 -5.45445 -0.614936 0
M  V30 75272 H 7126.86 -4.08689 -1.68599 0
M  V30 75273 N 7125.92 -0.34822 -1.53705 0
M  V30 75274 C 7126.87 0.506399 -2.25176 0
M  V30 75275 C 7127.84 1.09175 -1.2518 0
M  V30 75276 O 7129.02 1.12749 -1.53923 0
M  V30 75277 C 7126.16 1.64907 -3.03149 0
M  V30 75278 C 7125.28 1.09058 -4.18008 0
M  V30 75279 C 7124.41 2.20094 -4.83459 0
M  V30 75280 C 7123.45 1.6162 -5.90377 0
M  V30 75281 N 7122.59 2.66417 -6.49589 0
M  V30 75282 H 7127.43 -0.109609 -2.97798 0
M  V30 75283 H 7124.96 -0.065864 -1.46952 0
M  V30 75284 H 7126.92 2.32187 -3.4662 0
M  V30 75285 H 7125.55 2.236 -2.32815 0
M  V30 75286 H 7124.6 0.308583 -3.79146 0
M  V30 75287 H 7125.92 0.622917 -4.94895 0
M  V30 75288 H 7125.07 2.95229 -5.30023 0
M  V30 75289 H 7123.81 2.70206 -4.06005 0
M  V30 75290 H 7122.81 0.849923 -5.43191 0
M  V30 75291 H 7124.04 1.12354 -6.69741 0
M  V30 75292 H 7121.98 3.15775 -5.74998 0
M  V30 75293 H 7121.9 2.24287 -7.21964 0
M  V30 75294 H 7123.17 3.41307 -7.00807 0
M  V30 75295 N 7127.4 1.57412 -0.0769512 0
M  V30 75296 C 7128.63 1.98013 0.599865 0
M  V30 75297 C 7129.04 0.955494 1.62837 0
M  V30 75298 O 7128.4 -0.0572178 1.8241 0
M  V30 75299 C 7128.45 3.38688 1.26384 0
M  V30 75300 O 7128.17 4.37227 0.276492 0
M  V30 75301 C 7129.67 3.94192 2.02799 0
M  V30 75302 H 7126.89 0.6511 0.162204 0
M  V30 75303 H 7129.44 2.03943 -0.150878 0
M  V30 75304 H 7127.59 3.33829 1.96563 0
M  V30 75305 H 7128 5.1906 0.75347 0
M  V30 75306 H 7129.48 4.94828 2.44641 0
M  V30 75307 H 7129.96 3.31016 2.88661 0
M  V30 75308 H 7130.56 4.02468 1.37475 0
M  V30 75309 N 7128.88 -0.19664 1.56368 0
M  V30 75310 C 7129.81 -1.24644 1.97449 0
M  V30 75311 C 7130.79 -1.47557 0.846225 0
M  V30 75312 O 7131.97 -1.5932 1.11044 0
M  V30 75313 C 7129.1 -2.591 2.31267 0
M  V30 75314 C 7128.06 -2.50802 3.46817 0
M  V30 75315 C 7127.38 -3.89517 3.66307 0
M  V30 75316 C 7128.68 -2.0344 4.8105 0
M  V30 75317 H 7130.38 -0.905065 2.85393 0
M  V30 75318 H 7127.92 -0.433929 1.37306 0
M  V30 75319 H 7129.88 -3.32722 2.586 0
M  V30 75320 H 7128.6 -2.94975 1.40204 0
M  V30 75321 H 7127.26 -1.79636 3.19572 0
M  V30 75322 H 7126.91 -4.22742 2.72577 0
M  V30 75323 H 7126.61 -3.8484 4.4404 0
M  V30 75324 H 7128.13 -4.64763 3.96014 0
M  V30 75325 H 7129.54 -2.66819 5.07425 0
M  V30 75326 H 7127.94 -2.09769 5.62243 0
M  V30 75327 H 7129.01 -0.987559 4.74737 0
M  V30 75328 N 7130.35 -1.50606 -0.464296 0
M  V30 75329 C 7131.77 -1.38182 -0.798611 0
M  V30 75330 C 7131.97 -0.443184 -1.96566 0
M  V30 75331 O 7131.03 0.111681 -2.52253 0
M  V30 75332 C 7132.34 -2.79689 -1.10429 0
M  V30 75333 C 7133.89 -2.88651 -1.21034 0
M  V30 75334 C 7134.36 -4.31006 -1.54912 0
M  V30 75335 N 7135.85 -4.33988 -1.6189 0
M  V30 75336 C 7136.59 -5.41139 -1.89621 0
M  V30 75337 N 7136.08 -6.58488 -2.15326 0
M  V30 75338 N 7137.88 -5.28589 -1.9118 0
M  V30 75339 H 7130.03 -2.10203 0.304714 0
M  V30 75340 H 7132.29 -0.945121 0.0738303 0
M  V30 75341 H 7132 -3.50243 -0.319749 0
M  V30 75342 H 7131.87 -3.17353 -2.0388 0
M  V30 75343 H 7134.26 -2.18311 -1.98555 0
M  V30 75344 H 7134.34 -2.54521 -0.255478 0
M  V30 75345 H 7133.98 -5.01886 -0.779284 0
M  V30 75346 H 7133.91 -4.62629 -2.5156 0
M  V30 75347 H 7136.4 -3.49373 -1.44037 0
M  V30 75348 H 7136.72 -7.35954 -2.3578 0
M  V30 75349 H 7135.06 -6.61651 -2.12705 0
M  V30 75350 H 7138.25 -4.35906 -1.70599 0
M  V30 75351 H 7138.43 -6.12182 -2.12455 0
M  V30 75352 N 7131.83 0.717939 -1.40298 0
M  V30 75353 C 7133.06 1.50706 -1.41758 0
M  V30 75354 C 7133.48 1.88793 -0.0166361 0
M  V30 75355 O 7132.83 1.55281 0.95886 0
M  V30 75356 C 7132.88 2.78388 -2.30613 0
M  V30 75357 O 7132.6 2.41913 -3.65253 0
M  V30 75358 C 7134.11 3.723 -2.4064 0
M  V30 75359 H 7131.33 0.465169 -0.48359 0
M  V30 75360 H 7133.87 0.885792 -1.8432 0
M  V30 75361 H 7132.02 3.36805 -1.91418 0
M  V30 75362 H 7132.44 3.24054 -4.12419 0
M  V30 75363 H 7133.91 4.58737 -3.07025 0
M  V30 75364 H 7134.39 4.15243 -1.43072 0
M  V30 75365 H 7135 3.19796 -2.80376 0
M  V30 75366 N 7133.31 1.25755 0.949916 0
M  V30 75367 C 7134.56 1.10176 1.6895 0
M  V30 75368 C 7134.87 -0.356207 1.92329 0
M  V30 75369 O 7136.08 -0.632517 2.64029 0
M  V30 75370 C 7134.53 1.92352 3.04185 0
M  V30 75371 C 7134.14 3.4267 2.88585 0
M  V30 75372 C 7135.89 1.85357 3.81894 0
M  V30 75373 C 7133.79 4.17124 4.1924 0
M  V30 75374 H 7132.72 0.408701 0.633624 0
M  V30 75375 H 7135.37 1.49991 1.05711 0
M  V30 75376 H 7133.76 1.45364 3.68355 0
M  V30 75377 H 7134.93 3.97365 2.33319 0
M  V30 75378 H 7133.25 3.50808 2.24327 0
M  V30 75379 H 7135.84 2.38274 4.78675 0
M  V30 75380 H 7136.19 0.822441 4.08095 0
M  V30 75381 H 7136.72 2.30121 3.24483 0
M  V30 75382 H 7133.46 5.20669 3.98226 0
M  V30 75383 H 7132.98 3.67211 4.74253 0
M  V30 75384 H 7134.66 4.25096 4.87752 0
M  V30 75385 N 7134.79 -1.15322 1.07418 0
M  V30 75386 C 7135.72 -2.22232 0.71659 0
M  V30 75387 C 7136.7 -1.675 -0.296285 0
M  V30 75388 O 7137.88 -1.93464 -0.168887 0
M  V30 75389 C 7135.01 -3.47112 0.114325 0
M  V30 75390 C 7133.97 -4.14808 1.05443 0
M  V30 75391 C 7133.29 -5.33772 0.314886 0
M  V30 75392 C 7134.59 -4.64496 2.38833 0
M  V30 75393 H 7136.29 -2.524 1.61042 0
M  V30 75394 H 7133.83 -1.21317 0.775766 0
M  V30 75395 H 7135.79 -4.21141 -0.147779 0
M  V30 75396 H 7134.51 -3.16278 -0.814588 0
M  V30 75397 H 7133.17 -3.42721 1.30146 0
M  V30 75398 H 7132.82 -4.99195 -0.617509 0
M  V30 75399 H 7132.52 -5.80008 0.941515 0
M  V30 75400 H 7134.04 -6.1057 0.0605966 0
M  V30 75401 H 7135.46 -5.30049 2.18452 0
M  V30 75402 H 7133.85 -5.21396 2.97096 0
M  V30 75403 H 7134.92 -3.80098 3.01087 0
M  V30 75404 N 7136.27 -0.85838 -1.32173 0
M  V30 75405 C 7137.49 -0.476824 -2.01844 0
M  V30 75406 C 7137.92 0.919934 -1.6407 0
M  V30 75407 O 7137.27 1.60495 -0.843273 0
M  V30 75408 C 7137.32 -0.627765 -3.55094 0
M  V30 75409 O 7136.43 0.337869 -4.11014 0
M  V30 75410 H 7135.77 -0.191132 -0.635897 0
M  V30 75411 H 7138.3 -1.1586 -1.68635 0
M  V30 75412 H 7138.31 -0.51669 -4.04715 0
M  V30 75413 H 7136.98 -1.64629 -3.81929 0
M  V30 75414 H 7135.56 0.18272 -3.72452 0
M  V30 75415 N 7137.74 1.45034 -0.616679 0
M  V30 75416 C 7138.97 2.07051 -0.120301 0
M  V30 75417 C 7139.39 1.45673 1.19 0
M  V30 75418 O 7138.75 0.552783 1.72667 0
M  V30 75419 C 7138.8 3.606 -0.00373916 0
M  V30 75420 O 7137.9 3.98964 1.0441 0
M  V30 75421 H 7137.25 0.65938 -0.0781946 0
M  V30 75422 H 7139.78 1.86141 -0.849265 0
M  V30 75423 H 7139.79 4.0755 0.191539 0
M  V30 75424 H 7138.46 4.04658 -0.960452 0
M  V30 75425 H 7137.04 3.63669 0.824558 0
M  V30 75426 N 7139.22 0.356366 1.53518 0
M  V30 75427 C 7140.47 -0.236547 2.01416 0
M  V30 75428 C 7140.8 -1.4917 1.24346 0
M  V30 75429 O 7140.08 -1.916 0.334598 0
M  V30 75430 C 7140.36 -0.537795 3.56061 0
M  V30 75431 C 7140.21 0.730346 4.43831 0
M  V30 75432 C 7141.53 -1.34217 4.19135 0
M  V30 75433 H 7138.65 -0.0845 0.73214 0
M  V30 75434 H 7141.29 0.479438 1.83852 0
M  V30 75435 H 7139.44 -1.14775 3.71159 0
M  V30 75436 H 7141.12 1.36805 4.40547 0
M  V30 75437 H 7139.36 1.35261 4.12173 0
M  V30 75438 H 7140.03 0.474648 5.49956 0
M  V30 75439 H 7142.51 -0.826283 4.07813 0
M  V30 75440 H 7141.38 -1.5217 5.27386 0
M  V30 75441 H 7141.64 -2.34802 3.74593 0
M  V30 75442 N 7140.7 -1.57369 0.085298 0
M  V30 75443 C 7141.93 -1.98329 -0.589356 0
M  V30 75444 C 7142.34 -0.964116 -1.62328 0
M  V30 75445 O 7141.7 0.0475433 -1.82438 0
M  V30 75446 C 7141.75 -3.39353 -1.24586 0
M  V30 75447 O 7141.47 -4.37367 -0.253301 0
M  V30 75448 C 7142.97 -3.95262 -2.00705 0
M  V30 75449 H 7140.19 -0.651951 -0.158749 0
M  V30 75450 H 7142.74 -2.0386 0.161692 0
M  V30 75451 H 7140.89 -3.34867 -1.9479 0
M  V30 75452 H 7141.31 -5.19452 -0.725933 0
M  V30 75453 H 7142.78 -4.96119 -2.42013 0
M  V30 75454 H 7143.26 -3.32542 -2.86901 0
M  V30 75455 H 7143.86 -4.03192 -1.35339 0
M  V30 75456 N 7142.18 0.188344 -1.56471 0
M  V30 75457 C 7143.13 1.23764 -1.91485 0
M  V30 75458 C 7144.11 1.40659 -0.781264 0
M  V30 75459 O 7145.31 1.42916 -1.04422 0
M  V30 75460 C 7142.43 2.58094 -2.26367 0
M  V30 75461 C 7141.52 2.44963 -3.46199 0
M  V30 75462 N 7141.91 2.01521 -4.63921 0
M  V30 75463 C 7140.21 2.75838 -3.50471 0
M  V30 75464 C 7140.91 2.00444 -5.46074 0
M  V30 75465 N 7139.89 2.42204 -4.8666 0
M  V30 75466 H 7143.69 0.893191 -2.79999 0
M  V30 75467 H 7141.2 0.396737 -1.57479 0
M  V30 75468 H 7143.2 3.33895 -2.4964 0
M  V30 75469 H 7141.86 2.93356 -1.39184 0
M  V30 75470 H 7142.87 1.72124 -4.88461 0
M  V30 75471 H 7139.55 3.15251 -2.73721 0
M  V30 75472 H 7140.94 1.687 -6.50377 0
M  V30 75473 N 7143.66 1.5085 0.456302 0
M  V30 75474 C 7144.61 1.71338 1.57309 0
M  V30 75475 C 7145.6 0.579371 1.59184 0
M  V30 75476 O 7146.81 0.760266 1.63156 0
M  V30 75477 H 7143.18 0.541052 0.522271 0
M  V30 75478 H 7145.15 2.6499 1.37196 0
M  V30 75479 C 7143.9 1.83826 2.95133 0
M  V30 75480 H 7143.22 2.70482 2.94414 0
M  V30 75481 H 7144.66 2.02181 3.72691 0
M  V30 75482 C 7143.12 0.593398 3.31633 0
M  V30 75483 O 7143.65 -0.260686 4.00853 0
M  V30 75484 N 7141.86 0.443054 2.87203 0
M  V30 75485 H 7141.41 1.13913 2.31045 0
M  V30 75486 H 7141.36 -0.388675 3.11988 0
M  V30 75487 N 7145.14 -0.710489 1.40676 0
M  V30 75488 C 7146.38 -1.46752 1.38955 0
M  V30 75489 C 7146.7 -1.94999 -0.00562596 0
M  V30 75490 O 7145.97 -1.70694 -0.961268 0
M  V30 75491 H 7144.55 -0.544472 0.511429 0
M  V30 75492 H 7147.22 -0.841919 1.75778 0
M  V30 75493 H 7146.31 -2.3379 2.06758 0
M  V30 75494 N 7146.61 -1.26257 -0.943233 0
M  V30 75495 C 7147.56 -1.07636 -2.04165 0
M  V30 75496 C 7148.53 0.0179863 -1.6609 0
M  V30 75497 O 7149.72 -0.141389 -1.90275 0
M  V30 75498 C 7146.86 -0.713221 -3.37649 0
M  V30 75499 C 7145.97 -1.88361 -3.88773 0
M  V30 75500 C 7145.1 -1.46377 -5.10634 0
M  V30 75501 C 7144.14 -2.60258 -5.54014 0
M  V30 75502 N 7143.28 -2.18971 -6.6708 0
M  V30 75503 H 7148.12 -2.01635 -2.19425 0
M  V30 75504 H 7145.66 -1.00395 -1.07514 0
M  V30 75505 H 7147.61 -0.483577 -4.14388 0
M  V30 75506 H 7146.24 0.18979 -3.22242 0
M  V30 75507 H 7145.3 -2.22624 -3.08452 0
M  V30 75508 H 7146.61 -2.73843 -4.16907 0
M  V30 75509 H 7145.76 -1.19445 -5.94826 0
M  V30 75510 H 7144.5 -0.579823 -4.84241 0
M  V30 75511 H 7143.51 -2.87922 -4.68381 0
M  V30 75512 H 7144.73 -3.49249 -5.8241 0
M  V30 75513 H 7142.68 -1.33008 -6.42374 0
M  V30 75514 H 7142.59 -2.97997 -6.9479 0
M  V30 75515 H 7143.86 -1.95246 -7.54652 0
M  V30 75516 N 7148.09 1.14751 -1.08028 0
M  V30 75517 C 7149.02 2.1935 -0.664682 0
M  V30 75518 C 7150.04 1.60263 0.286289 0
M  V30 75519 O 7151.23 1.78344 0.0745422 0
M  V30 75520 C 7148.33 3.38872 0.0432847 0
M  V30 75521 C 7147.5 4.27494 -0.925606 0
M  V30 75522 C 7146.56 5.25588 -0.253675 0
M  V30 75523 O 7145.58 5.6209 -0.896878 0
M  V30 75524 N 7146.79 5.71857 0.997962 0
M  V30 75525 H 7149.55 2.55623 -1.56452 0
M  V30 75526 H 7147.11 1.29934 -0.965856 0
M  V30 75527 H 7149.1 4.01554 0.503645 0
M  V30 75528 H 7147.67 3.00958 0.845162 0
M  V30 75529 H 7146.89 3.61807 -1.56491 0
M  V30 75530 H 7148.18 4.83571 -1.58228 0
M  V30 75531 H 7147.58 5.44325 1.54035 0
M  V30 75532 H 7146.14 6.36546 1.40188 0
M  V30 75533 N 7149.57 0.865377 1.31716 0
M  V30 75534 C 7150.5 0.333424 2.31107 0
M  V30 75535 C 7151.48 -0.573217 1.60151 0
M  V30 75536 O 7152.67 -0.491206 1.87885 0
M  V30 75537 C 7149.8 -0.469897 3.44106 0
M  V30 75538 C 7148.75 0.343246 4.26621 0
M  V30 75539 C 7148.08 -0.585476 5.31485 0
M  V30 75540 C 7149.38 1.57483 4.97992 0
M  V30 75541 H 7151.07 1.16394 2.75849 0
M  V30 75542 H 7148.62 0.561139 1.32617 0
M  V30 75543 H 7150.57 -0.852534 4.12686 0
M  V30 75544 H 7149.29 -1.33388 2.98119 0
M  V30 75545 H 7147.95 0.707772 3.59703 0
M  V30 75546 H 7147.6 -1.44661 4.81749 0
M  V30 75547 H 7147.3 -0.0453395 5.87583 0
M  V30 75548 H 7148.82 -0.965057 6.02925 0
M  V30 75549 H 7150.24 1.26388 5.59195 0
M  V30 75550 H 7148.63 2.05369 5.63865 0
M  V30 75551 H 7149.7 2.3302 4.25241 0
M  V30 75552 N 7151.05 -1.44705 0.624362 0
M  V30 75553 C 7152.29 -2.02406 0.126344 0
M  V30 75554 C 7152.63 -1.48949 -1.2461 0
M  V30 75555 O 7151.9 -0.670838 -1.82565 0
M  V30 75556 C 7152.18 -3.59945 0.105639 0
M  V30 75557 C 7152.04 -4.23699 1.50994 0
M  V30 75558 C 7153.36 -4.36349 -0.573399 0
M  V30 75559 H 7150.48 -0.735475 0.047386 0
M  V30 75560 H 7153.12 -1.72358 0.799543 0
M  V30 75561 H 7151.27 -3.85675 -0.467627 0
M  V30 75562 H 7152.94 -4.09098 2.13158 0
M  V30 75563 H 7151.18 -3.81454 2.0658 0
M  V30 75564 H 7151.85 -5.32682 1.44755 0
M  V30 75565 H 7154.33 -4.16011 -0.0859593 0
M  V30 75566 H 7153.21 -5.46066 -0.55705 0
M  V30 75567 H 7153.47 -4.10454 -1.64255 0
M  V30 75568 N 7152.53 -0.364502 -1.53327 0
M  V30 75569 C 7153.46 0.526028 -2.22054 0
M  V30 75570 C 7154.44 1.08385 -1.21208 0
M  V30 75571 O 7155.62 1.14018 -1.50107 0
M  V30 75572 C 7152.75 1.72568 -2.91441 0
M  V30 75573 C 7151.79 1.2954 -4.06352 0
M  V30 75574 S 7152.63 0.297603 -5.34672 0
M  V30 75575 C 7153.78 1.5036 -6.07571 0
M  V30 75576 H 7154.02 -0.0576622 -2.97244 0
M  V30 75577 H 7151.55 -0.148606 -1.53683 0
M  V30 75578 H 7153.51 2.4138 -3.32033 0
M  V30 75579 H 7152.17 2.28062 -2.15978 0
M  V30 75580 H 7151.36 2.19043 -4.53912 0
M  V30 75581 H 7150.96 0.686502 -3.67645 0
M  V30 75582 H 7153.25 2.4348 -6.32237 0
M  V30 75583 H 7154.2 1.0694 -6.99978 0
M  V30 75584 H 7154.61 1.70917 -5.38003 0
M  V30 75585 N 7154 1.57322 -0.0936425 0
M  V30 75586 C 7155.23 1.98638 0.578829 0
M  V30 75587 C 7155.65 0.972711 1.61814 0
M  V30 75588 O 7155 -0.0378675 1.82461 0
M  V30 75589 C 7155.06 3.40009 1.22784 0
M  V30 75590 O 7154.78 4.37495 0.230103 0
M  V30 75591 C 7156.28 3.96321 1.98606 0
M  V30 75592 H 7153.5 0.652783 0.155289 0
M  V30 75593 H 7156.04 2.03771 -0.172501 0
M  V30 75594 H 7154.2 3.35895 1.93011 0
M  V30 75595 H 7154.61 5.1983 0.698375 0
M  V30 75596 H 7156.08 4.97395 2.39379 0
M  V30 75597 H 7156.56 3.34059 2.85134 0
M  V30 75598 H 7157.17 4.03904 1.33198 0
M  V30 75599 N 7155.48 -0.180044 1.56568 0
M  V30 75600 C 7156.73 -0.899401 1.81765 0
M  V30 75601 C 7157.06 -1.82272 0.670112 0
M  V30 75602 O 7156.34 -1.91706 -0.328474 0
M  V30 75603 C 7156.62 -1.70263 3.17305 0
M  V30 75604 C 7156.47 -0.803022 4.42574 0
M  V30 75605 C 7157.79 -2.67214 3.49692 0
M  V30 75606 H 7154.91 -0.325532 0.66121 0
M  V30 75607 H 7157.55 -0.166021 1.89273 0
M  V30 75608 H 7155.7 -2.32786 3.11035 0
M  V30 75609 H 7157.37 -0.191342 4.60903 0
M  V30 75610 H 7155.62 -0.110567 4.33659 0
M  V30 75611 H 7156.29 -1.40036 5.33942 0
M  V30 75612 H 7158.76 -2.1482 3.56359 0
M  V30 75613 H 7157.64 -3.20488 4.45622 0
M  V30 75614 H 7157.9 -3.46992 2.7395 0
M  V30 75615 N 7156.96 -1.5109 -0.448296 0
M  V30 75616 C 7158.21 -1.62892 -1.19626 0
M  V30 75617 C 7158.53 -0.342126 -1.91975 0
M  V30 75618 O 7157.8 0.641539 -1.85098 0
M  V30 75619 H 7156.38 -0.600308 -0.444566 0
M  V30 75620 H 7159.04 -1.87972 -0.515039 0
M  V30 75621 H 7158.14 -2.45127 -1.93181 0
M  V30 75622 N 7158.44 0.703019 -1.41051 0
M  V30 75623 C 7159.37 1.82962 -1.45077 0
M  V30 75624 C 7160.35 1.67247 -0.310248 0
M  V30 75625 O 7161.53 1.87091 -0.520646 0
M  V30 75626 C 7158.66 3.21033 -1.32495 0
M  V30 75627 C 7157.62 3.51441 -2.44281 0
M  V30 75628 C 7156.94 4.8879 -2.16768 0
M  V30 75629 C 7158.24 3.51168 -3.86624 0
M  V30 75630 H 7159.94 1.7985 -2.39362 0
M  V30 75631 H 7157.48 0.863858 -1.15211 0
M  V30 75632 H 7159.44 3.99552 -1.33925 0
M  V30 75633 H 7158.16 3.24752 -0.346906 0
M  V30 75634 H 7156.82 2.75269 -2.42121 0
M  V30 75635 H 7156.47 4.89126 -1.17325 0
M  V30 75636 H 7156.17 5.101 -2.9167 0
M  V30 75637 H 7157.69 5.69628 -2.19902 0
M  V30 75638 H 7159.11 4.19705 -3.90539 0
M  V30 75639 H 7157.5 3.84009 -4.61148 0
M  V30 75640 H 7158.57 2.50293 -4.15309 0
M  V30 75641 N 7159.92 1.26756 0.936524 0
M  V30 75642 C 7160.85 1.11223 2.05309 0
M  V30 75643 C 7161.83 0.0161159 1.70092 0
M  V30 75644 O 7163.01 0.188996 1.93278 0
M  V30 75645 C 7160.14 0.749349 3.3912 0
M  V30 75646 C 7159.1 1.79771 3.88415 0
M  V30 75647 C 7158.42 1.28903 5.1893 0
M  V30 75648 C 7159.72 3.20014 4.12781 0
M  V30 75649 H 7161.42 2.04624 2.18562 0
M  V30 75650 H 7158.96 0.985215 1.05022 0
M  V30 75651 H 7160.92 0.627543 4.16701 0
M  V30 75652 H 7159.64 -0.220371 3.25856 0
M  V30 75653 H 7158.3 1.90827 3.13018 0
M  V30 75654 H 7157.95 0.309022 5.0205 0
M  V30 75655 H 7157.65 1.98987 5.52882 0
M  V30 75656 H 7159.17 1.17999 5.9909 0
M  V30 75657 H 7160.58 3.12009 4.80961 0
M  V30 75658 H 7158.98 3.8773 4.58024 0
M  V30 75659 H 7160.05 3.65724 3.18393 0
M  V30 75660 N 7161.39 -1.14177 1.08635 0
M  V30 75661 C 7162.36 -2.17526 0.722141 0
M  V30 75662 C 7163.36 -1.58935 -0.244222 0
M  V30 75663 O 7164.55 -1.74184 -0.0234626 0
M  V30 75664 C 7161.68 -3.40835 0.0665763 0
M  V30 75665 H 7162.87 -2.5126 1.63732 0
M  V30 75666 H 7160.43 -1.28865 0.88451 0
M  V30 75667 H 7161.16 -3.12683 -0.860224 0
M  V30 75668 H 7160.95 -3.84628 0.7618 0
M  V30 75669 H 7162.44 -4.17241 -0.173126 0
M  V30 75670 N 7162.87 -0.872351 -1.31255 0
M  V30 75671 C 7164.12 -0.485187 -1.96911 0
M  V30 75672 C 7164.45 0.960578 -1.6878 0
M  V30 75673 O 7163.73 1.6768 -0.985583 0
M  V30 75674 C 7164.01 -0.745687 -3.52295 0
M  V30 75675 C 7163.86 -2.24116 -3.8999 0
M  V30 75676 C 7165.18 -0.213748 -4.39581 0
M  V30 75677 H 7162.3 -0.177754 -0.715243 0
M  V30 75678 H 7164.94 -1.09403 -1.55342 0
M  V30 75679 H 7163.09 -0.227481 -3.87833 0
M  V30 75680 H 7164.76 -2.8268 -3.6454 0
M  V30 75681 H 7163.01 -2.71279 -3.38511 0
M  V30 75682 H 7163.68 -2.37407 -4.98339 0
M  V30 75683 H 7166.15 -0.657119 -4.10879 0
M  V30 75684 H 7165.03 -0.425449 -5.47249 0
M  V30 75685 H 7165.29 0.884438 -4.33163 0
M  V30 75686 N 7164.35 1.44372 -0.632027 0
M  V30 75687 C 7165.6 2.02336 -0.137076 0
M  V30 75688 C 7165.93 1.49608 1.23819 0
M  V30 75689 O 7165.2 0.680511 1.82207 0
M  V30 75690 C 7165.49 3.59884 -0.124726 0
M  V30 75691 C 7165.34 4.22892 -1.53239 0
M  V30 75692 C 7166.66 4.36647 0.55025 0
M  V30 75693 H 7163.78 0.735213 -0.0512858 0
M  V30 75694 H 7166.42 1.71932 -0.808672 0
M  V30 75695 H 7164.57 3.85918 0.447167 0
M  V30 75696 H 7166.24 4.07962 -2.15324 0
M  V30 75697 H 7164.49 3.80353 -2.086 0
M  V30 75698 H 7165.16 5.31907 -1.47578 0
M  V30 75699 H 7167.63 4.16051 0.063896 0
M  V30 75700 H 7166.51 5.46354 0.528083 0
M  V30 75701 H 7166.77 4.1132 1.62076 0
M  V30 75702 N 7165.83 0.372629 1.53131 0
M  V30 75703 C 7167.07 -0.215171 2.01655 0
M  V30 75704 C 7167.41 -1.47843 1.25922 0
M  V30 75705 O 7166.68 -1.91235 0.3549 0
M  V30 75706 C 7166.97 -0.499999 3.56612 0
M  V30 75707 C 7166.82 0.777379 4.43031 0
M  V30 75708 C 7168.14 -1.29764 4.20534 0
M  V30 75709 H 7165.26 -0.07673 0.732995 0
M  V30 75710 H 7167.9 0.498911 1.83333 0
M  V30 75711 H 7166.05 -1.10832 3.72355 0
M  V30 75712 H 7167.72 1.4147 4.39072 0
M  V30 75713 H 7165.96 1.39626 4.10715 0
M  V30 75714 H 7166.63 0.532951 5.49421 0
M  V30 75715 H 7169.11 -0.782982 4.08667 0
M  V30 75716 H 7167.99 -1.46568 5.2897 0
M  V30 75717 H 7168.25 -2.30816 3.77063 0
M  V30 75718 N 7167.31 -1.5727 0.101984 0
M  V30 75719 C 7168.54 -1.98654 -0.567463 0
M  V30 75720 C 7168.94 -0.980123 -1.61834 0
M  V30 75721 O 7168.29 0.0375595 -1.83662 0
M  V30 75722 C 7168.35 -3.36424 -1.26725 0
M  V30 75723 C 7168.01 -4.55529 -0.366321 0
M  V30 75724 C 7169.01 -5.18448 0.388295 0
M  V30 75725 C 7166.7 -5.01506 -0.282364 0
M  V30 75726 C 7168.69 -6.25717 1.21478 0
M  V30 75727 C 7166.38 -6.0864 0.547763 0
M  V30 75728 C 7167.37 -6.70611 1.29498 0
M  V30 75729 O 7167.06 -7.75678 2.11135 0
M  V30 75730 H 7166.79 -0.657695 -0.156247 0
M  V30 75731 H 7169.35 -2.0461 0.18002 0
M  V30 75732 H 7167.58 -3.27172 -2.06144 0
M  V30 75733 H 7169.27 -3.6221 -1.83191 0
M  V30 75734 H 7170.03 -4.83854 0.333204 0
M  V30 75735 H 7165.91 -4.53028 -0.853629 0
M  V30 75736 H 7169.46 -6.74018 1.79849 0
M  V30 75737 H 7165.35 -6.42665 0.604309 0
M  V30 75738 H 7166.12 -7.92698 2.03893 0
M  V30 75739 N 7168.79 0.171738 -1.56661 0
M  V30 75740 C 7169.72 1.21487 -1.99407 0
M  V30 75741 C 7170.7 1.46192 -0.869593 0
M  V30 75742 O 7171.88 1.57533 -1.13564 0
M  V30 75743 C 7169.01 2.55388 -2.3536 0
M  V30 75744 C 7167.97 2.45253 -3.50763 0
M  V30 75745 C 7167.29 3.8364 -3.72457 0
M  V30 75746 C 7168.59 1.95761 -4.84226 0
M  V30 75747 H 7170.29 0.859547 -2.86796 0
M  V30 75748 H 7167.83 0.41203 -1.37979 0
M  V30 75749 H 7169.78 3.28566 -2.63861 0
M  V30 75750 H 7168.51 2.92707 -1.44879 0
M  V30 75751 H 7167.17 1.7453 -3.22389 0
M  V30 75752 H 7166.82 4.18352 -2.79268 0
M  V30 75753 H 7166.52 3.77727 -4.50107 0
M  V30 75754 H 7168.04 4.58404 -4.03358 0
M  V30 75755 H 7169.45 2.58713 -5.11606 0
M  V30 75756 H 7167.85 2.00797 -5.65509 0
M  V30 75757 H 7168.92 0.911908 -4.76248 0
M  V30 75758 N 7170.26 1.51325 0.440277 0
M  V30 75759 C 7171.49 1.67408 1.21071 0
M  V30 75760 C 7171.9 0.369696 1.85553 0
M  V30 75761 O 7171.24 -0.661435 1.71379 0
M  V30 75762 C 7171.31 2.73069 2.33824 0
M  V30 75763 C 7170.97 4.15753 1.89733 0
M  V30 75764 C 7171.97 5.00628 1.40242 0
M  V30 75765 C 7169.65 4.61837 1.97514 0
M  V30 75766 C 7171.65 6.29647 0.991142 0
M  V30 75767 C 7169.33 5.90853 1.55998 0
M  V30 75768 C 7170.33 6.74586 1.0688 0
M  V30 75769 O 7170.02 8.0119 0.659511 0
M  V30 75770 H 7169.75 0.565029 0.371104 0
M  V30 75771 H 7172.31 1.9849 0.528304 0
M  V30 75772 H 7170.54 2.37295 3.05332 0
M  V30 75773 H 7172.22 2.7806 2.95699 0
M  V30 75774 H 7172.99 4.66228 1.33627 0
M  V30 75775 H 7168.87 3.96788 2.34692 0
M  V30 75776 H 7172.41 6.94954 0.607059 0
M  V30 75777 H 7168.31 6.24768 1.62282 0
M  V30 75778 H 7169.08 8.14721 0.785623 0
M  V30 75779 N 7171.74 -0.695528 1.41422 0
M  V30 75780 C 7172.97 -1.48432 1.44138 0
M  V30 75781 C 7173.38 -1.88742 0.0466693 0
M  V30 75782 O 7172.74 -1.56787 -0.934035 0
M  V30 75783 C 7172.79 -2.74684 2.35013 0
M  V30 75784 O 7172.51 -2.36071 3.69055 0
M  V30 75785 C 7174.01 -3.68425 2.46532 0
M  V30 75786 H 7171.23 -0.457416 0.490929 0
M  V30 75787 H 7173.78 -0.856356 1.85706 0
M  V30 75788 H 7171.93 -3.33717 1.96753 0
M  V30 75789 H 7172.35 -3.17452 4.17522 0
M  V30 75790 H 7173.82 -4.53795 3.14284 0
M  V30 75791 H 7174.3 -4.12915 1.4966 0
M  V30 75792 H 7174.9 -3.15295 2.85428 0
M  V30 75793 N 7173.22 -1.2725 -0.929789 0
M  V30 75794 C 7174.47 -1.13634 -1.67974 0
M  V30 75795 C 7174.8 0.317488 -1.91587 0
M  V30 75796 O 7174.07 1.23239 -1.50474 0
M  V30 75797 C 7174.36 -1.91822 -3.04756 0
M  V30 75798 C 7174.21 -3.45177 -2.88397 0
M  V30 75799 C 7175.53 -1.72103 -4.05054 0
M  V30 75800 H 7172.65 -0.414179 -0.60961 0
M  V30 75801 H 7175.29 -1.56381 -1.07911 0
M  V30 75802 H 7173.44 -1.55493 -3.56026 0
M  V30 75803 H 7175.11 -3.91324 -2.44261 0
M  V30 75804 H 7173.35 -3.71623 -2.23783 0
M  V30 75805 H 7174.03 -3.95125 -3.85461 0
M  V30 75806 H 7176.5 -2.03776 -3.62787 0
M  V30 75807 H 7175.38 -2.29208 -4.98753 0
M  V30 75808 H 7175.64 -0.668436 -4.37018 0
M  V30 75809 N 7174.7 1.13599 -1.09239 0
M  V30 75810 C 7175.94 1.85105 -0.828482 0
M  V30 75811 C 7176.28 1.83201 0.644273 0
M  V30 75812 O 7175.55 1.26875 1.47421 0
M  V30 75813 C 7175.83 3.33355 -1.36184 0
M  V30 75814 C 7175.69 3.43784 -2.90056 0
M  V30 75815 C 7177.01 4.28727 -0.994046 0
M  V30 75816 H 7174.13 0.672092 -0.302425 0
M  V30 75817 H 7176.77 1.33348 -1.35346 0
M  V30 75818 H 7174.92 3.77564 -0.915299 0
M  V30 75819 H 7176.59 3.08301 -3.43145 0
M  V30 75820 H 7174.83 2.84722 -3.27286 0
M  V30 75821 H 7175.5 4.48028 -3.22452 0
M  V30 75822 H 7177.98 3.9258 -1.37914 0
M  V30 75823 H 7176.86 5.30896 -1.39431 0
M  V30 75824 H 7177.12 4.41991 0.0979875 0
M  V30 75825 N 7176.18 0.879299 1.3079 0
M  V30 75826 C 7177.14 0.346796 2.26561 0
M  V30 75827 C 7178.14 -0.507516 1.52581 0
M  V30 75828 O 7179.33 -0.315484 1.71319 0
M  V30 75829 C 7176.46 -0.506433 3.37117 0
M  V30 75830 H 7177.65 1.19238 2.75177 0
M  V30 75831 H 7175.21 0.655673 1.41882 0
M  V30 75832 H 7175.94 -1.37284 2.93809 0
M  V30 75833 H 7175.73 0.105425 3.91958 0
M  V30 75834 H 7177.22 -0.870976 4.08416 0
M  V30 75835 N 7177.65 -1.44034 0.639674 0
M  V30 75836 C 7178.9 -2.01961 0.147586 0
M  V30 75837 C 7179.23 -1.50372 -1.23364 0
M  V30 75838 O 7178.48 -0.681598 -1.83447 0
M  V30 75839 C 7178.78 -3.5728 0.0927232 0
M  V30 75840 C 7178.45 -4.28159 1.41387 0
M  V30 75841 C 7177.11 -4.47239 1.77569 0
M  V30 75842 C 7179.46 -4.68415 2.28555 0
M  V30 75843 C 7176.79 -5.03836 3.0061 0
M  V30 75844 C 7179.14 -5.26375 3.50874 0
M  V30 75845 C 7177.81 -5.43672 3.87269 0
M  V30 75846 H 7177.08 -0.739029 0.0540056 0
M  V30 75847 H 7179.72 -1.72689 0.82769 0
M  V30 75848 H 7178.03 -3.86015 -0.670784 0
M  V30 75849 H 7179.73 -3.99841 -0.30468 0
M  V30 75850 H 7176.32 -4.13645 1.12232 0
M  V30 75851 H 7180.5 -4.53379 2.01894 0
M  V30 75852 H 7175.76 -5.15415 3.28873 0
M  V30 75853 H 7179.93 -5.56515 4.18645 0
M  V30 75854 H 7177.56 -5.87294 4.82691 0
M  V30 75855 N 7179.13 -0.380744 -1.52932 0
M  V30 75856 C 7180.08 0.47349 -2.2773 0
M  V30 75857 C 7181.07 1.07043 -1.31294 0
M  V30 75858 O 7182.28 1.01189 -1.48865 0
M  V30 75859 H 7178.65 0.171437 -0.732198 0
M  V30 75860 H 7180.63 -0.178942 -2.97863 0
M  V30 75861 C 7179.37 1.59325 -3.09048 0
M  V30 75862 H 7178.7 1.14323 -3.83106 0
M  V30 75863 H 7180.14 2.16536 -3.64538 0
M  V30 75864 C 7178.6 2.54435 -2.20826 0
M  V30 75865 O 7179.13 3.57632 -1.82926 0
M  V30 75866 N 7177.33 2.23976 -1.85157 0
M  V30 75867 H 7176.88 1.40091 -2.16176 0
M  V30 75868 H 7176.84 2.87865 -1.26417 0
M  V30 75869 N 7180.61 1.57213 -0.110323 0
M  V30 75870 C 7181.86 1.94894 0.549767 0
M  V30 75871 C 7182.18 0.993072 1.67237 0
M  V30 75872 O 7181.44 0.0153735 1.95694 0
M  V30 75873 C 7181.74 3.39038 1.13084 0
M  V30 75874 C 7181.4 4.50711 0.130475 0
M  V30 75875 C 7180.07 4.80983 -0.144624 0
M  V30 75876 C 7182.42 5.18271 -0.551746 0
M  V30 75877 C 7179.75 5.76135 -1.10838 0
M  V30 75878 C 7182.1 6.14459 -1.50407 0
M  V30 75879 C 7180.76 6.43128 -1.78725 0
M  V30 75880 H 7180.03 0.713169 0.201174 0
M  V30 75881 H 7182.68 1.90561 -0.189389 0
M  V30 75882 H 7180.98 3.40023 1.94657 0
M  V30 75883 H 7182.68 3.65501 1.64954 0
M  V30 75884 H 7179.27 4.27127 0.355076 0
M  V30 75885 H 7183.46 4.95048 -0.352371 0
M  V30 75886 H 7178.71 5.96656 -1.33461 0
M  V30 75887 H 7182.89 6.65899 -2.03843 0
M  V30 75888 H 7180.51 7.16667 -2.53559 0
M  V30 75889 N 7182.09 -0.163427 1.5675 0
M  V30 75890 C 7183.33 -0.87877 1.82439 0
M  V30 75891 C 7183.66 -1.81901 0.688653 0
M  V30 75892 O 7182.92 -1.93007 -0.323542 0
M  V30 75893 C 7183.22 -1.70054 3.14351 0
M  V30 75894 C 7182.88 -0.908542 4.41652 0
M  V30 75895 C 7181.54 -0.689985 4.76228 0
M  V30 75896 C 7183.9 -0.353541 5.2 0
M  V30 75897 C 7181.22 0.0945468 5.86624 0
M  V30 75898 C 7183.58 0.417943 6.31218 0
M  V30 75899 C 7182.24 0.647229 6.64355 0
M  V30 75900 H 7181.51 -0.321565 0.66759 0
M  V30 75901 H 7184.16 -0.143269 1.90963 0
M  V30 75902 H 7182.46 -2.50567 3.01203 0
M  V30 75903 H 7184.16 -2.25721 3.31438 0
M  V30 75904 H 7180.75 -1.08894 4.14536 0
M  V30 75905 H 7184.93 -0.509714 4.93676 0
M  V30 75906 H 7180.19 0.281852 6.1075 0
M  V30 75907 H 7184.36 0.855214 6.91129 0
M  V30 75908 H 7181.99 1.25701 7.49735 0
M  V30 75909 N 7183.57 -1.51557 -0.432246 0
M  V30 75910 C 7184.98 -1.39845 -0.769121 0
M  V30 75911 C 7185.18 -0.484778 -1.95582 0
M  V30 75912 O 7184.24 0.0581497 -2.52433 0
M  V30 75913 C 7185.55 -2.81968 -1.04472 0
M  V30 75914 C 7187.1 -2.91154 -1.14884 0
M  V30 75915 C 7187.57 -4.34195 -1.45735 0
M  V30 75916 N 7189.07 -4.37325 -1.52648 0
M  V30 75917 C 7189.8 -5.45039 -1.781 0
M  V30 75918 N 7189.3 -6.62907 -2.01311 0
M  V30 75919 N 7191.09 -5.32526 -1.79924 0
M  V30 75920 H 7183.24 -2.09509 0.349232 0
M  V30 75921 H 7185.5 -0.943342 0.0938611 0
M  V30 75922 H 7185.21 -3.50843 -0.245385 0
M  V30 75923 H 7185.08 -3.21606 -1.97102 0
M  V30 75924 H 7187.47 -2.22474 -1.9388 0
M  V30 75925 H 7187.55 -2.55006 -0.201433 0
M  V30 75926 H 7187.2 -5.03426 -0.672651 0
M  V30 75927 H 7187.13 -4.67861 -2.4169 0
M  V30 75928 H 7189.62 -3.5235 -1.36594 0
M  V30 75929 H 7189.93 -7.40789 -2.20116 0
M  V30 75930 H 7188.27 -6.66014 -1.98622 0
M  V30 75931 H 7191.47 -4.39426 -1.61314 0
M  V30 75932 H 7191.64 -6.16551 -1.99422 0
M  V30 75933 N 7185.04 0.688019 -1.41789 0
M  V30 75934 C 7185.99 1.80184 -1.44231 0
M  V30 75935 C 7186.96 1.63445 -0.295774 0
M  V30 75936 O 7188.15 1.84188 -0.497927 0
M  V30 75937 C 7185.29 3.18123 -1.3376 0
M  V30 75938 C 7184.4 3.46241 -2.58343 0
M  V30 75939 C 7183.53 4.73835 -2.40111 0
M  V30 75940 C 7182.57 4.94945 -3.60133 0
M  V30 75941 N 7181.71 6.13771 -3.40925 0
M  V30 75942 H 7186.55 1.77431 -2.39421 0
M  V30 75943 H 7184.09 0.86636 -1.18881 0
M  V30 75944 H 7186.05 3.97816 -1.2569 0
M  V30 75945 H 7184.68 3.20033 -0.421739 0
M  V30 75946 H 7183.73 2.60898 -2.76833 0
M  V30 75947 H 7185.04 3.57738 -3.47599 0
M  V30 75948 H 7184.19 5.61597 -2.29551 0
M  V30 75949 H 7182.93 4.64598 -1.48324 0
M  V30 75950 H 7181.94 4.0563 -3.71139 0
M  V30 75951 H 7183.16 5.06037 -4.52884 0
M  V30 75952 H 7181.11 6.05732 -2.51844 0
M  V30 75953 H 7181.03 6.2607 -4.2376 0
M  V30 75954 H 7182.29 7.04246 -3.34151 0
M  V30 75955 N 7186.52 1.27742 0.923027 0
M  V30 75956 C 7187.77 1.14354 1.67121 0
M  V30 75957 C 7188.1 -0.309718 1.92018 0
M  V30 75958 O 7187.35 -1.24256 1.51192 0
M  V30 75959 C 7187.65 1.87746 3.04115 0
M  V30 75960 C 7187.32 3.37584 2.98912 0
M  V30 75961 C 7185.98 3.78452 2.972 0
M  V30 75962 C 7188.33 4.33169 2.89852 0
M  V30 75963 C 7185.66 5.13262 2.84217 0
M  V30 75964 C 7188.01 5.68041 2.7841 0
M  V30 75965 C 7186.68 6.08197 2.75051 0
M  V30 75966 H 7185.95 0.41845 0.61154 0
M  V30 75967 H 7188.59 1.58406 1.07609 0
M  V30 75968 H 7186.9 1.36216 3.67359 0
M  V30 75969 H 7188.59 1.74811 3.60891 0
M  V30 75970 H 7185.18 3.05085 3.01034 0
M  V30 75971 H 7189.37 4.02564 2.90269 0
M  V30 75972 H 7184.62 5.43513 2.80006 0
M  V30 75973 H 7188.8 6.41775 2.70367 0
M  V30 75974 H 7186.43 7.1261 2.64748 0
M  V30 75975 N 7188 -1.13018 1.0984 0
M  V30 75976 C 7189.23 -1.87952 0.857756 0
M  V30 75977 C 7189.64 -1.79604 -0.594913 0
M  V30 75978 O 7188.98 -1.16355 -1.42152 0
M  V30 75979 C 7189.04 -3.38178 1.21966 0
M  V30 75980 C 7188.71 -3.70306 2.67811 0
M  V30 75981 C 7189.7 -3.69188 3.66055 0
M  V30 75982 C 7187.39 -3.99831 3.0404 0
M  V30 75983 C 7189.38 -3.97144 4.98554 0
M  V30 75984 C 7187.07 -4.27448 4.36728 0
M  V30 75985 C 7188.07 -4.26089 5.33795 0
M  V30 75986 O 7187.76 -4.53026 6.64095 0
M  V30 75987 H 7187.49 -0.601737 0.30804 0
M  V30 75988 H 7190.04 -1.43965 1.46503 0
M  V30 75989 H 7188.27 -3.8269 0.555451 0
M  V30 75990 H 7189.96 -3.94445 0.957489 0
M  V30 75991 H 7190.73 -3.46448 3.3941 0
M  V30 75992 H 7186.61 -4.00033 2.29117 0
M  V30 75993 H 7190.15 -3.95999 5.74309 0
M  V30 75994 H 7186.05 -4.49661 4.63115 0
M  V30 75995 H 7186.82 -4.70674 6.69633 0
M  V30 75996 N 7189.48 -0.886223 -1.30322 0
M  V30 75997 C 7190.43 -0.343438 -2.30051 0
M  V30 75998 C 7191.42 0.550221 -1.60215 0
M  V30 75999 O 7192.63 0.434517 -1.74677 0
M  V30 76000 H 7189 -0.0924075 -0.746301 0
M  V30 76001 H 7190.97 -1.19818 -2.73288 0
M  V30 76002 C 7189.72 0.425925 -3.45081 0
M  V30 76003 H 7189.04 -0.25248 -3.99002 0
M  V30 76004 H 7190.48 0.770789 -4.16935 0
M  V30 76005 C 7188.94 1.62348 -2.95203 0
M  V30 76006 O 7189.47 2.72284 -2.95338 0
M  V30 76007 N 7187.68 1.46106 -2.512 0
M  V30 76008 H 7187.23 0.5667 -2.51289 0
M  V30 76009 H 7187.18 2.26369 -2.18185 0
M  V30 76010 N 7190.96 1.43693 -0.647304 0
M  V30 76011 C 7191.9 2.3075 0.0478876 0
M  V30 76012 C 7192.87 1.44412 0.820629 0
M  V30 76013 O 7194.06 1.73291 0.798423 0
M  V30 76014 C 7191.2 3.29915 1.01242 0
M  V30 76015 C 7190.31 4.31353 0.236402 0
M  V30 76016 C 7189.45 5.17602 1.1942 0
M  V30 76017 C 7188.49 6.10737 0.408273 0
M  V30 76018 N 7187.62 6.8963 1.31736 0
M  V30 76019 H 7192.46 2.89652 -0.700391 0
M  V30 76020 H 7190 1.42698 -0.357157 0
M  V30 76021 H 7191.96 3.85912 1.58518 0
M  V30 76022 H 7190.59 2.72676 1.72764 0
M  V30 76023 H 7189.64 3.77698 -0.452553 0
M  V30 76024 H 7190.95 4.97388 -0.374993 0
M  V30 76025 H 7190.11 5.78196 1.83779 0
M  V30 76026 H 7188.84 4.51678 1.83951 0
M  V30 76027 H 7187.85 5.49237 -0.2487 0
M  V30 76028 H 7189.07 6.78702 -0.232546 0
M  V30 76029 H 7187.02 6.26361 1.94958 0
M  V30 76030 H 7186.94 7.52166 0.760382 0
M  V30 76031 H 7188.21 7.54734 1.94928 0
M  V30 76032 N 7192.43 0.388849 1.52728 0
M  V30 76033 C 7193.66 -0.196101 2.06471 0
M  V30 76034 C 7194.08 -1.39777 1.25872 0
M  V30 76035 O 7193.44 -1.79067 0.283657 0
M  V30 76036 C 7193.49 -0.544912 3.56459 0
M  V30 76037 O 7192.59 -1.63892 3.78435 0
M  V30 76038 H 7191.94 -0.023032 0.6636 0
M  V30 76039 H 7194.47 0.556188 1.96895 0
M  V30 76040 H 7194.48 -0.809346 3.99892 0
M  V30 76041 H 7193.15 0.333635 4.1456 0
M  V30 76042 H 7191.73 -1.36824 3.46891 0
M  V30 76043 N 7193.91 -1.57153 0.118659 0
M  V30 76044 C 7194.82 -2.18839 -0.845369 0
M  V30 76045 C 7195.84 -1.16444 -1.29293 0
M  V30 76046 O 7197.01 -1.48912 -1.35599 0
M  V30 76047 C 7194.08 -2.7754 -2.0778 0
M  V30 76048 C 7193.14 -3.94969 -1.6822 0
M  V30 76049 C 7192.37 -4.50861 -2.85588 0
M  V30 76050 O 7192.6 -4.05651 -4.01003 0
M  V30 76051 O 7191.53 -5.4155 -2.62693 0
M  V30 76052 H 7195.36 -3.01672 -0.350408 0
M  V30 76053 H 7192.94 -1.49017 -0.106935 0
M  V30 76054 H 7194.82 -3.1496 -2.79961 0
M  V30 76055 H 7193.5 -1.97739 -2.56283 0
M  V30 76056 H 7192.41 -3.62318 -0.931472 0
M  V30 76057 H 7193.74 -4.76205 -1.24459 0
M  V30 76058 N 7195.39 0.155112 -1.56835 0
M  V30 76059 C 7196.67 0.897303 -1.73804 0
M  V30 76060 C 7197.05 1.99695 -0.684485 0
M  V30 76061 O 7196.4 2.26549 0.297992 0
M  V30 76062 C 7196.61 1.4472 -3.1758 0
M  V30 76063 C 7197.95 1.91379 -3.79024 0
M  V30 76064 O 7198.98 1.54479 -3.20959 0
M  V30 76065 O 7197.84 2.59403 -4.81012 0
M  V30 76066 H 7194.93 0.423473 -0.710352 0
M  V30 76067 H 7197.48 0.141672 -1.69108 0
M  V30 76068 H 7196.25 0.656537 -3.85753 0
M  V30 76069 H 7195.87 2.26657 -3.26669 0
M  V30 76070 N 7196.87 1.51784 0.424202 0
M  V30 76071 C 7197.78 1.7691 1.54078 0
M  V30 76072 C 7198.79 0.653911 1.61245 0
M  V30 76073 O 7199.97 0.937646 1.78242 0
M  V30 76074 C 7197.04 1.90079 2.8995 0
M  V30 76075 C 7196.1 3.1396 2.92792 0
M  V30 76076 C 7195.33 3.26491 4.22184 0
M  V30 76077 O 7195.55 2.44643 5.15273 0
M  V30 76078 O 7194.49 4.19553 4.31577 0
M  V30 76079 H 7198.31 2.71654 1.35785 0
M  V30 76080 H 7195.9 1.36444 0.608546 0
M  V30 76081 H 7197.78 2.0065 3.70564 0
M  V30 76082 H 7196.45 0.985229 3.08342 0
M  V30 76083 H 7195.36 3.08858 2.11086 0
M  V30 76084 H 7196.69 4.05248 2.79347 0
M  V30 76085 N 7198.35 -0.68049 1.42152 0
M  V30 76086 C 7199.62 -1.43607 1.32802 0
M  V30 76087 C 7200 -2.11067 -0.0373037 0
M  V30 76088 O 7199.35 -2.02818 -1.05247 0
M  V30 76089 C 7199.56 -2.44318 2.49219 0
M  V30 76090 C 7200.91 -3.09129 2.91075 0
M  V30 76091 O 7201.93 -2.54644 2.49068 0
M  V30 76092 O 7200.79 -4.07847 3.63763 0
M  V30 76093 H 7197.89 -0.640273 0.523431 0
M  V30 76094 H 7200.43 -0.709694 1.54147 0
M  V30 76095 H 7199.21 -1.93229 3.40262 0
M  V30 76096 H 7198.83 -3.24444 2.2983 0
M  V30 76097 N 7199.83 -1.2823 -0.91624 0
M  V30 76098 C 7200.74 -1.13785 -2.05159 0
M  V30 76099 C 7201.75 -0.0650335 -1.73878 0
M  V30 76100 O 7202.93 -0.273827 -1.9953 0
M  V30 76101 C 7199.99 -0.798444 -3.37381 0
M  V30 76102 C 7199.05 -1.95336 -3.82286 0
M  V30 76103 C 7198.29 -1.63005 -5.08198 0
M  V30 76104 O 7198.51 -0.543247 -5.67807 0
M  V30 76105 O 7197.44 -2.4729 -5.48754 0
M  V30 76106 H 7201.27 -2.0909 -2.20261 0
M  V30 76107 H 7198.85 -1.07525 -1.03725 0
M  V30 76108 H 7200.74 -0.622999 -4.16769 0
M  V30 76109 H 7199.41 0.124968 -3.23459 0
M  V30 76110 H 7198.32 -2.18394 -3.03735 0
M  V30 76111 H 7199.65 -2.85739 -4.00767 0
M  V30 76112 N 7201.3 1.12434 -1.10437 0
M  V30 76113 C 7202.71 1.65478 -0.864527 0
M  V30 76114 C 7203.07 1.86634 0.605172 0
M  V30 76115 O 7202.19 1.59284 1.46484 0
M  V30 76116 C 7202.79 3.00601 -1.56283 0
M  V30 76117 C 7201.34 3.50595 -1.36968 0
M  V30 76118 C 7200.49 2.25617 -1.6122 0
M  V30 76119 H 7203.44 0.962143 -1.26208 0
M  V30 76120 H 7203.46 3.67074 -1.00185 0
M  V30 76121 H 7202.98 2.85172 -2.63247 0
M  V30 76122 H 7201.08 3.71209 -0.321677 0
M  V30 76123 H 7201.19 4.30053 -2.11166 0
M  V30 76124 H 7199.55 2.32725 -1.03494 0
M  V30 76125 H 7200.34 2.12742 -2.69436 0
M  V30 76126 N 7202.78 0.893122 1.2985 0
M  V30 76127 C 7204.06 0.435437 1.90692 0
M  V30 76128 C 7204.44 -1.08444 1.81116 0
M  V30 76129 O 7203.79 -1.92338 1.23362 0
M  V30 76130 C 7204 0.942649 3.36028 0
M  V30 76131 C 7205.34 0.982444 4.13078 0
M  V30 76132 O 7206.37 0.889868 3.44905 0
M  V30 76133 O 7205.23 1.1205 5.3489 0
M  V30 76134 H 7202.32 0.13461 0.815971 0
M  V30 76135 H 7204.87 0.982556 1.38362 0
M  V30 76136 H 7203.64 1.98658 3.37121 0
M  V30 76137 H 7203.26 0.375161 3.95826 0
M  V30 76138 N 7204.26 -1.43348 0.654915 0
M  V30 76139 C 7205.19 -2.2804 -0.0854335 0
M  V30 76140 C 7206.17 -1.39926 -0.828227 0
M  V30 76141 O 7207.35 -1.69368 -0.82745 0
M  V30 76142 C 7204.48 -3.19373 -1.12775 0
M  V30 76143 C 7203.53 -4.23758 -0.482813 0
M  V30 76144 S 7204.36 -5.30294 0.744884 0
M  V30 76145 C 7205.52 -6.25196 -0.296858 0
M  V30 76146 H 7205.75 -2.90483 0.632984 0
M  V30 76147 H 7203.28 -1.47884 0.443808 0
M  V30 76148 H 7205.24 -3.72538 -1.72411 0
M  V30 76149 H 7203.9 -2.56104 -1.8185 0
M  V30 76150 H 7203.09 -4.87773 -1.26862 0
M  V30 76151 H 7202.7 -3.73979 0.0394685 0
M  V30 76152 H 7204.99 -6.67451 -1.16254 0
M  V30 76153 H 7205.93 -7.07429 0.308303 0
M  V30 76154 H 7206.34 -5.60935 -0.633425 0
M  V30 76155 N 7205.74 -0.396943 -1.52519 0
M  V30 76156 C 7206.68 0.434505 -2.26673 0
M  V30 76157 C 7207.65 1.05137 -1.2859 0
M  V30 76158 O 7208.84 1.07795 -1.57432 0
M  V30 76159 C 7205.98 1.55179 -3.08242 0
M  V30 76160 C 7205.09 0.95704 -4.21266 0
M  V30 76161 C 7204.23 2.04602 -4.90216 0
M  V30 76162 C 7203.27 1.42756 -5.9522 0
M  V30 76163 N 7202.4 2.45616 -6.57736 0
M  V30 76164 H 7207.24 -0.204296 -2.97299 0
M  V30 76165 H 7204.78 -0.112583 -1.46669 0
M  V30 76166 H 7206.74 2.21042 -3.53831 0
M  V30 76167 H 7205.37 2.1608 -2.39811 0
M  V30 76168 H 7204.42 0.187805 -3.79936 0
M  V30 76169 H 7205.73 0.465154 -4.96626 0
M  V30 76170 H 7204.89 2.78217 -5.39148 0
M  V30 76171 H 7203.63 2.57152 -4.14396 0
M  V30 76172 H 7202.63 0.67668 -5.4562 0
M  V30 76173 H 7203.86 0.909901 -6.72977 0
M  V30 76174 H 7201.8 2.97322 -5.84753 0
M  V30 76175 H 7201.72 2.01205 -7.28734 0
M  V30 76176 H 7202.99 3.18839 -7.1131 0
M  V30 76177 N 7207.22 1.57088 -0.126992 0
M  V30 76178 C 7208.46 1.97354 0.532056 0
M  V30 76179 C 7208.82 1.00922 1.63336 0
M  V30 76180 O 7210.02 1.30156 2.35187 0
M  V30 76181 C 7208.29 3.41822 1.04367 0
M  V30 76182 S 7209.85 4.04104 1.71012 0
M  V30 76183 H 7206.67 0.68971 0.172688 0
M  V30 76184 H 7209.27 1.94326 -0.213967 0
M  V30 76185 H 7207.97 4.09749 0.231073 0
M  V30 76186 H 7207.51 3.48519 1.82478 0
M  V30 76187 H 7209.52 3.95516 2.99635 0
M  V30 76188 N 7208.69 -0.146793 1.56915 0
M  V30 76189 C 7209.97 -0.888073 1.74277 0
M  V30 76190 C 7210.35 -1.99329 0.695065 0
M  V30 76191 O 7209.7 -2.26703 -0.285973 0
M  V30 76192 C 7209.91 -1.43034 3.18343 0
M  V30 76193 C 7211.26 -1.89366 3.80034 0
M  V30 76194 O 7212.28 -1.52775 3.21774 0
M  V30 76195 O 7211.14 -2.56849 4.82381 0
M  V30 76196 H 7208.23 -0.4197 0.712587 0
M  V30 76197 H 7210.78 -0.132702 1.6918 0
M  V30 76198 H 7209.55 -0.636071 3.86096 0
M  V30 76199 H 7209.17 -2.24921 3.27866 0
M  V30 76200 N 7210.17 -1.52007 -0.416147 0
M  V30 76201 C 7211.45 -1.56278 -1.17629 0
M  V30 76202 C 7211.83 -0.339602 -2.0835 0
M  V30 76203 O 7211.18 0.674009 -2.18333 0
M  V30 76204 C 7211.39 -2.88785 -1.9597 0
M  V30 76205 C 7212.73 -3.41526 -2.52281 0
M  V30 76206 O 7213.76 -2.90477 -2.06158 0
M  V30 76207 O 7212.62 -4.30649 -3.36457 0
M  V30 76208 H 7209.71 -0.629198 -0.536693 0
M  V30 76209 H 7212.26 -1.64331 -0.423496 0
M  V30 76210 H 7211.03 -3.69261 -1.29468 0
M  V30 76211 H 7210.65 -2.83992 -2.7827 0
M  V30 76212 N 7211.65 0.672941 -1.42511 0
M  V30 76213 C 7212.58 1.79767 -1.40567 0
M  V30 76214 C 7213.56 1.60348 -0.26969 0
M  V30 76215 O 7214.74 1.82796 -0.460201 0
M  V30 76216 C 7211.87 3.16793 -1.19832 0
M  V30 76217 C 7210.92 3.54957 -2.36448 0
M  V30 76218 S 7211.75 3.57175 -3.98982 0
M  V30 76219 C 7212.91 4.9689 -3.80593 0
M  V30 76220 H 7213.14 1.81142 -2.35743 0
M  V30 76221 H 7210.67 0.843778 -1.29305 0
M  V30 76222 H 7212.63 3.95886 -1.08556 0
M  V30 76223 H 7211.29 3.13002 -0.26238 0
M  V30 76224 H 7210.48 4.54561 -2.17693 0
M  V30 76225 H 7210.09 2.83229 -2.44248 0
M  V30 76226 H 7212.38 5.8502 -3.41698 0
M  V30 76227 H 7213.32 5.20693 -4.7988 0
M  V30 76228 H 7213.73 4.69495 -3.13423 0
M  V30 76229 N 7213.13 1.28714 0.909427 0
M  V30 76230 C 7214.06 1.07334 2.01382 0
M  V30 76231 C 7215.04 -0.0118899 1.62596 0
M  V30 76232 O 7216.22 0.136895 1.88002 0
M  V30 76233 C 7213.35 0.631972 3.32752 0
M  V30 76234 C 7212.4 1.71448 3.90522 0
M  V30 76235 S 7213.23 3.31146 4.20836 0
M  V30 76236 C 7214.39 2.88854 5.5526 0
M  V30 76237 H 7214.62 2.00836 2.19208 0
M  V30 76238 H 7212.15 1.12751 1.05483 0
M  V30 76239 H 7214.11 0.384025 4.087 0
M  V30 76240 H 7212.77 -0.283286 3.1282 0
M  V30 76241 H 7211.96 1.35738 4.85377 0
M  V30 76242 H 7211.57 1.91545 3.21227 0
M  V30 76243 H 7213.86 2.35294 6.35329 0
M  V30 76244 H 7214.8 3.82523 5.95887 0
M  V30 76245 H 7215.21 2.27439 5.16654 0
M  V30 76246 N 7214.61 -1.11847 1.11032 0
M  V30 76247 C 7215.83 -1.87304 0.878917 0
M  V30 76248 C 7216.25 -1.79958 -0.571015 0
M  V30 76249 O 7215.61 -1.17785 -1.39402 0
M  V30 76250 C 7215.66 -3.3628 1.32658 0
M  V30 76251 O 7215.38 -3.43462 2.71966 0
M  V30 76252 C 7216.88 -4.28657 1.12997 0
M  V30 76253 H 7214.1 -0.592442 0.315046 0
M  V30 76254 H 7216.64 -1.41484 1.47657 0
M  V30 76255 H 7214.8 -3.7962 0.772469 0
M  V30 76256 H 7215.21 -4.36195 2.91264 0
M  V30 76257 H 7216.69 -5.31447 1.49226 0
M  V30 76258 H 7217.16 -4.39146 0.0691443 0
M  V30 76259 H 7217.77 -3.91104 1.67085 0
M  V30 76260 N 7216.08 -0.899995 -1.29375 0
M  V30 76261 C 7217.32 -0.532975 -1.97329 0
M  V30 76262 C 7217.69 0.90394 -1.6939 0
M  V30 76263 O 7218.89 1.37784 -2.30801 0
M  V30 76264 C 7217.16 -0.817576 -3.47923 0
M  V30 76265 S 7218.72 -0.55491 -4.35277 0
M  V30 76266 H 7215.54 -0.197719 -0.682956 0
M  V30 76267 H 7218.14 -1.16249 -1.57182 0
M  V30 76268 H 7216.84 -1.86157 -3.65751 0
M  V30 76269 H 7216.37 -0.176185 -3.93005 0
M  V30 76270 H 7218.39 0.599922 -4.9256 0
M  V30 76271 N 7217.56 1.42999 -0.662508 0
M  V30 76272 C 7218.79 2.05748 -0.187451 0
M  V30 76273 C 7219.2 1.49797 1.15574 0
M  V30 76274 O 7218.54 0.627578 1.72647 0
M  V30 76275 C 7218.61 3.59486 -0.0318388 0
M  V30 76276 C 7218.27 4.38067 -1.30179 0
M  V30 76277 C 7219.27 4.69523 -2.23258 0
M  V30 76278 C 7216.95 4.77917 -1.54597 0
M  V30 76279 C 7218.95 5.3975 -3.39041 0
M  V30 76280 C 7216.63 5.47888 -2.7067 0
M  V30 76281 C 7217.63 5.78727 -3.62717 0
M  V30 76282 O 7217.32 6.47266 -4.76763 0
M  V30 76283 H 7217.05 0.669771 -0.0915568 0
M  V30 76284 H 7219.6 1.84335 -0.906079 0
M  V30 76285 H 7217.83 3.7951 0.742251 0
M  V30 76286 H 7219.52 4.03907 0.401764 0
M  V30 76287 H 7220.29 4.39246 -2.0564 0
M  V30 76288 H 7216.17 4.53314 -0.838279 0
M  V30 76289 H 7219.71 5.63739 -4.10907 0
M  V30 76290 H 7215.61 5.77581 -2.8822 0
M  V30 76291 H 7216.38 6.65752 -4.76148 0
M  V30 76292 N 7219.04 0.405026 1.52307 0
M  V30 76293 C 7219.97 -0.413639 2.29807 0
M  V30 76294 C 7220.95 -1.04973 1.33845 0
M  V30 76295 O 7222.14 -1.05953 1.6275 0
M  V30 76296 C 7219.27 -1.53276 3.11647 0
M  V30 76297 C 7218.22 -1.02189 4.15622 0
M  V30 76298 C 7217.55 -2.23429 4.85781 0
M  V30 76299 C 7218.85 -0.0787971 5.22241 0
M  V30 76300 H 7220.54 0.233035 2.98492 0
M  V30 76301 H 7218.09 0.113517 1.43552 0
M  V30 76302 H 7220.04 -2.11243 3.64629 0
M  V30 76303 H 7218.76 -2.20725 2.40724 0
M  V30 76304 H 7217.42 -0.464648 3.63643 0
M  V30 76305 H 7217.07 -2.89424 4.11391 0
M  V30 76306 H 7216.77 -1.899 5.56068 0
M  V30 76307 H 7218.29 -2.8201 5.41575 0
M  V30 76308 H 7219.71 -0.567137 5.70488 0
M  V30 76309 H 7218.11 0.167483 5.99866 0
M  V30 76310 H 7219.18 0.867699 4.77073 0
M  V30 76311 N 7220.52 -1.57018 0.135321 0
M  V30 76312 C 7221.77 -1.95744 -0.518691 0
M  V30 76313 C 7222.09 -1.01955 -1.65636 0
M  V30 76314 O 7221.35 -0.0465047 -1.95645 0
M  V30 76315 C 7221.65 -3.40794 -1.07676 0
M  V30 76316 C 7221.31 -4.50862 -0.0587543 0
M  V30 76317 C 7219.98 -4.80692 0.221126 0
M  V30 76318 C 7222.33 -5.17328 0.634128 0
M  V30 76319 C 7219.66 -5.74299 1.1999 0
M  V30 76320 C 7222.01 -6.11989 1.60164 0
M  V30 76321 C 7220.67 -6.40203 1.88934 0
M  V30 76322 H 7219.94 -0.716279 -0.189803 0
M  V30 76323 H 7222.59 -1.90236 0.219681 0
M  V30 76324 H 7220.89 -3.43077 -1.89223 0
M  V30 76325 H 7222.59 -3.68079 -1.59118 0
M  V30 76326 H 7219.18 -4.27637 -0.287079 0
M  V30 76327 H 7223.36 -4.94424 0.431084 0
M  V30 76328 H 7218.62 -5.94457 1.42936 0
M  V30 76329 H 7222.79 -6.62571 2.14411 0
M  V30 76330 H 7220.42 -7.12542 2.64929 0
M  V30 76331 N 7222 0.138469 -1.56991 0
M  V30 76332 C 7222.95 1.17609 -1.95326 0
M  V30 76333 C 7223.93 1.38103 -0.825618 0
M  V30 76334 O 7225.12 1.39522 -1.08916 0
M  V30 76335 C 7222.25 2.50762 -2.34464 0
M  V30 76336 C 7221.34 2.33825 -3.53817 0
M  V30 76337 N 7221.73 1.8666 -4.70098 0
M  V30 76338 C 7220.03 2.64548 -3.59069 0
M  V30 76339 C 7220.73 1.82969 -5.52175 0
M  V30 76340 N 7219.7 2.26598 -4.9412 0
M  V30 76341 H 7223.51 0.80366 -2.82699 0
M  V30 76342 H 7221.02 0.346436 -1.58662 0
M  V30 76343 H 7223.02 3.25783 -2.60136 0
M  V30 76344 H 7221.68 2.8878 -1.48446 0
M  V30 76345 H 7222.69 1.56497 -4.93689 0
M  V30 76346 H 7219.36 3.06383 -2.83612 0
M  V30 76347 H 7220.75 1.47923 -6.55415 0
M  V30 76348 N 7223.47 1.52225 0.40808 0
M  V30 76349 C 7224.41 1.70365 1.51825 0
M  V30 76350 C 7225.39 0.551251 1.52971 0
M  V30 76351 O 7226.57 0.778732 1.71662 0
M  V30 76352 C 7223.7 1.74393 2.90353 0
M  V30 76353 C 7222.74 2.95944 3.07114 0
M  V30 76354 S 7223.58 4.5627 2.80318 0
M  V30 76355 C 7224.73 4.63085 4.21074 0
M  V30 76356 H 7224.96 2.64262 1.36209 0
M  V30 76357 H 7222.5 1.42277 0.599723 0
M  V30 76358 H 7224.46 1.77399 3.70189 0
M  V30 76359 H 7223.12 0.816223 3.03309 0
M  V30 76360 H 7222.31 2.95248 4.08466 0
M  V30 76361 H 7221.91 2.90831 2.35145 0
M  V30 76362 H 7224.2 4.40526 5.14726 0
M  V30 76363 H 7225.15 5.65025 4.26793 0
M  V30 76364 H 7225.55 3.92108 4.06093 0
M  V30 76365 N 7224.95 -0.665374 1.42865 0
M  V30 76366 C 7226.18 -1.4513 1.4704 0
M  V30 76367 C 7226.59 -1.89017 0.0830973 0
M  V30 76368 O 7225.93 -1.59321 -0.914467 0
M  V30 76369 C 7226 -2.72646 2.34316 0
M  V30 76370 C 7225.66 -2.50776 3.82047 0
M  V30 76371 C 7226.66 -2.14774 4.73464 0
M  V30 76372 C 7224.34 -2.65478 4.26411 0
M  V30 76373 C 7226.34 -1.93753 6.07238 0
M  V30 76374 C 7224.02 -2.44073 5.60242 0
M  V30 76375 C 7225.02 -2.08265 6.50473 0
M  V30 76376 O 7224.71 -1.87074 7.8183 0
M  V30 76377 H 7224.44 -0.452746 0.501993 0
M  V30 76378 H 7226.99 -0.824131 1.88142 0
M  V30 76379 H 7225.22 -3.3788 1.88081 0
M  V30 76380 H 7226.91 -3.3456 2.29836 0
M  V30 76381 H 7227.68 -2.03003 4.40471 0
M  V30 76382 H 7223.56 -2.92326 3.56464 0
M  V30 76383 H 7227.1 -1.65728 6.77628 0
M  V30 76384 H 7223 -2.55443 5.92806 0
M  V30 76385 H 7223.77 -2.01597 7.93285 0
M  V30 76386 N 7226.43 -1.29194 -0.902588 0
M  V30 76387 C 7227.68 -1.17171 -1.65526 0
M  V30 76388 C 7228.01 0.276778 -1.92218 0
M  V30 76389 O 7227.28 1.20019 -1.53054 0
M  V30 76390 C 7227.57 -1.98243 -3.00619 0
M  V30 76391 C 7227.42 -3.51217 -2.81011 0
M  V30 76392 C 7228.74 -1.80656 -4.01312 0
M  V30 76393 H 7225.86 -0.427017 -0.600688 0
M  V30 76394 H 7228.5 -1.58635 -1.0457 0
M  V30 76395 H 7226.65 -1.6301 -3.52647 0
M  V30 76396 H 7228.32 -3.96417 -2.35906 0
M  V30 76397 H 7226.57 -3.76286 -2.1585 0
M  V30 76398 H 7227.24 -4.03212 -3.76993 0
M  V30 76399 H 7229.71 -2.11425 -3.58383 0
M  V30 76400 H 7228.59 -2.39736 -4.93779 0
M  V30 76401 H 7228.85 -0.760984 -4.35501 0
M  V30 76402 N 7227.91 1.11256 -1.11624 0
M  V30 76403 C 7229.16 1.82674 -0.864565 0
M  V30 76404 C 7229.48 1.85165 0.611466 0
M  V30 76405 O 7228.75 1.32359 1.44422 0
M  V30 76406 H 7227.33 0.67647 -0.316856 0
M  V30 76407 H 7229.99 1.34659 -1.40901 0
M  V30 76408 H 7229.09 2.86476 -1.23847 0
M  V30 76409 N 7229.39 0.906844 1.28896 0
M  V30 76410 C 7230.63 0.537224 1.95555 0
M  V30 76411 C 7230.97 -0.915491 1.71267 0
M  V30 76412 O 7230.24 -1.65008 1.02969 0
M  V30 76413 C 7230.52 0.83883 3.50194 0
M  V30 76414 C 7230.38 2.34377 3.83911 0
M  V30 76415 C 7231.7 0.33022 4.38859 0
M  V30 76416 H 7228.82 0.196655 0.710279 0
M  V30 76417 H 7231.46 1.13483 1.52386 0
M  V30 76418 H 7229.61 0.330228 3.87094 0
M  V30 76419 H 7231.28 2.92246 3.56917 0
M  V30 76420 H 7229.52 2.80159 3.312 0
M  V30 76421 H 7230.19 2.50536 4.9187 0
M  V30 76422 H 7232.67 0.765825 4.08992 0
M  V30 76423 H 7231.55 0.570392 5.45928 0
M  V30 76424 H 7231.81 -0.769282 4.35356 0
M  V30 76425 N 7230.87 -1.42645 0.670082 0
M  V30 76426 C 7232.28 -1.55954 0.339192 0
M  V30 76427 C 7232.48 -1.65062 -1.15572 0
M  V30 76428 O 7231.54 -1.61495 -1.94102 0
M  V30 76429 C 7232.85 -2.81195 1.06536 0
M  V30 76430 C 7234.4 -2.94961 1.04724 0
M  V30 76431 C 7234.87 -4.23056 1.75464 0
M  V30 76432 N 7236.36 -4.29958 1.72309 0
M  V30 76433 C 7237.1 -5.27877 2.23905 0
M  V30 76434 N 7236.6 -6.31976 2.83862 0
M  V30 76435 N 7238.39 -5.19643 2.14307 0
M  V30 76436 H 7230.54 -1.34977 1.63997 0
M  V30 76437 H 7232.8 -0.649403 0.690638 0
M  V30 76438 H 7232.51 -2.80586 2.12048 0
M  V30 76439 H 7232.38 -3.71942 0.627594 0
M  V30 76440 H 7234.77 -2.951 0.000471579 0
M  V30 76441 H 7234.85 -2.05457 1.52385 0
M  V30 76442 H 7234.49 -4.23678 2.80106 0
M  V30 76443 H 7234.42 -5.11487 1.25256 0
M  V30 76444 H 7236.92 -3.55356 1.28572 0
M  V30 76445 H 7237.23 -7.0304 3.20865 0
M  V30 76446 H 7235.57 -6.32552 2.8793 0
M  V30 76447 H 7238.76 -4.37237 1.67158 0
M  V30 76448 H 7238.94 -5.95793 2.54824 0
M  V30 76449 N 7232.34 -0.413098 -1.5209 0
M  V30 76450 C 7233.31 0.398568 -2.25708 0
M  V30 76451 C 7234.31 0.9703 -1.28226 0
M  V30 76452 O 7235.5 0.848555 -1.52135 0
M  V30 76453 C 7232.63 1.56144 -3.03038 0
M  V30 76454 H 7233.82 -0.246288 -2.98887 0
M  V30 76455 H 7231.37 -0.165704 -1.55419 0
M  V30 76456 H 7232.11 2.24305 -2.34217 0
M  V30 76457 H 7231.89 1.15793 -3.74612 0
M  V30 76458 H 7233.38 2.1355 -3.58868 0
M  V30 76459 N 7233.82 1.56944 -0.143646 0
M  V30 76460 C 7235.07 1.95629 0.507299 0
M  V30 76461 C 7235.39 1.02931 1.65621 0
M  V30 76462 O 7234.66 0.0902168 1.95692 0
M  V30 76463 H 7233.24 0.722328 0.190398 0
M  V30 76464 H 7235.9 1.93673 -0.21836 0
M  V30 76465 H 7235 2.9927 0.885658 0
M  V30 76466 N 7235.3 -0.130141 1.57062 0
M  V30 76467 C 7236.55 -0.838216 1.83898 0
M  V30 76468 C 7236.87 -1.80935 0.727142 0
M  V30 76469 O 7236.14 -1.94301 -0.249825 0
M  V30 76470 H 7234.72 -0.312537 0.678476 0
M  V30 76471 H 7237.38 -0.120121 1.94529 0
M  V30 76472 H 7236.48 -1.39023 2.79426 0
M  V30 76473 N 7236.78 -1.52439 -0.400001 0
M  V30 76474 C 7238.03 -1.66616 -1.14383 0
M  V30 76475 C 7238.35 -0.403028 -1.9079 0
M  V30 76476 O 7237.62 0.582327 -1.87045 0
M  V30 76477 H 7236.2 -0.614148 -0.425243 0
M  V30 76478 H 7238.86 -1.89515 -0.454976 0
M  V30 76479 H 7237.95 -2.51149 -1.85285 0
M  V30 76480 N 7238.26 0.657788 -1.43216 0
M  V30 76481 C 7239.5 1.41357 -1.43879 0
M  V30 76482 C 7239.82 1.95492 -0.0650011 0
M  V30 76483 O 7241.02 2.71452 0.0509365 0
M  V30 76484 C 7239.48 2.55798 -2.53171 0
M  V30 76485 C 7239.09 2.0829 -3.96635 0
M  V30 76486 C 7240.83 3.33196 -2.63022 0
M  V30 76487 C 7238.74 3.19914 -4.97402 0
M  V30 76488 H 7237.67 0.531107 -0.535202 0
M  V30 76489 H 7240.32 0.710454 -1.69189 0
M  V30 76490 H 7238.7 3.28559 -2.21055 0
M  V30 76491 H 7239.88 1.4257 -4.3819 0
M  V30 76492 H 7238.19 1.43783 -3.90788 0
M  V30 76493 H 7240.79 4.1636 -3.35482 0
M  V30 76494 H 7241.13 3.80923 -1.67939 0
M  V30 76495 H 7241.66 2.67514 -2.94417 0
M  V30 76496 H 7238.4 2.77161 -5.94022 0
M  V30 76497 H 7237.92 3.8436 -4.60464 0
M  V30 76498 H 7239.6 3.85117 -5.19898 0
M  V30 76499 N 7239.73 1.29671 0.895724 0
M  V30 76500 C 7240.98 1.1764 1.64333 0
M  V30 76501 C 7241.3 -0.271541 1.931 0
M  V30 76502 O 7240.57 -1.1851 1.55988 0
M  V30 76503 H 7239.15 0.432387 0.609139 0
M  V30 76504 H 7241.81 1.62651 1.0738 0
M  V30 76505 H 7240.91 1.72938 2.59805 0
M  V30 76506 N 7241.21 -1.10663 1.12212 0
M  V30 76507 C 7242.49 -1.79048 0.787477 0
M  V30 76508 C 7242.87 -1.98327 -0.723162 0
M  V30 76509 O 7242.22 -1.57443 -1.65602 0
M  V30 76510 C 7242.43 -3.12201 1.55985 0
M  V30 76511 C 7243.77 -3.87115 1.74433 0
M  V30 76512 O 7244.8 -3.21915 1.52477 0
M  V30 76513 O 7243.66 -5.04133 2.10979 0
M  V30 76514 H 7240.75 -0.775907 0.286178 0
M  V30 76515 H 7243.3 -1.17333 1.22601 0
M  V30 76516 H 7242.07 -2.93574 2.58708 0
M  V30 76517 H 7241.69 -3.81634 1.1154 0
M  V30 76518 N 7242.69 -0.913667 -1.28413 0
M  V30 76519 C 7243.6 -0.407087 -2.31041 0
M  V30 76520 C 7244.62 0.50521 -1.66504 0
M  V30 76521 O 7245.79 0.391418 -1.9756 0
M  V30 76522 C 7242.86 0.344719 -3.44982 0
M  V30 76523 C 7241.92 -0.600788 -4.25075 0
M  V30 76524 C 7241.15 0.115234 -5.33576 0
M  V30 76525 O 7241.37 1.33697 -5.5451 0
M  V30 76526 O 7240.31 -0.549411 -5.99387 0
M  V30 76527 H 7244.13 -1.25887 -2.7638 0
M  V30 76528 H 7241.72 -0.678485 -1.33105 0
M  V30 76529 H 7243.6 0.769323 -4.14318 0
M  V30 76530 H 7242.28 1.17234 -3.01725 0
M  V30 76531 H 7241.18 -1.07479 -3.58328 0
M  V30 76532 H 7242.52 -1.39522 -4.72011 0
M  V30 76533 N 7244.17 1.42288 -0.677638 0
M  V30 76534 C 7245.42 2.00723 -0.198279 0
M  V30 76535 C 7245.73 1.54218 1.20317 0
M  V30 76536 O 7246.94 2.0509 1.77905 0
M  V30 76537 C 7245.39 3.58617 -0.303621 0
M  V30 76538 C 7245 4.1411 -1.7093 0
M  V30 76539 C 7246.74 4.24339 0.116879 0
M  V30 76540 C 7244.65 5.64377 -1.76726 0
M  V30 76541 H 7243.58 0.750709 -0.0703686 0
M  V30 76542 H 7246.23 1.62978 -0.843233 0
M  V30 76543 H 7244.61 3.93879 0.409274 0
M  V30 76544 H 7245.79 3.90302 -2.44951 0
M  V30 76545 H 7244.1 3.60849 -2.0779 0
M  V30 76546 H 7246.7 5.34618 0.0937652 0
M  V30 76547 H 7247.04 4.00026 1.15262 0
M  V30 76548 H 7247.58 3.94047 -0.545108 0
M  V30 76549 H 7244.32 5.93493 -2.78291 0
M  V30 76550 H 7243.84 5.90167 -1.07065 0
M  V30 76551 H 7245.51 6.28844 -1.52199 0
M  V30 76552 N 7245.65 0.421158 1.51868 0
M  V30 76553 C 7246.56 -0.404947 2.31079 0
M  V30 76554 C 7247.57 -1.04258 1.39306 0
M  V30 76555 O 7248.75 -1.04148 1.72381 0
M  V30 76556 C 7245.81 -1.50016 3.12564 0
M  V30 76557 C 7244.87 -0.884337 4.20093 0
M  V30 76558 C 7244.11 -1.92736 4.97683 0
M  V30 76559 O 7244.33 -3.14727 4.75713 0
M  V30 76560 O 7243.26 -1.52689 5.82211 0
M  V30 76561 H 7247.09 0.241246 3.0274 0
M  V30 76562 H 7244.68 0.184069 1.48262 0
M  V30 76563 H 7246.56 -2.1357 3.63271 0
M  V30 76564 H 7245.23 -2.13073 2.43684 0
M  V30 76565 H 7244.14 -0.211182 3.73503 0
M  V30 76566 H 7245.47 -0.297504 4.913 0
M  V30 76567 N 7247.12 -1.56866 0.151967 0
M  V30 76568 C 7248.4 -1.87905 -0.543228 0
M  V30 76569 C 7248.78 -1.05874 -1.82631 0
M  V30 76570 O 7248.13 -0.146989 -2.28027 0
M  V30 76571 C 7248.34 -3.39616 -0.803877 0
M  V30 76572 C 7249.69 -4.08941 -1.14246 0
M  V30 76573 O 7250.71 -3.44823 -0.893066 0
M  V30 76574 O 7249.57 -5.22184 -1.61201 0
M  V30 76575 H 7246.66 -0.778987 -0.277683 0
M  V30 76576 H 7249.21 -1.68645 0.188951 0
M  V30 76577 H 7247.98 -3.91162 0.103979 0
M  V30 76578 H 7247.61 -3.64421 -1.59006 0
M  V30 76579 N 7248.6 0.12181 -1.57129 0
M  V30 76580 C 7250.01 0.679256 -1.73905 0
M  V30 76581 C 7250.36 1.80449 -0.77023 0
M  V30 76582 O 7249.49 2.16324 0.0574942 0
M  V30 76583 C 7250.08 1.23894 -3.15334 0
M  V30 76584 C 7248.64 1.7427 -3.33627 0
M  V30 76585 C 7247.79 0.641271 -2.69783 0
M  V30 76586 H 7250.74 -0.104083 -1.58358 0
M  V30 76587 H 7250.76 2.10862 -3.16729 0
M  V30 76588 H 7250.27 0.419753 -3.85823 0
M  V30 76589 H 7248.38 2.58675 -2.68175 0
M  V30 76590 H 7248.49 1.85408 -4.4177 0
M  V30 76591 H 7246.85 1.07418 -2.3094 0
M  V30 76592 H 7247.64 -0.166888 -3.42894 0
M  V30 76593 N 7250.08 1.52649 0.391911 0
M  V30 76594 C 7251.04 1.76578 1.46126 0
M  V30 76595 C 7252.04 0.635776 1.47697 0
M  V30 76596 O 7253.23 0.903806 1.48919 0
M  V30 76597 C 7250.37 1.86389 2.85433 0
M  V30 76598 H 7251.56 2.72057 1.26194 0
M  V30 76599 H 7249.11 1.43327 0.623473 0
M  V30 76600 H 7249.85 0.928849 3.10714 0
M  V30 76601 H 7249.63 2.68555 2.85694 0
M  V30 76602 H 7251.12 2.06585 3.62922 0
M  V30 76603 N 7251.56 -0.650184 1.43563 0
M  V30 76604 C 7252.81 -1.40726 1.45054 0
M  V30 76605 C 7253.13 -1.94848 0.0770849 0
M  V30 76606 O 7252.4 -1.74617 -0.888006 0
M  V30 76607 H 7250.98 -0.52229 0.534062 0
M  V30 76608 H 7253.64 -0.766608 1.7919 0
M  V30 76609 H 7252.74 -2.2481 2.16487 0
M  V30 76610 N 7253.04 -1.30144 -0.888834 0
M  V30 76611 C 7254.31 -1.09408 -1.62139 0
M  V30 76612 C 7254.69 0.357982 -2.08043 0
M  V30 76613 O 7254.04 1.34878 -1.84445 0
M  V30 76614 C 7254.25 -2.09148 -2.79389 0
M  V30 76615 C 7255.6 -2.40657 -3.49814 0
M  V30 76616 O 7256.62 -2.07428 -2.89573 0
M  V30 76617 O 7255.48 -2.9748 -4.58441 0
M  V30 76618 H 7252.58 -0.419928 -0.712453 0
M  V30 76619 H 7255.12 -1.41556 -0.935949 0
M  V30 76620 H 7253.89 -3.06904 -2.42746 0
M  V30 76621 H 7253.52 -1.77794 -3.55633 0
M  V30 76622 N 7254.51 1.10066 -1.12797 0
M  V30 76623 C 7255.42 2.20081 -0.812485 0
M  V30 76624 C 7256.44 1.72844 0.200258 0
M  V30 76625 O 7257.62 2.01373 0.03292 0
M  V30 76626 C 7254.68 3.45601 -0.275867 0
M  V30 76627 C 7253.74 4.07554 -1.34902 0
M  V30 76628 C 7252.98 5.27081 -0.837917 0
M  V30 76629 O 7253.2 5.69462 0.326924 0
M  V30 76630 O 7252.13 5.79989 -1.60925 0
M  V30 76631 H 7255.96 2.49508 -1.73146 0
M  V30 76632 H 7253.54 1.18876 -0.904926 0
M  V30 76633 H 7255.43 4.21396 0.0183153 0
M  V30 76634 H 7254.1 3.17792 0.615615 0
M  V30 76635 H 7253.01 3.33425 -1.69643 0
M  V30 76636 H 7254.34 4.39573 -2.21441 0
M  V30 76637 N 7255.99 0.920464 1.27927 0
M  V30 76638 C 7257.22 0.57236 1.98513 0
M  V30 76639 C 7257.63 -0.852286 1.68916 0
M  V30 76640 O 7256.97 -1.57702 0.942113 0
M  V30 76641 C 7257.04 0.709671 3.52426 0
M  V30 76642 C 7256.7 2.1051 4.05629 0
M  V30 76643 C 7257.7 3.07853 4.18954 0
M  V30 76644 C 7255.38 2.42009 4.40155 0
M  V30 76645 C 7257.38 4.34808 4.6607 0
M  V30 76646 C 7255.06 3.69202 4.86963 0
M  V30 76647 C 7256.06 4.65414 4.99878 0
M  V30 76648 O 7255.75 5.90345 5.45663 0
M  V30 76649 H 7255.48 0.216308 0.640458 0
M  V30 76650 H 7258.03 1.23767 1.63924 0
M  V30 76651 H 7256.26 -0.0127224 3.86698 0
M  V30 76652 H 7257.95 0.367687 4.04231 0
M  V30 76653 H 7258.72 2.84837 3.92547 0
M  V30 76654 H 7254.6 1.67869 4.2935 0
M  V30 76655 H 7258.14 5.09909 4.76065 0
M  V30 76656 H 7254.04 3.92039 5.12812 0
M  V30 76657 H 7254.81 5.9323 5.63933 0
M  V30 76658 N 7257.47 -1.41926 0.685174 0
M  V30 76659 C 7258.38 -2.34596 0.0135278 0
M  V30 76660 C 7259.4 -1.55663 -0.777507 0
M  V30 76661 O 7260.57 -1.88188 -0.717454 0
M  V30 76662 C 7257.64 -3.34302 -0.918854 0
M  V30 76663 C 7256.7 -4.29129 -0.121191 0
M  V30 76664 C 7255.93 -5.24072 -1.00916 0
M  V30 76665 O 7256.16 -5.24203 -2.24871 0
M  V30 76666 O 7255.09 -6.00106 -0.464407 0
M  V30 76667 H 7258.92 -2.93589 0.777132 0
M  V30 76668 H 7256.5 -1.42605 0.445454 0
M  V30 76669 H 7258.38 -3.95528 -1.45381 0
M  V30 76670 H 7257.06 -2.77768 -1.66213 0
M  V30 76671 H 7255.96 -3.71284 0.458116 0
M  V30 76672 H 7257.3 -4.88733 0.583195 0
M  V30 76673 N 7258.95 -0.429206 -1.51643 0
M  V30 76674 C 7259.88 0.377026 -2.30436 0
M  V30 76675 C 7260.86 1.02831 -1.35498 0
M  V30 76676 O 7262.05 1.0335 -1.64415 0
M  V30 76677 C 7259.18 1.48299 -3.14046 0
M  V30 76678 C 7258.13 0.955635 -4.17195 0
M  V30 76679 C 7257.46 2.15672 -4.89274 0
M  V30 76680 C 7258.76 -0.00429678 -5.223 0
M  V30 76681 H 7260.45 -0.280493 -2.98083 0
M  V30 76682 H 7258 -0.13634 -1.43353 0
M  V30 76683 H 7259.95 2.05415 -3.67944 0
M  V30 76684 H 7258.67 2.16868 -2.44205 0
M  V30 76685 H 7257.33 0.406737 -3.64337 0
M  V30 76686 H 7256.98 2.82842 -4.15944 0
M  V30 76687 H 7256.68 1.8103 -5.59019 0
M  V30 76688 H 7258.2 2.73358 -5.45993 0
M  V30 76689 H 7259.62 0.476306 -5.71318 0
M  V30 76690 H 7258.01 -0.262896 -5.99524 0
M  V30 76691 H 7259.08 -0.943487 -4.75633 0
M  V30 76692 N 7260.43 1.56783 -0.160284 0
M  V30 76693 C 7261.66 2.00623 0.493343 0
M  V30 76694 C 7262.07 1.03951 1.58085 0
M  V30 76695 O 7261.41 0.0306311 1.83674 0
M  V30 76696 C 7261.47 3.40896 1.14151 0
M  V30 76697 C 7261.13 4.56575 0.197002 0
M  V30 76698 C 7262.13 5.1665 -0.580446 0
M  V30 76699 C 7259.82 5.02208 0.096039 0
M  V30 76700 C 7261.81 6.20777 -1.44617 0
M  V30 76701 C 7259.5 6.06188 -0.773279 0
M  V30 76702 C 7260.5 6.65343 -1.54298 0
M  V30 76703 O 7260.18 7.67308 -2.39779 0
M  V30 76704 H 7259.92 0.663041 0.13173 0
M  V30 76705 H 7262.47 2.038 -0.255835 0
M  V30 76706 H 7260.7 3.34597 1.9386 0
M  V30 76707 H 7262.39 3.68759 1.69621 0
M  V30 76708 H 7263.15 4.82284 -0.512554 0
M  V30 76709 H 7259.03 4.55884 0.684903 0
M  V30 76710 H 7262.58 6.66878 -2.04741 0
M  V30 76711 H 7258.47 6.39979 -0.842414 0
M  V30 76712 H 7259.24 7.84584 -2.33173 0
M  V30 76713 N 7261.91 -0.113476 1.57191 0
M  V30 76714 C 7263.32 -0.467173 1.52609 0
M  V30 76715 C 7263.52 -1.81551 0.874154 0
M  V30 76716 O 7262.58 -2.48296 0.458834 0
M  V30 76717 C 7263.89 -0.446579 2.97365 0
M  V30 76718 C 7265.44 -0.52974 3.08485 0
M  V30 76719 C 7265.91 -0.539481 4.54812 0
M  V30 76720 N 7267.4 -0.600762 4.59288 0
M  V30 76721 C 7268.14 -0.629837 5.6993 0
M  V30 76722 N 7267.64 -0.616225 6.90054 0
M  V30 76723 N 7269.43 -0.673263 5.58053 0
M  V30 76724 H 7261.58 0.769923 1.97954 0
M  V30 76725 H 7263.84 0.284619 0.904265 0
M  V30 76726 H 7263.55 0.476614 3.48456 0
M  V30 76727 H 7263.42 -1.27236 3.55093 0
M  V30 76728 H 7265.81 -1.44335 2.57393 0
M  V30 76729 H 7265.89 0.323829 2.53742 0
M  V30 76730 H 7265.53 0.37011 5.0655 0
M  V30 76731 H 7265.46 -1.41001 5.07372 0
M  V30 76732 H 7267.96 -0.617223 3.72825 0
M  V30 76733 H 7268.27 -0.641186 7.70135 0
M  V30 76734 H 7266.61 -0.583562 6.92546 0
M  V30 76735 H 7269.8 -0.6813 4.63115 0
M  V30 76736 H 7269.98 -0.692454 6.4429 0
M  V30 76737 N 7263.38 -1.52855 -0.38381 0
M  V30 76738 C 7264.63 -1.68401 -1.13 0
M  V30 76739 C 7264.96 -0.425295 -1.89486 0
M  V30 76740 O 7264.24 0.577038 -1.85743 0
M  V30 76741 C 7264.52 -2.92237 -2.10404 0
M  V30 76742 C 7264.37 -4.28221 -1.37647 0
M  V30 76743 C 7265.69 -3.1163 -3.10765 0
M  V30 76744 H 7262.81 -0.61281 -0.409431 0
M  V30 76745 H 7265.45 -1.85462 -0.412797 0
M  V30 76746 H 7263.6 -2.77822 -2.71564 0
M  V30 76747 H 7265.28 -4.54413 -0.794112 0
M  V30 76748 H 7263.52 -4.28464 -0.678307 0
M  V30 76749 H 7264.19 -5.10967 -2.08847 0
M  V30 76750 H 7266.67 -3.2511 -2.59698 0
M  V30 76751 H 7265.54 -3.99745 -3.76158 0
M  V30 76752 H 7265.8 -2.2608 -3.79921 0
M  V30 76753 N 7264.86 0.642561 -1.43906 0
M  V30 76754 C 7266.11 1.40439 -1.46303 0
M  V30 76755 C 7266.44 1.93987 -0.0909384 0
M  V30 76756 O 7265.72 1.72954 0.889793 0
M  V30 76757 C 7266 2.57806 -2.51413 0
M  V30 76758 C 7265.85 2.09681 -3.97937 0
M  V30 76759 C 7267.17 3.60009 -2.53144 0
M  V30 76760 H 7264.29 0.50931 -0.532703 0
M  V30 76761 H 7266.93 0.727543 -1.75519 0
M  V30 76762 H 7265.08 3.15548 -2.26631 0
M  V30 76763 H 7266.75 1.56857 -4.33813 0
M  V30 76764 H 7265 1.40961 -4.10259 0
M  V30 76765 H 7265.67 2.94127 -4.67112 0
M  V30 76766 H 7268.14 3.12045 -2.75259 0
M  V30 76767 H 7267.02 4.39665 -3.28612 0
M  V30 76768 H 7267.28 4.13315 -1.56917 0
M  V30 76769 N 7266.34 1.30614 0.88192 0
M  V30 76770 C 7267.59 1.19613 1.63399 0
M  V30 76771 C 7267.91 -0.248472 1.92906 0
M  V30 76772 O 7267.17 -1.19383 1.55068 0
M  V30 76773 C 7267.47 1.97326 2.97988 0
M  V30 76774 C 7267.13 3.46922 2.8802 0
M  V30 76775 C 7265.8 3.87715 2.85009 0
M  V30 76776 C 7268.15 4.42171 2.75924 0
M  V30 76777 C 7265.48 5.22044 2.67744 0
M  V30 76778 C 7267.83 5.76611 2.60198 0
M  V30 76779 C 7266.49 6.16639 2.55562 0
M  V30 76780 H 7265.76 0.437693 0.597918 0
M  V30 76781 H 7268.41 1.61749 1.02515 0
M  V30 76782 H 7266.71 1.47834 3.62839 0
M  V30 76783 H 7268.41 1.86204 3.55146 0
M  V30 76784 H 7265 3.14507 2.91175 0
M  V30 76785 H 7269.19 4.11595 2.77315 0
M  V30 76786 H 7264.44 5.52146 2.62572 0
M  V30 76787 H 7268.62 6.50051 2.49812 0
M  V30 76788 H 7266.24 7.20672 2.41943 0
M  V30 76789 N 7267.82 -1.09466 1.1338 0
M  V30 76790 C 7269.09 -1.78203 0.806423 0
M  V30 76791 C 7269.47 -1.99083 -0.702086 0
M  V30 76792 O 7268.82 -1.5919 -1.63923 0
M  V30 76793 C 7269.03 -3.10529 1.59287 0
M  V30 76794 C 7270.38 -3.85243 1.78529 0
M  V30 76795 O 7271.4 -3.2028 1.55882 0
M  V30 76796 O 7270.26 -5.01867 2.16314 0
M  V30 76797 H 7267.36 -0.772828 0.294391 0
M  V30 76798 H 7269.9 -1.16026 1.23839 0
M  V30 76799 H 7268.68 -2.90814 2.61807 0
M  V30 76800 H 7268.3 -3.8043 1.15582 0
M  V30 76801 N 7269.3 -0.927235 -1.27437 0
M  V30 76802 C 7270.54 -0.563248 -1.93676 0
M  V30 76803 C 7270.86 0.899745 -1.73678 0
M  V30 76804 O 7272.06 1.37249 -2.34254 0
M  V30 76805 C 7270.52 -0.956543 -3.46956 0
M  V30 76806 C 7270.13 -2.44019 -3.75711 0
M  V30 76807 C 7271.87 -0.663786 -4.19278 0
M  V30 76808 C 7269.78 -2.77291 -5.22364 0
M  V30 76809 H 7268.71 -0.206932 -0.725048 0
M  V30 76810 H 7271.36 -1.12799 -1.44737 0
M  V30 76811 H 7269.74 -0.320462 -3.94701 0
M  V30 76812 H 7270.92 -3.12414 -3.38724 0
M  V30 76813 H 7269.23 -2.70479 -3.16591 0
M  V30 76814 H 7271.83 -0.888874 -5.2726 0
M  V30 76815 H 7272.17 0.398979 -4.14384 0
M  V30 76816 H 7272.7 -1.25895 -3.77353 0
M  V30 76817 H 7269.44 -3.82474 -5.32347 0
M  V30 76818 H 7268.96 -2.13545 -5.60498 0
M  V30 76819 H 7270.64 -2.6501 -5.90236 0
M  V30 76820 N 7270.77 1.41561 -0.692691 0
M  V30 76821 C 7272 2.05602 -0.231387 0
M  V30 76822 C 7272.42 1.52117 1.11829 0
M  V30 76823 O 7271.77 0.66822 1.69827 0
M  V30 76824 C 7271.82 3.61065 -0.177315 0
M  V30 76825 O 7271.55 4.1257 -1.47368 0
M  V30 76826 C 7273.05 4.42247 0.305327 0
M  V30 76827 H 7270.27 0.662207 -0.108273 0
M  V30 76828 H 7272.81 1.81384 -0.944465 0
M  V30 76829 H 7270.97 3.84332 0.486566 0
M  V30 76830 H 7271.38 5.06591 -1.35887 0
M  V30 76831 H 7272.85 5.51227 0.292039 0
M  V30 76832 H 7273.33 4.1814 1.34371 0
M  V30 76833 H 7273.94 4.24038 -0.327453 0
M  V30 76834 N 7272.25 0.437242 1.51413 0
M  V30 76835 C 7273.5 -0.129257 2.02087 0
M  V30 76836 C 7273.83 -1.42721 1.3214 0
M  V30 76837 O 7273.08 -1.91029 0.425017 0
M  V30 76838 C 7273.38 -0.395453 3.55205 0
M  V30 76839 C 7273.05 0.816673 4.43443 0
M  V30 76840 C 7271.71 1.14909 4.67279 0
M  V30 76841 C 7274.06 1.62529 4.95211 0
M  V30 76842 C 7271.39 2.2908 5.40129 0
M  V30 76843 C 7273.74 2.758 5.69313 0
M  V30 76844 C 7272.41 3.09496 5.91412 0
M  V30 76845 H 7271.68 -0.0472985 0.739489 0
M  V30 76846 H 7274.32 0.584417 1.82365 0
M  V30 76847 H 7272.63 -1.19102 3.73259 0
M  V30 76848 H 7274.32 -0.847193 3.91949 0
M  V30 76849 H 7270.91 0.547646 4.25087 0
M  V30 76850 H 7275.1 1.38169 4.76679 0
M  V30 76851 H 7270.35 2.555 5.55454 0
M  V30 76852 H 7274.53 3.38827 6.08415 0
M  V30 76853 H 7272.16 3.98076 6.47641 0
M  V30 76854 N 7273.73 -1.56696 0.168596 0
M  V30 76855 C 7274.98 -1.96801 -0.477054 0
M  V30 76856 C 7275.31 -1.05446 -1.63436 0
M  V30 76857 O 7274.56 -0.0879934 -1.95502 0
M  V30 76858 C 7274.86 -3.43001 -1.00423 0
M  V30 76859 C 7274.53 -4.50885 0.0368934 0
M  V30 76860 C 7273.19 -4.80114 0.323038 0
M  V30 76861 C 7275.54 -5.15867 0.743719 0
M  V30 76862 C 7272.87 -5.71625 1.32144 0
M  V30 76863 C 7275.22 -6.08454 1.73109 0
M  V30 76864 C 7273.88 -6.36052 2.02471 0
M  V30 76865 H 7273.15 -0.720144 -0.174567 0
M  V30 76866 H 7275.8 -1.89727 0.259984 0
M  V30 76867 H 7274.11 -3.47013 -1.81904 0
M  V30 76868 H 7275.8 -3.71372 -1.51275 0
M  V30 76869 H 7272.39 -4.2815 -0.196306 0
M  V30 76870 H 7276.58 -4.93399 0.535862 0
M  V30 76871 H 7271.83 -5.91291 1.55514 0
M  V30 76872 H 7276.01 -6.57874 2.28417 0
M  V30 76873 H 7273.63 -7.06763 2.79983 0
M  V30 76874 N 7275.21 0.105138 -1.57249 0
M  V30 76875 C 7276.46 0.810454 -1.85575 0
M  V30 76876 C 7276.78 1.79219 -0.755689 0
M  V30 76877 O 7276.04 1.94075 0.251686 0
M  V30 76878 C 7276.34 1.5827 -3.20445 0
M  V30 76879 C 7276 0.744 -4.4472 0
M  V30 76880 C 7274.67 0.512761 -4.7846 0
M  V30 76881 C 7277.02 0.160303 -5.20953 0
M  V30 76882 C 7274.35 -0.312203 -5.85869 0
M  V30 76883 C 7276.7 -0.651928 -6.29232 0
M  V30 76884 C 7275.36 -0.893354 -6.61495 0
M  V30 76885 H 7274.63 0.296566 -0.679065 0
M  V30 76886 H 7277.28 0.0722959 -1.91363 0
M  V30 76887 H 7275.58 2.39216 -3.10295 0
M  V30 76888 H 7277.28 2.13264 -3.39587 0
M  V30 76889 H 7273.87 0.934334 -4.18292 0
M  V30 76890 H 7278.05 0.326139 -4.95227 0
M  V30 76891 H 7273.31 -0.508333 -6.09283 0
M  V30 76892 H 7277.48 -1.11113 -6.87479 0
M  V30 76893 H 7275.11 -1.53441 -7.44554 0
M  V30 76894 N 7276.69 1.53056 0.375699 0
M  V30 76895 C 7277.93 1.68748 1.11939 0
M  V30 76896 C 7278.26 0.434115 1.89593 0
M  V30 76897 O 7277.52 -0.583769 1.8679 0
M  V30 76898 C 7277.82 2.88218 2.11341 0
M  V30 76899 C 7277.48 4.25132 1.50244 0
M  V30 76900 C 7276.14 4.62366 1.33308 0
M  V30 76901 C 7278.5 5.10318 1.05949 0
M  V30 76902 C 7275.82 5.82431 0.706458 0
M  V30 76903 C 7278.18 6.31019 0.446908 0
M  V30 76904 C 7276.84 6.66974 0.264962 0
M  V30 76905 H 7276.11 0.617492 0.409615 0
M  V30 76906 H 7278.76 1.87225 0.402394 0
M  V30 76907 H 7277.06 2.64212 2.89308 0
M  V30 76908 H 7278.76 2.97553 2.68818 0
M  V30 76909 H 7275.35 3.9581 1.64416 0
M  V30 76910 H 7279.53 4.8211 1.1783 0
M  V30 76911 H 7274.79 6.08887 0.553811 0
M  V30 76912 H 7278.96 6.96335 0.0954392 0
M  V30 76913 H 7276.59 7.59874 -0.222668 0
M  V30 76914 N 7278.16 -0.634921 1.44245 0
M  V30 76915 C 7279.41 -1.39662 1.47046 0
M  V30 76916 C 7279.74 -1.93936 0.101225 0
M  V30 76917 O 7279.02 -1.73423 -0.880608 0
M  V30 76918 C 7279.3 -2.56469 2.52776 0
M  V30 76919 C 7279.15 -2.07568 3.99043 0
M  V30 76920 C 7280.47 -3.58661 2.5505 0
M  V30 76921 H 7277.59 -0.506478 0.535396 0
M  V30 76922 H 7280.23 -0.718224 1.75902 0
M  V30 76923 H 7278.38 -3.14342 2.28301 0
M  V30 76924 H 7280.06 -1.54554 4.34638 0
M  V30 76925 H 7278.3 -1.38783 4.11001 0
M  V30 76926 H 7278.97 -2.91646 4.68665 0
M  V30 76927 H 7281.45 -3.10581 2.7691 0
M  V30 76928 H 7280.32 -4.37916 3.30939 0
M  V30 76929 H 7280.58 -4.12477 1.59106 0
M  V30 76930 N 7279.64 -1.3108 -0.874981 0
M  V30 76931 C 7280.89 -1.19839 -1.62239 0
M  V30 76932 C 7281.2 0.243468 -1.94079 0
M  V30 76933 O 7282.41 0.477505 -2.67268 0
M  V30 76934 C 7280.87 -2.0976 -2.92453 0
M  V30 76935 C 7280.47 -3.58912 -2.68115 0
M  V30 76936 C 7282.22 -2.07307 -3.70438 0
M  V30 76937 C 7280.13 -4.40857 -3.94207 0
M  V30 76938 H 7279.06 -0.444948 -0.608718 0
M  V30 76939 H 7281.71 -1.55899 -0.967865 0
M  V30 76940 H 7280.09 -1.66593 -3.59253 0
M  V30 76941 H 7281.26 -4.10292 -2.09754 0
M  V30 76942 H 7279.58 -3.6329 -2.03492 0
M  V30 76943 H 7282.17 -2.65776 -4.63969 0
M  V30 76944 H 7282.52 -1.05897 -4.02606 0
M  V30 76945 H 7283.05 -2.48647 -3.10515 0
M  V30 76946 H 7279.79 -5.43001 -3.67192 0
M  V30 76947 H 7279.31 -3.94237 -4.52037 0
M  V30 76948 H 7280.99 -4.52811 -4.62138 0
M  V30 76949 N 7281.12 1.08863 -1.13958 0
M  V30 76950 C 7282.37 1.81425 -0.906246 0
M  V30 76951 C 7282.7 1.85769 0.565991 0
M  V30 76952 O 7281.97 1.33013 1.41908 0
M  V30 76953 C 7282.26 3.27279 -1.502 0
M  V30 76954 C 7282.11 3.31173 -3.04376 0
M  V30 76955 C 7283.43 4.24125 -1.17499 0
M  V30 76956 H 7280.55 0.65866 -0.330659 0
M  V30 76957 H 7283.19 1.27487 -1.4088 0
M  V30 76958 H 7281.34 3.73342 -1.07461 0
M  V30 76959 H 7283.01 2.9347 -3.55912 0
M  V30 76960 H 7281.26 2.70584 -3.39067 0
M  V30 76961 H 7281.93 4.33948 -3.41164 0
M  V30 76962 H 7284.4 3.86377 -1.54441 0
M  V30 76963 H 7283.28 5.24504 -1.61823 0
M  V30 76964 H 7283.54 4.42009 -0.0895643 0
M  V30 76965 N 7282.6 0.93398 1.26943 0
M  V30 76966 C 7283.85 0.573511 1.93375 0
M  V30 76967 C 7284.16 -0.890522 1.74152 0
M  V30 76968 O 7285.37 -1.36005 2.34979 0
M  V30 76969 C 7283.82 0.97493 3.46444 0
M  V30 76970 C 7283.43 2.46008 3.74412 0
M  V30 76971 C 7285.17 0.686012 4.1892 0
M  V30 76972 C 7283.08 2.80057 5.20886 0
M  V30 76973 H 7282.01 0.210774 0.723941 0
M  V30 76974 H 7284.66 1.13565 1.44137 0
M  V30 76975 H 7283.04 0.341389 3.94526 0
M  V30 76976 H 7284.22 3.14206 3.37063 0
M  V30 76977 H 7282.53 2.72154 3.15152 0
M  V30 76978 H 7285.13 0.916824 5.26781 0
M  V30 76979 H 7285.47 -0.376998 4.14589 0
M  V30 76980 H 7286.01 1.27894 3.7668 0
M  V30 76981 H 7282.75 3.85292 5.30311 0
M  V30 76982 H 7282.27 2.16515 5.59358 0
M  V30 76983 H 7283.94 2.68136 5.88822 0
M  V30 76984 N 7284.08 -1.41192 0.700189 0
M  V30 76985 C 7285.01 -2.33442 0.0522363 0
M  V30 76986 C 7285.99 -1.52067 -0.7622 0
M  V30 76987 O 7287.17 -1.80589 -0.714241 0
M  V30 76988 C 7284.3 -3.35926 -0.881515 0
M  V30 76989 C 7283.26 -4.27647 -0.173836 0
M  V30 76990 C 7282.58 -5.20543 -1.22226 0
M  V30 76991 C 7283.88 -5.13352 0.962667 0
M  V30 76992 H 7285.58 -2.87874 0.822726 0
M  V30 76993 H 7283.12 -1.38417 0.397084 0
M  V30 76994 H 7285.08 -3.9939 -1.34408 0
M  V30 76995 H 7283.8 -2.79854 -1.68372 0
M  V30 76996 H 7282.46 -3.65614 0.268744 0
M  V30 76997 H 7282.11 -4.60783 -2.01712 0
M  V30 76998 H 7281.81 -5.82746 -0.753731 0
M  V30 76999 H 7283.33 -5.86883 -1.68524 0
M  V30 77000 H 7284.74 -5.70357 0.580176 0
M  V30 77001 H 7283.14 -5.84519 1.35858 0
M  V30 77002 H 7284.21 -4.50242 1.80027 0
M  V30 77003 N 7285.55 -0.445265 -1.51179 0
M  V30 77004 C 7286.48 0.352564 -2.30823 0
M  V30 77005 C 7287.47 1.01388 -1.36582 0
M  V30 77006 O 7288.65 1.016 -1.65502 0
M  V30 77007 C 7285.78 1.44959 -3.15601 0
M  V30 77008 C 7284.73 0.911332 -4.18185 0
M  V30 77009 C 7284.06 2.10471 -4.91534 0
M  V30 77010 C 7285.36 -0.0596934 -5.22266 0
M  V30 77011 H 7287.05 -0.312093 -2.97769 0
M  V30 77012 H 7284.6 -0.151537 -1.432 0
M  V30 77013 H 7286.55 2.01501 -3.70102 0
M  V30 77014 H 7285.28 2.14265 -2.46491 0
M  V30 77015 H 7283.94 0.368071 -3.64748 0
M  V30 77016 H 7283.58 2.78415 -4.1892 0
M  V30 77017 H 7283.28 1.7509 -5.60907 0
M  V30 77018 H 7284.81 2.67552 -5.48861 0
M  V30 77019 H 7286.22 0.415683 -5.71791 0
M  V30 77020 H 7284.62 -0.326468 -5.99211 0
M  V30 77021 H 7285.69 -0.993881 -4.74605 0
M  V30 77022 N 7287.03 1.56604 -0.176904 0
M  V30 77023 C 7288 2.17017 0.737315 0
M  V30 77024 C 7289 1.11971 1.15408 0
M  V30 77025 O 7290.19 1.37455 1.07013 0
M  V30 77026 C 7287.32 2.75755 2.0043 0
M  V30 77027 H 7288.51 2.99155 0.211298 0
M  V30 77028 H 7286.06 1.56131 0.0726759 0
M  V30 77029 H 7286.8 1.97366 2.57327 0
M  V30 77030 H 7286.58 3.52635 1.71437 0
M  V30 77031 H 7288.07 3.22201 2.65662 0
M  V30 77032 N 7288.51 -0.0967971 1.57302 0
M  V30 77033 C 7289.76 -0.79929 1.85187 0
M  V30 77034 C 7290.07 -1.79981 0.765913 0
M  V30 77035 O 7291.28 -2.55008 0.93183 0
M  V30 77036 C 7289.74 -1.47232 3.28406 0
M  V30 77037 C 7289.34 -0.511654 4.45069 0
M  V30 77038 C 7291.09 -2.15864 3.65517 0
M  V30 77039 C 7288.99 -1.18917 5.79321 0
M  V30 77040 H 7287.92 -0.30225 0.690768 0
M  V30 77041 H 7290.58 -0.0522136 1.83426 0
M  V30 77042 H 7288.96 -2.2668 3.24703 0
M  V30 77043 H 7290.13 0.251204 4.60115 0
M  V30 77044 H 7288.45 0.0688771 4.16343 0
M  V30 77045 H 7291.04 -2.67285 4.63101 0
M  V30 77046 H 7291.39 -2.9468 2.94056 0
M  V30 77047 H 7291.92 -1.43279 3.71101 0
M  V30 77048 H 7288.66 -0.441853 6.54009 0
M  V30 77049 H 7288.18 -1.9235 5.68121 0
M  V30 77050 H 7289.86 -1.71614 6.23825 0
M  V30 77051 N 7289.99 -1.53254 -0.367576 0
M  V30 77052 C 7291.24 -1.68559 -1.10773 0
M  V30 77053 C 7291.55 -0.442866 -1.9052 0
M  V30 77054 O 7292.76 -0.476431 -2.67287 0
M  V30 77055 C 7291.21 -2.9797 -2.01847 0
M  V30 77056 C 7290.82 -4.29497 -1.2742 0
M  V30 77057 C 7292.57 -3.22642 -2.75866 0
M  V30 77058 C 7290.47 -5.49998 -2.17385 0
M  V30 77059 H 7289.4 -0.628035 -0.417239 0
M  V30 77060 H 7292.05 -1.79754 -0.368877 0
M  V30 77061 H 7290.44 -2.80573 -2.79455 0
M  V30 77062 H 7291.61 -4.57519 -0.548897 0
M  V30 77063 H 7289.92 -4.11252 -0.652718 0
M  V30 77064 H 7292.52 -4.09855 -3.43399 0
M  V30 77065 H 7292.86 -2.38619 -3.41125 0
M  V30 77066 H 7293.4 -3.40704 -2.05342 0
M  V30 77067 H 7290.14 -6.36493 -1.56706 0
M  V30 77068 H 7289.66 -5.26258 -2.87771 0
M  V30 77069 H 7291.34 -5.84711 -2.76988 0
M  V30 77070 N 7291.47 0.627262 -1.44579 0
M  V30 77071 C 7292.4 1.75235 -1.47734 0
M  V30 77072 C 7293.41 1.58533 -0.370277 0
M  V30 77073 O 7294.6 1.66776 -0.636239 0
M  V30 77074 C 7291.7 3.13005 -1.29927 0
M  V30 77075 C 7290.87 3.5613 -2.53949 0
M  V30 77076 C 7289.93 4.72792 -2.30985 0
M  V30 77077 O 7288.96 4.80907 -3.04495 0
M  V30 77078 N 7290.16 5.64753 -1.34291 0
M  V30 77079 H 7292.93 1.72999 -2.44727 0
M  V30 77080 H 7290.49 0.811948 -1.40068 0
M  V30 77081 H 7292.48 3.88776 -1.12405 0
M  V30 77082 H 7291.05 3.09862 -0.412832 0
M  V30 77083 H 7290.27 2.70527 -2.86721 0
M  V30 77084 H 7291.56 3.81695 -3.36431 0
M  V30 77085 H 7290.96 5.60893 -0.735869 0
M  V30 77086 H 7289.51 6.40138 -1.22747 0
M  V30 77087 N 7292.95 1.31542 0.868017 0
M  V30 77088 C 7294.19 1.21099 1.618 0
M  V30 77089 C 7294.51 -0.230521 1.93633 0
M  V30 77090 O 7293.78 -1.15175 1.58466 0
M  V30 77091 H 7292.36 0.44521 0.599831 0
M  V30 77092 H 7295.03 1.64893 1.03906 0
M  V30 77093 H 7294.12 1.7841 2.56079 0
M  V30 77094 N 7294.42 -1.08258 1.14534 0
M  V30 77095 C 7295.35 -2.17225 0.856471 0
M  V30 77096 C 7296.33 -1.69045 -0.189161 0
M  V30 77097 O 7297.52 -1.94147 -0.0455095 0
M  V30 77098 C 7294.65 -3.45682 0.334844 0
M  V30 77099 C 7293.6 -4.07263 1.3161 0
M  V30 77100 C 7292.93 -5.30689 0.653707 0
M  V30 77101 C 7294.23 -4.48367 2.67889 0
M  V30 77102 H 7295.92 -2.41647 1.76768 0
M  V30 77103 H 7293.47 -1.16138 0.851348 0
M  V30 77104 H 7295.42 -4.21228 0.12035 0
M  V30 77105 H 7294.15 -3.20819 -0.611798 0
M  V30 77106 H 7292.81 -3.3375 1.51679 0
M  V30 77107 H 7292.45 -5.02112 -0.29879 0
M  V30 77108 H 7292.15 -5.72846 1.30847 0
M  V30 77109 H 7293.68 -6.08949 0.448774 0
M  V30 77110 H 7295.09 -5.15083 2.51719 0
M  V30 77111 H 7293.49 -5.01446 3.29654 0
M  V30 77112 H 7294.56 -3.6018 3.24651 0
M  V30 77113 N 7295.9 -0.940699 -1.26446 0
M  V30 77114 C 7297.15 -0.583758 -1.93068 0
M  V30 77115 C 7297.46 0.881274 -1.74622 0
M  V30 77116 O 7298.67 1.34757 -2.35696 0
M  V30 77117 C 7297.13 -0.993289 -3.45922 0
M  V30 77118 C 7296.73 -2.4799 -3.73102 0
M  V30 77119 C 7298.48 -0.708219 -4.1855 0
M  V30 77120 C 7296.38 -2.82816 -5.19393 0
M  V30 77121 H 7295.31 -0.214611 -0.722813 0
M  V30 77122 H 7297.97 -1.14327 -1.43532 0
M  V30 77123 H 7296.35 -0.362307 -3.94339 0
M  V30 77124 H 7297.52 -3.15989 -3.35392 0
M  V30 77125 H 7295.84 -2.73822 -3.13705 0
M  V30 77126 H 7298.43 -0.944747 -5.26288 0
M  V30 77127 H 7298.78 0.355006 -4.14784 0
M  V30 77128 H 7299.31 -1.2989 -3.75997 0
M  V30 77129 H 7296.05 -3.88099 -5.28261 0
M  V30 77130 H 7295.57 -2.19478 -5.58202 0
M  V30 77131 H 7297.25 -2.71255 -5.87392 0
M  V30 77132 N 7297.38 1.40818 -0.707667 0
M  V30 77133 C 7298.63 2.00257 -0.240811 0
M  V30 77134 C 7298.94 1.56735 1.17019 0
M  V30 77135 O 7300.15 2.08818 1.73515 0
M  V30 77136 C 7298.6 3.57892 -0.379621 0
M  V30 77137 C 7298.21 4.10391 -1.79676 0
M  V30 77138 C 7299.96 4.24492 0.0268446 0
M  V30 77139 C 7297.86 5.60502 -1.88658 0
M  V30 77140 H 7296.79 0.749048 -0.0862764 0
M  V30 77141 H 7299.44 1.61153 -0.877613 0
M  V30 77142 H 7297.83 3.94659 0.325634 0
M  V30 77143 H 7299 3.85018 -2.53175 0
M  V30 77144 H 7297.31 3.5636 -2.15398 0
M  V30 77145 H 7299.91 5.34696 -0.0196563 0
M  V30 77146 H 7300.25 4.0238 1.06751 0
M  V30 77147 H 7300.79 3.92803 -0.628568 0
M  V30 77148 H 7297.53 5.87457 -2.90818 0
M  V30 77149 H 7297.05 5.87763 -1.19559 0
M  V30 77150 H 7298.73 6.25474 -1.65503 0
M  V30 77151 N 7298.86 0.453276 1.50941 0
M  V30 77152 C 7300.13 -0.16853 1.94873 0
M  V30 77153 C 7300.51 -1.58633 1.3928 0
M  V30 77154 O 7299.86 -2.20848 0.586388 0
M  V30 77155 C 7300.07 -0.130034 3.48758 0
M  V30 77156 C 7301.42 -0.327752 4.23333 0
M  V30 77157 O 7302.44 -0.207432 3.55596 0
M  V30 77158 O 7301.3 -0.56879 5.43532 0
M  V30 77159 H 7298.4 -0.12135 0.818048 0
M  V30 77160 H 7300.94 0.512401 1.61779 0
M  V30 77161 H 7299.72 0.860547 3.8172 0
M  V30 77162 H 7299.34 -0.853192 3.88338 0
M  V30 77163 N 7300.34 -1.56508 0.185206 0
M  V30 77164 C 7301.3 -2.17405 -0.725796 0
M  V30 77165 C 7302.3 -1.12582 -1.14813 0
M  V30 77166 O 7303.49 -1.3802 -1.06283 0
M  V30 77167 C 7300.62 -2.76814 -1.98965 0
M  V30 77168 H 7301.81 -2.99263 -0.19543 0
M  V30 77169 H 7299.37 -1.56167 -0.0643949 0
M  V30 77170 H 7300.1 -1.98727 -2.56277 0
M  V30 77171 H 7299.89 -3.5354 -1.69565 0
M  V30 77172 H 7301.38 -3.23606 -2.63949 0
M  V30 77173 N 7301.81 0.0884536 -1.57352 0
M  V30 77174 C 7303.06 0.790726 -1.86424 0
M  V30 77175 C 7303.39 1.78408 -0.774656 0
M  V30 77176 O 7302.64 1.94331 0.231087 0
M  V30 77177 C 7302.94 1.54863 -3.22106 0
M  V30 77178 C 7302.61 0.69679 -4.45484 0
M  V30 77179 C 7301.27 0.461985 -4.78977 0
M  V30 77180 C 7303.62 0.10504 -5.21094 0
M  V30 77181 C 7300.95 -0.374325 -5.85505 0
M  V30 77182 C 7303.3 -0.71863 -6.28505 0
M  V30 77183 C 7301.97 -0.963464 -6.6051 0
M  V30 77184 H 7301.24 0.289347 -0.682172 0
M  V30 77185 H 7303.88 0.0519952 -1.91429 0
M  V30 77186 H 7302.19 2.35911 -3.12815 0
M  V30 77187 H 7303.89 2.09651 -3.4183 0
M  V30 77188 H 7300.48 0.889916 -4.19259 0
M  V30 77189 H 7304.66 0.273595 -4.95545 0
M  V30 77190 H 7299.92 -0.572927 -6.0871 0
M  V30 77191 H 7304.09 -1.18399 -6.86261 0
M  V30 77192 H 7301.72 -1.61329 -7.42884 0
M  V30 77193 N 7303.29 1.53446 0.359444 0
M  V30 77194 C 7304.54 1.6959 1.09926 0
M  V30 77195 C 7304.86 0.453471 1.89654 0
M  V30 77196 O 7304.13 -0.53253 1.88523 0
M  V30 77197 H 7302.71 0.625206 0.40881 0
M  V30 77198 H 7305.37 1.90655 0.40457 0
M  V30 77199 H 7304.47 2.55973 1.78561 0
M  V30 77200 N 7304.77 -0.619586 1.4491 0
M  V30 77201 C 7305.68 -1.75947 1.55177 0
M  V30 77202 C 7306.7 -1.68428 0.436809 0
M  V30 77203 O 7307.87 -1.88999 0.695804 0
M  V30 77204 C 7304.94 -3.12373 1.50413 0
M  V30 77205 C 7304 -3.31436 2.72853 0
M  V30 77206 C 7303.23 -4.61353 2.68307 0
M  V30 77207 O 7303.45 -5.42905 1.74958 0
M  V30 77208 O 7302.39 -4.8287 3.59333 0
M  V30 77209 H 7306.21 -1.70237 2.51502 0
M  V30 77210 H 7303.8 -0.782222 1.27286 0
M  V30 77211 H 7305.68 -3.93677 1.50322 0
M  V30 77212 H 7304.36 -3.186 0.572365 0
M  V30 77213 H 7303.26 -2.49766 2.7851 0
M  V30 77214 H 7304.6 -3.30078 3.65115 0
M  V30 77215 N 7306.25 -1.32 -0.861029 0
M  V30 77216 C 7307.18 -1.23004 -1.98475 0
M  V30 77217 C 7308.16 -0.115257 -1.69709 0
M  V30 77218 O 7309.34 -0.301361 -1.91847 0
M  V30 77219 C 7306.47 -0.945791 -3.34174 0
M  V30 77220 C 7305.43 -2.02111 -3.77273 0
M  V30 77221 C 7304.75 -1.58939 -5.10532 0
M  V30 77222 C 7306.05 -3.43536 -3.93421 0
M  V30 77223 H 7307.75 -2.17019 -2.0626 0
M  V30 77224 H 7305.29 -1.04477 -0.990988 0
M  V30 77225 H 7307.25 -0.869424 -4.12334 0
M  V30 77226 H 7305.97 0.0300127 -3.26586 0
M  V30 77227 H 7304.63 -2.08752 -3.0136 0
M  V30 77228 H 7304.28 -0.601206 -4.99394 0
M  V30 77229 H 7303.98 -2.30883 -5.4034 0
M  V30 77230 H 7305.5 -1.52727 -5.91191 0
M  V30 77231 H 7306.92 -3.39519 -4.61952 0
M  V30 77232 H 7305.31 -4.13774 -4.34639 0
M  V30 77233 H 7306.38 -3.83665 -2.96528 0
M  V30 77234 N 7307.73 1.07649 -1.15107 0
M  V30 77235 C 7309.14 1.32274 -0.893074 0
M  V30 77236 C 7309.34 1.96142 0.461598 0
M  V30 77237 O 7308.4 2.21936 1.20419 0
M  V30 77238 C 7309.71 2.21679 -2.03173 0
M  V30 77239 C 7311.26 2.35136 -2.06591 0
M  V30 77240 C 7311.73 3.27888 -3.19771 0
M  V30 77241 N 7313.23 3.35467 -3.19399 0
M  V30 77242 C 7313.96 4.07288 -4.03614 0
M  V30 77243 N 7313.46 4.8175 -4.97884 0
M  V30 77244 N 7315.25 4.03198 -3.91647 0
M  V30 77245 H 7307.4 0.645779 -2.02345 0
M  V30 77246 H 7309.66 0.347164 -0.882146 0
M  V30 77247 H 7309.37 1.82006 -3.00943 0
M  V30 77248 H 7309.24 3.22188 -1.96149 0
M  V30 77249 H 7311.63 2.74064 -1.09422 0
M  V30 77250 H 7311.71 1.34342 -2.17683 0
M  V30 77251 H 7311.36 2.8968 -4.17191 0
M  V30 77252 H 7311.29 4.28629 -3.05916 0
M  V30 77253 H 7313.78 2.8239 -2.51126 0
M  V30 77254 H 7314.09 5.34037 -5.58591 0
M  V30 77255 H 7312.43 4.80776 -5.01876 0
M  V30 77256 H 7315.63 3.44137 -3.17313 0
M  V30 77257 H 7315.8 4.58906 -4.57503 0
M  V30 77258 N 7309.2 0.947392 1.25945 0
M  V30 77259 C 7310.48 0.515924 1.88673 0
M  V30 77260 C 7310.86 -1.00665 1.85553 0
M  V30 77261 O 7310.21 -1.86933 1.31409 0
M  V30 77262 C 7310.42 1.08432 3.31728 0
M  V30 77263 C 7311.77 1.15676 4.08539 0
M  V30 77264 O 7312.79 1.03535 3.40821 0
M  V30 77265 O 7311.65 1.34636 5.29656 0
M  V30 77266 H 7308.74 0.169097 0.809528 0
M  V30 77267 H 7311.29 1.04036 1.3407 0
M  V30 77268 H 7310.06 2.12777 3.28392 0
M  V30 77269 H 7309.69 0.542707 3.93879 0
M  V30 77270 N 7310.68 -1.40441 0.715125 0
M  V30 77271 C 7311.61 -2.29189 0.0228724 0
M  V30 77272 C 7312.63 -1.45804 -0.724236 0
M  V30 77273 O 7313.82 -1.69097 -0.571692 0
M  V30 77274 C 7310.92 -3.2406 -0.991867 0
M  V30 77275 C 7310.09 -4.36297 -0.310383 0
M  V30 77276 C 7309.15 -5.11612 -1.23044 0
M  V30 77277 O 7308.17 -5.64686 -0.715412 0
M  V30 77278 N 7309.38 -5.20924 -2.56161 0
M  V30 77279 H 7312.14 -2.8924 0.784883 0
M  V30 77280 H 7309.7 -1.51806 0.562718 0
M  V30 77281 H 7311.69 -3.71317 -1.60954 0
M  V30 77282 H 7310.26 -2.6518 -1.65524 0
M  V30 77283 H 7309.48 -3.91174 0.487476 0
M  V30 77284 H 7310.77 -5.0854 0.162684 0
M  V30 77285 H 7310.17 -4.79286 -3.00502 0
M  V30 77286 H 7308.73 -5.71689 -3.13073 0
M  V30 77287 N 7312.16 -0.461275 -1.50698 0
M  V30 77288 C 7313.09 0.374124 -2.26126 0
M  V30 77289 C 7314.11 0.965646 -1.31069 0
M  V30 77290 O 7315.29 0.855719 -1.56652 0
M  V30 77291 C 7312.39 1.53774 -3.02004 0
M  V30 77292 C 7311.57 1.06079 -4.24342 0
M  V30 77293 C 7310.63 2.09731 -4.82596 0
M  V30 77294 O 7309.65 1.68191 -5.43784 0
M  V30 77295 N 7310.85 3.42451 -4.6873 0
M  V30 77296 H 7313.62 -0.272457 -2.98459 0
M  V30 77297 H 7311.18 -0.291498 -1.59254 0
M  V30 77298 H 7313.17 2.22788 -3.37858 0
M  V30 77299 H 7311.74 2.08921 -2.32532 0
M  V30 77300 H 7310.96 0.196877 -3.93708 0
M  V30 77301 H 7312.25 0.71989 -5.03681 0
M  V30 77302 H 7311.65 3.78916 -4.20046 0
M  V30 77303 H 7310.21 4.0729 -5.08879 0
M  V30 77304 N 7313.64 1.56408 -0.193504 0
M  V30 77305 C 7314.55 2.22624 0.739995 0
M  V30 77306 C 7315.56 1.2248 1.2359 0
M  V30 77307 O 7316.74 1.55212 1.2834 0
M  V30 77308 C 7313.81 2.87137 1.94302 0
M  V30 77309 C 7312.87 4.02545 1.49183 0
M  V30 77310 C 7312.1 4.63973 2.63752 0
M  V30 77311 O 7312.32 4.24321 3.81193 0
M  V30 77312 O 7311.26 5.53466 2.36556 0
M  V30 77313 H 7315.08 3.03 0.206078 0
M  V30 77314 H 7312.67 1.49357 0.0357151 0
M  V30 77315 H 7314.55 3.27958 2.64615 0
M  V30 77316 H 7313.22 2.09741 2.46557 0
M  V30 77317 H 7312.13 3.6635 0.757544 0
M  V30 77318 H 7313.46 4.816 1.01597 0
M  V30 77319 N 7315.12 -0.0801076 1.57396 0
M  V30 77320 C 7316.05 -1.1226 1.99826 0
M  V30 77321 C 7317.06 -1.35463 0.902974 0
M  V30 77322 O 7318.25 -1.3385 1.18095 0
M  V30 77323 C 7315.35 -2.4752 2.31489 0
M  V30 77324 C 7314.52 -2.44388 3.62758 0
M  V30 77325 C 7313.58 -3.6169 3.82187 0
M  V30 77326 O 7312.61 -3.43498 4.5387 0
M  V30 77327 N 7313.81 -4.81732 3.23905 0
M  V30 77328 H 7316.58 -0.761348 2.89868 0
M  V30 77329 H 7314.14 -0.268881 1.59652 0
M  V30 77330 H 7316.13 -3.24622 2.41667 0
M  V30 77331 H 7314.7 -2.75678 1.47378 0
M  V30 77332 H 7313.92 -1.52728 3.63411 0
M  V30 77333 H 7315.21 -2.39388 4.48966 0
M  V30 77334 H 7314.6 -4.99416 2.65706 0
M  V30 77335 H 7313.16 -5.56375 3.39545 0
M  V30 77336 N 7316.6 -1.53635 -0.351301 0
M  V30 77337 C 7317.84 -1.7076 -1.09402 0
M  V30 77338 C 7318.17 -0.465392 -1.88541 0
M  V30 77339 O 7317.45 0.53751 -1.86925 0
M  V30 77340 C 7317.73 -2.96634 -2.04158 0
M  V30 77341 C 7317.59 -4.31044 -1.28533 0
M  V30 77342 C 7318.9 -3.18152 -3.04085 0
M  V30 77343 H 7316.02 -0.621356 -0.39634 0
M  V30 77344 H 7318.67 -1.86295 -0.373365 0
M  V30 77345 H 7316.82 -2.8352 -2.6561 0
M  V30 77346 H 7318.49 -4.55996 -0.697546 0
M  V30 77347 H 7316.73 -4.29806 -0.587271 0
M  V30 77348 H 7317.4 -5.15282 -1.97961 0
M  V30 77349 H 7319.88 -3.30545 -2.52743 0
M  V30 77350 H 7318.75 -4.07634 -3.67594 0
M  V30 77351 H 7319.01 -2.34088 -3.7504 0
M  V30 77352 N 7318.07 0.611892 -1.45236 0
M  V30 77353 C 7319.02 1.72285 -1.53579 0
M  V30 77354 C 7319.99 1.61648 -0.381997 0
M  V30 77355 O 7321.18 1.8129 -0.594861 0
M  V30 77356 C 7318.32 3.10585 -1.50435 0
M  V30 77357 C 7317.43 3.3206 -2.76334 0
M  V30 77358 C 7316.56 4.60442 -2.64891 0
M  V30 77359 C 7315.6 4.75159 -3.85863 0
M  V30 77360 N 7314.74 5.94836 -3.7298 0
M  V30 77361 H 7319.58 1.64491 -2.48489 0
M  V30 77362 H 7317.12 0.802126 -1.23306 0
M  V30 77363 H 7319.07 3.90595 -1.46601 0
M  V30 77364 H 7317.7 3.17348 -0.590788 0
M  V30 77365 H 7316.76 2.45856 -2.90274 0
M  V30 77366 H 7318.07 3.38809 -3.66073 0
M  V30 77367 H 7317.22 5.48639 -2.58998 0
M  V30 77368 H 7315.96 4.56082 -1.72743 0
M  V30 77369 H 7314.97 3.85386 -3.92119 0
M  V30 77370 H 7316.19 4.81319 -4.79071 0
M  V30 77371 H 7314.14 5.9153 -2.83598 0
M  V30 77372 H 7314.05 6.02727 -4.56351 0
M  V30 77373 H 7315.32 6.85544 -3.71012 0
M  V30 77374 N 7319.55 1.32455 0.854016 0
M  V30 77375 C 7320.46 1.23444 1.99496 0
M  V30 77376 C 7321.48 0.147919 1.7337 0
M  V30 77377 O 7322.65 0.368714 1.97996 0
M  V30 77378 C 7319.72 0.958504 3.33187 0
M  V30 77379 C 7318.78 2.13353 3.72531 0
M  V30 77380 C 7318.01 1.87066 4.99842 0
M  V30 77381 O 7318.24 0.813537 5.64569 0
M  V30 77382 O 7317.17 2.7319 5.36331 0
M  V30 77383 H 7321 2.19361 2.10035 0
M  V30 77384 H 7318.58 1.12351 0.984764 0
M  V30 77385 H 7320.46 0.821136 4.13322 0
M  V30 77386 H 7319.14 0.0295006 3.23687 0
M  V30 77387 H 7318.04 2.32637 2.92969 0
M  V30 77388 H 7319.38 3.04535 3.86678 0
M  V30 77389 N 7321.03 -1.07037 1.15676 0
M  V30 77390 C 7322.31 -1.76452 0.844041 0
M  V30 77391 C 7322.69 -2.00527 -0.6597 0
M  V30 77392 O 7322.03 -1.62632 -1.60509 0
M  V30 77393 C 7322.24 -3.07081 1.65838 0
M  V30 77394 C 7323.59 -3.8137 1.86661 0
M  V30 77395 O 7324.62 -3.16901 1.62641 0
M  V30 77396 O 7323.48 -4.97166 2.2691 0
M  V30 77397 H 7320.57 -0.766409 0.310718 0
M  V30 77398 H 7323.12 -1.13373 1.26272 0
M  V30 77399 H 7321.89 -2.85195 2.67917 0
M  V30 77400 H 7321.51 -3.77892 1.23625 0
M  V30 77401 N 7322.51 -0.954058 -1.25441 0
M  V30 77402 C 7323.44 -0.418031 -2.24338 0
M  V30 77403 C 7324.42 0.500318 -1.54711 0
M  V30 77404 O 7325.6 0.434827 -1.83416 0
M  V30 77405 C 7322.73 0.397978 -3.36354 0
M  V30 77406 C 7321.78 -0.460685 -4.24005 0
M  V30 77407 S 7322.61 -1.89257 -5.00941 0
M  V30 77408 C 7323.76 -1.08497 -6.16424 0
M  V30 77409 H 7324 -1.25616 -2.69459 0
M  V30 77410 H 7321.53 -0.758089 -1.34508 0
M  V30 77411 H 7323.49 0.862847 -4.01329 0
M  V30 77412 H 7322.15 1.21093 -2.8982 0
M  V30 77413 H 7321.34 0.16515 -5.03729 0
M  V30 77414 H 7320.94 -0.860741 -3.63961 0
M  V30 77415 H 7323.24 -0.333374 -6.76679 0
M  V30 77416 H 7324.18 -1.85613 -6.8334 0
M  V30 77417 H 7324.59 -0.615357 -5.61136 0
M  V30 77418 N 7323.99 1.4006 -0.722563 0
M  V30 77419 C 7324.9 2.34478 -0.075722 0
M  V30 77420 C 7325.91 1.57669 0.735963 0
M  V30 77421 O 7327.09 1.90024 0.667307 0
M  V30 77422 C 7324.15 3.36621 0.829897 0
M  V30 77423 C 7323.21 4.29299 0.00737246 0
M  V30 77424 C 7322.45 5.26563 0.869861 0
M  V30 77425 O 7322.67 5.29981 2.10893 0
M  V30 77426 O 7321.6 6.01126 0.305137 0
M  V30 77427 H 7325.43 2.91425 -0.854699 0
M  V30 77428 H 7323.01 1.41373 -0.483106 0
M  V30 77429 H 7324.9 3.99243 1.34843 0
M  V30 77430 H 7323.57 2.82077 1.5879 0
M  V30 77431 H 7322.48 3.69939 -0.556395 0
M  V30 77432 H 7323.81 4.87015 -0.712568 0
M  V30 77433 N 7325.46 0.46926 1.50452 0
M  V30 77434 C 7326.69 -0.0841044 2.06729 0
M  V30 77435 C 7327.11 -1.3367 1.33333 0
M  V30 77436 O 7326.46 -1.78016 0.402071 0
M  V30 77437 C 7326.51 -0.374064 3.59559 0
M  V30 77438 O 7326.24 0.828849 4.30188 0
M  V30 77439 C 7327.74 -0.974596 4.32454 0
M  V30 77440 H 7324.96 0.00626638 0.670971 0
M  V30 77441 H 7327.5 0.657518 1.93641 0
M  V30 77442 H 7325.66 -1.06562 3.72456 0
M  V30 77443 H 7326.07 0.572341 5.21368 0
M  V30 77444 H 7327.54 -1.12726 5.40367 0
M  V30 77445 H 7328.02 -1.96421 3.9283 0
M  V30 77446 H 7328.63 -0.321479 4.24083 0
M  V30 77447 N 7326.94 -1.56303 0.201796 0
M  V30 77448 C 7327.89 -2.19401 -0.716383 0
M  V30 77449 C 7328.86 -1.14332 -1.20488 0
M  V30 77450 O 7330.04 -1.4261 -1.26755 0
M  V30 77451 C 7327.18 -2.86257 -1.92746 0
M  V30 77452 C 7326.3 -4.05868 -1.47971 0
M  V30 77453 C 7325.43 -4.60561 -2.64682 0
M  V30 77454 C 7324.47 -5.72516 -2.16546 0
M  V30 77455 N 7323.61 -6.21586 -3.26458 0
M  V30 77456 H 7328.45 -2.97506 -0.171567 0
M  V30 77457 H 7325.98 -1.46919 -0.0729385 0
M  V30 77458 H 7327.94 -3.23192 -2.63823 0
M  V30 77459 H 7326.57 -2.10704 -2.44548 0
M  V30 77460 H 7325.62 -3.7455 -0.664572 0
M  V30 77461 H 7326.94 -4.86821 -1.0866 0
M  V30 77462 H 7326.09 -4.99837 -3.43872 0
M  V30 77463 H 7324.83 -3.7873 -3.0727 0
M  V30 77464 H 7323.83 -5.32762 -1.35812 0
M  V30 77465 H 7325.06 -6.5617 -1.7498 0
M  V30 77466 H 7323.01 -5.42675 -3.68565 0
M  V30 77467 H 7322.92 -6.97609 -2.91337 0
M  V30 77468 H 7324.19 -6.65517 -4.05842 0
M  V30 77469 N 7328.42 0.0717594 -1.57437 0
M  V30 77470 C 7329.66 0.776251 -1.89086 0
M  V30 77471 C 7330.02 1.74741 -0.795586 0
M  V30 77472 O 7331.22 2.497 -0.995157 0
M  V30 77473 C 7329.5 1.46565 -3.25966 0
M  V30 77474 S 7331.05 2.2052 -3.79363 0
M  V30 77475 H 7327.87 0.258135 -0.662486 0
M  V30 77476 H 7330.47 0.0323505 -1.95473 0
M  V30 77477 H 7329.18 0.745024 -4.03581 0
M  V30 77478 H 7328.71 2.24898 -3.22776 0
M  V30 77479 H 7330.72 3.47039 -3.54652 0
M  V30 77480 N 7329.9 1.53819 0.343149 0
M  V30 77481 C 7331.14 1.71084 1.08335 0
M  V30 77482 C 7331.47 0.474233 1.8863 0
M  V30 77483 O 7330.73 -0.544016 1.87987 0
M  V30 77484 C 7331.03 2.92636 2.0518 0
M  V30 77485 C 7330.69 4.28224 1.41192 0
M  V30 77486 C 7329.35 4.6509 1.23471 0
M  V30 77487 C 7331.71 5.1245 0.951003 0
M  V30 77488 C 7329.03 5.83799 0.582757 0
M  V30 77489 C 7331.39 6.31825 0.312959 0
M  V30 77490 C 7330.05 6.67386 0.123427 0
M  V30 77491 H 7329.32 0.626042 0.396425 0
M  V30 77492 H 7331.97 1.88036 0.36259 0
M  V30 77493 H 7330.27 2.7029 2.83638 0
M  V30 77494 H 7331.97 3.03188 2.62446 0
M  V30 77495 H 7328.56 3.99208 1.55984 0
M  V30 77496 H 7332.74 4.84501 1.07577 0
M  V30 77497 H 7328 6.09924 0.424532 0
M  V30 77498 H 7332.17 6.9638 -0.0522851 0
M  V30 77499 H 7329.8 7.59231 -0.383798 0
M  V30 77500 N 7331.38 -0.604181 1.45559 0
M  V30 77501 C 7332.63 -1.3592 1.49026 0
M  V30 77502 C 7332.94 -1.95116 0.137512 0
M  V30 77503 O 7334.14 -2.71454 0.0498463 0
M  V30 77504 C 7332.6 -2.46225 2.6249 0
M  V30 77505 C 7332.21 -1.93425 4.04092 0
M  V30 77506 C 7333.95 -3.23205 2.75207 0
M  V30 77507 C 7331.86 -3.01233 5.08933 0
M  V30 77508 H 7330.79 -0.510878 0.554545 0
M  V30 77509 H 7333.44 -0.647171 1.71709 0
M  V30 77510 H 7331.82 -3.20128 2.33097 0
M  V30 77511 H 7333 -1.26209 4.43179 0
M  V30 77512 H 7331.31 -1.2918 3.95855 0
M  V30 77513 H 7333.91 -4.03622 3.50704 0
M  V30 77514 H 7334.25 -3.74428 1.81961 0
M  V30 77515 H 7334.78 -2.56402 3.04143 0
M  V30 77516 H 7331.52 -2.54923 6.03899 0
M  V30 77517 H 7331.04 -3.67006 4.74412 0
M  V30 77518 H 7332.72 -3.65556 5.33833 0
M  V30 77519 N 7332.85 -1.32906 -0.84698 0
M  V30 77520 C 7334.09 -1.25227 -1.61547 0
M  V30 77521 C 7334.46 0.181329 -1.91142 0
M  V30 77522 O 7335.66 0.381966 -2.66072 0
M  V30 77523 C 7333.93 -2.09524 -2.89542 0
M  V30 77524 S 7335.49 -2.18951 -3.80271 0
M  V30 77525 H 7332.31 -0.445642 -0.554007 0
M  V30 77526 H 7334.91 -1.67845 -1.00242 0
M  V30 77527 H 7333.61 -3.1273 -2.65759 0
M  V30 77528 H 7333.14 -1.67713 -3.55859 0
M  V30 77529 H 7335.16 -1.34463 -4.77634 0
M  V30 77530 N 7334.33 1.06422 -1.16242 0
M  V30 77531 C 7335.58 1.78842 -0.941265 0
M  V30 77532 C 7335.9 1.87592 0.532381 0
M  V30 77533 O 7335.17 1.38366 1.38678 0
M  V30 77534 H 7333.75 0.662422 -0.345263 0
M  V30 77535 H 7336.41 1.28561 -1.46485 0
M  V30 77536 H 7335.51 2.80965 -1.35886 0
M  V30 77537 N 7335.81 0.960697 1.24933 0
M  V30 77538 C 7337.06 0.6144 1.92115 0
M  V30 77539 C 7337.37 -0.853381 1.76002 0
M  V30 77540 O 7338.58 -1.3099 2.37811 0
M  V30 77541 C 7337.03 1.0482 3.44298 0
M  V30 77542 C 7336.64 2.53894 3.69109 0
M  V30 77543 C 7338.39 0.774717 4.17371 0
M  V30 77544 C 7336.29 2.91043 5.14828 0
M  V30 77545 H 7335.22 0.226083 0.719307 0
M  V30 77546 H 7337.87 1.16596 1.41695 0
M  V30 77547 H 7336.26 0.424997 3.93713 0
M  V30 77548 H 7337.43 3.21285 3.30322 0
M  V30 77549 H 7335.75 2.78778 3.09309 0
M  V30 77550 H 7338.34 1.02836 5.24718 0
M  V30 77551 H 7338.69 -0.288973 4.15296 0
M  V30 77552 H 7339.22 1.35855 3.73883 0
M  V30 77553 H 7335.96 3.96454 5.22019 0
M  V30 77554 H 7335.48 2.28331 5.5464 0
M  V30 77555 H 7337.16 2.80566 5.83002 0
M  V30 77556 N 7337.29 -1.39675 0.72998 0
M  V30 77557 C 7338.54 -2.00218 0.275183 0
M  V30 77558 C 7338.86 -1.58205 -1.14001 0
M  V30 77559 O 7338.13 -0.827998 -1.77542 0
M  V30 77560 H 7336.71 -0.740444 0.0987518 0
M  V30 77561 H 7339.37 -1.70799 0.93882 0
M  V30 77562 H 7338.47 -3.10459 0.319609 0
M  V30 77563 N 7338.77 -0.477232 -1.50201 0
M  V30 77564 C 7339.99 0.0753893 -2.07263 0
M  V30 77565 C 7340.42 1.32201 -1.33808 0
M  V30 77566 O 7339.77 1.77109 -0.387576 0
M  V30 77567 C 7339.82 0.336159 -3.5903 0
M  V30 77568 O 7338.93 1.4155 -3.87347 0
M  V30 77569 H 7338.27 -0.015697 -0.663814 0
M  V30 77570 H 7340.8 -0.670038 -1.93318 0
M  V30 77571 H 7340.81 0.574821 -4.0393 0
M  V30 77572 H 7339.48 -0.574768 -4.11909 0
M  V30 77573 H 7338.06 1.16366 -3.54279 0
M  V30 77574 N 7340.24 1.56194 -0.210082 0
M  V30 77575 C 7341.52 1.89792 0.473114 0
M  V30 77576 C 7341.9 1.12579 1.78575 0
M  V30 77577 O 7341.25 0.231518 2.27324 0
M  V30 77578 C 7341.46 3.42365 0.677277 0
M  V30 77579 C 7342.81 4.129 0.989896 0
M  V30 77580 O 7343.83 3.479 0.764472 0
M  V30 77581 O 7342.69 5.27807 1.4171 0
M  V30 77582 H 7339.78 0.788757 0.24858 0
M  V30 77583 H 7342.33 1.67827 -0.251413 0
M  V30 77584 H 7341.1 3.90506 -0.249084 0
M  V30 77585 H 7340.73 3.70071 1.45371 0
M  V30 77586 N 7341.72 -0.0634091 1.57472 0
M  V30 77587 C 7342.95 -0.772544 1.91612 0
M  V30 77588 C 7343.36 -1.71215 0.805109 0
M  V30 77589 O 7342.7 -1.82256 -0.229845 0
M  V30 77590 C 7342.77 -1.61287 3.21289 0
M  V30 77591 C 7342.43 -0.841737 4.49181 0
M  V30 77592 C 7343.43 -0.15722 5.19662 0
M  V30 77593 C 7341.11 -0.806429 4.95784 0
M  V30 77594 C 7343.11 0.552283 6.35003 0
M  V30 77595 C 7340.79 -0.093159 6.11029 0
M  V30 77596 C 7341.79 0.584989 6.8049 0
M  V30 77597 O 7341.48 1.28675 7.93535 0
M  V30 77598 H 7341.21 -0.224319 0.637697 0
M  V30 77599 H 7343.76 -0.0354196 2.05369 0
M  V30 77600 H 7341.99 -2.39299 3.03764 0
M  V30 77601 H 7343.68 -2.20144 3.41015 0
M  V30 77602 H 7344.45 -0.17575 4.84681 0
M  V30 77603 H 7340.33 -1.32374 4.41586 0
M  V30 77604 H 7343.87 1.08216 6.89155 0
M  V30 77605 H 7339.77 -0.0725854 6.45459 0
M  V30 77606 H 7340.54 1.19688 8.09702 0
M  V30 77607 N 7343.2 -1.53999 -0.334986 0
M  V30 77608 C 7344.45 -1.71656 -1.07426 0
M  V30 77609 C 7344.78 -0.48423 -1.88376 0
M  V30 77610 O 7344.03 0.534039 -1.88272 0
M  V30 77611 C 7344.33 -2.9372 -2.03625 0
M  V30 77612 C 7344 -4.28966 -1.3892 0
M  V30 77613 C 7342.66 -4.65738 -1.21003 0
M  V30 77614 C 7345.01 -5.12947 -0.923813 0
M  V30 77615 C 7342.34 -5.84099 -0.551789 0
M  V30 77616 C 7344.69 -6.31982 -0.279447 0
M  V30 77617 C 7343.35 -6.67442 -0.0880323 0
M  V30 77618 H 7342.62 -0.628135 -0.3931 0
M  V30 77619 H 7345.27 -1.88226 -0.352613 0
M  V30 77620 H 7343.58 -2.7179 -2.82201 0
M  V30 77621 H 7345.27 -3.04576 -2.60834 0
M  V30 77622 H 7341.86 -4.0003 -1.53864 0
M  V30 77623 H 7346.05 -4.85064 -1.05006 0
M  V30 77624 H 7341.3 -6.10141 -0.392181 0
M  V30 77625 H 7345.48 -6.96343 0.0892151 0
M  V30 77626 H 7343.1 -7.59016 0.424057 0
M  V30 77627 N 7344.68 0.596454 -1.45877 0
M  V30 77628 C 7345.96 1.3562 -1.40949 0
M  V30 77629 C 7346.34 2.10925 -0.0858179 0
M  V30 77630 O 7345.68 2.08609 0.932434 0
M  V30 77631 C 7345.89 2.29372 -2.63039 0
M  V30 77632 C 7347.24 2.91632 -3.08603 0
M  V30 77633 O 7348.27 2.3969 -2.63491 0
M  V30 77634 O 7347.12 3.85944 -3.86923 0
M  V30 77635 H 7344.22 0.608666 -0.55987 0
M  V30 77636 H 7346.76 0.618614 -1.58023 0
M  V30 77637 H 7345.54 1.73062 -3.50949 0
M  V30 77638 H 7345.16 3.10493 -2.48355 0
M  V30 77639 N 7346.16 1.33353 0.83992 0
M  V30 77640 C 7347.39 1.27787 1.62721 0
M  V30 77641 C 7347.8 -0.151405 1.88192 0
M  V30 77642 O 7347.16 -1.09322 1.46134 0
M  V30 77643 C 7347.21 2.04929 2.97802 0
M  V30 77644 O 7346.93 3.42281 2.73451 0
M  V30 77645 C 7348.43 2.0656 3.92234 0
M  V30 77646 H 7345.65 0.440284 0.506351 0
M  V30 77647 H 7348.19 1.75708 1.04628 0
M  V30 77648 H 7346.35 1.60693 3.52501 0
M  V30 77649 H 7346.76 3.81951 3.59463 0
M  V30 77650 H 7348.24 2.64992 4.84235 0
M  V30 77651 H 7348.71 1.05559 4.26326 0
M  V30 77652 H 7349.32 2.50811 3.43474 0
M  V30 77653 N 7347.64 -1.05804 1.16805 0
M  V30 77654 C 7348.86 -1.82381 0.976967 0
M  V30 77655 C 7349.28 -1.82732 -0.47482 0
M  V30 77656 O 7348.64 -1.25008 -1.32963 0
M  V30 77657 C 7348.69 -3.28775 1.50297 0
M  V30 77658 O 7348.41 -3.28563 2.8979 0
M  V30 77659 C 7349.91 -4.22064 1.3556 0
M  V30 77660 H 7347.13 -0.574909 0.346007 0
M  V30 77661 H 7349.67 -1.33458 1.54949 0
M  V30 77662 H 7347.83 -3.74992 0.972612 0
M  V30 77663 H 7348.24 -4.20142 3.13976 0
M  V30 77664 H 7349.72 -5.22789 1.77187 0
M  V30 77665 H 7350.19 -4.38162 0.301829 0
M  V30 77666 H 7350.8 -3.81698 1.87582 0
M  V30 77667 N 7349.11 -0.967309 -1.24422 0
M  V30 77668 C 7350.52 -0.667877 -1.74345 0
M  V30 77669 C 7350.88 0.816415 -1.78407 0
M  V30 77670 O 7350 1.63879 -1.41324 0
M  V30 77671 C 7350.6 -1.20565 -3.16622 0
M  V30 77672 C 7349.15 -0.956126 -3.64054 0
M  V30 77673 C 7348.3 -1.34119 -2.42708 0
M  V30 77674 H 7351.25 -1.14267 -1.1013 0
M  V30 77675 H 7351.27 -0.571745 -3.7618 0
M  V30 77676 H 7350.79 -2.28595 -3.13634 0
M  V30 77677 H 7348.89 0.108661 -3.72442 0
M  V30 77678 H 7349 -1.6015 -4.51541 0
M  V30 77679 H 7347.36 -0.75958 -2.4311 0
M  V30 77680 H 7348.15 -2.43098 -2.42401 0
M  V30 77681 N 7350.59 1.39286 -0.737377 0
M  V30 77682 C 7351.54 2.27877 -0.0749739 0
M  V30 77683 C 7352.53 1.44381 0.710144 0
M  V30 77684 O 7353.72 1.6727 0.578762 0
M  V30 77685 C 7350.85 3.33122 0.829734 0
M  V30 77686 C 7349.93 4.24082 0.0386383 0
M  V30 77687 N 7350.32 4.96028 -0.989444 0
M  V30 77688 C 7348.62 4.45194 0.267933 0
M  V30 77689 C 7349.32 5.62906 -1.46669 0
M  V30 77690 N 7348.3 5.37904 -0.784865 0
M  V30 77691 H 7352.1 2.80956 -0.862605 0
M  V30 77692 H 7349.61 1.51996 -0.571925 0
M  V30 77693 H 7351.61 3.95459 1.31978 0
M  V30 77694 H 7350.27 2.81602 1.6165 0
M  V30 77695 H 7351.28 4.99427 -1.37086 0
M  V30 77696 H 7347.96 4.04613 1.02931 0
M  V30 77697 H 7349.35 6.30496 -2.32216 0
M  V30 77698 N 7352.07 0.485191 1.49946 0
M  V30 77699 C 7353.32 -0.064771 2.01996 0
M  V30 77700 C 7353.64 -1.38937 1.36826 0
M  V30 77701 O 7352.91 -1.8892 0.518262 0
M  V30 77702 H 7351.49 -0.0269268 0.746515 0
M  V30 77703 H 7354.15 0.63883 1.84133 0
M  V30 77704 H 7353.25 -0.206006 3.11419 0
M  V30 77705 N 7353.55 -1.5608 0.218362 0
M  V30 77706 C 7354.79 -1.98219 -0.414202 0
M  V30 77707 C 7355.12 -1.10592 -1.59999 0
M  V30 77708 O 7354.38 -0.150146 -1.95123 0
M  V30 77709 C 7354.68 -3.46023 -0.8946 0
M  V30 77710 C 7354.34 -4.50539 0.18032 0
M  V30 77711 C 7353 -4.78844 0.475619 0
M  V30 77712 C 7355.36 -5.13239 0.907461 0
M  V30 77713 C 7352.68 -5.67131 1.50263 0
M  V30 77714 C 7355.04 -6.02639 1.92379 0
M  V30 77715 C 7353.7 -6.29288 2.22604 0
M  V30 77716 H 7352.97 -0.725333 -0.151567 0
M  V30 77717 H 7355.62 -1.88804 0.320212 0
M  V30 77718 H 7353.92 -3.52625 -1.70772 0
M  V30 77719 H 7355.62 -3.75997 -1.39383 0
M  V30 77720 H 7352.21 -4.28558 -0.059994 0
M  V30 77721 H 7356.39 -4.91444 0.692562 0
M  V30 77722 H 7351.65 -5.86045 1.74246 0
M  V30 77723 H 7355.82 -6.50274 2.49231 0
M  V30 77724 H 7353.45 -6.97497 3.02327 0
M  V30 77725 N 7355.03 0.0550571 -1.57504 0
M  V30 77726 C 7355.94 1.08113 -2.08204 0
M  V30 77727 C 7356.95 1.41326 -1.01504 0
M  V30 77728 O 7358.13 1.51167 -1.33081 0
M  V30 77729 C 7355.19 2.37069 -2.5298 0
M  V30 77730 C 7354.25 2.10676 -3.74051 0
M  V30 77731 C 7353.49 3.33483 -4.16683 0
M  V30 77732 O 7353.71 4.43221 -3.59042 0
M  V30 77733 O 7352.64 3.20711 -5.09341 0
M  V30 77734 H 7356.47 0.680362 -2.95981 0
M  V30 77735 H 7354.05 0.270324 -1.46934 0
M  V30 77736 H 7355.94 3.12931 -2.82227 0
M  V30 77737 H 7354.61 2.76493 -1.68325 0
M  V30 77738 H 7353.52 1.32465 -3.49862 0
M  V30 77739 H 7354.85 1.76123 -4.5961 0
M  V30 77740 N 7356.5 1.54174 0.326815 0
M  V30 77741 C 7357.73 1.76183 1.08476 0
M  V30 77742 C 7358.15 0.508883 1.81813 0
M  V30 77743 O 7357.5 -0.52027 1.74927 0
M  V30 77744 C 7357.55 2.95287 2.08537 0
M  V30 77745 O 7357.28 4.15738 1.3818 0
M  V30 77746 C 7358.78 3.29481 2.96575 0
M  V30 77747 H 7356 0.58825 0.322804 0
M  V30 77748 H 7358.54 2.01052 0.37393 0
M  V30 77749 H 7356.7 2.72701 2.7516 0
M  V30 77750 H 7357.11 4.82711 2.0516 0
M  V30 77751 H 7358.58 4.16128 3.62686 0
M  V30 77752 H 7359.06 2.46507 3.63498 0
M  V30 77753 H 7359.67 3.54134 2.35519 0
M  V30 77754 N 7357.98 -0.588709 1.46192 0
M  V30 77755 C 7358.93 -1.69295 1.52719 0
M  V30 77756 C 7359.92 -1.56135 0.388661 0
M  V30 77757 O 7361.11 -1.65152 0.636703 0
M  V30 77758 C 7358.24 -3.08076 1.51474 0
M  V30 77759 C 7357.32 -3.26554 2.70598 0
M  V30 77760 N 7357.71 -3.15215 3.95567 0
M  V30 77761 C 7356.01 -3.57477 2.66695 0
M  V30 77762 C 7356.71 -3.35536 4.75174 0
M  V30 77763 N 7355.69 -3.60411 4.06946 0
M  V30 77764 H 7359.49 -1.5905 2.47144 0
M  V30 77765 H 7357 -0.792558 1.41747 0
M  V30 77766 H 7359 -3.8732 1.54237 0
M  V30 77767 H 7357.66 -3.19456 0.581204 0
M  V30 77768 H 7358.67 -2.9321 4.26906 0
M  V30 77769 H 7355.35 -3.75579 1.82337 0
M  V30 77770 H 7356.74 -3.32003 5.84143 0
M  V30 77771 N 7359.46 -1.33797 -0.832836 0
M  V30 77772 C 7360.69 -1.28648 -1.62041 0
M  V30 77773 C 7361.1 0.141423 -1.8827 0
M  V30 77774 O 7360.46 1.08545 -1.46711 0
M  V30 77775 C 7360.51 -2.06506 -2.96711 0
M  V30 77776 O 7360.23 -3.43726 -2.71632 0
M  V30 77777 C 7361.73 -2.08638 -3.91133 0
M  V30 77778 H 7358.95 -0.442963 -0.504009 0
M  V30 77779 H 7361.5 -1.7626 -1.03694 0
M  V30 77780 H 7359.65 -1.6256 -3.51643 0
M  V30 77781 H 7360.07 -3.83852 -3.57432 0
M  V30 77782 H 7361.54 -2.67556 -4.82823 0
M  V30 77783 H 7362.02 -1.07819 -4.2576 0
M  V30 77784 H 7362.62 -2.52629 -3.42139 0
M  V30 77785 N 7360.94 1.05183 -1.17364 0
M  V30 77786 C 7361.87 2.14878 -0.913763 0
M  V30 77787 C 7362.85 1.69487 0.144276 0
M  V30 77788 O 7364.03 1.94199 -0.00598102 0
M  V30 77789 C 7361.16 3.44673 -0.426378 0
M  V30 77790 C 7360.12 4.0363 -1.42361 0
M  V30 77791 C 7359.44 5.28769 -0.79418 0
M  V30 77792 C 7360.74 4.41106 -2.79683 0
M  V30 77793 H 7362.44 2.36876 -1.83113 0
M  V30 77794 H 7359.98 1.1384 -0.881841 0
M  V30 77795 H 7361.94 4.20761 -0.231989 0
M  V30 77796 H 7360.66 3.22328 0.526523 0
M  V30 77797 H 7359.32 3.29611 -1.60474 0
M  V30 77798 H 7358.97 5.02727 0.165559 0
M  V30 77799 H 7358.67 5.69176 -1.45989 0
M  V30 77800 H 7360.19 6.07545 -0.610068 0
M  V30 77801 H 7361.61 5.08228 -2.65287 0
M  V30 77802 H 7360 4.9253 -3.42833 0
M  V30 77803 H 7361.07 3.51446 -3.34086 0
M  V30 77804 N 7362.42 0.973894 1.23908 0
M  V30 77805 C 7363.33 0.516856 2.28836 0
M  V30 77806 C 7364.34 -0.425194 1.68725 0
M  V30 77807 O 7365.52 -0.296714 1.99202 0
M  V30 77808 C 7362.58 -0.179731 3.46234 0
M  V30 77809 C 7361.64 0.802912 4.21725 0
M  V30 77810 C 7360.88 0.139473 5.33518 0
M  V30 77811 O 7361.1 -1.07089 5.60257 0
M  V30 77812 O 7360.03 0.834761 5.96083 0
M  V30 77813 H 7363.86 1.3893 2.70059 0
M  V30 77814 H 7361.45 0.741219 1.29716 0
M  V30 77815 H 7363.33 -0.57077 4.17517 0
M  V30 77816 H 7362 -1.02705 3.06975 0
M  V30 77817 H 7360.91 1.24453 3.52792 0
M  V30 77818 H 7362.24 1.61883 4.64817 0
M  V30 77819 N 7363.89 -1.38893 0.744753 0
M  V30 77820 C 7364.8 -2.34328 0.113016 0
M  V30 77821 C 7365.82 -1.5882 -0.710786 0
M  V30 77822 O 7367 -1.91061 -0.636992 0
M  V30 77823 C 7364.06 -3.37899 -0.776239 0
M  V30 77824 C 7363.12 -4.29257 0.0609263 0
M  V30 77825 C 7362.36 -5.27881 -0.78598 0
M  V30 77826 O 7362.58 -5.33269 -2.02435 0
M  V30 77827 O 7361.51 -6.01535 -0.209464 0
M  V30 77828 H 7365.34 -2.90028 0.900954 0
M  V30 77829 H 7362.92 -1.40587 0.505536 0
M  V30 77830 H 7364.81 -4.01338 -1.28474 0
M  V30 77831 H 7363.48 -2.84567 -1.54282 0
M  V30 77832 H 7362.39 -3.69007 0.615178 0
M  V30 77833 H 7363.72 -4.85819 0.789958 0
M  V30 77834 N 7365.37 -0.493136 -1.49686 0
M  V30 77835 C 7366.32 0.308563 -2.25902 0
M  V30 77836 C 7367.31 0.942401 -1.30413 0
M  V30 77837 O 7368.5 0.851302 -1.55183 0
M  V30 77838 C 7365.63 1.37708 -3.1447 0
M  V30 77839 C 7364.71 0.749879 -4.17418 0
M  V30 77840 N 7365.1 -0.142863 -5.05598 0
M  V30 77841 C 7363.4 1.01136 -4.34382 0
M  V30 77842 C 7364.1 -0.501088 -5.79538 0
M  V30 77843 N 7363.08 0.129099 -5.43447 0
M  V30 77844 H 7366.88 -0.378806 -2.91449 0
M  V30 77845 H 7364.4 -0.308698 -1.59439 0
M  V30 77846 H 7366.39 1.9648 -3.67697 0
M  V30 77847 H 7365.05 2.06621 -2.50475 0
M  V30 77848 H 7366.06 -0.513166 -5.15351 0
M  V30 77849 H 7362.74 1.69382 -3.81597 0
M  V30 77850 H 7364.13 -1.23098 -6.60528 0
M  V30 77851 N 7366.85 1.55962 -0.226636 0
M  V30 77852 C 7367.8 2.21886 0.697805 0
M  V30 77853 C 7368.79 1.19988 1.1958 0
M  V30 77854 O 7370 1.38054 1.15504 0
M  V30 77855 H 7366.37 0.711498 0.243463 0
M  V30 77856 H 7368.34 2.98165 0.118418 0
M  V30 77857 C 7367.09 2.91656 1.89294 0
M  V30 77858 H 7366.42 3.69825 1.51886 0
M  V30 77859 H 7367.86 3.41176 2.51744 0
M  V30 77860 C 7366.32 1.94405 2.75151 0
M  V30 77861 O 7366.85 1.46422 3.74064 0
M  V30 77862 N 7365.05 1.61944 2.41293 0
M  V30 77863 H 7364.6 2.01159 1.60912 0
M  V30 77864 H 7364.56 0.971377 2.99018 0
M  V30 77865 N 7368.33 -0.0467035 1.57531 0
M  V30 77866 C 7369.26 -1.05257 2.0843 0
M  V30 77867 C 7370.24 -1.38819 0.983014 0
M  V30 77868 O 7371.42 -1.48011 1.25724 0
M  V30 77869 C 7368.55 -2.35878 2.5491 0
M  V30 77870 C 7367.51 -2.16604 3.69143 0
M  V30 77871 C 7366.83 -3.5283 4.01765 0
M  V30 77872 C 7368.13 -1.56663 4.98251 0
M  V30 77873 H 7369.83 -0.628926 2.9272 0
M  V30 77874 H 7367.37 -0.301081 1.40817 0
M  V30 77875 H 7369.33 -3.06559 2.89136 0
M  V30 77876 H 7368.05 -2.80269 1.67681 0
M  V30 77877 H 7366.71 -1.48359 3.35239 0
M  V30 77878 H 7366.36 -3.94837 3.11629 0
M  V30 77879 H 7366.06 -3.40765 4.78699 0
M  V30 77880 H 7367.58 -4.24902 4.3851 0
M  V30 77881 H 7369 -2.1724 5.30547 0
M  V30 77882 H 7367.39 -1.55224 5.79677 0
M  V30 77883 H 7368.46 -0.530573 4.81989 0
M  V30 77884 N 7369.81 -1.54345 -0.318634 0
M  V30 77885 C 7370.77 -1.83349 -1.37535 0
M  V30 77886 C 7371.77 -0.70552 -1.44496 0
M  V30 77887 O 7372.96 -0.973828 -1.44438 0
M  V30 77888 C 7370.09 -1.99795 -2.76215 0
M  V30 77889 H 7371.28 -2.77768 -1.1307 0
M  V30 77890 H 7368.84 -1.46138 -0.55438 0
M  V30 77891 H 7369.57 -1.07604 -3.05928 0
M  V30 77892 H 7369.36 -2.81879 -2.72555 0
M  V30 77893 H 7370.85 -2.23665 -3.52652 0
M  V30 77894 N 7371.28 0.580948 -1.46502 0
M  V30 77895 C 7372.23 1.71096 -1.57571 0
M  V30 77896 C 7373.23 1.63475 -0.444116 0
M  V30 77897 O 7374.43 1.68947 -0.621053 0
M  V30 77898 H 7370.81 0.56572 -0.495445 0
M  V30 77899 H 7372.78 1.58892 -2.52579 0
M  V30 77900 C 7371.53 3.09482 -1.58482 0
M  V30 77901 H 7370.85 3.16018 -2.44894 0
M  V30 77902 H 7372.29 3.88304 -1.70281 0
M  V30 77903 C 7370.75 3.35436 -0.313773 0
M  V30 77904 O 7371.28 3.97265 0.595246 0
M  V30 77905 N 7369.49 2.89903 -0.201139 0
M  V30 77906 H 7369.03 2.39768 -0.941769 0
M  V30 77907 H 7368.99 3.07641 0.648415 0
M  V30 77908 N 7372.76 1.34237 0.825729 0
M  V30 77909 C 7373.99 1.29318 1.61123 0
M  V30 77910 C 7374.4 -0.13549 1.88714 0
M  V30 77911 O 7373.74 -1.09214 1.47709 0
M  V30 77912 C 7373.81 2.01302 2.97855 0
M  V30 77913 C 7373.47 3.5057 2.93172 0
M  V30 77914 C 7374.47 4.45529 2.67954 0
M  V30 77915 C 7372.15 3.92942 3.12893 0
M  V30 77916 C 7374.15 5.80835 2.62505 0
M  V30 77917 C 7371.83 5.28349 3.07068 0
M  V30 77918 C 7372.83 6.22107 2.81907 0
M  V30 77919 O 7372.52 7.55032 2.7601 0
M  V30 77920 H 7372.25 0.446418 0.507629 0
M  V30 77921 H 7374.8 1.77379 1.03565 0
M  V30 77922 H 7373.03 1.47851 3.57319 0
M  V30 77923 H 7374.72 1.8971 3.58838 0
M  V30 77924 H 7375.49 4.14115 2.52456 0
M  V30 77925 H 7371.37 3.20364 3.31493 0
M  V30 77926 H 7374.91 6.53988 2.42786 0
M  V30 77927 H 7370.81 5.59383 3.22119 0
M  V30 77928 H 7371.58 7.64735 2.91757 0
M  V30 77929 N 7374.24 -1.04559 1.1792 0
M  V30 77930 C 7375.17 -2.11973 0.845133 0
M  V30 77931 C 7376.15 -1.61477 -0.190804 0
M  V30 77932 O 7377.34 -1.88367 -0.0708911 0
M  V30 77933 C 7374.46 -3.37686 0.261835 0
M  V30 77934 C 7373.51 -4.07022 1.27417 0
M  V30 77935 S 7374.34 -4.54731 2.82807 0
M  V30 77936 C 7375.5 -5.83683 2.25975 0
M  V30 77937 H 7375.73 -2.39984 1.75485 0
M  V30 77938 H 7373.26 -1.17254 1.00454 0
M  V30 77939 H 7375.22 -4.10443 -0.0682092 0
M  V30 77940 H 7373.88 -3.078 -0.625919 0
M  V30 77941 H 7373.08 -4.9737 0.814819 0
M  V30 77942 H 7372.68 -3.4036 1.5502 0
M  V30 77943 H 7374.97 -6.57369 1.63926 0
M  V30 77944 H 7375.91 -6.34374 3.14603 0
M  V30 77945 H 7376.32 -5.38551 1.69183 0
M  V30 77946 N 7375.72 -0.980451 -1.23389 0
M  V30 77947 C 7376.97 -0.649362 -1.91806 0
M  V30 77948 C 7377.29 0.817103 -1.76504 0
M  V30 77949 O 7376.55 1.60491 -1.11988 0
M  V30 77950 C 7376.85 -0.985769 -3.43537 0
M  V30 77951 C 7376.51 -2.44245 -3.79018 0
M  V30 77952 C 7375.18 -2.84056 -3.88414 0
M  V30 77953 C 7377.53 -3.38723 -3.96127 0
M  V30 77954 C 7374.86 -4.17358 -4.12346 0
M  V30 77955 C 7377.21 -4.71669 -4.21558 0
M  V30 77956 C 7375.87 -5.11238 -4.29176 0
M  V30 77957 H 7375.14 -0.237618 -0.701868 0
M  V30 77958 H 7377.79 -1.23432 -1.46413 0
M  V30 77959 H 7376.09 -0.318727 -3.90501 0
M  V30 77960 H 7377.79 -0.707804 -3.94704 0
M  V30 77961 H 7374.38 -2.12382 -3.72279 0
M  V30 77962 H 7378.57 -3.09143 -3.88258 0
M  V30 77963 H 7373.82 -4.47622 -4.16466 0
M  V30 77964 H 7378 -5.44833 -4.3374 0
M  V30 77965 H 7375.62 -6.1455 -4.47473 0
M  V30 77966 N 7377.2 1.38496 -0.752109 0
M  V30 77967 C 7378.44 2.0015 -0.307608 0
M  V30 77968 C 7378.77 1.59699 1.11024 0
M  V30 77969 O 7378.03 0.825218 1.7745 0
M  V30 77970 C 7378.33 3.55413 -0.376343 0
M  V30 77971 C 7377.99 4.1557 -1.74964 0
M  V30 77972 C 7376.65 4.31714 -2.12547 0
M  V30 77973 C 7379.01 4.48771 -2.65054 0
M  V30 77974 C 7376.33 4.78355 -3.39696 0
M  V30 77975 C 7378.69 4.96828 -3.91593 0
M  V30 77976 C 7377.35 5.11178 -4.29247 0
M  V30 77977 H 7376.62 0.732401 -0.112562 0
M  V30 77978 H 7379.27 1.65566 -0.9623 0
M  V30 77979 H 7377.57 3.90125 0.361915 0
M  V30 77980 H 7379.27 4.00998 -0.0140179 0
M  V30 77981 H 7375.86 4.03418 -1.44748 0
M  V30 77982 H 7380.04 4.35902 -2.37283 0
M  V30 77983 H 7375.3 4.87651 -3.68791 0
M  V30 77984 H 7379.47 5.21488 -4.61545 0
M  V30 77985 H 7377.1 5.47079 -5.27834 0
M  V30 77986 N 7378.68 0.501068 1.49422 0
M  V30 77987 C 7379.61 -0.266653 2.31972 0
M  V30 77988 C 7380.59 -0.962489 1.4025 0
M  V30 77989 O 7381.77 -0.953878 1.69159 0
M  V30 77990 C 7378.9 -1.33146 3.20764 0
M  V30 77991 C 7377.86 -0.755498 4.21279 0
M  V30 77992 C 7377.18 -1.92083 4.99007 0
M  V30 77993 C 7378.48 0.253488 5.21685 0
M  V30 77994 H 7380.18 0.422393 2.96405 0
M  V30 77995 H 7377.72 0.20458 1.42539 0
M  V30 77996 H 7379.67 -1.87626 3.77325 0
M  V30 77997 H 7378.4 -2.04969 2.54274 0
M  V30 77998 H 7377.06 -0.232444 3.65862 0
M  V30 77999 H 7376.71 -2.62675 4.28965 0
M  V30 78000 H 7376.41 -1.54152 5.67019 0
M  V30 78001 H 7377.93 -2.46997 5.58413 0
M  V30 78002 H 7379.34 -0.20318 5.7294 0
M  V30 78003 H 7377.74 0.548637 5.97587 0
M  V30 78004 H 7378.81 1.16934 4.70589 0
M  V30 78005 N 7380.15 -1.5584 0.234904 0
M  V30 78006 C 7381.09 -2.16873 -0.71002 0
M  V30 78007 C 7382.06 -1.11712 -1.18149 0
M  V30 78008 O 7383.25 -1.40038 -1.26181 0
M  V30 78009 C 7380.38 -2.75977 -1.96353 0
M  V30 78010 C 7379.42 -3.94085 -1.63093 0
M  V30 78011 S 7380.25 -5.30306 -0.744027 0
M  V30 78012 C 7381.41 -5.92856 -2.00681 0
M  V30 78013 H 7381.64 -2.96684 -0.191304 0
M  V30 78014 H 7379.18 -1.54388 0.0194669 0
M  V30 78015 H 7381.13 -3.10667 -2.68322 0
M  V30 78016 H 7379.8 -1.96134 -2.45337 0
M  V30 78017 H 7378.99 -4.33988 -2.56262 0
M  V30 78018 H 7378.59 -3.6061 -0.991777 0
M  V30 78019 H 7380.88 -6.09642 -2.95538 0
M  V30 78020 H 7381.83 -6.88573 -1.65146 0
M  V30 78021 H 7382.23 -5.21812 -2.15343 0
M  V30 78022 N 7381.63 0.0383486 -1.57553 0
M  V30 78023 C 7382.86 0.741962 -1.92817 0
M  V30 78024 C 7383.27 1.69913 -0.832246 0
M  V30 78025 O 7382.61 1.82599 0.200821 0
M  V30 78026 C 7382.67 1.56155 -3.23815 0
M  V30 78027 C 7382.34 0.770169 -4.50464 0
M  V30 78028 C 7383.34 0.0745265 -5.19847 0
M  V30 78029 C 7381.02 0.727452 -4.97004 0
M  V30 78030 C 7383.01 -0.653236 -6.34044 0
M  V30 78031 C 7380.7 -0.00406217 -6.111 0
M  V30 78032 C 7381.7 -0.693175 -6.79473 0
M  V30 78033 O 7381.39 -1.41283 -7.91388 0
M  V30 78034 H 7381.12 0.214145 -0.641185 0
M  V30 78035 H 7383.67 0.00274264 -2.054 0
M  V30 78036 H 7381.9 2.34436 -3.07533 0
M  V30 78037 H 7383.59 2.14691 -3.44474 0
M  V30 78038 H 7384.36 0.0986193 -4.849 0
M  V30 78039 H 7380.24 1.25332 -4.43636 0
M  V30 78040 H 7383.78 -1.19166 -6.87347 0
M  V30 78041 H 7379.68 -0.0301107 -6.45493 0
M  V30 78042 H 7380.45 -1.32555 -8.07695 0
M  V30 78043 N 7383.11 1.54512 0.310444 0
M  V30 78044 C 7384.04 1.87807 1.38747 0
M  V30 78045 C 7385.02 0.736072 1.53349 0
M  V30 78046 O 7386.21 0.990976 1.67013 0
M  V30 78047 C 7383.34 2.11703 2.75316 0
M  V30 78048 C 7382.29 3.27551 2.75489 0
M  V30 78049 C 7381.62 3.36846 4.15257 0
M  V30 78050 C 7382.92 4.64888 2.38068 0
M  V30 78051 H 7384.61 2.78011 1.11131 0
M  V30 78052 H 7382.16 1.33766 0.533161 0
M  V30 78053 H 7384.11 2.33581 3.50739 0
M  V30 78054 H 7382.83 1.18261 3.04437 0
M  V30 78055 H 7381.49 3.05582 2.02522 0
M  V30 78056 H 7381.14 2.40938 4.4154 0
M  V30 78057 H 7380.84 4.14714 4.16277 0
M  V30 78058 H 7382.36 3.60973 4.92474 0
M  V30 78059 H 7383.78 4.86558 3.03206 0
M  V30 78060 H 7382.17 5.45401 2.50316 0
M  V30 78061 H 7383.24 4.66246 1.33203 0
M  V30 78062 N 7384.59 -0.57317 1.46808 0
M  V30 78063 C 7385.84 -1.32728 1.51875 0
M  V30 78064 C 7386.15 -1.9478 0.178868 0
M  V30 78065 O 7387.36 -2.71287 0.107415 0
M  V30 78066 C 7385.81 -2.40602 2.67654 0
M  V30 78067 C 7385.42 -1.84811 4.08104 0
M  V30 78068 C 7387.16 -3.17295 2.82001 0
M  V30 78069 C 7385.07 -2.9037 5.15208 0
M  V30 78070 H 7384 -0.499 0.565256 0
M  V30 78071 H 7386.65 -0.610604 1.73043 0
M  V30 78072 H 7385.03 -3.15112 2.39835 0
M  V30 78073 H 7386.21 -1.1678 4.45757 0
M  V30 78074 H 7384.52 -1.20754 3.98506 0
M  V30 78075 H 7387.12 -3.96092 3.59187 0
M  V30 78076 H 7387.46 -3.70484 1.89862 0
M  V30 78077 H 7388 -2.49893 3.09513 0
M  V30 78078 H 7384.73 -2.42056 6.09171 0
M  V30 78079 H 7384.25 -3.5686 4.8209 0
M  V30 78080 H 7385.93 -3.54151 5.41467 0
M  V30 78081 N 7386.07 -1.34673 -0.818598 0
M  V30 78082 C 7387.01 -1.26619 -1.95116 0
M  V30 78083 C 7388.01 -0.163437 -1.6861 0
M  V30 78084 O 7389.21 -0.32868 -1.76974 0
M  V30 78085 H 7385.59 -0.393465 -0.640851 0
M  V30 78086 H 7387.56 -2.22327 -1.99031 0
M  V30 78087 C 7386.31 -1.04289 -3.31691 0
M  V30 78088 H 7385.63 -1.88378 -3.52638 0
M  V30 78089 H 7387.07 -1.02692 -4.11376 0
M  V30 78090 C 7385.53 0.253681 -3.35944 0
M  V30 78091 O 7386.06 1.25358 -3.81639 0
M  V30 78092 N 7384.27 0.288294 -2.89166 0
M  V30 78093 H 7383.81 -0.525978 -2.52173 0
M  V30 78094 H 7383.77 1.15557 -2.92394 0
M  V30 78095 N 7387.54 1.03932 -1.18473 0
M  V30 78096 C 7388.49 2.11975 -0.912971 0
M  V30 78097 C 7389.46 1.65438 0.148153 0
M  V30 78098 O 7390.65 1.90798 0.00823039 0
M  V30 78099 C 7387.79 3.42202 -0.446294 0
M  V30 78100 C 7386.9 4.02344 -1.57299 0
M  V30 78101 C 7386.03 5.20539 -1.0589 0
M  V30 78102 C 7385.07 5.72714 -2.1602 0
M  V30 78103 N 7384.21 6.82195 -1.65995 0
M  V30 78104 H 7389.05 2.34559 -1.8381 0
M  V30 78105 H 7386.59 1.15054 -0.916564 0
M  V30 78106 H 7388.54 4.16904 -0.15719 0
M  V30 78107 H 7387.17 3.19762 0.441857 0
M  V30 78108 H 7386.23 3.24957 -1.97755 0
M  V30 78109 H 7387.54 4.37094 -2.40313 0
M  V30 78110 H 7386.69 6.0236 -0.724405 0
M  V30 78111 H 7385.43 4.87296 -0.198373 0
M  V30 78112 H 7384.44 4.89514 -2.50313 0
M  V30 78113 H 7385.66 6.08 -3.02511 0
M  V30 78114 H 7383.61 6.50825 -0.822333 0
M  V30 78115 H 7383.52 7.16016 -2.42605 0
M  V30 78116 H 7384.79 7.67637 -1.35477 0
M  V30 78117 N 7389.02 0.986981 1.22868 0
M  V30 78118 C 7390.3 0.575688 1.86936 0
M  V30 78119 C 7390.68 -0.947106 1.88661 0
M  V30 78120 O 7390.03 -1.82658 1.3729 0
M  V30 78121 C 7390.24 1.18931 3.2811 0
M  V30 78122 C 7391.58 1.28615 4.04652 0
M  V30 78123 O 7392.61 1.14326 3.37354 0
M  V30 78124 O 7391.47 1.51418 5.25104 0
M  V30 78125 H 7388.56 0.194766 0.803738 0
M  V30 78126 H 7391.11 1.08248 1.30692 0
M  V30 78127 H 7389.88 2.23117 3.21457 0
M  V30 78128 H 7389.5 0.667741 3.91953 0
M  V30 78129 N 7390.5 -1.38095 0.759443 0
M  V30 78130 C 7391.41 -2.34195 0.137863 0
M  V30 78131 C 7392.43 -1.59565 -0.693901 0
M  V30 78132 O 7393.6 -1.91726 -0.616691 0
M  V30 78133 C 7390.67 -3.38703 -0.740356 0
M  V30 78134 C 7389.73 -4.29168 0.106451 0
M  V30 78135 C 7388.96 -5.28685 -0.729947 0
M  V30 78136 O 7389.18 -5.35386 -1.96768 0
M  V30 78137 O 7388.12 -6.01724 -0.145651 0
M  V30 78138 H 7391.94 -2.89057 0.931665 0
M  V30 78139 H 7389.53 -1.40043 0.520419 0
M  V30 78140 H 7391.41 -4.02678 -1.24211 0
M  V30 78141 H 7390.09 -2.86188 -1.51255 0
M  V30 78142 H 7388.99 -3.68334 0.654282 0
M  V30 78143 H 7390.33 -4.84954 0.841441 0
M  V30 78144 N 7391.98 -0.508985 -1.49155 0
M  V30 78145 C 7393.21 0.0292643 -2.06879 0
M  V30 78146 C 7393.62 1.30088 -1.3683 0
M  V30 78147 O 7392.98 1.76887 -0.449128 0
M  V30 78148 C 7393.03 0.278601 -3.60425 0
M  V30 78149 O 7392.75 -0.942615 -4.27839 0
M  V30 78150 C 7394.25 0.859596 -4.34886 0
M  V30 78151 H 7391.47 -0.0240538 -0.670569 0
M  V30 78152 H 7394.02 -0.708627 -1.9183 0
M  V30 78153 H 7392.17 0.966491 -3.7515 0
M  V30 78154 H 7392.58 -0.710371 -5.19667 0
M  V30 78155 H 7394.06 0.983598 -5.43166 0
M  V30 78156 H 7394.54 1.85937 -3.97899 0
M  V30 78157 H 7395.14 0.208928 -4.24787 0
M  V30 78158 N 7393.46 1.55713 -0.243165 0
M  V30 78159 C 7394.37 2.24865 0.668794 0
M  V30 78160 C 7395.38 1.2635 1.19631 0
M  V30 78161 O 7396.56 1.59217 1.23337 0
M  V30 78162 C 7393.62 2.93173 1.85069 0
M  V30 78163 C 7392.68 4.07088 1.36301 0
M  V30 78164 C 7391.92 4.72129 2.48857 0
M  V30 78165 O 7392.14 4.36234 3.675 0
M  V30 78166 O 7391.07 5.60712 2.18828 0
M  V30 78167 H 7394.9 3.03502 0.109576 0
M  V30 78168 H 7392.49 1.49395 -0.0118199 0
M  V30 78169 H 7394.37 3.36211 2.54048 0
M  V30 78170 H 7393.04 2.17479 2.3976 0
M  V30 78171 H 7391.95 3.68574 0.64061 0
M  V30 78172 H 7393.28 4.84589 0.862235 0
M  V30 78173 N 7394.93 -0.0299926 1.57571 0
M  V30 78174 C 7395.88 -1.03874 2.02964 0
M  V30 78175 C 7396.87 -1.32087 0.918793 0
M  V30 78176 O 7398.06 -1.31687 1.18268 0
M  V30 78177 C 7395.19 -2.34015 2.51181 0
M  V30 78178 C 7394.28 -2.08896 3.69084 0
M  V30 78179 N 7394.67 -1.53832 4.81839 0
M  V30 78180 C 7392.96 -2.39184 3.7644 0
M  V30 78181 C 7393.67 -1.44496 5.63468 0
M  V30 78182 N 7392.64 -1.92021 5.08556 0
M  V30 78183 H 7396.44 -0.607006 2.87563 0
M  V30 78184 H 7393.96 -0.236314 1.60671 0
M  V30 78185 H 7395.95 -3.07089 2.81961 0
M  V30 78186 H 7394.61 -2.77868 1.67987 0
M  V30 78187 H 7395.63 -1.22116 5.03297 0
M  V30 78188 H 7392.3 -2.86118 3.04044 0
M  V30 78189 H 7393.69 -1.02421 6.64048 0
M  V30 78190 N 7396.41 -1.54675 -0.302246 0
M  V30 78191 C 7397.64 -1.77887 -1.0566 0
M  V30 78192 C 7398.06 -0.537744 -1.8098 0
M  V30 78193 O 7397.41 0.492374 -1.75733 0
M  V30 78194 C 7397.46 -2.98568 -2.03813 0
M  V30 78195 O 7397.18 -4.17884 -1.31548 0
M  V30 78196 C 7398.69 -3.34158 -2.91296 0
M  V30 78197 H 7395.91 -0.593311 -0.313405 0
M  V30 78198 H 7398.45 -2.01622 -0.341897 0
M  V30 78199 H 7396.6 -2.77044 -2.70786 0
M  V30 78200 H 7397.02 -4.85913 -1.97455 0
M  V30 78201 H 7398.49 -4.21846 -3.5602 0
M  V30 78202 H 7398.97 -2.52258 -3.59531 0
M  V30 78203 H 7399.58 -3.57836 -2.29855 0
M  V30 78204 N 7397.89 0.565377 -1.4711 0
M  V30 78205 C 7399.14 1.3203 -1.53012 0
M  V30 78206 C 7399.46 1.94067 -0.190556 0
M  V30 78207 O 7398.73 1.79498 0.784688 0
M  V30 78208 H 7397.31 0.490265 -0.563604 0
M  V30 78209 H 7399.97 0.660831 -1.83355 0
M  V30 78210 H 7399.07 2.11806 -2.29226 0
M  V30 78211 N 7399.37 1.35105 0.811445 0
M  V30 78212 C 7400.3 1.23478 1.93096 0
M  V30 78213 C 7401.31 0.159181 1.6202 0
M  V30 78214 O 7402.5 0.412036 1.73679 0
M  V30 78215 C 7399.6 0.877576 3.27341 0
M  V30 78216 C 7398.78 2.05054 3.86357 0
M  V30 78217 C 7397.83 1.66989 4.99 0
M  V30 78218 O 7396.86 2.38799 5.16685 0
M  V30 78219 N 7398.06 0.590699 5.77487 0
M  V30 78220 H 7400.83 2.19927 2.03598 0
M  V30 78221 H 7398.39 1.28211 0.988619 0
M  V30 78222 H 7400.38 0.604509 4.0016 0
M  V30 78223 H 7398.95 0.00291751 3.126 0
M  V30 78224 H 7398.17 2.48768 3.05791 0
M  V30 78225 H 7399.46 2.83471 4.22518 0
M  V30 78226 H 7398.86 -0.00603429 5.657 0
M  V30 78227 H 7397.41 0.377398 6.50706 0
M  V30 78228 N 7400.85 -1.03302 1.19023 0
M  V30 78229 C 7401.76 -2.1497 0.939416 0
M  V30 78230 C 7402.77 -1.73717 -0.0991443 0
M  V30 78231 O 7403.95 -2.01222 0.0845423 0
M  V30 78232 C 7401.01 -3.43404 0.476893 0
M  V30 78233 C 7400.07 -3.98995 1.58434 0
M  V30 78234 C 7399.31 -5.21299 1.14379 0
M  V30 78235 O 7399.53 -5.704 0.00564486 0
M  V30 78236 O 7398.46 -5.6962 1.94466 0
M  V30 78237 H 7402.29 -2.38989 1.87398 0
M  V30 78238 H 7399.88 -1.13398 0.972694 0
M  V30 78239 H 7401.76 -4.20786 0.227402 0
M  V30 78240 H 7400.43 -3.20841 -0.429286 0
M  V30 78241 H 7399.34 -3.22967 1.88794 0
M  V30 78242 H 7400.67 -4.25915 2.46693 0
M  V30 78243 N 7402.32 -0.993483 -1.22342 0
M  V30 78244 C 7403.55 -0.68783 -1.95662 0
M  V30 78245 C 7403.97 0.74107 -1.72887 0
M  V30 78246 O 7403.33 1.50665 -1.00844 0
M  V30 78247 C 7403.38 -1.00016 -3.46452 0
M  V30 78248 O 7402.48 -0.099156 -4.12281 0
M  V30 78249 H 7401.83 -0.257378 -0.612089 0
M  V30 78250 H 7404.36 -1.33062 -1.55421 0
M  V30 78251 H 7404.37 -0.942244 -3.96971 0
M  V30 78252 H 7403.04 -2.04138 -3.62354 0
M  V30 78253 H 7401.62 -0.212609 -3.72293 0
M  V30 78254 N 7403.8 1.3769 -0.766756 0
M  V30 78255 C 7405.03 2.03791 -0.339554 0
M  V30 78256 C 7405.44 1.57958 1.04144 0
M  V30 78257 O 7404.78 0.753915 1.67517 0
M  V30 78258 C 7404.85 3.58259 -0.298409 0
M  V30 78259 C 7404.51 4.27203 -1.62315 0
M  V30 78260 C 7405.51 4.51669 -2.57471 0
M  V30 78261 C 7403.19 4.65133 -1.89622 0
M  V30 78262 C 7405.19 5.13114 -3.78144 0
M  V30 78263 C 7402.87 5.263 -3.10566 0
M  V30 78264 C 7403.87 5.50227 -4.04646 0
M  V30 78265 O 7403.56 6.10117 -5.23462 0
M  V30 78266 H 7403.29 0.661134 -0.140987 0
M  V30 78267 H 7405.84 1.77106 -1.04032 0
M  V30 78268 H 7404.07 3.8397 0.458695 0
M  V30 78269 H 7405.76 4.05774 0.101049 0
M  V30 78270 H 7406.53 4.22782 -2.37655 0
M  V30 78271 H 7402.41 4.45847 -1.17223 0
M  V30 78272 H 7405.95 5.31706 -4.51591 0
M  V30 78273 H 7401.85 5.5461 -3.30269 0
M  V30 78274 H 7402.62 6.28598 -5.2422 0
M  V30 78275 N 7405.28 0.516888 1.48883 0
M  V30 78276 C 7406.53 -0.0219859 2.02788 0
M  V30 78277 C 7406.86 -1.35167 1.3944 0
M  V30 78278 O 7406.14 -1.86981 0.535558 0
M  V30 78279 C 7406.42 -0.157822 3.59754 0
M  V30 78280 C 7406.27 1.19611 4.33605 0
M  V30 78281 C 7407.59 -0.890906 4.30988 0
M  V30 78282 H 7404.71 -0.00651602 0.736971 0
M  V30 78283 H 7407.35 0.671381 1.77743 0
M  V30 78284 H 7405.5 -0.748367 3.81224 0
M  V30 78285 H 7407.17 1.82676 4.23589 0
M  V30 78286 H 7405.42 1.78137 3.95537 0
M  V30 78287 H 7406.09 1.0542 5.4184 0
M  V30 78288 H 7408.56 -0.389901 4.14269 0
M  V30 78289 H 7407.44 -0.954822 5.40532 0
M  V30 78290 H 7407.7 -1.93826 3.97346 0
M  V30 78291 N 7406.76 -1.55582 0.25142 0
M  V30 78292 C 7408.01 -2.00085 -0.365717 0
M  V30 78293 C 7408.36 -1.13664 -1.55236 0
M  V30 78294 O 7407.65 -0.193209 -1.90623 0
M  V30 78295 C 7407.85 -3.47842 -0.821002 0
M  V30 78296 C 7407.68 -4.4856 0.319983 0
M  V30 78297 C 7406.45 -4.98989 0.796129 0
M  V30 78298 C 7408.64 -5.01312 1.14851 0
M  V30 78299 N 7406.63 -5.83462 1.90905 0
M  V30 78300 C 7408 -5.83001 2.10974 0
M  V30 78301 C 7410.05 -4.83604 1.18456 0
M  V30 78302 C 7408.76 -6.48871 3.10417 0
M  V30 78303 C 7410.78 -5.50256 2.16732 0
M  V30 78304 C 7410.14 -6.31737 3.1159 0
M  V30 78305 H 7406.24 -0.775624 -0.0996562 0
M  V30 78306 H 7408.83 -1.91151 0.370031 0
M  V30 78307 H 7407 -3.57165 -1.52603 0
M  V30 78308 H 7408.73 -3.79214 -1.41347 0
M  V30 78309 H 7405.48 -4.72077 0.379491 0
M  V30 78310 H 7405.91 -6.30395 2.46842 0
M  V30 78311 H 7410.55 -4.20235 0.465046 0
M  V30 78312 H 7408.27 -7.11404 3.83315 0
M  V30 78313 H 7411.85 -5.38506 2.20233 0
M  V30 78314 H 7410.73 -6.82401 3.86393 0
M  V30 78315 N 7408.24 0.0216358 -1.57585 0
M  V30 78316 C 7409.18 1.01993 -2.07041 0
M  V30 78317 C 7410.15 1.35468 -0.961131 0
M  V30 78318 O 7411.34 1.45677 -1.23218 0
M  V30 78319 C 7408.48 2.3135 -2.56069 0
M  V30 78320 C 7407.59 2.03969 -3.80816 0
M  V30 78321 C 7406.73 3.2725 -4.18427 0
M  V30 78322 C 7405.77 2.95457 -5.3607 0
M  V30 78323 N 7404.9 4.11212 -5.69078 0
M  V30 78324 H 7409.74 0.591242 -2.92076 0
M  V30 78325 H 7407.28 0.280308 -1.44405 0
M  V30 78326 H 7409.24 3.06942 -2.82564 0
M  V30 78327 H 7407.87 2.71928 -1.7394 0
M  V30 78328 H 7406.92 1.18841 -3.6136 0
M  V30 78329 H 7408.23 1.76521 -4.66521 0
M  V30 78330 H 7407.39 4.11205 -4.46089 0
M  V30 78331 H 7406.13 3.57818 -3.31387 0
M  V30 78332 H 7405.13 2.09906 -5.08153 0
M  V30 78333 H 7406.36 2.6616 -6.24769 0
M  V30 78334 H 7404.3 4.41717 -4.84997 0
M  V30 78335 H 7404.22 3.87213 -6.49309 0
M  V30 78336 H 7405.49 4.96018 -6.01321 0
M  V30 78337 N 7409.72 1.54833 0.294039 0
M  V30 78338 C 7410.65 1.81158 1.3877 0
M  V30 78339 C 7411.63 0.663202 1.4846 0
M  V30 78340 O 7412.81 0.903922 1.65413 0
M  V30 78341 C 7409.94 1.9545 2.76617 0
M  V30 78342 C 7408.98 3.1791 2.84316 0
M  V30 78343 S 7409.82 4.75806 2.45701 0
M  V30 78344 C 7410.97 4.93044 3.85563 0
M  V30 78345 H 7411.21 2.73637 1.16232 0
M  V30 78346 H 7408.74 1.46333 0.492533 0
M  V30 78347 H 7410.7 2.0437 3.5601 0
M  V30 78348 H 7409.36 1.03896 2.96419 0
M  V30 78349 H 7408.55 3.24733 3.8544 0
M  V30 78350 H 7408.15 3.07473 2.12924 0
M  V30 78351 H 7410.44 4.77494 4.80631 0
M  V30 78352 H 7411.39 5.95127 3.83705 0
M  V30 78353 H 7411.8 4.2115 3.75889 0
M  V30 78354 N 7411.19 -0.557567 1.47407 0
M  V30 78355 C 7412.42 -1.33823 1.574 0
M  V30 78356 C 7412.83 -1.8788 0.223077 0
M  V30 78357 O 7412.17 -1.65665 -0.793767 0
M  V30 78358 C 7412.24 -2.54514 2.53895 0
M  V30 78359 C 7411.9 -2.21746 3.99597 0
M  V30 78360 C 7412.9 -1.79062 4.88091 0
M  V30 78361 C 7410.58 -2.33116 4.44929 0
M  V30 78362 C 7412.58 -1.48176 6.19938 0
M  V30 78363 C 7410.26 -2.01843 5.76804 0
M  V30 78364 C 7411.26 -1.59441 6.64129 0
M  V30 78365 O 7410.95 -1.28565 7.93553 0
M  V30 78366 H 7410.68 -0.414262 0.534194 0
M  V30 78367 H 7413.24 -0.682302 1.93736 0
M  V30 78368 H 7411.47 -3.22997 2.12626 0
M  V30 78369 H 7413.15 -3.16589 2.5402 0
M  V30 78370 H 7413.92 -1.6977 4.54316 0
M  V30 78371 H 7409.8 -2.6508 3.77166 0
M  V30 78372 H 7413.34 -1.15006 6.88055 0
M  V30 78373 H 7409.24 -2.10767 6.10121 0
M  V30 78374 H 7410.01 -1.42198 8.06053 0
M  V30 78375 N 7412.67 -1.35533 -0.804268 0
M  V30 78376 C 7413.6 -1.245 -1.92438 0
M  V30 78377 C 7414.62 -0.167771 -1.61933 0
M  V30 78378 O 7415.81 -0.421241 -1.73458 0
M  V30 78379 C 7412.91 -0.894923 -3.26871 0
M  V30 78380 C 7412.08 -2.071 -3.85264 0
M  V30 78381 C 7411.14 -1.69633 -4.98107 0
M  V30 78382 O 7410.16 -2.41536 -5.15411 0
M  V30 78383 N 7411.37 -0.621316 -5.77165 0
M  V30 78384 H 7414.13 -2.21004 -2.02429 0
M  V30 78385 H 7411.69 -1.28733 -0.981806 0
M  V30 78386 H 7413.68 -0.625722 -3.99833 0
M  V30 78387 H 7412.25 -0.0194954 -3.12594 0
M  V30 78388 H 7411.47 -2.50386 -3.04467 0
M  V30 78389 H 7412.76 -2.85708 -4.21009 0
M  V30 78390 H 7412.16 -0.0239662 -5.65695 0
M  V30 78391 H 7410.72 -0.411901 -6.50497 0
M  V30 78392 N 7414.15 1.0267 -1.19569 0
M  V30 78393 C 7415.06 2.14469 -0.950804 0
M  V30 78394 C 7416.08 1.73767 0.0899303 0
M  V30 78395 O 7417.25 2.01175 -0.0952124 0
M  V30 78396 C 7414.32 3.43147 -0.495098 0
M  V30 78397 C 7413.38 3.98149 -1.60548 0
M  V30 78398 C 7412.61 5.20685 -1.17142 0
M  V30 78399 O 7412.83 5.70389 -0.0358945 0
M  V30 78400 O 7411.77 5.6858 -1.97484 0
M  V30 78401 H 7415.59 2.37991 -1.88663 0
M  V30 78402 H 7413.18 1.1288 -0.978694 0
M  V30 78403 H 7415.06 4.20659 -0.249714 0
M  V30 78404 H 7413.74 3.21064 0.412265 0
M  V30 78405 H 7412.64 3.21961 -1.90504 0
M  V30 78406 H 7413.98 4.24601 -2.48948 0
M  V30 78407 N 7415.63 0.999957 1.21814 0
M  V30 78408 C 7417.04 0.711899 1.42843 0
M  V30 78409 C 7417.24 -0.714829 1.88394 0
M  V30 78410 O 7416.3 -1.48484 2.04227 0
M  V30 78411 C 7417.61 1.72347 2.46408 0
M  V30 78412 C 7419.16 1.73972 2.60198 0
M  V30 78413 C 7419.64 2.74011 3.6699 0
M  V30 78414 N 7421.13 2.72648 3.74456 0
M  V30 78415 C 7421.86 3.46717 4.567 0
M  V30 78416 N 7421.36 4.30409 5.42881 0
M  V30 78417 N 7423.15 3.3539 4.51076 0
M  V30 78418 H 7415.3 1.92129 0.905555 0
M  V30 78419 H 7417.56 0.829001 0.45985 0
M  V30 78420 H 7417.27 2.74476 2.19899 0
M  V30 78421 H 7417.14 1.52204 3.45129 0
M  V30 78422 H 7419.53 0.725368 2.86046 0
M  V30 78423 H 7419.61 1.98186 1.61728 0
M  V30 78424 H 7419.26 3.756 3.41888 0
M  V30 78425 H 7419.19 2.47064 4.65045 0
M  V30 78426 H 7421.68 2.11926 3.12883 0
M  V30 78427 H 7421.99 4.83734 6.02678 0
M  V30 78428 H 7420.34 4.34493 5.4244 0
M  V30 78429 H 7423.53 2.69443 3.82777 0
M  V30 78430 H 7423.7 3.93372 5.1494 0
M  V30 78431 N 7417.11 -1.37282 0.774047 0
M  V30 78432 C 7418.35 -2.01474 0.344611 0
M  V30 78433 C 7418.71 -1.60116 -1.05957 0
M  V30 78434 O 7419.91 -2.16786 -1.58925 0
M  V30 78435 C 7418.18 -3.5408 0.486003 0
M  V30 78436 S 7419.74 -4.3857 0.142171 0
M  V30 78437 H 7416.56 -0.698551 0.132467 0
M  V30 78438 H 7419.16 -1.6744 1.00917 0
M  V30 78439 H 7417.86 -3.81669 1.50855 0
M  V30 78440 H 7417.4 -3.92916 -0.195025 0
M  V30 78441 H 7419.41 -4.84713 -1.06151 0
M  V30 78442 N 7418.58 -0.524776 -1.48606 0
M  V30 78443 C 7419.83 0.00312853 -2.034 0
M  V30 78444 C 7420.18 1.32484 -1.3952 0
M  V30 78445 O 7419.48 1.84125 -0.529973 0
M  V30 78446 C 7419.67 0.187685 -3.56907 0
M  V30 78447 C 7419.5 -1.11459 -4.35668 0
M  V30 78448 C 7418.27 -1.67301 -4.768 0
M  V30 78449 C 7420.47 -2.02389 -4.72803 0
M  V30 78450 N 7418.45 -2.91871 -5.40078 0
M  V30 78451 C 7419.82 -3.11536 -5.36046 0
M  V30 78452 C 7421.88 -2.02779 -4.54736 0
M  V30 78453 C 7420.58 -4.2113 -5.83131 0
M  V30 78454 C 7422.61 -3.11364 -5.02799 0
M  V30 78455 C 7421.97 -4.19229 -5.66062 0
M  V30 78456 H 7418.07 -0.0402254 -0.780965 0
M  V30 78457 H 7420.65 -0.704904 -1.81492 0
M  V30 78458 H 7418.82 0.864796 -3.7865 0
M  V30 78459 H 7420.55 0.714728 -3.98339 0
M  V30 78460 H 7417.31 -1.21507 -4.57748 0
M  V30 78461 H 7417.73 -3.55279 -5.76286 0
M  V30 78462 H 7422.37 -1.20683 -4.05211 0
M  V30 78463 H 7420.09 -5.04009 -6.31665 0
M  V30 78464 H 7423.68 -3.12714 -4.90613 0
M  V30 78465 H 7422.56 -5.01866 -6.02578 0
M  V30 78466 N 7420.06 1.55446 -0.259667 0
M  V30 78467 C 7421.34 1.91201 0.412494 0
M  V30 78468 C 7421.72 1.18204 1.74903 0
M  V30 78469 O 7421.07 0.303722 2.26472 0
M  V30 78470 C 7421.28 3.44347 0.568013 0
M  V30 78471 C 7422.63 4.1584 0.858034 0
M  V30 78472 O 7423.65 3.50156 0.653403 0
M  V30 78473 O 7422.51 5.32049 1.24846 0
M  V30 78474 H 7419.6 0.796266 0.223361 0
M  V30 78475 H 7422.15 1.66943 -0.304678 0
M  V30 78476 H 7420.92 3.89516 -0.373195 0
M  V30 78477 H 7420.54 3.74509 1.33524 0
M  V30 78478 N 7421.54 -0.0132784 1.57594 0
M  V30 78479 C 7422.79 -0.70088 1.89984 0
M  V30 78480 C 7423.12 -1.74509 0.858894 0
M  V30 78481 O 7422.37 -1.95212 -0.138106 0
M  V30 78482 C 7422.67 -1.39318 3.29128 0
M  V30 78483 C 7422.34 -0.48345 4.48301 0
M  V30 78484 C 7421 -0.232932 4.80636 0
M  V30 78485 C 7423.35 0.1437 5.21002 0
M  V30 78486 C 7420.68 0.65325 5.83052 0
M  V30 78487 C 7423.03 1.01768 6.24361 0
M  V30 78488 C 7421.69 1.2775 6.55161 0
M  V30 78489 H 7420.96 -0.25647 0.695201 0
M  V30 78490 H 7423.61 0.0393975 1.91459 0
M  V30 78491 H 7421.92 -2.20717 3.23714 0
M  V30 78492 H 7423.61 -1.93103 3.51443 0
M  V30 78493 H 7420.2 -0.688869 4.23028 0
M  V30 78494 H 7424.39 -0.0368522 4.96286 0
M  V30 78495 H 7419.64 0.862698 6.05283 0
M  V30 78496 H 7423.82 1.51006 6.79831 0
M  V30 78497 H 7421.44 1.96589 7.34341 0
M  V30 78498 N 7423.02 -1.54986 -0.285823 0
M  V30 78499 C 7424.27 -1.74987 -1.0191 0
M  V30 78500 C 7424.59 -0.543915 -1.8674 0
M  V30 78501 O 7423.85 0.473872 -1.89876 0
M  V30 78502 C 7424.15 -3.0005 -1.94177 0
M  V30 78503 C 7423.81 -4.33169 -1.25202 0
M  V30 78504 C 7422.48 -4.69352 -1.06124 0
M  V30 78505 C 7424.83 -5.15627 -0.760155 0
M  V30 78506 C 7422.16 -5.85559 -0.365683 0
M  V30 78507 C 7424.51 -6.32552 -0.0782452 0
M  V30 78508 C 7423.17 -6.67384 0.124354 0
M  V30 78509 H 7422.44 -0.640323 -0.372917 0
M  V30 78510 H 7425.09 -1.89252 -0.292552 0
M  V30 78511 H 7423.39 -2.8063 -2.73411 0
M  V30 78512 H 7425.09 -3.1272 -2.51012 0
M  V30 78513 H 7421.68 -4.04722 -1.4106 0
M  V30 78514 H 7425.86 -4.8816 -0.895208 0
M  V30 78515 H 7421.12 -6.1108 -0.19787 0
M  V30 78516 H 7425.29 -6.95707 0.310706 0
M  V30 78517 H 7422.92 -7.57283 0.665318 0
M  V30 78518 N 7424.5 0.549742 -1.47701 0
M  V30 78519 C 7425.91 1.13183 -1.4848 0
M  V30 78520 C 7426.26 1.94682 -0.243606 0
M  V30 78521 O 7425.38 2.06379 0.6509 0
M  V30 78522 C 7425.98 2.0593 -2.69032 0
M  V30 78523 C 7424.54 2.59395 -2.72747 0
M  V30 78524 C 7423.68 1.35931 -2.41698 0
M  V30 78525 H 7426.64 0.335966 -1.55103 0
M  V30 78526 H 7426.66 2.89921 -2.46427 0
M  V30 78527 H 7426.17 1.46586 -3.59352 0
M  V30 78528 H 7424.27 3.22516 -1.86585 0
M  V30 78529 H 7424.38 2.99879 -3.73643 0
M  V30 78530 H 7422.75 1.66854 -1.92437 0
M  V30 78531 H 7423.53 0.783692 -3.34235 0
M  V30 78532 N 7425.97 1.35958 0.797069 0
M  V30 78533 C 7426.94 1.29518 1.89097 0
M  V30 78534 C 7427.94 0.204529 1.59494 0
M  V30 78535 O 7429.13 0.458834 1.68049 0
M  V30 78536 C 7426.26 1.00593 3.25721 0
M  V30 78537 H 7427.45 2.26795 1.96225 0
M  V30 78538 H 7425.01 1.2062 0.994011 0
M  V30 78539 H 7425.74 0.0374229 3.24278 0
M  V30 78540 H 7425.53 1.79511 3.48595 0
M  V30 78541 H 7427.02 0.986722 4.05775 0
M  V30 78542 N 7427.45 -1.02034 1.20112 0
M  V30 78543 C 7428.7 -1.75226 1.00699 0
M  V30 78544 C 7429.02 -1.89439 -0.462391 0
M  V30 78545 O 7428.29 -1.43417 -1.33448 0
M  V30 78546 H 7426.87 -0.649151 0.36961 0
M  V30 78547 H 7429.53 -1.23036 1.51156 0
M  V30 78548 H 7428.63 -2.75728 1.4622 0
M  V30 78549 N 7428.93 -1.0064 -1.21282 0
M  V30 78550 C 7430.21 -0.605355 -1.85997 0
M  V30 78551 C 7430.59 0.916972 -1.90144 0
M  V30 78552 O 7429.94 1.8045 -1.40178 0
M  V30 78553 C 7430.15 -1.24136 -3.26177 0
M  V30 78554 C 7431.49 -1.35036 -4.02555 0
M  V30 78555 O 7432.52 -1.19678 -3.35493 0
M  V30 78556 O 7431.38 -1.59753 -5.22629 0
M  V30 78557 H 7428.47 -0.207528 -0.800538 0
M  V30 78558 H 7431.02 -1.10314 -1.28953 0
M  V30 78559 H 7429.79 -2.28203 -3.17866 0
M  V30 78560 H 7429.41 -0.730013 -3.90841 0
M  V30 78561 N 7430.41 1.36869 -0.781317 0
M  V30 78562 C 7431.65 2.01288 -0.355291 0
M  V30 78563 C 7432.01 1.60675 1.05107 0
M  V30 78564 O 7433.21 2.17626 1.57773 0
M  V30 78565 C 7431.48 3.53817 -0.504774 0
M  V30 78566 S 7433.04 4.38488 -0.165427 0
M  V30 78567 H 7429.86 0.697839 -0.136169 0
M  V30 78568 H 7432.46 1.66902 -1.01803 0
M  V30 78569 H 7431.17 3.80863 -1.52877 0
M  V30 78570 H 7430.7 3.93014 0.174185 0
M  V30 78571 H 7432.71 4.85269 1.03579 0
M  V30 78572 N 7431.89 0.53265 1.48326 0
M  V30 78573 C 7433.13 -0.000475573 2.025 0
M  V30 78574 C 7433.46 -1.34028 1.40949 0
M  V30 78575 O 7432.72 -1.87939 0.545644 0
M  V30 78576 C 7433.02 -0.168755 3.57001 0
M  V30 78577 C 7432.68 1.09703 4.37351 0
M  V30 78578 C 7431.34 1.44393 4.59025 0
M  V30 78579 C 7433.7 1.93694 4.83872 0
M  V30 78580 C 7431.02 2.62966 5.24467 0
M  V30 78581 C 7433.38 3.11448 5.5062 0
M  V30 78582 C 7432.04 3.46481 5.70533 0
M  V30 78583 H 7431.31 -0.000174025 0.741 0
M  V30 78584 H 7433.96 0.699211 1.78279 0
M  V30 78585 H 7432.26 -0.951228 3.80077 0
M  V30 78586 H 7433.96 -0.596213 3.96543 0
M  V30 78587 H 7430.55 0.816877 4.20743 0
M  V30 78588 H 7434.73 1.68204 4.66927 0
M  V30 78589 H 7429.99 2.90308 5.38081 0
M  V30 78590 H 7434.16 3.76834 5.85636 0
M  V30 78591 H 7431.79 4.38458 6.21014 0
M  V30 78592 N 7433.36 -1.55306 0.267907 0
M  V30 78593 C 7434.78 -1.59366 -0.0864266 0
M  V30 78594 C 7434.98 -1.28513 -1.55198 0
M  V30 78595 O 7434.04 -1.04253 -2.29973 0
M  V30 78596 C 7435.35 -2.99378 0.281707 0
M  V30 78597 C 7436.9 -3.1217 0.22773 0
M  V30 78598 C 7437.37 -4.54437 0.570199 0
M  V30 78599 N 7438.86 -4.60255 0.521481 0
M  V30 78600 C 7439.6 -5.6835 0.759361 0
M  V30 78601 N 7439.09 -6.8462 1.06148 0
M  V30 78602 N 7440.89 -5.57866 0.688645 0
M  V30 78603 H 7433.04 -1.73627 1.22341 0
M  V30 78604 H 7435.3 -0.809271 0.493746 0
M  V30 78605 H 7435.01 -3.26765 1.30068 0
M  V30 78606 H 7434.88 -3.75271 -0.380995 0
M  V30 78607 H 7437.27 -2.84552 -0.781943 0
M  V30 78608 H 7437.35 -2.38506 0.924586 0
M  V30 78609 H 7436.99 -4.8278 1.57752 0
M  V30 78610 H 7436.92 -5.26391 -0.148368 0
M  V30 78611 H 7439.41 -3.76727 0.297558 0
M  V30 78612 H 7439.73 -7.62951 1.22985 0
M  V30 78613 H 7438.07 -6.86253 1.09917 0
M  V30 78614 H 7441.26 -4.65908 0.452514 0
M  V30 78615 H 7441.44 -6.42032 0.87742 0
M  V30 78616 N 7434.84 0.00492057 -1.57599 0
M  V30 78617 C 7435.79 0.997916 -2.08111 0
M  V30 78618 C 7436.76 1.34441 -0.975445 0
M  V30 78619 O 7437.95 1.44362 -1.24756 0
M  V30 78620 C 7435.09 2.28621 -2.58508 0
M  V30 78621 C 7434.2 1.99918 -3.82958 0
M  V30 78622 C 7433.33 3.22794 -4.21874 0
M  V30 78623 C 7432.37 2.89755 -5.39174 0
M  V30 78624 N 7431.51 4.05153 -5.73407 0
M  V30 78625 H 7436.35 0.560231 -2.92687 0
M  V30 78626 H 7433.89 0.264976 -1.44694 0
M  V30 78627 H 7435.84 3.03928 -2.85803 0
M  V30 78628 H 7434.47 2.70068 -1.76814 0
M  V30 78629 H 7433.53 1.15001 -3.626 0
M  V30 78630 H 7434.84 1.71563 -4.68367 0
M  V30 78631 H 7433.99 4.0645 -4.50426 0
M  V30 78632 H 7432.73 3.54283 -3.35164 0
M  V30 78633 H 7431.74 2.04505 -5.10351 0
M  V30 78634 H 7432.96 2.59518 -6.27556 0
M  V30 78635 H 7430.91 4.36548 -4.89655 0
M  V30 78636 H 7430.82 3.80304 -6.53379 0
M  V30 78637 H 7432.09 4.89612 -6.06548 0
M  V30 78638 N 7436.32 1.55136 0.2776 0
M  V30 78639 C 7437.25 1.84105 1.36521 0
M  V30 78640 C 7438.27 0.725271 1.45752 0
M  V30 78641 O 7439.46 1.00306 1.47651 0
M  V30 78642 C 7436.56 1.9849 2.7469 0
M  V30 78643 C 7435.73 3.29109 2.88108 0
M  V30 78644 C 7434.79 3.33617 4.06923 0
M  V30 78645 O 7433.81 4.0702 3.97898 0
M  V30 78646 N 7435.02 2.60688 5.18673 0
M  V30 78647 H 7437.78 2.77979 1.12018 0
M  V30 78648 H 7435.34 1.54997 0.467711 0
M  V30 78649 H 7437.33 1.98882 3.5246 0
M  V30 78650 H 7435.9 1.11504 2.92037 0
M  V30 78651 H 7435.12 3.41295 1.97259 0
M  V30 78652 H 7436.41 4.15261 2.93999 0
M  V30 78653 H 7435.81 2.00726 5.28891 0
M  V30 78654 H 7434.37 2.66808 5.94691 0
M  V30 78655 N 7437.8 -0.541901 1.47991 0
M  V30 78656 C 7439.03 -1.32146 1.58811 0
M  V30 78657 C 7439.44 -1.87633 0.242992 0
M  V30 78658 O 7438.78 -1.66498 -0.776151 0
M  V30 78659 C 7438.84 -2.51807 2.5658 0
M  V30 78660 C 7438.51 -2.17495 4.01926 0
M  V30 78661 C 7439.5 -1.73875 4.89963 0
M  V30 78662 C 7437.19 -2.28384 4.47377 0
M  V30 78663 C 7439.18 -1.41593 6.21474 0
M  V30 78664 C 7436.87 -1.95714 5.78912 0
M  V30 78665 C 7437.87 -1.52388 6.65783 0
M  V30 78666 O 7437.56 -1.20141 7.94872 0
M  V30 78667 H 7437.29 -0.408573 0.538558 0
M  V30 78668 H 7439.84 -0.661715 1.94449 0
M  V30 78669 H 7438.07 -3.20724 2.16039 0
M  V30 78670 H 7439.76 -3.13877 2.57363 0
M  V30 78671 H 7440.53 -1.64942 4.56091 0
M  V30 78672 H 7436.41 -2.61064 3.79956 0
M  V30 78673 H 7439.95 -1.07702 6.89236 0
M  V30 78674 H 7435.85 -2.04284 6.12322 0
M  V30 78675 H 7436.61 -1.33641 8.07516 0
M  V30 78676 N 7439.28 -1.36379 -0.789848 0
M  V30 78677 C 7440.19 -1.32822 -1.93379 0
M  V30 78678 C 7441.2 -0.230468 -1.72467 0
M  V30 78679 O 7442.38 -0.46276 -1.96011 0
M  V30 78680 C 7439.44 -1.11638 -3.28234 0
M  V30 78681 C 7438.51 -2.30884 -3.61927 0
M  V30 78682 C 7437.74 -2.10701 -4.90347 0
M  V30 78683 O 7437.96 -1.08197 -5.60044 0
M  V30 78684 O 7436.9 -2.98468 -5.22686 0
M  V30 78685 H 7440.72 -2.29132 -1.9933 0
M  V30 78686 H 7438.31 -1.16922 -0.930039 0
M  V30 78687 H 7440.19 -1.0174 -4.08934 0
M  V30 78688 H 7438.86 -0.183902 -3.23177 0
M  V30 78689 H 7437.77 -2.4635 -2.81536 0
M  V30 78690 H 7439.1 -3.22637 -3.71708 0
M  V30 78691 N 7440.76 1.01396 -1.20651 0
M  V30 78692 C 7442.03 1.72224 -0.927267 0
M  V30 78693 C 7442.41 2.03446 0.563275 0
M  V30 78694 O 7441.76 1.70105 1.52567 0
M  V30 78695 C 7441.97 2.98819 -1.80301 0
M  V30 78696 C 7443.32 3.7203 -2.04644 0
M  V30 78697 O 7444.34 3.0878 -1.77576 0
M  V30 78698 O 7443.2 4.85773 -2.50372 0
M  V30 78699 H 7440.3 0.750712 -0.34693 0
M  V30 78700 H 7442.84 1.0722 -1.31537 0
M  V30 78701 H 7441.61 2.72088 -2.81219 0
M  V30 78702 H 7441.24 3.71564 -1.41514 0
M  V30 78703 N 7442.23 1.01282 1.20746 0
M  V30 78704 C 7443.17 0.538035 2.22795 0
M  V30 78705 C 7444.18 -0.377555 1.58361 0
M  V30 78706 O 7445.37 -0.176505 1.77625 0
M  V30 78707 C 7442.47 -0.237186 3.38069 0
M  V30 78708 C 7441.64 0.679389 4.32092 0
M  V30 78709 C 7440.7 -0.0475901 5.26178 0
M  V30 78710 O 7439.73 0.573665 5.66302 0
M  V30 78711 N 7440.93 -1.32366 5.65207 0
M  V30 78712 H 7443.69 1.41563 2.64159 0
M  V30 78713 H 7441.25 0.889898 1.3525 0
M  V30 78714 H 7443.25 -0.732671 3.98013 0
M  V30 78715 H 7441.82 -1.01605 2.95627 0
M  V30 78716 H 7441.04 1.35524 3.70171 0
M  V30 78717 H 7442.32 1.30289 4.91836 0
M  V30 78718 H 7441.72 -1.84939 5.34616 0
M  V30 78719 H 7440.28 -1.76395 6.27478 0
M  V30 78720 N 7443.71 -1.36453 0.788564 0
M  V30 78721 C 7444.64 -2.32637 0.200591 0
M  V30 78722 C 7445.62 -1.56607 -0.663948 0
M  V30 78723 O 7446.81 -1.84765 -0.597947 0
M  V30 78724 C 7443.94 -3.40853 -0.666094 0
M  V30 78725 C 7442.89 -4.27887 0.0984831 0
M  V30 78726 C 7442.22 -5.27262 -0.88874 0
M  V30 78727 C 7443.52 -5.0619 1.28719 0
M  V30 78728 H 7445.21 -2.82059 1.00414 0
M  V30 78729 H 7442.76 -1.35611 0.484308 0
M  V30 78730 H 7444.71 -4.0713 -1.08736 0
M  V30 78731 H 7443.43 -2.89995 -1.50234 0
M  V30 78732 H 7442.09 -3.63164 0.500716 0
M  V30 78733 H 7441.74 -4.72679 -1.71999 0
M  V30 78734 H 7441.44 -5.8636 -0.3816 0
M  V30 78735 H 7442.97 -5.96413 -1.30859 0
M  V30 78736 H 7444.38 -5.65513 0.941727 0
M  V30 78737 H 7442.78 -5.74696 1.72757 0
M  V30 78738 H 7443.85 -4.37882 2.08297 0
M  V30 78739 N 7445.19 -0.540508 -1.48041 0
M  V30 78740 C 7446.41 -0.0125858 -2.07396 0
M  V30 78741 C 7446.84 1.26407 -1.39294 0
M  V30 78742 O 7446.2 1.75306 -0.462345 0
M  V30 78743 C 7446.25 0.18358 -3.60132 0
M  V30 78744 O 7445.35 1.24994 -3.93002 0
M  V30 78745 H 7444.69 -0.0438375 -0.662551 0
M  V30 78746 H 7447.22 -0.751427 -1.90302 0
M  V30 78747 H 7447.23 0.402983 -4.06005 0
M  V30 78748 H 7445.91 -0.748955 -4.09101 0
M  V30 78749 H 7444.48 1.01235 -3.58895 0
M  V30 78750 O 7446.71 1.55994 -0.418095 0
M  V30 78751 H 7447.4 1.93326 0.120279 0
M  V30 END ATOM
M  V30 BEGIN BOND
M  V30 END BOND
M  V30 END CTAB
M  END
$$$$
