drugbank_target|P0AB91 Phospho-2-dehydro-3-deoxyheptonate aldolase, Phe-sensitive (DB01819; DB02726)
 OpenBabel12092120033D

  0  0  0     0  0            999 V3000
M  V30 BEGIN CTAB
M  V30 COUNTS 5352 5398 0 0 0
M  V30 BEGIN ATOM
M  V30 1 H -0.908 1.98254 -0.117106 0
M  V30 2 N 0 1.576 0 0
M  V30 3 C 0.933 2.03868 1.02534 0
M  V30 4 C 1.911 0.928543 1.3348 0
M  V30 5 O 3.095 1.19667 1.45644 0
M  V30 6 C 0.222 2.43627 2.35294 0
M  V30 7 C -0.732 3.65373 2.2001 0
M  V30 8 S 0.101 5.13292 1.52614 0
M  V30 9 C 1.257 5.56322 2.86805 0
M  V30 10 H 1.49 2.90518 0.631377 0
M  V30 11 H -0.977 1.52953 0.210867 0
M  V30 12 H 0.981 2.67203 3.11629 0
M  V30 13 H -0.358 1.57376 2.7183 0
M  V30 14 H -1.165 3.90944 3.18086 0
M  V30 15 H -1.563 3.418 1.51819 0
M  V30 16 H 0.729 5.58782 3.83104 0
M  V30 17 H 1.672 6.56266 2.65933 0
M  V30 18 H 2.08 4.83886 2.90714 0
M  V30 19 N 1.4781 -0.272755 1.55222 0
M  V30 20 C 2.4261 -1.35705 1.88909 0
M  V30 21 C 3.4201 -1.5112 0.765456 0
M  V30 22 O 4.6261 -1.52901 0.949802 0
M  V30 23 H 1.0011 -0.453868 0.59959 0
M  V30 24 H 2.9721 -1.04544 2.79487 0
M  V30 25 C 1.7211 -2.71049 2.17779 0
M  V30 26 H 1.0441 -2.59979 3.03728 0
M  V30 27 H 2.4841 -3.45858 2.45272 0
M  V30 28 C 0.9431 -3.22165 0.985473 0
M  V30 29 O 1.4731 -4.01096 0.220233 0
M  V30 30 N -0.3209 -2.7985 0.783108 0
M  V30 31 H -0.7739 -2.15775 1.40708 0
M  V30 32 H -0.8159 -3.14397 -0.0130392 0
M  V30 33 N 2.9562 -1.48159 -0.537278 0
M  V30 34 C 4.1862 -1.59223 -1.3165 0
M  V30 35 C 4.5942 -0.248849 -1.87556 0
M  V30 36 O 3.9372 0.770949 -1.6674 0
M  V30 37 C 3.9992 -2.57365 -2.51005 0
M  V30 38 C 3.6632 -4.02603 -2.16239 0
M  V30 39 C 4.6602 -4.90503 -1.72344 0
M  V30 40 C 2.3452 -4.48088 -2.26986 0
M  V30 41 C 4.3392 -6.21913 -1.39651 0
M  V30 42 C 2.0262 -5.7952 -1.93906 0
M  V30 43 C 3.0242 -6.66255 -1.50309 0
M  V30 44 O 2.7122 -7.95243 -1.17659 0
M  V30 45 H 2.4442 -0.539831 -0.406889 0
M  V30 46 H 4.9982 -1.94655 -0.655641 0
M  V30 47 H 3.2282 -2.1704 -3.20048 0
M  V30 48 H 4.9172 -2.58342 -3.13072 0
M  V30 49 H 5.6832 -4.56604 -1.63517 0
M  V30 50 H 1.5622 -3.80769 -2.59877 0
M  V30 51 H 5.1062 -6.89569 -1.0555 0
M  V30 52 H 1.0032 -6.12957 -2.02371 0
M  V30 53 H 1.7712 -8.0793 -1.31119 0
M  V30 54 N 4.4343 0.785586 -1.36625 0
M  V30 55 C 5.3663 1.90711 -1.2713 0
M  V30 56 C 6.3793 1.61688 -0.189986 0
M  V30 57 O 7.5683 1.72864 -0.445014 0
M  V30 58 C 4.6683 3.25611 -0.939713 0
M  V30 59 C 3.8413 3.82385 -2.12369 0
M  V30 60 C 2.9003 4.95732 -1.76456 0
M  V30 61 O 1.9263 5.12047 -2.48589 0
M  V30 62 N 3.1283 5.76258 -0.700492 0
M  V30 63 H 5.8933 1.99376 -2.23762 0
M  V30 64 H 3.4543 0.964041 -1.30069 0
M  V30 65 H 5.4463 3.98937 -0.680554 0
M  V30 66 H 4.0163 3.12538 -0.0624074 0
M  V30 67 H 3.2363 3.01001 -2.54543 0
M  V30 68 H 4.5243 4.17047 -2.9146 0
M  V30 69 H 3.9223 5.65609 -0.101624 0
M  V30 70 H 2.4793 6.4987 -0.501165 0
M  V30 71 N 5.9124 1.20967 1.01018 0
M  V30 72 C 6.8604 0.961223 2.1181 0
M  V30 73 C 7.8544 -0.0897034 1.69162 0
M  V30 74 O 9.0604 0.0612271 1.79896 0
M  V30 75 H 5.4354 0.29355 0.692338 0
M  V30 76 H 7.4064 1.90178 2.29946 0
M  V30 77 C 6.1554 0.536854 3.4353 0
M  V30 78 H 5.4784 1.33713 3.76777 0
M  V30 79 H 6.9184 0.402286 4.22087 0
M  V30 80 C 5.3774 -0.751574 3.2841 0
M  V30 81 O 5.9074 -1.80841 3.58691 0
M  V30 82 N 4.1134 -0.716079 2.81639 0
M  V30 83 H 3.6604 0.144236 2.57196 0
M  V30 84 H 3.6184 -1.57847 2.71904 0
M  V30 85 N 7.3905 -1.2043 1.01659 0
M  V30 86 C 8.6675 -1.8548 0.621004 0
M  V30 87 C 9.0475 -1.9091 -0.900919 0
M  V30 88 O 8.3955 -1.41694 -1.79263 0
M  V30 89 C 8.6055 -3.25119 1.2688 0
M  V30 90 C 9.9535 -4.01403 1.38423 0
M  V30 91 O 10.9775 -3.34473 1.22501 0
M  V30 92 O 9.8365 -5.21265 1.64151 0
M  V30 93 H 6.9305 -0.798761 0.214266 0
M  V30 94 H 9.4765 -1.28019 1.11396 0
M  V30 95 H 8.2485 -3.15932 2.30873 0
M  V30 96 H 7.8715 -3.90212 0.762917 0
M  V30 97 N 8.8686 -0.792821 -1.36206 0
M  V30 98 C 10.1456 -0.290627 -1.93429 0
M  V30 99 C 10.5256 1.21773 -1.72437 0
M  V30 100 O 9.8736 2.0108 -1.08531 0
M  V30 101 C 10.0836 -0.686973 -3.42172 0
M  V30 102 C 11.4316 -0.668643 -4.19302 0
M  V30 103 O 12.4556 -0.627658 -3.50626 0
M  V30 104 O 11.3146 -0.714597 -5.41808 0
M  V30 105 H 8.4086 -0.0727927 -0.82379 0
M  V30 106 H 10.9546 -0.875593 -1.45367 0
M  V30 107 H 9.7266 -1.72711 -3.51122 0
M  V30 108 H 9.3496 -0.0760733 -3.97527 0
M  V30 109 N 10.3467 1.47872 -0.545128 0
M  V30 110 C 11.2767 2.32661 0.197793 0
M  V30 111 C 12.2577 1.43041 0.920504 0
M  V30 112 O 13.4427 1.71912 0.90333 0
M  V30 113 C 10.5727 3.24569 1.23582 0
M  V30 114 C 9.5267 4.23333 0.630323 0
M  V30 115 C 8.8527 5.0448 1.77211 0
M  V30 116 C 10.1527 5.20704 -0.407974 0
M  V30 117 H 11.8467 2.95024 -0.510045 0
M  V30 118 H 9.3927 1.4187 -0.246731 0
M  V30 119 H 11.3457 3.8272 1.76362 0
M  V30 120 H 10.0697 2.60236 1.97344 0
M  V30 121 H 8.7287 3.6639 0.123922 0
M  V30 122 H 8.3767 4.36561 2.49847 0
M  V30 123 H 8.0767 5.71339 1.37281 0
M  V30 124 H 9.6007 5.65487 2.3034 0
M  V30 125 H 11.0147 5.7329 0.033305 0
M  V30 126 H 9.4117 5.95699 -0.725486 0
M  V30 127 H 10.4817 4.66917 -1.30828 0
M  V30 128 N 11.8248 0.280983 1.55075 0
M  V30 129 C 13.2408 -0.0729964 1.59433 0
M  V30 130 C 13.4408 -1.5411 1.29817 0
M  V30 131 O 12.4968 -2.29086 1.06187 0
M  V30 132 C 13.8098 0.306921 2.9913 0
M  V30 133 C 15.3578 0.254023 3.11968 0
M  V30 134 C 15.8328 0.608467 4.5394 0
M  V30 135 N 17.3238 0.560241 4.59799 0
M  V30 136 C 18.0588 0.80722 5.6769 0
M  V30 137 N 17.5548 1.11912 6.83701 0
M  V30 138 N 19.3478 0.735623 5.57266 0
M  V30 139 H 11.4988 1.238 1.7259 0
M  V30 140 H 13.7618 0.500547 0.805082 0
M  V30 141 H 13.4678 1.32816 3.25657 0
M  V30 142 H 13.3418 -0.349363 3.75579 0
M  V30 143 H 15.7288 -0.75794 2.852 0
M  V30 144 H 15.8098 0.944649 2.37718 0
M  V30 145 H 15.4538 1.61814 4.81434 0
M  V30 146 H 15.3838 -0.104013 5.26497 0
M  V30 147 H 17.8748 0.329288 3.76463 0
M  V30 148 H 18.1878 1.29409 7.61888 0
M  V30 149 H 16.5328 1.15695 6.85303 0
M  V30 150 H 19.7238 0.491752 4.6551 0
M  V30 151 H 19.8968 0.931482 6.4127 0
M  V30 152 N 13.3029 -1.57598 0.00835791 0
M  V30 153 C 14.5519 -1.90107 -0.673968 0
M  V30 154 C 14.8649 -0.884275 -1.7447 0
M  V30 155 O 16.0709 -1.09987 -2.48224 0
M  V30 156 C 14.5269 -3.37497 -1.24995 0
M  V30 157 C 14.1349 -4.47491 -0.2136 0
M  V30 158 C 15.8789 -3.79104 -1.90999 0
M  V30 159 C 13.7859 -5.85963 -0.80005 0
M  V30 160 H 12.7159 -0.709393 -0.255495 0
M  V30 161 H 15.3669 -1.83365 0.0702693 0
M  V30 162 H 13.7489 -3.39102 -2.04513 0
M  V30 163 H 14.9229 -4.57414 0.557596 0
M  V30 164 H 13.2379 -4.14956 0.346474 0
M  V30 165 H 15.8349 -4.79901 -2.35795 0
M  V30 166 H 16.1779 -3.1306 -2.74407 0
M  V30 167 H 16.7109 -3.79833 -1.18203 0
M  V30 168 H 13.4499 -6.555 -0.00456708 0
M  V30 169 H 12.9699 -5.79687 -1.54021 0
M  V30 170 H 14.6489 -6.33884 -1.29615 0
M  V30 171 N 14.781 0.264519 -1.55364 0
M  V30 172 C 15.728 1.32717 -1.88825 0
M  V30 173 C 16.698 1.48675 -0.740605 0
M  V30 174 O 17.883 1.62945 -0.992657 0
M  V30 175 C 15.023 2.68089 -2.17307 0
M  V30 176 C 14.136 2.60284 -3.44785 0
M  V30 177 C 13.271 3.87892 -3.62924 0
M  V30 178 C 12.31 3.74631 -4.84064 0
M  V30 179 N 11.447 4.94092 -4.98816 0
M  V30 180 H 16.287 1.03481 -2.79456 0
M  V30 181 H 13.824 0.499757 -1.3835 0
M  V30 182 H 15.782 3.46864 -2.31821 0
M  V30 183 H 14.412 2.95509 -1.299 0
M  V30 184 H 13.464 1.73173 -3.38697 0
M  V30 185 H 14.776 2.46388 -4.33698 0
M  V30 186 H 13.93 4.75109 -3.77302 0
M  V30 187 H 12.669 4.04664 -2.7221 0
M  V30 188 H 11.674 2.85797 -4.69681 0
M  V30 189 H 12.899 3.5937 -5.76221 0
M  V30 190 H 10.845 5.11259 -4.11036 0
M  V30 191 H 10.762 4.8276 -5.81789 0
M  V30 192 H 12.03 5.82857 -5.17588 0
M  V30 193 N 16.2591 1.48442 0.529413 0
M  V30 194 C 17.1691 1.6569 1.66084 0
M  V30 195 C 18.1851 0.539432 1.65427 0
M  V30 196 O 19.3611 0.810572 1.84368 0
M  V30 197 C 16.4261 1.69315 3.02545 0
M  V30 198 C 15.4871 2.92694 3.14052 0
M  V30 199 C 14.7201 2.96137 4.44003 0
M  V30 200 O 14.9431 2.07973 5.31134 0
M  V30 201 O 13.8771 3.88312 4.59888 0
M  V30 202 H 17.7031 2.61483 1.54469 0
M  V30 203 H 15.2881 1.3185 0.702567 0
M  V30 204 H 17.1701 1.74217 3.83701 0
M  V30 205 H 15.8451 0.766966 3.14483 0
M  V30 206 H 14.7521 2.93324 2.32189 0
M  V30 207 H 16.0851 3.84699 3.0703 0
M  V30 208 N 17.7372 -0.778329 1.37039 0
M  V30 209 C 18.9862 -1.53189 1.3121 0
M  V30 210 C 19.2992 -1.95328 -0.103095 0
M  V30 211 O 20.5052 -2.70012 -0.283826 0
M  V30 212 C 18.9612 -2.76591 2.30272 0
M  V30 213 C 18.5692 -2.41577 3.77286 0
M  V30 214 C 20.3132 -3.5455 2.33441 0
M  V30 215 C 18.2202 -3.61441 4.68096 0
M  V30 216 H 17.1502 -0.5751 0.487622 0
M  V30 217 H 19.8012 -0.853101 1.62464 0
M  V30 218 H 18.1832 -3.46326 1.92027 0
M  V30 219 H 19.3572 -1.79668 4.2433 0
M  V30 220 H 17.6722 -1.76806 3.76999 0
M  V30 221 H 20.2692 -4.43628 2.98493 0
M  V30 222 H 20.6122 -3.93936 1.34611 0
M  V30 223 H 21.1452 -2.91805 2.7036 0
M  V30 224 H 17.8842 -3.27142 5.6803 0
M  V30 225 H 17.4042 -4.22478 4.25761 0
M  V30 226 H 19.0832 -4.28335 4.8491 0
M  V30 227 N 19.2153 -1.21501 -1.00376 0
M  V30 228 C 20.1623 -0.975387 -2.09177 0
M  V30 229 C 21.1323 0.0990615 -1.65804 0
M  V30 230 O 22.3173 -0.0483147 -1.90739 0
M  V30 231 C 19.4573 -0.547507 -3.40729 0
M  V30 232 C 18.5703 -1.69153 -3.97506 0
M  V30 233 C 17.7053 -1.2127 -5.17172 0
M  V30 234 C 16.7443 -2.32897 -5.66061 0
M  V30 235 N 15.8813 -1.86138 -6.76976 0
M  V30 236 H 20.7213 -1.9068 -2.29009 0
M  V30 237 H 18.2583 -0.950257 -1.12288 0
M  V30 238 H 20.2163 -0.280667 -4.16255 0
M  V30 239 H 18.8463 0.346904 -3.20931 0
M  V30 240 H 17.8983 -2.07298 -3.18954 0
M  V30 241 H 19.2103 -2.5316 -4.29781 0
M  V30 242 H 18.3643 -0.902591 -5.99948 0
M  V30 243 H 17.1033 -0.342692 -4.86495 0
M  V30 244 H 16.1083 -2.64709 -4.81881 0
M  V30 245 H 17.3333 -3.20396 -5.98768 0
M  V30 246 H 15.2793 -1.01484 -6.48103 0
M  V30 247 H 15.1963 -2.63717 -7.08512 0
M  V30 248 H 16.4643 -1.58165 -7.63285 0
M  V30 249 N 20.6934 1.19889 -1.02296 0
M  V30 250 C 21.6034 2.26571 -0.608508 0
M  V30 251 C 22.6194 1.70299 0.356964 0
M  V30 252 O 23.7954 2.00235 0.216326 0
M  V30 253 C 20.8604 3.46677 0.0402814 0
M  V30 254 C 19.9214 4.18153 -0.97194 0
M  V30 255 C 19.1544 5.32525 -0.354016 0
M  V30 256 O 19.3774 5.64112 0.844604 0
M  V30 257 O 18.3114 5.92242 -1.07391 0
M  V30 258 H 22.1374 2.64251 -1.49684 0
M  V30 259 H 19.7224 1.26629 -0.792809 0
M  V30 260 H 21.6044 4.19475 0.402324 0
M  V30 261 H 20.2794 3.10858 0.902707 0
M  V30 262 H 19.1864 3.47499 -1.38546 0
M  V30 263 H 20.5194 4.57927 -1.80454 0
M  V30 264 N 22.1715 0.800033 1.35784 0
M  V30 265 C 23.1015 0.220184 2.3246 0
M  V30 266 C 24.0825 -0.65073 1.57161 0
M  V30 267 O 25.2675 -0.582359 1.85263 0
M  V30 268 C 22.3975 -0.637353 3.41402 0
M  V30 269 C 21.3515 0.134531 4.27789 0
M  V30 270 C 20.6775 -0.844285 5.27992 0
M  V30 271 C 21.9775 1.32979 5.05088 0
M  V30 272 H 23.6715 1.02787 2.81203 0
M  V30 273 H 21.2175 0.495717 1.35199 0
M  V30 274 H 23.1705 -1.05302 4.08031 0
M  V30 275 H 21.8945 -1.47785 2.91251 0
M  V30 276 H 20.5535 0.531296 3.6273 0
M  V30 277 H 20.2015 -1.68011 4.74111 0
M  V30 278 H 19.9015 -0.332184 5.8666 0
M  V30 279 H 21.4255 -1.2583 5.97494 0
M  V30 280 H 22.8395 0.98934 5.64699 0
M  V30 281 H 21.2365 1.77593 5.7322 0
M  V30 282 H 22.3065 2.11978 4.36111 0
M  V30 283 N 23.6496 -1.47581 0.552962 0
M  V30 284 C 24.5796 -2.32762 -0.185451 0
M  V30 285 C 25.5606 -1.43527 -0.912905 0
M  V30 286 O 26.7456 -1.72388 -0.894201 0
M  V30 287 C 23.8756 -3.25219 -1.21859 0
M  V30 288 C 22.8296 -4.23661 -0.607864 0
M  V30 289 C 22.1556 -5.05413 -1.74533 0
M  V30 290 C 23.4556 -5.20481 0.435582 0
M  V30 291 H 25.1496 -2.94749 0.525684 0
M  V30 292 H 22.6956 -1.41738 0.254251 0
M  V30 293 H 24.6486 -3.8365 -1.7433 0
M  V30 294 H 23.3726 -2.61279 -1.95961 0
M  V30 295 H 22.0316 -3.66451 -0.104489 0
M  V30 296 H 21.6796 -4.3788 -2.47529 0
M  V30 297 H 21.3796 -5.72059 -1.34249 0
M  V30 298 H 22.9036 -5.66701 -2.27338 0
M  V30 299 H 24.3176 -5.733 -0.00290157 0
M  V30 300 H 22.7146 -5.95305 0.757067 0
M  V30 301 H 23.7846 -4.66217 1.33303 0
M  V30 302 N 25.1277 -0.289203 -1.54924 0
M  V30 303 C 26.5387 0.205791 -1.85562 0
M  V30 304 C 26.8897 1.54351 -1.2112 0
M  V30 305 O 26.0147 2.10435 -0.504601 0
M  V30 306 C 26.6097 0.380177 -3.3666 0
M  V30 307 C 25.1687 0.819395 -3.67373 0
M  V30 308 C 24.3157 -0.079159 -2.77187 0
M  V30 309 H 27.2667 -0.510577 -1.50262 0
M  V30 310 H 27.2877 1.21659 -3.60526 0
M  V30 311 H 26.7997 -0.593589 -3.83534 0
M  V30 312 H 24.9007 1.80413 -3.26009 0
M  V30 313 H 25.0137 0.646957 -4.74712 0
M  V30 314 H 23.3777 0.439565 -2.50878 0
M  V30 315 H 24.1607 -1.04906 -3.26878 0
M  V30 316 N 26.6058 1.57591 -0.0167156 0
M  V30 317 C 28.0168 1.79201 0.523834 0
M  V30 318 C 28.3678 0.925796 1.72984 0
M  V30 319 O 27.4928 0.132792 2.15992 0
M  V30 320 C 28.0878 3.25 0.957091 0
M  V30 321 C 26.6468 3.47648 1.44283 0
M  V30 322 C 25.7938 2.74374 0.401757 0
M  V30 323 H 28.7448 1.56831 -0.242816 0
M  V30 324 H 28.7658 3.34031 1.82219 0
M  V30 325 H 28.2778 3.88019 0.0791415 0
M  V30 326 H 26.3788 2.89866 2.34113 0
M  V30 327 H 26.4918 4.56352 1.45877 0
M  V30 328 H 24.8558 2.39485 0.867121 0
M  V30 329 H 25.6388 3.40102 -0.467513 0
M  V30 330 N 28.0839 -0.256276 1.55502 0
M  V30 331 C 29.3299 -0.987079 1.77157 0
M  V30 332 C 29.6629 -1.85327 0.580315 0
M  V30 333 O 28.9379 -1.89874 -0.421686 0
M  V30 334 C 29.2209 -1.85553 3.08613 0
M  V30 335 C 29.0739 -1.01816 4.38125 0
M  V30 336 C 30.3929 -2.8397 3.36228 0
M  V30 337 H 27.5119 -0.357428 0.644526 0
M  V30 338 H 30.1539 -0.258239 1.88237 0
M  V30 339 H 28.3039 -2.47695 2.99298 0
M  V30 340 H 29.9759 -0.416159 4.59419 0
M  V30 341 H 28.2189 -0.322178 4.32602 0
M  V30 342 H 28.8899 -1.65939 5.26468 0
M  V30 343 H 31.3659 -2.31964 3.45445 0
M  V30 344 H 30.2419 -3.41864 4.29442 0
M  V30 345 H 30.5029 -3.59955 2.56681 0
M  V30 346 N 29.562 -1.4872 -0.521534 0
M  V30 347 C 30.525 -1.63379 -1.60748 0
M  V30 348 C 31.525 -0.50661 -1.52611 0
M  V30 349 O 32.715 -0.772601 -1.5613 0
M  V30 350 C 29.847 -1.61192 -3.00383 0
M  V30 351 H 31.04 -2.60217 -1.49087 0
M  V30 352 H 28.593 -1.37444 -0.744235 0
M  V30 353 H 29.328 -0.65863 -3.17541 0
M  V30 354 H 29.113 -2.43032 -3.07698 0
M  V30 355 H 30.603 -1.7466 -3.7932 0
M  V30 356 N 31.0401 0.771051 -1.3745 0
M  V30 357 C 31.9701 1.89827 -1.3597 0
M  V30 358 C 32.9511 1.68562 -0.228216 0
M  V30 359 O 34.1361 1.8941 -0.428675 0
M  V30 360 C 31.2661 3.2712 -1.16662 0
M  V30 361 C 30.2201 3.6295 -2.2683 0
M  V30 362 C 29.5461 4.98791 -1.92644 0
M  V30 363 C 30.8461 3.69627 -3.69017 0
M  V30 364 H 32.5401 1.91323 -2.30295 0
M  V30 365 H 30.0861 0.919082 -1.10855 0
M  V30 366 H 32.0391 4.05615 -1.14256 0
M  V30 367 H 30.7631 3.26059 -0.187926 0
M  V30 368 H 29.4221 2.86763 -2.28392 0
M  V30 369 H 29.0701 4.94271 -0.933021 0
M  V30 370 H 28.7701 5.23733 -2.66416 0
M  V30 371 H 30.2941 5.79685 -1.91826 0
M  V30 372 H 31.7081 4.38273 -3.69581 0
M  V30 373 H 30.1051 4.06067 -4.41848 0
M  V30 374 H 31.1751 2.70273 -4.02592 0
M  V30 375 N 32.5182 1.22032 0.997298 0
M  V30 376 C 33.4482 1.01065 2.10495 0
M  V30 377 C 34.4292 -0.0669542 1.69968 0
M  V30 378 O 35.6142 0.0943987 1.9397 0
M  V30 379 C 32.7442 0.582874 3.42374 0
M  V30 380 C 31.6982 1.60592 3.96729 0
M  V30 381 C 31.0242 1.03412 5.24605 0
M  V30 382 C 32.3242 2.99478 4.27914 0
M  V30 383 H 34.0182 1.93708 2.28292 0
M  V30 384 H 31.5642 0.932761 1.09707 0
M  V30 385 H 33.5172 0.423332 4.19268 0
M  V30 386 H 32.2412 -0.379213 3.24391 0
M  V30 387 H 30.9002 1.75316 3.21963 0
M  V30 388 H 30.5482 0.063518 5.0296 0
M  V30 389 H 30.2482 1.71754 5.61938 0
M  V30 390 H 31.7722 0.886066 6.04137 0
M  V30 391 H 33.1862 2.88153 4.95622 0
M  V30 392 H 31.5832 3.64903 4.76409 0
M  V30 393 H 32.6532 3.49742 3.3587 0
M  V30 394 N 33.9963 -1.19345 1.0293 0
M  V30 395 C 34.9063 -2.26245 0.620515 0
M  V30 396 C 35.9223 -1.70486 -0.347928 0
M  V30 397 O 37.0983 -2.00347 -0.205704 0
M  V30 398 C 34.1633 -3.46693 -0.0218957 0
M  V30 399 C 33.2243 -4.17632 0.994102 0
M  V30 400 C 32.4573 -5.32329 0.382253 0
M  V30 401 O 32.6803 -5.64552 -0.814676 0
M  V30 402 O 31.6143 -5.91664 1.10531 0
M  V30 403 H 35.4403 -2.63453 1.51083 0
M  V30 404 H 33.0253 -1.26207 0.799513 0
M  V30 405 H 34.9073 -4.19683 -0.380072 0
M  V30 406 H 33.5823 -3.11333 -0.886209 0
M  V30 407 H 32.4893 -3.4676 1.40387 0
M  V30 408 H 33.8223 -4.56964 1.8288 0
M  V30 409 N 35.4744 -0.807222 -1.35358 0
M  V30 410 C 36.4214 -0.216037 -2.29787 0
M  V30 411 C 37.3914 0.650278 -1.52842 0
M  V30 412 O 38.5764 0.595227 -1.81278 0
M  V30 413 C 35.7164 0.628893 -3.39321 0
M  V30 414 C 34.8294 -0.257927 -4.31229 0
M  V30 415 C 33.9644 0.595069 -5.27856 0
M  V30 416 C 33.0034 -0.292111 -6.11403 0
M  V30 417 N 32.1404 0.520895 -7.00165 0
M  V30 418 H 36.9804 -1.02671 -2.79755 0
M  V30 419 H 34.5174 -0.517839 -1.37684 0
M  V30 420 H 36.4754 1.13393 -4.01494 0
M  V30 421 H 35.1054 1.40482 -2.90628 0
M  V30 422 H 34.1574 -0.881076 -3.70056 0
M  V30 423 H 35.4694 -0.940759 -4.89848 0
M  V30 424 H 34.6234 1.16522 -5.95405 0
M  V30 425 H 33.3624 1.31146 -4.69736 0
M  V30 426 H 32.3674 -0.874525 -5.428 0
M  V30 427 H 33.5924 -1.00638 -6.71602 0
M  V30 428 H 31.5384 1.22125 -6.44532 0
M  V30 429 H 31.4554 -0.103877 -7.55929 0
M  V30 430 H 32.7234 1.0743 -7.72062 0
M  V30 431 N 36.9525 1.47285 -0.560781 0
M  V30 432 C 38.1995 2.02464 -0.038062 0
M  V30 433 C 38.5275 1.43474 1.31322 0
M  V30 434 O 37.7825 0.581311 1.86867 0
M  V30 435 C 38.0815 3.57258 0.100784 0
M  V30 436 C 37.7475 4.35184 -1.18007 0
M  V30 437 C 36.4095 4.56194 -1.53103 0
M  V30 438 C 38.7615 4.80098 -2.02867 0
M  V30 439 C 36.0895 5.19367 -2.729 0
M  V30 440 C 38.4415 5.44593 -3.21871 0
M  V30 441 C 37.1055 5.63835 -3.57276 0
M  V30 442 H 36.3755 0.740869 -0.0139279 0
M  V30 443 H 39.0225 1.76916 -0.733012 0
M  V30 444 H 37.3275 3.81819 0.878724 0
M  V30 445 H 39.0245 3.97606 0.520639 0
M  V30 446 H 35.6145 4.19113 -0.8968 0
M  V30 447 H 39.7985 4.63642 -1.7706 0
M  V30 448 H 35.0545 5.32459 -3.00496 0
M  V30 449 H 39.2285 5.78358 -3.87911 0
M  V30 450 H 36.8555 6.12557 -4.50197 0
M  V30 451 N 38.4306 0.297415 1.54768 0
M  V30 452 C 39.8416 -0.195947 1.85669 0
M  V30 453 C 40.1926 -1.53707 1.21937 0
M  V30 454 O 39.3176 -2.10164 0.515754 0
M  V30 455 C 39.9126 -0.362318 3.36857 0
M  V30 456 C 38.4716 -0.799901 3.67802 0
M  V30 457 C 37.6186 0.0938578 2.77141 0
M  V30 458 H 40.5696 0.518538 1.4999 0
M  V30 459 H 40.5906 -1.19745 3.61167 0
M  V30 460 H 40.1026 0.613921 3.83214 0
M  V30 461 H 38.2036 -1.78682 3.26961 0
M  V30 462 H 38.3166 -0.621773 4.75048 0
M  V30 463 H 36.6806 -0.426254 2.51108 0
M  V30 464 H 37.4636 1.06639 3.26318 0
M  V30 465 N 39.9087 -1.5758 0.0250728 0
M  V30 466 C 40.8717 -2.08896 -0.943139 0
M  V30 467 C 41.8717 -1.00321 -1.25668 0
M  V30 468 O 43.0617 -1.26495 -1.19769 0
M  V30 469 C 40.1937 -2.55143 -2.26086 0
M  V30 470 H 41.3867 -2.95723 -0.498775 0
M  V30 471 H 38.9397 -1.54703 -0.222888 0
M  V30 472 H 39.6747 -1.71633 -2.75159 0
M  V30 473 H 39.4597 -3.34461 -2.04641 0
M  V30 474 H 40.9497 -2.95083 -2.95492 0
M  V30 475 N 41.3868 0.248026 -1.55636 0
M  V30 476 C 42.6148 0.993808 -1.81469 0
M  V30 477 C 43.0298 1.78991 -0.60064 0
M  V30 478 O 42.3868 1.77345 0.430682 0
M  V30 479 C 42.4378 1.93258 -3.05506 0
M  V30 480 O 42.1588 1.16869 -4.22224 0
M  V30 481 C 43.6598 2.79444 -3.4413 0
M  V30 482 H 40.8798 0.292486 -0.603898 0
M  V30 483 H 43.4238 0.271253 -2.02693 0
M  V30 484 H 41.5788 2.60943 -2.86335 0
M  V30 485 H 41.9928 1.80359 -4.92515 0
M  V30 486 H 43.4668 3.41066 -4.34026 0
M  V30 487 H 43.9438 3.50499 -2.64665 0
M  V30 488 H 44.5498 2.17214 -3.65648 0
M  V30 489 N 42.8649 1.48995 0.513639 0
M  V30 490 C 43.7749 1.67443 1.64317 0
M  V30 491 C 44.7909 0.556947 1.64846 0
M  V30 492 O 45.9669 0.830082 1.83498 0
M  V30 493 C 43.0319 1.72515 3.00732 0
M  V30 494 C 42.0929 2.96009 3.1093 0
M  V30 495 C 41.3259 3.00829 4.40837 0
M  V30 496 O 41.5489 2.13594 5.28898 0
M  V30 497 O 40.4829 3.93168 4.55744 0
M  V30 498 H 44.3089 2.63106 1.51687 0
M  V30 499 H 41.8939 1.32588 0.688543 0
M  V30 500 H 43.7759 1.78277 3.81831 0
M  V30 501 H 42.4509 0.800278 3.13651 0
M  V30 502 H 41.3579 2.9577 2.29065 0
M  V30 503 H 42.6909 3.87934 3.02933 0
M  V30 504 N 44.343 -0.763751 1.37857 0
M  V30 505 C 45.291 -1.89864 1.34367 0
M  V30 506 C 46.285 -1.67816 0.231143 0
M  V30 507 O 47.491 -1.75508 0.399617 0
M  V30 508 H 43.866 -0.624501 0.41893 0
M  V30 509 H 45.837 -1.89925 2.30155 0
M  V30 510 C 44.586 -3.27227 1.1755 0
M  V30 511 H 43.909 -3.44773 2.02414 0
M  V30 512 H 45.349 -4.06911 1.1916 0
M  V30 513 C 43.808 -3.36692 -0.118311 0
M  V30 514 O 44.338 -3.86374 -1.09902 0
M  V30 515 N 42.544 -2.90092 -0.171717 0
M  V30 516 H 42.091 -2.49853 0.627012 0
M  V30 517 H 42.049 -2.96806 -1.03699 0
M  V30 518 N 45.8211 -1.22559 -0.990812 0
M  V30 519 C 46.7841 -0.998863 -2.0629 0
M  V30 520 C 47.7841 0.0354834 -1.60761 0
M  V30 521 O 48.9741 -0.203231 -1.7301 0
M  V30 522 C 46.1061 -0.509203 -3.37076 0
M  V30 523 H 47.2991 -1.95014 -2.27837 0
M  V30 524 H 44.8521 -1.04456 -1.16269 0
M  V30 525 H 45.5871 0.446335 -3.21214 0
M  V30 526 H 45.3721 -1.25547 -3.71457 0
M  V30 527 H 46.8621 -0.370888 -4.1595 0
M  V30 528 N 47.2992 1.18797 -1.03562 0
M  V30 529 C 48.2622 2.20464 -0.626769 0
M  V30 530 C 49.2622 1.57721 0.313173 0
M  V30 531 O 50.4522 1.73917 0.0992615 0
M  V30 532 C 47.5842 3.40802 0.0818498 0
M  V30 533 H 48.7772 2.58149 -1.5264 0
M  V30 534 H 46.3302 1.32593 -0.827578 0
M  V30 535 H 47.0652 3.08642 0.995518 0
M  V30 536 H 46.8502 3.8758 -0.593652 0
M  V30 537 H 48.3402 4.16092 0.354584 0
M  V30 538 N 48.7773 0.814389 1.34928 0
M  V30 539 C 49.7253 0.218424 2.31572 0
M  V30 540 C 50.7193 -0.636128 1.57002 0
M  V30 541 O 51.9253 -0.52842 1.72069 0
M  V30 542 H 48.3003 0.0518799 0.750208 0
M  V30 543 H 50.2713 1.04852 2.79372 0
M  V30 544 C 49.0203 -0.61207 3.4227 0
M  V30 545 H 48.3433 0.0361578 3.99784 0
M  V30 546 H 49.7833 -0.995317 4.12152 0
M  V30 547 C 48.2423 -1.78087 2.85984 0
M  V30 548 O 48.7723 -2.8787 2.80168 0
M  V30 549 N 46.9783 -1.59488 2.42924 0
M  V30 550 H 46.5253 -0.701874 2.47854 0
M  V30 551 H 46.4833 -2.37846 2.05613 0
M  V30 552 N 50.2554 -1.46986 0.568584 0
M  V30 553 C 51.4834 -2.0683 0.0539956 0
M  V30 554 C 51.8984 -1.41953 -1.24478 0
M  V30 555 O 51.2554 -0.519933 -1.74937 0
M  V30 556 C 51.3064 -3.61254 -0.133362 0
M  V30 557 O 51.0274 -4.237 1.11399 0
M  V30 558 C 52.5284 -4.37992 -0.683927 0
M  V30 559 H 49.7484 -0.669058 0.0510141 0
M  V30 560 H 52.2924 -1.88824 0.785234 0
M  V30 561 H 50.4474 -3.78735 -0.81477 0
M  V30 562 H 50.8614 -5.16388 0.91888 0
M  V30 563 H 52.3354 -5.46684 -0.764263 0
M  V30 564 H 52.8124 -4.05058 -1.69778 0
M  V30 565 H 53.4184 -4.25283 -0.0378494 0
M  V30 566 N 51.7335 -0.305618 -1.54608 0
M  V30 567 C 52.9795 0.302746 -2.00528 0
M  V30 568 C 53.3125 1.53184 -1.19367 0
M  V30 569 O 52.5875 1.92598 -0.271321 0
M  V30 570 C 52.8705 0.654756 -3.54097 0
M  V30 571 C 52.7235 -0.583793 -4.45995 0
M  V30 572 C 54.0425 1.47947 -4.14487 0
M  V30 573 H 51.1615 0.108564 -0.72896 0
M  V30 574 H 53.8035 -0.418634 -1.85331 0
M  V30 575 H 51.9535 1.26935 -3.67178 0
M  V30 576 H 53.6255 -1.22224 -4.44814 0
M  V30 577 H 51.8685 -1.21615 -4.16404 0
M  V30 578 H 52.5395 -0.293287 -5.5122 0
M  V30 579 H 55.0155 0.96013 -4.04871 0
M  V30 580 H 53.8915 1.69454 -5.22088 0
M  V30 581 H 54.1525 2.47011 -3.66658 0
M  V30 582 N 53.2116 1.57565 -0.0334293 0
M  V30 583 C 54.1746 2.09393 0.932048 0
M  V30 584 C 55.1746 1.00986 1.25134 0
M  V30 585 O 56.3646 1.27129 1.19096 0
M  V30 586 C 53.4966 2.56338 2.2473 0
M  V30 587 H 54.6896 2.95984 0.483085 0
M  V30 588 H 52.2426 1.54819 0.21468 0
M  V30 589 H 52.9776 1.7309 2.74245 0
M  V30 590 H 52.7626 3.35542 2.02865 0
M  V30 591 H 54.2526 2.96646 2.93923 0
M  V30 592 N 54.6897 -0.239769 1.55765 0
M  V30 593 C 55.6397 -1.30002 1.87306 0
M  V30 594 C 56.6237 -1.43156 0.73452 0
M  V30 595 O 57.8157 -1.46277 0.99659 0
M  V30 596 C 54.9447 -2.65409 2.17745 0
M  V30 597 C 54.0307 -2.56231 3.37945 0
M  V30 598 N 54.4217 -2.16689 4.57033 0
M  V30 599 C 52.7197 -2.87229 3.41197 0
M  V30 600 C 53.4207 -2.18318 5.39177 0
M  V30 601 N 52.3967 -2.58098 4.78421 0
M  V30 602 H 56.1987 -0.984912 2.76906 0
M  V30 603 H 53.7127 -0.448381 1.56087 0
M  V30 604 H 55.7097 -3.41934 2.38509 0
M  V30 605 H 54.3697 -2.97781 1.29448 0
M  V30 606 H 55.3807 -1.88116 4.82528 0
M  V30 607 H 52.0577 -3.24094 2.63191 0
M  V30 608 H 53.4477 -1.90025 6.44469 0
M  V30 609 N 56.1678 -1.49265 -0.50573 0
M  V30 610 C 57.1308 -1.65075 -1.59006 0
M  V30 611 C 58.1308 -0.522768 -1.52065 0
M  V30 612 O 59.3208 -0.789117 -1.55302 0
M  V30 613 C 56.4528 -1.64369 -2.98656 0
M  V30 614 H 57.6458 -2.61784 -1.46319 0
M  V30 615 H 55.1988 -1.38226 -0.729616 0
M  V30 616 H 55.9338 -0.692272 -3.16825 0
M  V30 617 H 55.7188 -2.46282 -3.05103 0
M  V30 618 H 57.2088 -1.78674 -3.77446 0
M  V30 619 N 57.6459 0.756429 -1.3826 0
M  V30 620 C 59.0619 1.0591 -1.19395 0
M  V30 621 C 59.2619 2.01459 -0.0406567 0
M  V30 622 O 58.3179 2.44909 0.614467 0
M  V30 623 C 59.6309 1.64191 -2.51916 0
M  V30 624 C 61.1789 1.76376 -2.58574 0
M  V30 625 C 61.6539 2.38069 -3.91264 0
M  V30 626 N 63.1449 2.45503 -3.92788 0
M  V30 627 C 63.8799 2.94126 -4.92217 0
M  V30 628 N 63.3759 3.42805 -6.02043 0
M  V30 629 N 65.1689 2.9314 -4.7961 0
M  V30 630 H 57.3199 0.122313 -2.12048 0
M  V30 631 H 59.5829 0.116892 -0.940766 0
M  V30 632 H 59.2889 1.01451 -3.3675 0
M  V30 633 H 59.1629 2.6329 -2.70108 0
M  V30 634 H 61.5499 2.38244 -1.74137 0
M  V30 635 H 61.6309 0.759894 -2.44252 0
M  V30 636 H 61.2749 1.76835 -4.76121 0
M  V30 637 H 61.2049 3.39091 -4.02895 0
M  V30 638 H 63.6959 2.1107 -3.13461 0
M  V30 639 H 64.0089 3.78354 -6.73846 0
M  V30 640 H 62.3539 3.4087 -6.05667 0
M  V30 641 H 65.5449 2.54419 -3.92923 0
M  V30 642 H 65.7179 3.30721 -5.5725 0
M  V30 643 N 59.124 1.23083 0.984299 0
M  V30 644 C 60.071 1.00854 2.07598 0
M  V30 645 C 61.041 -0.0726709 1.65941 0
M  V30 646 O 62.226 0.0786535 1.90638 0
M  V30 647 C 59.366 0.601645 3.39815 0
M  V30 648 C 58.479 1.75456 3.94765 0
M  V30 649 C 57.614 1.29482 5.15177 0
M  V30 650 C 56.653 2.41873 5.62284 0
M  V30 651 N 55.79 1.96885 6.73929 0
M  V30 652 H 60.63 1.943 2.25946 0
M  V30 653 H 58.167 0.968001 1.10762 0
M  V30 654 H 60.125 0.346854 4.15756 0
M  V30 655 H 58.755 -0.295803 3.21442 0
M  V30 656 H 57.807 2.12346 3.15616 0
M  V30 657 H 59.119 2.59965 4.25699 0
M  V30 658 H 58.273 0.997923 5.98437 0
M  V30 659 H 57.012 0.420046 4.85888 0
M  V30 660 H 56.017 2.72342 4.77608 0
M  V30 661 H 57.242 3.29881 5.93595 0
M  V30 662 H 55.188 1.11782 6.46406 0
M  V30 663 H 55.105 2.74956 7.04227 0
M  V30 664 H 56.373 1.70289 7.60672 0
M  V30 665 N 60.6021 -1.18246 1.0419 0
M  V30 666 C 61.5651 -2.20128 0.638452 0
M  V30 667 C 62.5651 -1.57885 -0.304805 0
M  V30 668 O 63.7551 -1.73967 -0.0900369 0
M  V30 669 C 60.8871 -3.4084 -0.0637751 0
M  V30 670 H 62.0801 -2.57336 1.54007 0
M  V30 671 H 59.6331 -1.32152 0.834598 0
M  V30 672 H 60.3681 -3.09166 -0.979136 0
M  V30 673 H 60.1531 -3.8726 0.614198 0
M  V30 674 H 61.6431 -4.16274 -0.332512 0
M  V30 675 N 62.0802 -0.821533 -1.34494 0
M  V30 676 C 63.3292 -0.405355 -1.97585 0
M  V30 677 C 63.6422 1.03677 -1.65863 0
M  V30 678 O 64.8482 1.55679 -2.22433 0
M  V30 679 C 63.3042 -0.673861 -3.53535 0
M  V30 680 C 62.9122 -2.12951 -3.94152 0
M  V30 681 C 64.6562 -0.32378 -4.23263 0
M  V30 682 C 62.5632 -2.34298 -5.43009 0
M  V30 683 H 61.4932 -0.147836 -0.739365 0
M  V30 684 H 64.1442 -1.00769 -1.53355 0
M  V30 685 H 62.5262 -0.00137554 -3.96 0
M  V30 686 H 63.7002 -2.84104 -3.62797 0
M  V30 687 H 62.0152 -2.44089 -3.37356 0
M  V30 688 H 64.6122 -0.461126 -5.32708 0
M  V30 689 H 64.9552 0.731586 -4.09821 0
M  V30 690 H 65.4882 -0.950786 -3.8627 0
M  V30 691 H 62.2272 -3.38335 -5.61435 0
M  V30 692 H 61.7472 -1.67687 -5.75883 0
M  V30 693 H 63.4262 -2.16588 -6.09671 0
M  V30 694 N 63.5583 1.46682 -0.576371 0
M  V30 695 C 64.5083 2.27278 0.181288 0
M  V30 696 C 65.4923 1.35497 0.867721 0
M  V30 697 O 66.6843 1.59717 0.762863 0
M  V30 698 C 63.8133 3.21703 1.19841 0
M  V30 699 C 62.8993 4.20969 0.51442 0
M  V30 700 N 63.2903 5.03999 -0.426407 0
M  V30 701 C 61.5883 4.39373 0.765963 0
M  V30 702 C 62.2893 5.75812 -0.825565 0
M  V30 703 N 61.2653 5.43315 -0.176116 0
M  V30 704 H 65.0673 2.88863 -0.541785 0
M  V30 705 H 62.5813 1.57455 -0.397697 0
M  V30 706 H 64.5783 3.78145 1.75533 0
M  V30 707 H 63.2383 2.61677 1.92238 0
M  V30 708 H 64.2493 5.11659 -0.8016 0
M  V30 709 H 60.9263 3.90502 1.47698 0
M  V30 710 H 62.3163 6.52577 -1.59976 0
M  V30 711 N 65.0364 0.313813 1.54444 0
M  V30 712 C 65.9834 -0.55655 2.23989 0
M  V30 713 C 66.9534 -1.11943 1.22711 0
M  V30 714 O 68.1384 -1.16158 1.51367 0
M  V30 715 C 65.2784 -1.71635 2.99392 0
M  V30 716 C 64.3914 -1.18364 4.15468 0
M  V30 717 C 63.5264 -2.30834 4.78424 0
M  V30 718 C 62.5654 -1.74762 5.86622 0
M  V30 719 N 61.7024 -2.80855 6.43479 0
M  V30 720 H 66.5424 0.0430893 2.97969 0
M  V30 721 H 64.0794 0.0330359 1.47063 0
M  V30 722 H 66.0374 -2.39868 3.41349 0
M  V30 723 H 64.6674 -2.28742 2.27765 0
M  V30 724 H 63.7194 -0.393163 3.78363 0
M  V30 725 H 65.0314 -0.733262 4.93381 0
M  V30 726 H 64.1854 -3.0699 5.23299 0
M  V30 727 H 62.9244 -2.79204 3.99871 0
M  V30 728 H 61.9294 -0.970995 5.41158 0
M  V30 729 H 63.1544 -1.2728 6.67066 0
M  V30 730 H 61.1004 -3.28535 5.67804 0
M  V30 731 H 61.0174 -2.40351 7.16776 0
M  V30 732 H 62.2854 -3.5687 6.93011 0
M  V30 733 N 66.5145 -1.57545 0.0417849 0
M  V30 734 C 67.7635 -1.91494 -0.633492 0
M  V30 735 C 68.0765 -0.921084 -1.72556 0
M  V30 736 O 69.2825 -1.15228 -2.45835 0
M  V30 737 C 67.7385 -3.40072 -1.17808 0
M  V30 738 C 67.3465 -4.47843 -0.118633 0
M  V30 739 C 69.0905 -3.8307 -1.82915 0
M  V30 740 C 66.9975 -5.87529 -0.675578 0
M  V30 741 H 65.9275 -0.714653 -0.24039 0
M  V30 742 H 68.5785 -1.83175 0.109148 0
M  V30 743 H 66.9605 -3.43364 -1.97274 0
M  V30 744 H 68.1345 -4.56128 0.654494 0
M  V30 745 H 66.4495 -4.14128 0.434414 0
M  V30 746 H 69.0465 -4.84794 -2.25563 0
M  V30 747 H 69.3895 -3.1881 -2.67705 0
M  V30 748 H 69.9225 -3.82255 -1.10119 0
M  V30 749 H 66.6615 -6.55362 0.134475 0
M  V30 750 H 66.1815 -5.82824 -1.4169 0
M  V30 751 H 67.8605 -6.36491 -1.1614 0
M  V30 752 N 67.9926 0.231505 -1.5589 0
M  V30 753 C 68.9226 1.29022 -1.94617 0
M  V30 754 C 69.9036 1.4941 -0.813067 0
M  V30 755 O 71.0886 1.6176 -1.07459 0
M  V30 756 C 68.2186 2.64199 -2.25424 0
M  V30 757 C 67.1726 2.58484 -3.41131 0
M  V30 758 C 66.4986 3.97599 -3.57518 0
M  V30 759 C 67.7986 2.1413 -4.76388 0
M  V30 760 H 69.4926 0.968563 -2.83301 0
M  V30 761 H 67.0386 0.464479 -1.36303 0
M  V30 762 H 68.9916 3.38413 -2.51107 0
M  V30 763 H 67.7156 2.98032 -1.33583 0
M  V30 764 H 66.3746 1.86727 -3.15481 0
M  V30 765 H 66.0226 4.28723 -2.6307 0
M  V30 766 H 65.7226 3.94659 -4.35337 0
M  V30 767 H 67.2466 4.7349 -3.85538 0
M  V30 768 H 68.6606 2.78083 -5.01341 0
M  V30 769 H 67.0576 2.2227 -5.57419 0
M  V30 770 H 68.1276 1.09331 -4.72414 0
M  V30 771 N 69.4707 1.49531 0.497807 0
M  V30 772 C 70.4177 1.66436 1.59899 0
M  V30 773 C 71.3877 0.505793 1.58212 0
M  V30 774 O 72.5727 0.733202 1.7615 0
M  V30 775 C 69.7127 1.7399 2.98029 0
M  V30 776 C 68.8257 3.01172 3.09708 0
M  V30 777 C 67.9607 2.99686 4.38591 0
M  V30 778 C 66.9997 4.21434 4.43914 0
M  V30 779 N 66.1367 4.1784 5.64229 0
M  V30 780 H 70.9767 2.60459 1.44793 0
M  V30 781 H 68.5137 1.29137 0.704423 0
M  V30 782 H 70.4717 1.76352 3.78095 0
M  V30 783 H 69.1017 0.834301 3.11832 0
M  V30 784 H 68.1537 3.08408 2.22685 0
M  V30 785 H 69.4657 3.91165 3.09502 0
M  V30 786 H 68.6197 3.00628 5.2698 0
M  V30 787 H 67.3587 2.07477 4.41367 0
M  V30 788 H 66.3637 4.20733 3.53926 0
M  V30 789 H 67.5887 5.14839 4.42851 0
M  V30 790 H 65.5347 3.28469 5.67841 0
M  V30 791 H 65.4517 5.01571 5.65652 0
M  V30 792 H 66.7197 4.22889 6.54817 0
M  V30 793 N 70.9488 -0.749086 1.3866 0
M  V30 794 C 72.1968 -1.50535 1.34847 0
M  V30 795 C 72.5178 -1.94909 -0.0595016 0
M  V30 796 O 71.7878 -1.67973 -1.00806 0
M  V30 797 H 70.3678 -0.558395 0.49619 0
M  V30 798 H 73.0298 -0.890165 1.73384 0
M  V30 799 H 72.1258 -2.39413 2.00219 0
M  V30 800 N 72.4269 -1.23603 -0.977757 0
M  V30 801 C 73.3749 -1.01704 -2.09187 0
M  V30 802 C 74.3689 0.0448214 -1.69341 0
M  V30 803 O 75.5749 -0.108902 -1.7967 0
M  V30 804 H 71.9499 -0.311803 -0.684312 0
M  V30 805 H 73.9209 -1.96207 -2.24823 0
M  V30 806 C 72.6699 -0.627746 -3.41986 0
M  V30 807 H 71.9929 -1.43656 -3.73099 0
M  V30 808 H 73.4329 -0.514053 -4.20872 0
M  V30 809 C 71.8919 0.664238 -3.30287 0
M  V30 810 O 72.4219 1.71268 -3.6336 0
M  V30 811 N 70.6279 0.641156 -2.83439 0
M  V30 812 H 70.1749 -0.212376 -2.56723 0
M  V30 813 H 70.1329 1.50583 -2.75993 0
M  V30 814 N 73.905 1.17692 -1.04816 0
M  V30 815 C 75.182 1.83768 -0.669963 0
M  V30 816 C 75.562 1.93232 0.849986 0
M  V30 817 O 74.91 1.46397 1.75443 0
M  V30 818 C 75.12 3.21641 -1.35455 0
M  V30 819 C 76.468 3.97592 -1.49017 0
M  V30 820 O 77.492 3.31107 -1.31326 0
M  V30 821 O 76.351 5.16729 -1.77914 0
M  V30 822 H 73.445 0.792799 -0.235368 0
M  V30 823 H 75.991 1.25021 -1.14751 0
M  V30 824 H 74.763 3.097 -2.39168 0
M  V30 825 H 74.386 3.88052 -0.866107 0
M  V30 826 N 75.3831 0.828654 1.34056 0
M  V30 827 C 76.6601 0.341809 1.9259 0
M  V30 828 C 77.0401 -1.17158 1.75605 0
M  V30 829 O 76.3881 -1.98132 1.13824 0
M  V30 830 C 76.5981 0.777453 3.4023 0
M  V30 831 C 77.9461 0.779579 4.17382 0
M  V30 832 O 78.9701 0.7204 3.48839 0
M  V30 833 O 77.8291 0.857996 5.39723 0
M  V30 834 H 74.9231 0.0946085 0.821571 0
M  V30 835 H 77.4691 0.913827 1.42994 0
M  V30 836 H 76.2411 1.8196 3.46419 0
M  V30 837 H 75.8641 0.181444 3.97186 0
M  V30 838 N 76.8612 -1.46375 0.584142 0
M  V30 839 C 78.2772 -1.57694 0.245929 0
M  V30 840 C 78.4772 -1.57903 -1.25175 0
M  V30 841 O 77.5332 -1.49676 -2.03355 0
M  V30 842 C 78.8462 -2.87028 0.896402 0
M  V30 843 C 80.3942 -3.00662 0.870127 0
M  V30 844 C 80.8692 -4.32734 1.50017 0
M  V30 845 N 82.3602 -4.39436 1.46458 0
M  V30 846 C 83.0952 -5.40248 1.92144 0
M  V30 847 N 82.5912 -6.47726 2.4581 0
M  V30 848 N 84.3842 -5.31459 1.83052 0
M  V30 849 H 76.5352 -1.44483 1.55687 0
M  V30 850 H 78.7982 -0.689291 0.650831 0
M  V30 851 H 78.5042 -2.9269 1.95002 0
M  V30 852 H 78.3782 -3.75014 0.405486 0
M  V30 853 H 80.7652 -2.94581 -0.174871 0
M  V30 854 H 80.8462 -2.14148 1.39908 0
M  V30 855 H 80.4902 -4.39573 2.54437 0
M  V30 856 H 80.4202 -5.18025 0.946432 0
M  V30 857 H 82.9112 -3.62367 1.07231 0
M  V30 858 H 83.2242 -7.20863 2.78525 0
M  V30 859 H 81.5692 -6.48542 2.49836 0
M  V30 860 H 84.7602 -4.46396 1.40883 0
M  V30 861 H 84.9332 -6.09881 2.18973 0
M  V30 862 N 78.3393 -0.321999 -1.54275 0
M  V30 863 C 79.2693 0.537411 -2.27231 0
M  V30 864 C 80.2503 1.12064 -1.27968 0
M  V30 865 O 81.4353 1.14606 -1.56777 0
M  V30 866 C 78.5653 1.69919 -3.02894 0
M  V30 867 C 77.5193 1.24534 -4.09482 0
M  V30 868 C 76.8453 2.49394 -4.72977 0
M  V30 869 C 78.1453 0.361335 -5.21049 0
M  V30 870 H 79.8393 -0.0711406 -2.99315 0
M  V30 871 H 77.3853 -0.0356555 -1.43956 0
M  V30 872 H 79.3383 2.30668 -3.52662 0
M  V30 873 H 78.0623 2.33431 -2.28424 0
M  V30 874 H 76.7213 0.660782 -3.60596 0
M  V30 875 H 76.3693 3.11265 -3.95124 0
M  V30 876 H 76.0693 2.19718 -5.44975 0
M  V30 877 H 77.5933 3.10908 -5.25517 0
M  V30 878 H 79.0073 0.875072 -5.66582 0
M  V30 879 H 77.4043 0.157428 -5.99893 0
M  V30 880 H 78.4743 -0.60822 -4.8107 0
M  V30 881 N 79.8174 1.5752 -0.0501392 0
M  V30 882 C 80.7474 2.14502 0.922566 0
M  V30 883 C 81.7284 1.06642 1.3252 0
M  V30 884 O 82.9134 1.34577 1.4001 0
M  V30 885 C 80.0434 2.68916 2.19776 0
M  V30 886 C 78.9974 3.8175 1.93523 0
M  V30 887 C 78.3234 4.22677 3.27487 0
M  V30 888 C 79.6234 5.06932 1.25765 0
M  V30 889 H 81.3174 2.9603 0.447952 0
M  V30 890 H 78.8634 1.42401 0.214024 0
M  V30 891 H 80.8164 3.07419 2.88222 0
M  V30 892 H 79.5404 1.84578 2.69441 0
M  V30 893 H 78.1994 3.43718 1.27489 0
M  V30 894 H 77.8474 3.35291 3.74952 0
M  V30 895 H 77.5474 4.98725 3.1072 0
M  V30 896 H 79.0714 4.63779 3.97166 0
M  V30 897 H 80.4854 5.42888 1.84244 0
M  V30 898 H 78.8824 5.88116 1.19328 0
M  V30 899 H 79.9524 4.84337 0.233536 0
M  V30 900 N 81.2955 -0.223234 1.56011 0
M  V30 901 C 82.5415 -0.949279 1.79211 0
M  V30 902 C 82.8745 -1.84054 0.619494 0
M  V30 903 O 82.1495 -1.90726 -0.381317 0
M  V30 904 C 82.4325 -1.78965 3.12479 0
M  V30 905 C 82.2855 -0.924997 4.40186 0
M  V30 906 C 83.6045 -2.76774 3.42175 0
M  V30 907 H 80.7235 -0.343676 0.651963 0
M  V30 908 H 83.3655 -0.218253 1.88742 0
M  V30 909 H 81.5155 -2.41291 3.04485 0
M  V30 910 H 83.1875 -0.318615 4.60198 0
M  V30 911 H 81.4305 -0.230344 4.33188 0
M  V30 912 H 82.1015 -1.54735 5.29869 0
M  V30 913 H 84.5775 -2.24584 3.50287 0
M  V30 914 H 83.4535 -3.32678 4.36597 0
M  V30 915 H 83.7145 -3.54429 2.64258 0
M  V30 916 N 82.7736 -1.49793 -0.48987 0
M  V30 917 C 84.0196 -1.60078 -1.24511 0
M  V30 918 C 84.3526 -0.291608 -1.91998 0
M  V30 919 O 83.6276 0.705647 -1.81248 0
M  V30 920 C 83.9106 -2.76791 -2.30345 0
M  V30 921 C 83.7636 -4.17535 -1.67286 0
M  V30 922 C 85.0826 -2.89111 -3.31817 0
M  V30 923 H 82.2016 -0.582645 -0.451324 0
M  V30 924 H 84.8436 -1.82117 -0.541612 0
M  V30 925 H 82.9936 -2.5813 -2.90346 0
M  V30 926 H 84.6656 -4.4774 -1.11026 0
M  V30 927 H 82.9086 -4.22665 -0.976577 0
M  V30 928 H 83.5796 -4.95094 -2.44103 0
M  V30 929 H 86.0556 -3.06133 -2.81819 0
M  V30 930 H 84.9316 -3.72433 -4.03219 0
M  V30 931 H 85.1926 -1.9893 -3.94815 0
M  V30 932 N 84.2517 0.741722 -1.39055 0
M  V30 933 C 85.5007 1.49656 -1.35225 0
M  V30 934 C 85.8137 1.95533 0.0512708 0
M  V30 935 O 87.0197 2.7067 0.212138 0
M  V30 936 C 85.4757 2.70389 -2.37525 0
M  V30 937 C 85.0837 2.31489 -3.83558 0
M  V30 938 C 86.8277 3.48236 -2.42759 0
M  V30 939 C 84.7347 3.48903 -4.77515 0
M  V30 940 H 83.6647 0.56197 -0.502699 0
M  V30 941 H 86.3157 0.809727 -1.64668 0
M  V30 942 H 84.6977 3.41113 -2.01142 0
M  V30 943 H 85.8717 1.68354 -4.28945 0
M  V30 944 H 84.1867 1.66749 -3.81554 0
M  V30 945 H 86.7837 4.35558 -3.1015 0
M  V30 946 H 87.1267 3.90229 -1.45008 0
M  V30 947 H 87.6597 2.84535 -2.78002 0
M  V30 948 H 84.3987 3.11966 -5.76504 0
M  V30 949 H 83.9187 4.11041 -4.36813 0
M  V30 950 H 85.5977 4.15328 -4.96096 0
M  V30 951 N 85.7298 1.2412 0.971189 0
M  V30 952 C 86.9778 1.07668 1.71032 0
M  V30 953 C 87.2988 -0.385797 1.91146 0
M  V30 954 O 86.5688 -1.27569 1.4867 0
M  V30 955 H 85.1488 0.395429 0.633755 0
M  V30 956 H 87.8108 1.55984 1.16855 0
M  V30 957 H 86.9068 1.57195 2.69622 0
M  V30 958 N 87.2079 -1.17134 1.05439 0
M  V30 959 C 88.6189 -1.69084 0.791676 0
M  V30 960 C 88.9699 -1.83822 -0.685839 0
M  V30 961 O 88.0949 -1.52757 -1.53278 0
M  V30 962 C 88.6899 -3.07119 1.4305 0
M  V30 963 C 87.2489 -3.56225 1.21577 0
M  V30 964 C 86.3959 -2.32421 1.51247 0
M  V30 965 H 89.3469 -1.01617 1.219 0
M  V30 966 H 89.3679 -3.71087 0.84112 0
M  V30 967 H 88.8799 -2.9636 2.50584 0
M  V30 968 H 86.9809 -3.72257 0.159787 0
M  V30 969 H 87.0939 -4.38837 1.92246 0
M  V30 970 H 85.4579 -2.3701 0.932653 0
M  V30 971 H 86.2409 -2.24268 2.5992 0
M  V30 972 N 88.686 -0.835752 -1.33615 0
M  V30 973 C 89.926 -0.43599 -1.99696 0
M  V30 974 C 90.29 0.98557 -1.64774 0
M  V30 975 O 91.491 1.48889 -2.23798 0
M  V30 976 C 89.762 -0.646721 -3.515 0
M  V30 977 S 91.321 -0.341715 -4.37467 0
M  V30 978 H 88.139 -0.164136 -0.691795 0
M  V30 979 H 90.741 -1.08436 -1.62671 0
M  V30 980 H 89.445 -1.68077 -3.74404 0
M  V30 981 H 88.976 0.0159173 -3.93397 0
M  V30 982 H 90.991 0.839708 -4.89043 0
M  V30 983 N 90.1641 1.46063 -0.591896 0
M  V30 984 C 91.3891 2.07226 -0.0850314 0
M  V30 985 C 91.8141 1.43625 1.21463 0
M  V30 986 O 91.1721 0.523305 1.73583 0
M  V30 987 C 91.2201 3.60554 0.0576567 0
M  V30 988 O 90.3241 3.97128 1.11188 0
M  V30 989 H 89.6651 0.660615 -0.0669568 0
M  V30 990 H 92.1951 1.8756 -0.81745 0
M  V30 991 H 92.2051 4.07165 0.2609 0
M  V30 992 H 90.8801 4.06235 -0.891416 0
M  V30 993 H 89.4571 3.62213 0.886356 0
M  V30 994 N 91.6422 0.330177 1.54103 0
M  V30 995 C 92.8912 -0.271336 1.99867 0
M  V30 996 C 93.2042 -1.52723 1.22209 0
M  V30 997 O 94.4102 -2.20515 1.58383 0
M  V30 998 C 92.8662 -0.534032 3.55916 0
M  V30 999 C 92.4742 0.705193 4.42415 0
M  V30 1000 C 94.2182 -1.09514 4.1013 0
M  V30 1001 C 92.1252 0.414035 5.89949 0
M  V30 1002 H 91.0552 -0.105166 0.74663 0
M  V30 1003 H 93.7062 0.443429 1.78062 0
M  V30 1004 H 92.0882 -1.30915 3.73734 0
M  V30 1005 H 93.2622 1.4804 4.36372 0
M  V30 1006 H 91.5772 1.18698 3.99124 0
M  V30 1007 H 94.1742 -1.3277 5.17954 0
M  V30 1008 H 94.5172 -2.04656 3.62521 0
M  V30 1009 H 95.0502 -0.381038 3.95971 0
M  V30 1010 H 91.7892 1.33481 6.41766 0
M  V30 1011 H 91.3092 -0.323336 5.98928 0
M  V30 1012 H 92.9882 0.0263105 6.46995 0
M  V30 1013 N 93.1203 -1.57491 0.0584922 0
M  V30 1014 C 94.0703 -2.08474 -0.923188 0
M  V30 1015 C 95.0543 -0.991479 -1.26722 0
M  V30 1016 O 96.2463 -1.25473 -1.24842 0
M  V30 1017 C 93.3753 -2.6392 -2.19548 0
M  V30 1018 C 92.4613 -3.80227 -1.87852 0
M  V30 1019 N 92.8523 -4.89714 -1.26546 0
M  V30 1020 C 91.1503 -3.89271 -2.17679 0
M  V30 1021 C 91.8513 -5.70689 -1.12644 0
M  V30 1022 N 90.8273 -5.18531 -1.63176 0
M  V30 1023 H 94.6293 -2.90517 -0.444653 0
M  V30 1024 H 92.1433 -1.61745 -0.145764 0
M  V30 1025 H 94.1403 -2.98752 -2.9078 0
M  V30 1026 H 92.8003 -1.83318 -2.68001 0
M  V30 1027 H 93.8113 -5.09358 -0.936757 0
M  V30 1028 H 90.4883 -3.19623 -2.68602 0
M  V30 1029 H 91.8783 -6.6875 -0.6499 0
M  V30 1030 N 94.5984 0.214957 -1.56127 0
M  V30 1031 C 95.8754 0.963093 -1.70247 0
M  V30 1032 C 96.2554 2.02166 -0.60764 0
M  V30 1033 O 95.6034 2.25244 0.384385 0
M  V30 1034 C 95.8134 1.56756 -3.11815 0
M  V30 1035 C 97.1614 2.0573 -3.7143 0
M  V30 1036 O 98.1854 1.66637 -3.14818 0
M  V30 1037 O 97.0444 2.77603 -4.70743 0
M  V30 1038 H 94.1384 0.450321 -0.693643 0
M  V30 1039 H 96.6844 0.206219 -1.68442 0
M  V30 1040 H 95.4564 0.803533 -3.82961 0
M  V30 1041 H 95.0794 2.3898 -3.17765 0
M  V30 1042 N 96.0765 1.50051 0.48192 0
M  V30 1043 C 97.4875 1.5348 1.06305 0
M  V30 1044 C 97.8385 0.331997 1.93371 0
M  V30 1045 O 96.9635 -0.556256 2.09129 0
M  V30 1046 C 97.5585 2.7813 1.93466 0
M  V30 1047 C 96.1175 2.84275 2.46707 0
M  V30 1048 C 95.2645 2.47637 1.24785 0
M  V30 1049 H 98.2155 1.56472 0.264995 0
M  V30 1050 H 98.2365 2.59372 2.78399 0
M  V30 1051 H 97.7485 3.65654 1.30072 0
M  V30 1052 H 95.8495 2.01077 3.13686 0
M  V30 1053 H 95.9625 3.8691 2.82555 0
M  V30 1054 H 94.3265 1.99835 1.57918 0
M  V30 1055 H 95.1095 3.37457 0.630694 0
M  V30 1056 N 97.5546 -0.734337 1.39446 0
M  V30 1057 C 98.8006 -1.49613 1.36908 0
M  V30 1058 C 99.1336 -1.94169 -0.0347829 0
M  V30 1059 O 98.4086 -1.66833 -0.999847 0
M  V30 1060 C 98.6916 -2.73534 2.34203 0
M  V30 1061 C 98.5446 -2.34993 3.83534 0
M  V30 1062 C 99.8636 -3.75635 2.29317 0
M  V30 1063 H 96.9826 -0.542714 0.498629 0
M  V30 1064 H 99.6246 -0.839597 1.70443 0
M  V30 1065 H 97.7746 -3.29553 2.05736 0
M  V30 1066 H 99.4466 -1.84601 4.22753 0
M  V30 1067 H 97.6896 -1.67213 4.00278 0
M  V30 1068 H 98.3606 -3.23738 4.47099 0
M  V30 1069 H 100.837 -3.29203 2.54489 0
M  V30 1070 H 99.7126 -4.60008 2.99472 0
M  V30 1071 H 99.9736 -4.22603 1.29842 0
M  V30 1072 N 99.0327 -1.24633 -0.964593 0
M  V30 1073 C 99.9957 -1.0424 -2.04124 0
M  V30 1074 C 100.996 0.00137563 -1.608 0
M  V30 1075 O 102.186 -0.239883 -1.7254 0
M  V30 1076 C 99.3177 -0.580588 -3.3592 0
M  V30 1077 H 100.511 -1.99803 -2.23649 0
M  V30 1078 H 98.0637 -1.06899 -1.14027 0
M  V30 1079 H 98.7987 0.3781 -3.22088 0
M  V30 1080 H 98.5837 -1.33398 -3.6871 0
M  V30 1081 H 100.074 -0.459034 -4.15069 0
M  V30 1082 N 100.511 1.16574 -1.06058 0
M  V30 1083 C 101.474 2.19085 -0.673392 0
M  V30 1084 C 102.474 1.5835 0.279648 0
M  V30 1085 O 103.664 1.74088 0.0623488 0
M  V30 1086 C 100.796 3.40899 0.00954234 0
M  V30 1087 H 101.989 2.54853 -1.58081 0
M  V30 1088 H 99.5418 1.30808 -0.855516 0
M  V30 1089 H 100.277 3.10684 0.929826 0
M  V30 1090 H 100.062 3.86233 -0.67573 0
M  V30 1091 H 101.552 4.1675 0.266245 0
M  V30 1092 N 101.989 0.842826 1.3317 0
M  V30 1093 C 102.936 0.276885 2.29133 0
M  V30 1094 C 103.906 -0.609527 1.54512 0
M  V30 1095 O 105.091 -0.546955 1.82792 0
M  V30 1096 C 102.231 -0.538707 3.40869 0
M  V30 1097 C 101.344 0.372169 4.30394 0
M  V30 1098 C 100.479 -0.454908 5.29249 0
M  V30 1099 C 99.5179 0.45411 6.10413 0
M  V30 1100 N 98.6549 -0.335075 7.013 0
M  V30 1101 H 103.495 1.10052 2.76934 0
M  V30 1102 H 101.032 0.554161 1.36262 0
M  V30 1103 H 102.99 -1.02709 4.0436 0
M  V30 1104 H 101.62 -1.32727 2.9425 0
M  V30 1105 H 100.672 0.97888 3.6759 0
M  V30 1106 H 101.984 1.0703 4.87182 0
M  V30 1107 H 101.138 -1.00695 5.98285 0
M  V30 1108 H 99.8769 -1.18646 4.73048 0
M  V30 1109 H 98.8819 1.01813 5.40291 0
M  V30 1110 H 100.107 1.18409 6.68697 0
M  V30 1111 H 98.0529 -1.04994 6.47543 0
M  V30 1112 H 97.9699 0.304262 7.55387 0
M  V30 1113 H 99.2379 -0.869224 7.74638 0
M  V30 1114 N 103.467 -1.45747 0.599634 0
M  V30 1115 C 104.377 -2.34262 -0.125888 0
M  V30 1116 C 105.393 -1.50768 -0.868625 0
M  V30 1117 O 106.569 -1.83592 -0.828003 0
M  V30 1118 C 103.634 -3.28252 -1.11587 0
M  V30 1119 C 102.695 -4.27651 -0.375956 0
M  V30 1120 C 101.928 -5.1715 -1.31877 0
M  V30 1121 O 102.151 -5.09916 -2.55621 0
M  V30 1122 O 101.085 -5.96286 -0.820157 0
M  V30 1123 H 104.911 -2.97688 0.601315 0
M  V30 1124 H 102.496 -1.44999 0.359934 0
M  V30 1125 H 104.378 -3.86191 -1.68626 0
M  V30 1126 H 103.053 -2.67401 -1.82424 0
M  V30 1127 H 101.96 -3.7335 0.236698 0
M  V30 1128 H 103.293 -4.91334 0.29177 0
M  V30 1129 N 104.945 -0.338344 -1.53925 0
M  V30 1130 C 106.175 0.260919 -2.04946 0
M  V30 1131 C 106.583 1.45174 -1.2133 0
M  V30 1132 O 105.926 1.82122 -0.240262 0
M  V30 1133 C 105.988 0.744596 -3.51704 0
M  V30 1134 C 105.652 -0.325883 -4.55837 0
M  V30 1135 C 106.649 -1.16687 -5.06636 0
M  V30 1136 C 104.334 -0.478317 -5.00017 0
M  V30 1137 C 106.328 -2.14588 -6.00192 0
M  V30 1138 C 104.015 -1.46073 -5.93385 0
M  V30 1139 C 105.013 -2.29297 -6.4336 0
M  V30 1140 O 104.701 -3.25867 -7.34892 0
M  V30 1141 H 104.433 0.0551207 -0.673749 0
M  V30 1142 H 106.987 -0.486984 -1.99544 0
M  V30 1143 H 105.217 1.54366 -3.54553 0
M  V30 1144 H 106.906 1.26383 -3.85723 0
M  V30 1145 H 107.672 -1.06016 -4.73271 0
M  V30 1146 H 103.551 0.159613 -4.60724 0
M  V30 1147 H 107.095 -2.79585 -6.39123 0
M  V30 1148 H 102.992 -1.56802 -6.26166 0
M  V30 1149 H 103.76 -3.21278 -7.5281 0
M  V30 1150 N 106.423 1.57458 -0.0668435 0
M  V30 1151 C 107.386 2.11323 0.887422 0
M  V30 1152 C 108.386 1.03618 1.22964 0
M  V30 1153 O 109.576 1.29626 1.16373 0
M  V30 1154 C 106.708 2.61048 2.19242 0
M  V30 1155 H 107.901 2.96942 0.420194 0
M  V30 1156 H 105.454 1.55239 0.181793 0
M  V30 1157 H 106.189 1.78868 2.70512 0
M  V30 1158 H 105.974 3.39769 1.95702 0
M  V30 1159 H 107.464 3.02814 2.87565 0
M  V30 1160 N 107.901 -0.206675 1.56239 0
M  V30 1161 C 109.129 -0.945345 1.8404 0
M  V30 1162 C 109.544 -1.77336 0.647885 0
M  V30 1163 O 108.901 -1.78425 -0.383511 0
M  V30 1164 C 108.952 -1.8509 3.10522 0
M  V30 1165 O 108.673 -1.05634 4.25174 0
M  V30 1166 C 110.174 -2.70222 3.51418 0
M  V30 1167 H 107.394 -0.276372 0.61144 0
M  V30 1168 H 109.938 -0.217417 2.03341 0
M  V30 1169 H 108.093 -2.53259 2.93153 0
M  V30 1170 H 108.507 -1.67238 4.97124 0
M  V30 1171 H 109.981 -3.29438 4.42916 0
M  V30 1172 H 110.458 -3.43358 2.73864 0
M  V30 1173 H 111.064 -2.07443 3.71278 0
M  V30 1174 N 109.379 -1.50304 -0.473955 0
M  V30 1175 C 110.795 -1.37667 -0.807466 0
M  V30 1176 C 110.995 -0.430555 -1.96846 0
M  V30 1177 O 110.051 0.127874 -2.52176 0
M  V30 1178 C 111.364 -2.78974 -1.12223 0
M  V30 1179 C 112.912 -2.87868 -1.22885 0
M  V30 1180 C 113.387 -4.30003 -1.57676 0
M  V30 1181 N 114.878 -4.3294 -1.64673 0
M  V30 1182 C 115.613 -5.3991 -1.93091 0
M  V30 1183 N 115.109 -6.57092 -2.1955 0
M  V30 1184 N 116.902 -5.27351 -1.94569 0
M  V30 1185 H 109.053 -2.10394 0.291212 0
M  V30 1186 H 111.316 -0.945575 0.0677609 0
M  V30 1187 H 111.022 -3.50031 -0.342229 0
M  V30 1188 H 110.896 -3.16038 -2.05913 0
M  V30 1189 H 113.283 -2.17032 -1.99953 0
M  V30 1190 H 113.364 -2.54352 -0.271814 0
M  V30 1191 H 113.008 -5.01375 -0.81149 0
M  V30 1192 H 112.938 -4.61004 -2.54525 0
M  V30 1193 H 115.429 -3.48441 -1.46277 0
M  V30 1194 H 115.742 -7.34425 -2.405 0
M  V30 1195 H 114.087 -6.60272 -2.16948 0
M  V30 1196 H 117.278 -4.34801 -1.73394 0
M  V30 1197 H 117.451 -6.10805 -2.16381 0
M  V30 1198 N 110.857 0.726932 -1.39834 0
M  V30 1199 C 111.787 1.85405 -1.41941 0
M  V30 1200 C 112.768 1.67751 -0.281728 0
M  V30 1201 O 113.953 1.8795 -0.488717 0
M  V30 1202 C 111.083 3.23243 -1.2701 0
M  V30 1203 C 110.037 3.55549 -2.38262 0
M  V30 1204 C 109.363 4.9241 -2.08415 0
M  V30 1205 C 110.663 3.577 -3.80589 0
M  V30 1206 H 112.357 1.83899 -2.36266 0
M  V30 1207 H 109.903 0.883349 -1.13723 0
M  V30 1208 H 111.856 4.01775 -1.27103 0
M  V30 1209 H 110.58 3.25296 -0.291564 0
M  V30 1210 H 109.239 2.79351 -2.37399 0
M  V30 1211 H 108.887 4.91052 -1.0898 0
M  V30 1212 H 108.587 5.14992 -2.82943 0
M  V30 1213 H 110.111 5.73289 -2.10171 0
M  V30 1214 H 111.525 4.26293 -3.83337 0
M  V30 1215 H 109.922 3.91804 -4.54543 0
M  V30 1216 H 110.992 2.57328 -4.10987 0
M  V30 1217 N 112.336 1.25143 0.95797 0
M  V30 1218 C 113.266 1.07711 2.07173 0
M  V30 1219 C 114.247 -0.0128462 1.70095 0
M  V30 1220 O 115.432 0.156061 1.93572 0
M  V30 1221 C 112.562 0.691503 3.40346 0
M  V30 1222 C 111.516 1.73132 3.9142 0
M  V30 1223 C 110.842 1.20049 5.21049 0
M  V30 1224 C 112.142 3.1294 4.1817 0
M  V30 1225 H 113.836 2.00873 2.22014 0
M  V30 1226 H 111.382 0.967191 1.06684 0
M  V30 1227 H 113.335 0.556505 4.17709 0
M  V30 1228 H 112.059 -0.275819 3.25433 0
M  V30 1229 H 110.718 1.8547 3.16222 0
M  V30 1230 H 110.366 0.223499 5.02503 0
M  V30 1231 H 110.066 1.89545 5.56189 0
M  V30 1232 H 111.59 1.07782 6.01012 0
M  V30 1233 H 113.004 3.03775 4.86203 0
M  V30 1234 H 111.401 3.79875 4.64559 0
M  V30 1235 H 112.471 3.6025 3.24573 0
M  V30 1236 N 113.814 -1.1601 1.06675 0
M  V30 1237 C 114.777 -2.18724 0.685001 0
M  V30 1238 C 115.777 -1.58496 -0.271246 0
M  V30 1239 O 116.967 -1.74119 -0.0531156 0
M  V30 1240 C 114.099 -3.40899 0.00853648 0
M  V30 1241 H 115.292 -2.54011 1.59431 0
M  V30 1242 H 112.845 -1.30352 0.862441 0
M  V30 1243 H 113.58 -3.11173 -0.913337 0
M  V30 1244 H 113.365 -3.8587 0.696204 0
M  V30 1245 H 114.855 -4.16886 -0.24414 0
M  V30 1246 N 115.292 -0.849877 -1.32721 0
M  V30 1247 C 116.222 -0.306308 -2.31482 0
M  V30 1248 C 117.203 0.591952 -1.59468 0
M  V30 1249 O 118.388 0.513199 -1.87296 0
M  V30 1250 C 115.518 0.510204 -3.43532 0
M  V30 1251 C 114.472 -0.293209 -4.26994 0
M  V30 1252 C 113.798 0.647743 -5.30762 0
M  V30 1253 C 115.098 -1.51634 -4.99804 0
M  V30 1254 H 116.792 -1.13153 -2.77195 0
M  V30 1255 H 114.338 -0.545553 -1.33266 0
M  V30 1256 H 116.291 0.900856 -4.11658 0
M  V30 1257 H 115.015 1.36874 -2.96535 0
M  V30 1258 H 113.674 -0.665555 -3.60508 0
M  V30 1259 H 113.322 1.50299 -4.8002 0
M  V30 1260 H 113.022 0.11422 -5.87489 0
M  V30 1261 H 114.546 1.03567 -6.01753 0
M  V30 1262 H 115.96 -1.19824 -5.60638 0
M  V30 1263 H 114.357 -1.98745 -5.66234 0
M  V30 1264 H 115.427 -2.28018 -4.27943 0
M  V30 1265 N 116.77 1.45427 -0.607355 0
M  V30 1266 C 118.186 1.57283 -0.270985 0
M  V30 1267 C 118.386 1.59875 1.22647 0
M  V30 1268 O 117.442 1.52893 2.00948 0
M  V30 1269 C 118.755 2.85566 -0.941952 0
M  V30 1270 C 120.303 2.9924 -0.917849 0
M  V30 1271 C 120.778 4.30293 -1.56882 0
M  V30 1272 N 122.269 4.37051 -1.5343 0
M  V30 1273 C 123.004 5.37123 -2.00715 0
M  V30 1274 N 122.5 6.43734 -2.56084 0
M  V30 1275 N 124.293 5.28479 -1.91484 0
M  V30 1276 H 116.444 1.41988 -1.57966 0
M  V30 1277 H 118.707 0.67885 -0.661715 0
M  V30 1278 H 118.413 2.8955 -1.99633 0
M  V30 1279 H 118.287 3.74322 -0.465096 0
M  V30 1280 H 120.674 2.94822 0.127984 0
M  V30 1281 H 120.755 2.11895 -1.43297 0
M  V30 1282 H 120.399 4.35469 -2.61398 0
M  V30 1283 H 120.329 5.16454 -1.02873 0
M  V30 1284 H 122.82 3.60615 -1.12982 0
M  V30 1285 H 123.133 7.16341 -2.89958 0
M  V30 1286 H 121.478 6.44485 -2.60122 0
M  V30 1287 H 124.669 4.44098 -1.47967 0
M  V30 1288 H 124.842 6.0632 -2.28648 0
M  V30 1289 N 118.248 0.346503 1.53744 0
M  V30 1290 C 119.158 -0.517293 2.28826 0
M  V30 1291 C 120.174 -1.10935 1.3405 0
M  V30 1292 O 121.35 -1.1244 1.6709 0
M  V30 1293 C 118.415 -1.65098 3.04866 0
M  V30 1294 C 117.476 -1.0884 4.15274 0
M  V30 1295 C 116.709 -2.16806 4.87679 0
M  V30 1296 O 116.932 -3.3758 4.59778 0
M  V30 1297 O 115.866 -1.80934 5.74061 0
M  V30 1298 H 119.692 0.0931396 3.03557 0
M  V30 1299 H 117.277 0.111458 1.48984 0
M  V30 1300 H 119.159 -2.31053 3.5241 0
M  V30 1301 H 117.834 -2.24717 2.32989 0
M  V30 1302 H 116.741 -0.3933 3.72027 0
M  V30 1303 H 118.074 -0.537036 4.89261 0
M  V30 1304 N 119.726 -1.57421 0.075193 0
M  V30 1305 C 120.636 -2.1642 -0.905511 0
M  V30 1306 C 121.652 -1.12828 -1.32461 0
M  V30 1307 O 122.828 -1.45109 -1.39661 0
M  V30 1308 C 119.893 -2.71693 -2.15369 0
M  V30 1309 C 118.954 -3.90171 -1.79068 0
M  V30 1310 C 118.187 -4.42798 -2.97936 0
M  V30 1311 O 118.41 -3.94416 -4.12058 0
M  V30 1312 O 117.344 -5.34085 -2.77555 0
M  V30 1313 H 121.17 -3.00588 -0.433626 0
M  V30 1314 H 118.755 -1.48664 -0.148067 0
M  V30 1315 H 120.637 -3.07104 -2.88557 0
M  V30 1316 H 119.312 -1.90582 -2.61649 0
M  V30 1317 H 118.219 -3.59606 -1.03122 0
M  V30 1318 H 119.552 -4.72584 -1.37569 0
M  V30 1319 N 121.204 0.198386 -1.56346 0
M  V30 1320 C 122.134 1.24865 -1.9731 0
M  V30 1321 C 123.115 1.47651 -0.844576 0
M  V30 1322 O 124.3 1.59444 -1.10866 0
M  V30 1323 C 121.43 2.59358 -2.30977 0
M  V30 1324 C 120.384 2.5119 -3.46537 0
M  V30 1325 C 119.71 3.89926 -3.65871 0
M  V30 1326 C 121.01 2.03977 -4.80823 0
M  V30 1327 H 122.704 0.908252 -2.85291 0
M  V30 1328 H 120.25 0.435462 -1.37258 0
M  V30 1329 H 122.203 3.33011 -2.58228 0
M  V30 1330 H 120.927 2.95132 -1.39874 0
M  V30 1331 H 119.586 1.79993 -3.19371 0
M  V30 1332 H 119.234 4.23046 -2.72105 0
M  V30 1333 H 118.934 3.85336 -4.4361 0
M  V30 1334 H 120.458 4.65205 -3.95495 0
M  V30 1335 H 121.872 2.67386 -5.07127 0
M  V30 1336 H 120.269 2.10397 -5.62008 0
M  V30 1337 H 121.339 0.992861 -4.74626 0
M  V30 1338 N 122.682 1.50554 0.465978 0
M  V30 1339 C 123.629 1.6979 1.56333 0
M  V30 1340 C 124.599 0.539239 1.57103 0
M  V30 1341 O 125.784 0.770401 1.74555 0
M  V30 1342 C 122.924 1.80273 2.94271 0
M  V30 1343 C 122.037 3.07674 3.0325 0
M  V30 1344 C 121.172 3.08922 4.32135 0
M  V30 1345 C 120.211 4.30755 4.34875 0
M  V30 1346 N 119.348 4.29714 5.55239 0
M  V30 1347 H 124.188 2.63472 1.39235 0
M  V30 1348 H 121.725 1.30602 0.676873 0
M  V30 1349 H 123.683 1.84332 3.74269 0
M  V30 1350 H 122.313 0.900258 3.09992 0
M  V30 1351 H 121.365 3.13062 2.16094 0
M  V30 1352 H 122.677 3.97642 3.01135 0
M  V30 1353 H 121.831 3.11738 5.20485 0
M  V30 1354 H 120.57 2.16792 4.36866 0
M  V30 1355 H 119.575 4.28146 3.44922 0
M  V30 1356 H 120.8 5.24117 4.31831 0
M  V30 1357 H 118.746 3.4044 5.60746 0
M  V30 1358 H 118.663 5.13456 5.54886 0
M  V30 1359 H 119.931 4.36683 6.457 0
M  V30 1360 N 124.16 -0.719506 1.40217 0
M  V30 1361 C 125.437 -1.47221 1.28784 0
M  V30 1362 C 125.817 -2.10883 -0.0956067 0
M  V30 1363 O 125.165 -1.99833 -1.10811 0
M  V30 1364 C 125.375 -2.5111 2.42373 0
M  V30 1365 C 126.723 -3.17053 2.82423 0
M  V30 1366 O 127.747 -2.61429 2.41937 0
M  V30 1367 O 126.606 -4.17742 3.52355 0
M  V30 1368 H 123.7 -0.654491 0.50554 0
M  V30 1369 H 126.246 -0.752014 1.52128 0
M  V30 1370 H 125.018 -2.02556 3.34793 0
M  V30 1371 H 124.641 -3.3067 2.20778 0
M  V30 1372 N 125.638 -1.25649 -0.95132 0
M  V30 1373 C 126.548 -1.08073 -2.08224 0
M  V30 1374 C 127.564 -0.0169666 -1.73992 0
M  V30 1375 O 128.74 -0.218593 -2.0021 0
M  V30 1376 C 125.805 -0.704922 -3.39458 0
M  V30 1377 C 124.866 -1.84699 -3.87537 0
M  V30 1378 C 124.099 -1.48902 -5.12508 0
M  V30 1379 O 124.322 -0.386156 -5.69091 0
M  V30 1380 O 123.256 -2.32033 -5.55378 0
M  V30 1381 H 127.082 -2.02924 -2.25954 0
M  V30 1382 H 124.667 -1.04618 -1.06656 0
M  V30 1383 H 126.549 -0.507609 -4.18332 0
M  V30 1384 H 125.224 0.214291 -3.2299 0
M  V30 1385 H 124.131 -2.09919 -3.09653 0
M  V30 1386 H 125.464 -2.74557 -4.08509 0
M  V30 1387 N 127.117 1.15442 -1.07289 0
M  V30 1388 C 128.047 2.22312 -0.714107 0
M  V30 1389 C 129.028 1.67467 0.298155 0
M  V30 1390 O 130.213 1.93445 0.171048 0
M  V30 1391 C 127.343 3.47124 -0.110448 0
M  V30 1392 C 126.297 4.14926 -1.04979 0
M  V30 1393 C 125.623 5.33807 -0.308924 0
M  V30 1394 C 126.923 4.64762 -2.38314 0
M  V30 1395 H 128.617 2.5258 -1.6076 0
M  V30 1396 H 126.163 1.21404 -0.77441 0
M  V30 1397 H 128.116 4.21124 0.152482 0
M  V30 1398 H 126.84 3.16187 0.81812 0
M  V30 1399 H 125.499 3.42866 -1.29764 0
M  V30 1400 H 125.147 4.99126 0.623084 0
M  V30 1401 H 124.847 5.80113 -0.935036 0
M  V30 1402 H 126.371 6.10576 -0.0537771 0
M  V30 1403 H 127.785 5.30292 -2.1786 0
M  V30 1404 H 126.182 5.21728 -2.96514 0
M  V30 1405 H 127.252 3.80434 -3.00663 0
M  V30 1406 N 128.595 0.856903 1.32268 0
M  V30 1407 C 129.505 0.306131 2.32594 0
M  V30 1408 C 130.521 -0.577209 1.64147 0
M  V30 1409 O 131.697 -0.477043 1.95669 0
M  V30 1410 C 128.762 -0.494561 3.43154 0
M  V30 1411 C 127.823 0.415186 4.27288 0
M  V30 1412 C 127.056 -0.347387 5.32568 0
M  V30 1413 O 127.279 -1.57708 5.48165 0
M  V30 1414 O 126.213 0.287982 6.01211 0
M  V30 1415 H 130.039 1.13737 2.81598 0
M  V30 1416 H 127.624 0.619902 1.35932 0
M  V30 1417 H 129.506 -0.948944 4.10576 0
M  V30 1418 H 128.181 -1.30257 2.96336 0
M  V30 1419 H 127.088 0.917793 3.62667 0
M  V30 1420 H 128.421 1.18844 4.77637 0
M  V30 1421 N 130.073 -1.45103 0.615059 0
M  V30 1422 C 131.322 -2.01396 0.110718 0
M  V30 1423 C 131.635 -1.48834 -1.26916 0
M  V30 1424 O 132.841 -1.97152 -1.86664 0
M  V30 1425 C 131.297 -3.59599 0.14723 0
M  V30 1426 C 130.905 -4.21158 1.52743 0
M  V30 1427 C 132.649 -4.23428 -0.30148 0
M  V30 1428 C 130.556 -5.71535 1.51992 0
M  V30 1429 H 129.486 -0.753061 0.0376241 0
M  V30 1430 H 132.137 -1.66494 0.77149 0
M  V30 1431 H 130.519 -3.91724 -0.580339 0
M  V30 1432 H 131.693 -4.00594 2.2773 0
M  V30 1433 H 130.008 -3.69552 1.91886 0
M  V30 1434 H 132.605 -5.33703 -0.326392 0
M  V30 1435 H 132.948 -3.94629 -1.32565 0
M  V30 1436 H 133.481 -3.96047 0.373065 0
M  V30 1437 H 130.22 -6.05044 2.52193 0
M  V30 1438 H 129.74 -5.94268 0.81274 0
M  V30 1439 H 131.419 -6.34873 1.24681 0
M  V30 1440 N 131.551 -0.354651 -1.53558 0
M  V30 1441 C 132.797 0.238797 -2.01389 0
M  V30 1442 C 133.13 1.49309 -1.2418 0
M  V30 1443 O 132.405 1.91638 -0.332457 0
M  V30 1444 C 132.688 0.541771 -3.56001 0
M  V30 1445 C 132.541 -0.725388 -4.43912 0
M  V30 1446 C 133.86 1.34685 -4.18984 0
M  V30 1447 H 130.979 0.0853177 -0.732045 0
M  V30 1448 H 133.621 -0.477384 -1.83905 0
M  V30 1449 H 131.771 1.15189 -3.71031 0
M  V30 1450 H 133.443 -1.36313 -4.407 0
M  V30 1451 H 131.686 -1.34801 -4.12324 0
M  V30 1452 H 132.357 -0.468505 -5.50008 0
M  V30 1453 H 134.833 0.830837 -4.07721 0
M  V30 1454 H 133.709 1.52759 -5.27215 0
M  V30 1455 H 133.97 2.35221 -3.74331 0
M  V30 1456 N 133.029 1.57378 -0.0835403 0
M  V30 1457 C 133.962 2.09016 0.915833 0
M  V30 1458 C 134.94 0.997993 1.2837 0
M  V30 1459 O 136.124 1.27219 1.39096 0
M  V30 1460 C 133.251 2.55757 2.22049 0
M  V30 1461 C 132.297 3.76522 2.00333 0
M  V30 1462 S 133.13 5.20661 1.25191 0
M  V30 1463 C 134.286 5.70743 2.56912 0
M  V30 1464 H 134.519 2.93457 0.476492 0
M  V30 1465 H 132.052 1.53856 0.129493 0
M  V30 1466 H 134.01 2.83346 2.97027 0
M  V30 1467 H 132.671 1.71564 2.63106 0
M  V30 1468 H 131.864 4.07256 2.96916 0
M  V30 1469 H 131.466 3.49367 1.33488 0
M  V30 1470 H 133.758 5.78304 3.52946 0
M  V30 1471 H 134.701 6.6944 2.30772 0
M  V30 1472 H 135.109 4.98616 2.64655 0
M  V30 1473 N 134.507 -0.190092 1.56449 0
M  V30 1474 C 135.923 -0.54113 1.50146 0
M  V30 1475 C 136.123 -1.85603 0.784465 0
M  V30 1476 O 135.179 -2.5024 0.337051 0
M  V30 1477 C 136.492 -0.591241 2.9483 0
M  V30 1478 C 138.04 -0.679732 3.0553 0
M  V30 1479 C 138.515 -0.760908 4.51635 0
M  V30 1480 N 140.006 -0.824302 4.55806 0
M  V30 1481 C 140.741 -0.907365 5.66175 0
M  V30 1482 N 140.237 -0.952422 6.86222 0
M  V30 1483 N 142.03 -0.94494 5.541 0
M  V30 1484 H 134.181 0.67235 2.01478 0
M  V30 1485 H 136.444 0.240127 0.917084 0
M  V30 1486 H 136.15 0.305905 3.50367 0
M  V30 1487 H 136.024 -1.44422 3.48457 0
M  V30 1488 H 138.411 -1.56731 2.50039 0
M  V30 1489 H 138.492 0.199549 2.5502 0
M  V30 1490 H 138.136 0.122336 5.07753 0
M  V30 1491 H 138.066 -1.65606 4.99882 0
M  V30 1492 H 140.557 -0.798526 3.69367 0
M  V30 1493 H 140.87 -1.01645 7.66086 0
M  V30 1494 H 139.215 -0.921014 6.8887 0
M  V30 1495 H 142.406 -0.906612 4.59236 0
M  V30 1496 H 142.579 -1.00622 6.4014 0
M  V30 1497 N 135.985 -1.50799 -0.457987 0
M  V30 1498 C 137.231 -1.62683 -1.21088 0
M  V30 1499 C 137.564 -0.332268 -1.91336 0
M  V30 1500 O 136.839 0.667043 -1.82704 0
M  V30 1501 C 137.122 -2.81615 -2.24422 0
M  V30 1502 C 136.975 -4.20989 -1.58392 0
M  V30 1503 C 138.294 -2.96085 -3.2561 0
M  V30 1504 H 135.413 -0.592087 -0.438864 0
M  V30 1505 H 138.055 -1.83225 -0.50286 0
M  V30 1506 H 136.205 -2.64231 -2.84806 0
M  V30 1507 H 137.877 -4.49994 -1.01504 0
M  V30 1508 H 136.12 -4.24641 -0.886704 0
M  V30 1509 H 136.791 -5.0016 -2.33547 0
M  V30 1510 H 139.267 -3.12042 -2.75262 0
M  V30 1511 H 138.143 -3.80902 -3.95228 0
M  V30 1512 H 138.404 -2.0726 -3.90507 0
M  V30 1513 N 137.463 0.71206 -1.40597 0
M  V30 1514 C 138.693 1.49894 -1.42181 0
M  V30 1515 C 139.101 1.89189 -0.0208078 0
M  V30 1516 O 138.444 1.56223 0.966436 0
M  V30 1517 C 138.506 2.80215 -2.25211 0
M  V30 1518 C 138.17 2.63221 -3.73582 0
M  V30 1519 C 139.167 2.30249 -4.66135 0
M  V30 1520 C 136.852 2.79376 -4.17438 0
M  V30 1521 C 138.846 2.13645 -6.00529 0
M  V30 1522 C 136.533 2.6239 -5.51901 0
M  V30 1523 C 137.531 2.29573 -6.43262 0
M  V30 1524 O 137.219 2.12719 -7.75246 0
M  V30 1525 H 136.951 0.469031 -0.486812 0
M  V30 1526 H 139.505 0.88564 -1.85326 0
M  V30 1527 H 137.735 3.4389 -1.76852 0
M  V30 1528 H 139.424 3.41947 -2.18694 0
M  V30 1529 H 140.19 2.17398 -4.33547 0
M  V30 1530 H 136.069 3.03906 -3.46644 0
M  V30 1531 H 139.613 1.87953 -6.71803 0
M  V30 1532 H 135.51 2.74826 -5.84073 0
M  V30 1533 H 136.278 2.27611 -7.86216 0
M  V30 1534 N 138.941 1.26152 0.944643 0
M  V30 1535 C 140.188 1.11492 1.69044 0
M  V30 1536 C 140.516 -0.342366 1.91463 0
M  V30 1537 O 139.771 -1.26812 1.49054 0
M  V30 1538 C 140.07 1.82541 3.07268 0
M  V30 1539 C 139.736 3.32445 3.04616 0
M  V30 1540 C 138.398 3.73337 3.036 0
M  V30 1541 C 140.75 4.28171 2.97185 0
M  V30 1542 C 138.078 5.08348 2.92915 0
M  V30 1543 C 140.43 5.63218 2.88041 0
M  V30 1544 C 139.094 6.03426 2.85366 0
M  V30 1545 H 138.364 0.407977 0.618576 0
M  V30 1546 H 141.011 1.56551 1.10291 0
M  V30 1547 H 139.316 1.29941 3.69625 0
M  V30 1548 H 141.013 1.68642 3.63815 0
M  V30 1549 H 137.603 2.99915 3.06185 0
M  V30 1550 H 141.787 3.97563 2.97081 0
M  V30 1551 H 137.043 5.38667 2.89219 0
M  V30 1552 H 141.217 6.37078 2.81254 0
M  V30 1553 H 138.844 7.07999 2.76842 0
M  V30 1554 N 140.419 -1.14872 1.07899 0
M  V30 1555 C 141.329 -2.2341 0.715915 0
M  V30 1556 C 142.345 -1.71808 -0.275306 0
M  V30 1557 O 143.521 -2.01039 -0.120545 0
M  V30 1558 C 140.586 -3.46474 0.125168 0
M  V30 1559 C 139.647 -4.13039 1.17034 0
M  V30 1560 C 138.88 -5.30229 0.607688 0
M  V30 1561 O 139.103 -5.675 -0.574497 0
M  V30 1562 O 138.037 -5.86444 1.35526 0
M  V30 1563 H 141.863 -2.56808 1.62121 0
M  V30 1564 H 139.448 -1.22702 0.852322 0
M  V30 1565 H 141.33 -4.20917 -0.201729 0
M  V30 1566 H 140.005 -3.14811 -0.753364 0
M  V30 1567 H 138.912 -3.40493 1.54968 0
M  V30 1568 H 140.245 -4.48796 2.02097 0
M  V30 1569 N 141.898 -0.863906 -1.31812 0
M  V30 1570 C 142.845 -0.313303 -2.28664 0
M  V30 1571 C 143.815 0.584868 -1.55462 0
M  V30 1572 O 145 0.517805 -1.83639 0
M  V30 1573 C 142.14 0.48441 -3.41683 0
M  V30 1574 C 141.253 -0.440594 -4.29747 0
M  V30 1575 C 140.388 0.370652 -5.29905 0
M  V30 1576 C 139.427 -0.551164 -6.09613 0
M  V30 1577 N 138.564 0.223462 -7.01744 0
M  V30 1578 H 143.404 -1.14444 -2.75148 0
M  V30 1579 H 140.941 -0.575769 -1.35364 0
M  V30 1580 H 142.899 0.962627 -4.05943 0
M  V30 1581 H 141.529 1.28029 -2.96325 0
M  V30 1582 H 140.581 -1.03724 -3.65986 0
M  V30 1583 H 141.893 -1.14767 -4.85417 0
M  V30 1584 H 141.047 0.911638 -5.99812 0
M  V30 1585 H 139.786 1.11105 -4.74876 0
M  V30 1586 H 138.791 -1.10396 -5.38603 0
M  V30 1587 H 140.016 -1.29032 -6.66729 0
M  V30 1588 H 137.962 0.946787 -6.49132 0
M  V30 1589 H 137.879 -0.424399 -7.54808 0
M  V30 1590 H 139.147 0.745876 -7.75923 0
M  V30 1591 N 143.376 1.44774 -0.622745 0
M  V30 1592 C 144.787 1.85546 -0.207226 0
M  V30 1593 C 145.138 1.52093 1.23944 0
M  V30 1594 O 144.263 0.95492 1.94191 0
M  V30 1595 C 144.858 3.36781 -0.369313 0
M  V30 1596 C 143.417 3.76399 -0.00836847 0
M  V30 1597 C 142.564 2.68664 -0.686651 0
M  V30 1598 H 145.515 1.3536 -0.828454 0
M  V30 1599 H 145.536 3.78453 0.394162 0
M  V30 1600 H 145.048 3.61098 -1.42231 0
M  V30 1601 H 143.149 3.57698 1.04322 0
M  V30 1602 H 143.262 4.7732 -0.412584 0
M  V30 1603 H 141.626 2.54404 -0.122777 0
M  V30 1604 H 142.409 2.95815 -1.74208 0
M  V30 1605 N 144.854 0.36279 1.53368 0
M  V30 1606 C 146.27 0.0116182 1.59596 0
M  V30 1607 C 146.47 -1.47012 1.37803 0
M  V30 1608 O 145.526 -2.23136 1.18181 0
M  V30 1609 C 146.839 0.465052 2.97082 0
M  V30 1610 C 148.387 0.419033 3.10182 0
M  V30 1611 C 148.862 0.848235 4.50077 0
M  V30 1612 N 150.353 0.803183 4.56183 0
M  V30 1613 C 151.088 1.107 5.62613 0
M  V30 1614 N 150.584 1.47996 6.76808 0
M  V30 1615 N 152.377 1.02998 5.52583 0
M  V30 1616 H 144.528 1.32775 1.65785 0
M  V30 1617 H 146.791 0.542518 0.777417 0
M  V30 1618 H 146.497 1.49892 3.18159 0
M  V30 1619 H 146.371 -0.149786 3.76902 0
M  V30 1620 H 148.758 -0.605696 2.88817 0
M  V30 1621 H 148.839 1.06933 2.32377 0
M  V30 1622 H 148.483 1.87107 4.7218 0
M  V30 1623 H 148.413 0.175218 5.26308 0
M  V30 1624 H 150.904 0.52838 3.74188 0
M  V30 1625 H 151.217 1.69613 7.53957 0
M  V30 1626 H 149.562 1.51859 6.78206 0
M  V30 1627 H 152.753 0.737817 4.62249 0
M  V30 1628 H 152.926 1.2701 6.35431 0
M  V30 1629 N 146.332 -1.57332 0.0918853 0
M  V30 1630 C 147.56 -1.98574 -0.581048 0
M  V30 1631 C 147.975 -0.970903 -1.61923 0
M  V30 1632 O 147.332 0.0399054 -1.82456 0
M  V30 1633 C 147.383 -3.39872 -1.23164 0
M  V30 1634 O 147.104 -4.37469 -0.234989 0
M  V30 1635 C 148.605 -3.96099 -1.99049 0
M  V30 1636 H 145.825 -0.65261 -0.156018 0
M  V30 1637 H 148.369 -2.0379 0.170225 0
M  V30 1638 H 146.524 -3.35679 -1.93386 0
M  V30 1639 H 146.938 -5.19751 -0.70418 0
M  V30 1640 H 148.412 -4.97127 -2.39934 0
M  V30 1641 H 148.889 -3.3374 -2.85507 0
M  V30 1642 H 149.495 -4.03755 -1.3365 0
M  V30 1643 N 147.81 0.181792 -1.56548 0
M  V30 1644 C 149.038 0.915947 -1.85521 0
M  V30 1645 C 149.453 1.76282 -0.676016 0
M  V30 1646 O 148.81 1.79012 0.355077 0
M  V30 1647 C 148.861 1.80126 -3.13427 0
M  V30 1648 O 148.582 0.988562 -4.26801 0
M  V30 1649 C 150.083 2.64597 -3.55673 0
M  V30 1650 H 147.303 0.26661 -0.61576 0
M  V30 1651 H 149.847 0.185039 -2.03661 0
M  V30 1652 H 148.002 2.48563 -2.97145 0
M  V30 1653 H 148.416 1.59308 -4.99721 0
M  V30 1654 H 149.89 3.2235 -4.48101 0
M  V30 1655 H 150.367 3.38958 -2.79292 0
M  V30 1656 H 150.973 2.0151 -3.74532 0
M  V30 1657 N 149.288 1.51039 0.449983 0
M  V30 1658 C 150.534 1.63322 1.20223 0
M  V30 1659 C 150.867 0.34241 1.91158 0
M  V30 1660 O 150.142 -0.657344 1.83055 0
M  V30 1661 C 150.425 2.82801 2.22925 0
M  V30 1662 C 150.278 4.21823 1.56157 0
M  V30 1663 C 151.597 2.97807 3.24035 0
M  V30 1664 H 148.716 0.594407 0.435718 0
M  V30 1665 H 151.358 1.83489 0.493136 0
M  V30 1666 H 149.508 2.65738 2.834 0
M  V30 1667 H 151.18 4.50526 0.991162 0
M  V30 1668 H 149.423 4.25105 0.864172 0
M  V30 1669 H 150.094 5.01391 2.30891 0
M  V30 1670 H 152.57 3.13497 2.73603 0
M  V30 1671 H 151.446 3.82992 3.93202 0
M  V30 1672 H 151.707 2.09328 3.89402 0
M  V30 1673 N 150.766 -0.704594 1.40972 0
M  V30 1674 C 152.014 -1.46169 1.39568 0
M  V30 1675 C 152.335 -1.95 0.00253745 0
M  V30 1676 O 151.605 -1.71095 -0.954114 0
M  V30 1677 H 150.185 -0.542326 0.513704 0
M  V30 1678 H 152.847 -0.834553 1.76128 0
M  V30 1679 H 151.943 -2.32922 2.07735 0
M  V30 1680 N 152.244 -1.26651 -0.937939 0
M  V30 1681 C 153.49 -1.13562 -1.68746 0
M  V30 1682 C 153.845 0.317241 -1.89767 0
M  V30 1683 O 153.138 1.22939 -1.46957 0
M  V30 1684 C 153.332 -1.84168 -3.06295 0
M  V30 1685 C 153.161 -3.36171 -2.98696 0
M  V30 1686 C 151.931 -4.05468 -3.01535 0
M  V30 1687 C 154.129 -4.32312 -2.78588 0
M  V30 1688 N 152.111 -5.44118 -2.84269 0
M  V30 1689 C 153.482 -5.58159 -2.69924 0
M  V30 1690 C 155.537 -4.22524 -2.63396 0
M  V30 1691 C 154.24 -6.75335 -2.47618 0
M  V30 1692 C 156.266 -5.39411 -2.42466 0
M  V30 1693 C 155.628 -6.64208 -2.34536 0
M  V30 1694 H 151.727 -0.470361 -0.624728 0
M  V30 1695 H 154.311 -1.59982 -1.10968 0
M  V30 1696 H 152.482 -1.40219 -3.62206 0
M  V30 1697 H 154.214 -1.63674 -3.70126 0
M  V30 1698 H 150.969 -3.56854 -3.11372 0
M  V30 1699 H 151.393 -6.1693 -2.78795 0
M  V30 1700 H 156.035 -3.26771 -2.68292 0
M  V30 1701 H 153.753 -7.71182 -2.41463 0
M  V30 1702 H 157.339 -5.33711 -2.31611 0
M  V30 1703 H 156.219 -7.53129 -2.18555 0
M  V30 1704 N 153.722 1.14298 -1.08507 0
M  V30 1705 C 154.669 2.19414 -0.715965 0
M  V30 1706 C 155.639 1.63399 0.298326 0
M  V30 1707 O 156.824 1.89929 0.182101 0
M  V30 1708 C 153.964 3.44845 -0.132534 0
M  V30 1709 C 153.077 4.15007 -1.19973 0
M  V30 1710 C 152.212 5.28024 -0.580048 0
M  V30 1711 C 151.251 5.9002 -1.62921 0
M  V30 1712 N 150.388 6.94485 -1.03125 0
M  V30 1713 H 155.228 2.50336 -1.61666 0
M  V30 1714 H 152.765 1.2293 -0.807882 0
M  V30 1715 H 154.723 4.16601 0.223454 0
M  V30 1716 H 153.353 3.14403 0.731467 0
M  V30 1717 H 152.405 3.41629 -1.67313 0
M  V30 1718 H 153.717 4.57178 -1.99473 0
M  V30 1719 H 152.871 6.06455 -0.172364 0
M  V30 1720 H 151.61 4.87076 0.246603 0
M  V30 1721 H 150.615 5.10291 -2.04654 0
M  V30 1722 H 151.84 6.33042 -2.45835 0
M  V30 1723 H 149.786 6.55612 -0.225711 0
M  V30 1724 H 149.703 7.35148 -1.76334 0
M  V30 1725 H 150.971 7.7679 -0.649458 0
M  V30 1726 N 155.201 0.870884 1.31352 0
M  V30 1727 C 156.449 0.48132 1.96285 0
M  V30 1728 C 156.77 -0.969813 1.69173 0
M  V30 1729 O 156.04 -1.67998 1.00764 0
M  V30 1730 H 154.62 0.175002 0.726212 0
M  V30 1731 H 157.282 1.11087 1.60143 0
M  V30 1732 H 156.378 0.639825 3.05471 0
M  V30 1733 N 156.679 -1.44442 0.630414 0
M  V30 1734 C 157.609 -2.33418 -0.0618083 0
M  V30 1735 C 158.59 -1.48165 -0.835541 0
M  V30 1736 O 159.775 -1.76886 -0.801564 0
M  V30 1737 C 156.905 -3.31222 -1.04449 0
M  V30 1738 C 155.859 -4.26288 -0.382436 0
M  V30 1739 C 155.185 -5.13954 -1.47497 0
M  V30 1740 C 156.485 -5.1744 0.710865 0
M  V30 1741 H 158.179 -2.91548 0.681184 0
M  V30 1742 H 155.725 -1.40191 0.329026 0
M  V30 1743 H 157.678 -3.92351 -1.53748 0
M  V30 1744 H 156.402 -2.71299 -1.81836 0
M  V30 1745 H 155.061 -3.6649 0.0899054 0
M  V30 1746 H 154.709 -4.50385 -2.2397 0
M  V30 1747 H 154.409 -5.7837 -1.03737 0
M  V30 1748 H 155.933 -5.77955 -1.96979 0
M  V30 1749 H 157.347 -5.72509 0.300996 0
M  V30 1750 H 155.744 -5.90455 1.07156 0
M  V30 1751 H 156.814 -4.58496 1.57829 0
M  V30 1752 N 158.157 -0.370918 -1.53173 0
M  V30 1753 C 159.406 0.218249 -2.00516 0
M  V30 1754 C 159.719 1.49429 -1.26215 0
M  V30 1755 O 160.925 2.16239 -1.64174 0
M  V30 1756 C 159.381 0.43948 -3.57207 0
M  V30 1757 C 158.989 -0.822244 -4.4039 0
M  V30 1758 C 160.733 0.986012 -4.1289 0
M  V30 1759 C 158.64 -0.570304 -5.88644 0
M  V30 1760 H 157.57 0.0853333 -0.749156 0
M  V30 1761 H 160.221 -0.490483 -1.76823 0
M  V30 1762 H 158.603 1.20961 -3.77074 0
M  V30 1763 H 159.777 -1.59557 -4.32294 0
M  V30 1764 H 158.092 -1.29238 -3.95836 0
M  V30 1765 H 160.689 1.18991 -5.21292 0
M  V30 1766 H 161.032 1.94972 -3.6782 0
M  V30 1767 H 161.565 0.27592 -3.96842 0
M  V30 1768 H 158.304 -1.50449 -6.38001 0
M  V30 1769 H 157.824 0.164427 -5.99575 0
M  V30 1770 H 159.503 -0.19784 -6.46697 0
M  V30 1771 N 159.635 1.57281 -0.100228 0
M  V30 1772 C 160.583 2.15542 0.874328 0
M  V30 1773 C 161.577 1.09962 1.28859 0
M  V30 1774 O 162.783 1.28298 1.26252 0
M  V30 1775 H 159.158 0.689567 0.300003 0
M  V30 1776 H 161.129 2.96241 0.35829 0
M  V30 1777 C 159.878 2.75454 2.1218 0
M  V30 1778 H 159.201 3.56384 1.81193 0
M  V30 1779 H 160.641 3.19781 2.78417 0
M  V30 1780 C 159.1 1.71602 2.89921 0
M  V30 1781 O 159.63 1.15804 3.84646 0
M  V30 1782 N 157.836 1.41975 2.53558 0
M  V30 1783 H 157.383 1.87539 1.76598 0
M  V30 1784 H 157.341 0.727274 3.05873 0
M  V30 1785 N 161.113 -0.173488 1.56642 0
M  V30 1786 C 162.39 -0.917617 1.7274 0
M  V30 1787 C 162.77 -2.00484 0.661027 0
M  V30 1788 O 162.118 -2.26184 -0.32453 0
M  V30 1789 C 162.328 -1.48433 3.15862 0
M  V30 1790 C 163.676 -1.95809 3.76754 0
M  V30 1791 O 164.7 -1.58231 3.19126 0
M  V30 1792 O 163.559 -2.65024 4.77938 0
M  V30 1793 H 160.653 -0.431772 0.705338 0
M  V30 1794 H 163.199 -0.161487 1.6893 0
M  V30 1795 H 161.971 -0.701715 3.84957 0
M  V30 1796 H 161.594 -2.30471 3.23989 0
M  V30 1797 N 162.591 -1.51276 -0.441967 0
M  V30 1798 C 164.002 -1.56244 -1.02199 0
M  V30 1799 C 164.353 -0.383149 -1.92422 0
M  V30 1800 O 163.478 0.500613 -2.1053 0
M  V30 1801 C 164.073 -2.83162 -1.86024 0
M  V30 1802 C 162.632 -2.90716 -2.39084 0
M  V30 1803 C 161.779 -2.50858 -1.18175 0
M  V30 1804 H 164.73 -1.5712 -0.223416 0
M  V30 1805 H 164.751 -2.66663 -2.71425 0
M  V30 1806 H 164.263 -3.68974 -1.20331 0
M  V30 1807 H 162.364 -2.09323 -3.08244 0
M  V30 1808 H 162.477 -3.94266 -2.72198 0
M  V30 1809 H 160.841 -2.03951 -1.52565 0
M  V30 1810 H 161.624 -3.3901 -0.541001 0
M  V30 1811 N 164.069 0.697108 -1.41344 0
M  V30 1812 C 165.019 1.80313 -1.39539 0
M  V30 1813 C 166.003 1.58618 -0.270001 0
M  V30 1814 O 167.195 1.69477 -0.510551 0
M  V30 1815 C 164.324 3.18606 -1.27848 0
M  V30 1816 C 163.41 3.46001 -2.45244 0
M  V30 1817 N 163.801 3.44103 -3.70711 0
M  V30 1818 C 162.099 3.76542 -2.39023 0
M  V30 1819 C 162.8 3.7036 -4.48563 0
M  V30 1820 N 161.776 3.90027 -3.78655 0
M  V30 1821 H 165.578 1.77207 -2.34468 0
M  V30 1822 H 163.092 0.897031 -1.35378 0
M  V30 1823 H 165.089 3.97833 -1.24637 0
M  V30 1824 H 163.749 3.22925 -0.339032 0
M  V30 1825 H 164.76 3.2452 -4.03618 0
M  V30 1826 H 161.437 3.88241 -1.53542 0
M  V30 1827 H 162.827 3.75042 -5.57488 0
M  V30 1828 N 165.547 1.27147 0.931209 0
M  V30 1829 C 166.48 1.0389 2.0318 0
M  V30 1830 C 167.458 -0.0395716 1.62552 0
M  V30 1831 O 168.642 0.104867 1.88208 0
M  V30 1832 C 165.769 0.575227 3.3378 0
M  V30 1833 C 164.815 1.64774 3.93385 0
M  V30 1834 S 165.648 3.23933 4.26413 0
M  V30 1835 C 166.804 2.79358 5.60098 0
M  V30 1836 H 167.037 1.97075 2.22596 0
M  V30 1837 H 164.57 1.10938 1.07387 0
M  V30 1838 H 166.528 0.314385 4.09294 0
M  V30 1839 H 165.189 -0.336505 3.12292 0
M  V30 1840 H 164.382 1.27454 4.87618 0
M  V30 1841 H 163.984 1.86048 3.24441 0
M  V30 1842 H 166.276 2.24443 6.39243 0
M  V30 1843 H 167.219 3.72322 6.02314 0
M  V30 1844 H 167.627 2.1861 5.20452 0
M  V30 1845 N 167.025 -1.13721 1.09112 0
M  V30 1846 C 168.302 -1.81155 0.737706 0
M  V30 1847 C 168.682 -1.96253 -0.777683 0
M  V30 1848 O 168.03 -1.52807 -1.69889 0
M  V30 1849 C 168.24 -3.16392 1.47299 0
M  V30 1850 C 169.588 -3.91787 1.63671 0
M  V30 1851 O 170.612 -3.26005 1.43524 0
M  V30 1852 O 169.471 -5.0977 1.96969 0
M  V30 1853 H 166.565 -0.783518 0.26463 0
M  V30 1854 H 169.111 -1.20676 1.19312 0
M  V30 1855 H 167.883 -3.0061 2.50498 0
M  V30 1856 H 167.506 -3.8457 1.00953 0
M  V30 1857 N 168.503 -0.877838 -1.30888 0
M  V30 1858 C 169.451 -0.328662 -2.30266 0
M  V30 1859 C 170.445 0.560496 -1.59859 0
M  V30 1860 O 171.651 0.445722 -1.74394 0
M  V30 1861 H 168.026 -0.0876142 -0.746879 0
M  V30 1862 H 169.997 -1.18061 -2.74051 0
M  V30 1863 C 168.746 0.448071 -3.44801 0
M  V30 1864 H 168.069 -0.226859 -3.99156 0
M  V30 1865 H 169.509 0.797541 -4.16432 0
M  V30 1866 C 167.968 1.64239 -2.94155 0
M  V30 1867 O 168.498 2.74175 -2.93583 0
M  V30 1868 N 166.704 1.47716 -2.50256 0
M  V30 1869 H 166.251 0.582821 -2.5092 0
M  V30 1870 H 166.209 2.27765 -2.16727 0
M  V30 1871 N 169.982 1.44106 -0.638065 0
M  V30 1872 C 171.207 2.0685 -0.150916 0
M  V30 1873 C 171.632 1.47417 1.16833 0
M  V30 1874 O 170.99 0.578264 1.71831 0
M  V30 1875 C 171.038 3.60555 -0.05708 0
M  V30 1876 O 170.142 4.00465 0.984972 0
M  V30 1877 H 169.483 0.658151 -0.0879399 0
M  V30 1878 H 172.013 1.84865 -0.876707 0
M  V30 1879 H 172.023 4.07789 0.131232 0
M  V30 1880 H 170.698 4.03193 -1.02021 0
M  V30 1881 H 169.275 3.64849 0.770672 0
M  V30 1882 N 171.46 0.379036 1.52974 0
M  V30 1883 C 172.707 -0.206421 2.01445 0
M  V30 1884 C 173.035 -1.47668 1.26587 0
M  V30 1885 O 172.29 -1.92514 0.351675 0
M  V30 1886 C 172.589 -0.53096 3.53434 0
M  V30 1887 C 172.255 0.646546 4.46241 0
M  V30 1888 C 170.917 0.969604 4.7133 0
M  V30 1889 C 173.269 1.43479 5.01062 0
M  V30 1890 C 170.597 2.08263 5.48492 0
M  V30 1891 C 172.949 2.53834 5.7944 0
M  V30 1892 C 171.613 2.86659 6.02812 0
M  V30 1893 H 170.883 -0.0755349 0.73714 0
M  V30 1894 H 173.53 0.514271 1.84465 0
M  V30 1895 H 171.835 -1.33285 3.68432 0
M  V30 1896 H 173.532 -0.996417 3.88423 0
M  V30 1897 H 170.122 0.384734 4.2687 0
M  V30 1898 H 174.306 1.19844 4.81613 0
M  V30 1899 H 169.562 2.34078 5.64816 0
M  V30 1900 H 173.736 3.15319 6.20924 0
M  V30 1901 H 171.363 3.73026 6.62387 0
M  V30 1902 N 172.938 -1.57226 0.108567 0
M  V30 1903 C 173.87 -2.11809 -0.875752 0
M  V30 1904 C 174.883 -1.05839 -1.23701 0
M  V30 1905 O 176.072 -1.33245 -1.18778 0
M  V30 1906 C 173.172 -2.59411 -2.18081 0
M  V30 1907 C 172.345 -3.89364 -1.99284 0
M  V30 1908 C 171.404 -4.22672 -3.13424 0
M  V30 1909 O 170.43 -4.91668 -2.86795 0
M  V30 1910 N 171.632 -3.79154 -4.3957 0
M  V30 1911 H 174.397 -2.9689 -0.409477 0
M  V30 1912 H 171.958 -1.61721 -0.076158 0
M  V30 1913 H 173.95 -2.7873 -2.93414 0
M  V30 1914 H 172.52 -1.79268 -2.5609 0
M  V30 1915 H 171.74 -3.79059 -1.08203 0
M  V30 1916 H 173.028 -4.74358 -1.84017 0
M  V30 1917 H 172.426 -3.23486 -4.64083 0
M  V30 1918 H 170.983 -4.03602 -5.11809 0
M  V30 1919 N 174.416 0.165178 -1.56732 0
M  V30 1920 C 175.665 0.879143 -1.81532 0
M  V30 1921 C 175.978 1.83144 -0.686842 0
M  V30 1922 O 177.184 2.58823 -0.819944 0
M  V30 1923 C 175.64 1.61388 -3.21686 0
M  V30 1924 C 175.248 0.704904 -4.4242 0
M  V30 1925 C 176.992 2.3157 -3.55774 0
M  V30 1926 C 174.899 1.44022 -5.73595 0
M  V30 1927 H 173.829 0.332033 -0.676957 0
M  V30 1928 H 176.48 0.132008 -1.83025 0
M  V30 1929 H 174.862 2.40599 -3.14529 0
M  V30 1930 H 176.036 -0.0506815 -4.60772 0
M  V30 1931 H 174.351 0.112419 -4.16248 0
M  V30 1932 H 176.948 2.8719 -4.51028 0
M  V30 1933 H 177.291 3.07201 -2.8095 0
M  V30 1934 H 177.824 1.59297 -3.64513 0
M  V30 1935 H 174.563 0.72612 -6.51466 0
M  V30 1936 H 174.083 2.16898 -5.5921 0
M  V30 1937 H 175.762 1.98606 -6.15764 0
M  V30 1938 N 175.894 1.51508 0.433938 0
M  V30 1939 C 176.842 1.73646 1.54757 0
M  V30 1940 C 177.836 0.602854 1.5831 0
M  V30 1941 O 179.042 0.784318 1.62014 0
M  V30 1942 H 175.417 0.548718 0.51421 0
M  V30 1943 H 177.388 2.66991 1.33261 0
M  V30 1944 C 176.137 1.88172 2.92381 0
M  V30 1945 H 175.46 2.74808 2.90381 0
M  V30 1946 H 176.9 2.07672 3.6966 0
M  V30 1947 C 175.359 0.64239 3.30719 0
M  V30 1948 O 175.889 -0.201362 4.01195 0
M  V30 1949 N 174.095 0.485489 2.86516 0
M  V30 1950 H 173.642 1.17318 2.29334 0
M  V30 1951 H 173.6 -0.342482 3.12529 0
M  V30 1952 N 177.372 -0.689602 1.41712 0
M  V30 1953 C 178.649 -1.44457 1.31877 0
M  V30 1954 C 179.029 -2.11039 -0.0508537 0
M  V30 1955 O 178.377 -2.02138 -1.06547 0
M  V30 1956 C 178.587 -2.45913 2.47645 0
M  V30 1957 C 179.935 -3.10991 2.89084 0
M  V30 1958 O 180.959 -2.56238 2.47428 0
M  V30 1959 O 179.818 -4.10174 3.61137 0
M  V30 1960 H 176.912 -0.64362 0.519309 0
M  V30 1961 H 179.458 -0.719576 1.53689 0
M  V30 1962 H 178.23 -1.95409 3.39015 0
M  V30 1963 H 177.853 -3.25913 2.27742 0
M  V30 1964 N 178.85 -1.27639 -0.924453 0
M  V30 1965 C 180.098 -1.13941 -1.66918 0
M  V30 1966 C 180.419 0.314589 -1.92446 0
M  V30 1967 O 179.689 1.21964 -1.53303 0
M  V30 1968 H 178.269 -0.418678 -0.618642 0
M  V30 1969 H 180.931 -1.60213 -1.10985 0
M  V30 1970 H 180.027 -1.67094 -2.63602 0
M  V30 1971 N 180.328 1.1314 -1.09713 0
M  V30 1972 C 181.258 2.20748 -0.761102 0
M  V30 1973 C 182.239 1.68061 0.262566 0
M  V30 1974 O 183.424 1.93765 0.129977 0
M  V30 1975 C 180.554 3.46812 -0.184054 0
M  V30 1976 C 179.508 4.12606 -1.13757 0
M  V30 1977 C 178.834 5.33031 -0.422083 0
M  V30 1978 C 180.134 4.59603 -2.48118 0
M  V30 1979 H 181.828 2.49113 -1.66082 0
M  V30 1980 H 179.374 1.19734 -0.799987 0
M  V30 1981 H 181.327 4.21353 0.0631215 0
M  V30 1982 H 180.051 3.17851 0.750868 0
M  V30 1983 H 178.71 3.40036 -1.37007 0
M  V30 1984 H 178.358 5.00335 0.517072 0
M  V30 1985 H 178.058 5.77999 -1.05788 0
M  V30 1986 H 179.582 6.10325 -0.183277 0
M  V30 1987 H 180.996 5.25552 -2.29059 0
M  V30 1988 H 179.393 5.15321 -3.07514 0
M  V30 1989 H 180.463 3.73971 -3.08665 0
M  V30 1990 N 181.806 0.884767 1.30421 0
M  V30 1991 C 183.222 0.57874 1.48737 0
M  V30 1992 C 183.422 -0.883567 1.81095 0
M  V30 1993 O 182.478 -1.6648 1.89844 0
M  V30 1994 C 183.791 1.49171 2.61091 0
M  V30 1995 C 185.339 1.49532 2.74971 0
M  V30 1996 C 185.814 2.39421 3.90438 0
M  V30 1997 N 187.305 2.37383 3.97748 0
M  V30 1998 C 188.04 3.03647 4.86401 0
M  V30 1999 N 187.536 3.79136 5.79852 0
M  V30 2000 N 189.329 2.9288 4.79768 0
M  V30 2001 H 181.48 1.83075 1.0769 0
M  V30 2002 H 183.743 0.783637 0.533495 0
M  V30 2003 H 183.449 2.53291 2.44001 0
M  V30 2004 H 183.323 1.20113 3.57565 0
M  V30 2005 H 185.71 0.46163 2.91467 0
M  V30 2006 H 185.791 1.8262 1.79119 0
M  V30 2007 H 185.435 3.42874 3.74699 0
M  V30 2008 H 185.365 2.03649 4.85628 0
M  V30 2009 H 187.856 1.82525 3.30897 0
M  V30 2010 H 188.169 4.26789 6.4426 0
M  V30 2011 H 186.514 3.83243 5.79784 0
M  V30 2012 H 189.705 2.33433 4.05742 0
M  V30 2013 H 189.878 3.448 5.4865 0
M  V30 2014 N 183.284 -1.43765 0.645699 0
M  V30 2015 C 184.533 -2.01116 0.153412 0
M  V30 2016 C 184.846 -1.51493 -1.23731 0
M  V30 2017 O 186.052 -2.01067 -1.8244 0
M  V30 2018 C 184.508 -3.59206 0.223473 0
M  V30 2019 C 184.116 -4.17823 1.61642 0
M  V30 2020 C 185.86 -4.23972 -0.211597 0
M  V30 2021 C 183.767 -5.68183 1.64081 0
M  V30 2022 H 182.697 -0.752093 0.0535891 0
M  V30 2023 H 185.348 -1.6482 0.806633 0
M  V30 2024 H 183.73 -3.92867 -0.497118 0
M  V30 2025 H 184.904 -3.95674 2.36176 0
M  V30 2026 H 183.219 -3.65399 1.99681 0
M  V30 2027 H 185.816 -5.34275 -0.213112 0
M  V30 2028 H 186.159 -3.97352 -1.24165 0
M  V30 2029 H 186.692 -3.95166 0.456988 0
M  V30 2030 H 183.431 -5.99559 2.64971 0
M  V30 2031 H 182.951 -5.9241 0.938611 0
M  V30 2032 H 184.63 -6.32085 1.3812 0
M  V30 2033 N 184.763 -0.387143 -1.52771 0
M  V30 2034 C 185.726 0.436939 -2.24997 0
M  V30 2035 C 186.726 0.991991 -1.26555 0
M  V30 2036 O 187.916 0.874335 -1.50669 0
M  V30 2037 C 185.048 1.61281 -3.00335 0
M  V30 2038 H 186.241 -0.195365 -2.99263 0
M  V30 2039 H 183.794 -0.139218 -1.55679 0
M  V30 2040 H 184.529 2.2826 -2.30364 0
M  V30 2041 H 184.314 1.22154 -3.72587 0
M  V30 2042 H 185.804 2.19629 -3.5518 0
M  V30 2043 N 186.241 1.57166 -0.116904 0
M  V30 2044 C 187.657 1.5779 0.239693 0
M  V30 2045 C 187.857 1.1295 1.66867 0
M  V30 2046 O 186.913 0.81592 2.38954 0
M  V30 2047 C 188.226 3.00699 0.00828202 0
M  V30 2048 C 189.774 3.12912 0.0743438 0
M  V30 2049 C 190.249 4.57817 -0.129348 0
M  V30 2050 N 191.74 4.63139 -0.075247 0
M  V30 2051 C 192.475 5.73023 -0.207788 0
M  V30 2052 N 191.971 6.91665 -0.396382 0
M  V30 2053 N 193.764 5.61906 -0.14751 0
M  V30 2054 H 185.915 1.84615 -1.05029 0
M  V30 2055 H 188.178 0.85311 -0.41341 0
M  V30 2056 H 187.884 3.37784 -0.979531 0
M  V30 2057 H 187.758 3.69848 0.741077 0
M  V30 2058 H 190.145 2.75686 1.05268 0
M  V30 2059 H 190.226 2.4631 -0.690297 0
M  V30 2060 H 189.87 4.95742 -1.10465 0
M  V30 2061 H 189.8 5.22507 0.655253 0
M  V30 2062 H 192.291 3.7784 0.0670898 0
M  V30 2063 H 192.604 7.71255 -0.488437 0
M  V30 2064 H 190.949 6.93654 -0.432329 0
M  V30 2065 H 194.14 4.681 -0.00115036 0
M  V30 2066 H 194.313 6.47501 -0.254247 0
M  V30 2067 N 187.719 -0.156864 1.56817 0
M  V30 2068 C 188.666 -1.19394 1.97519 0
M  V30 2069 C 189.636 -1.4322 0.841265 0
M  V30 2070 O 190.821 -1.55719 1.10255 0
M  V30 2071 C 187.961 -2.52483 2.35258 0
M  V30 2072 C 187.074 -2.35914 3.61896 0
M  V30 2073 C 186.209 -3.61969 3.88782 0
M  V30 2074 C 185.248 -3.40395 5.08722 0
M  V30 2075 N 184.385 -4.58556 5.31668 0
M  V30 2076 H 189.225 -0.839845 2.85921 0
M  V30 2077 H 186.762 -0.403264 1.41464 0
M  V30 2078 H 188.72 -3.30071 2.55165 0
M  V30 2079 H 187.35 -2.85859 1.49949 0
M  V30 2080 H 186.402 -1.49429 3.49821 0
M  V30 2081 H 187.714 -2.15926 4.49641 0
M  V30 2082 H 186.868 -4.47989 4.09135 0
M  V30 2083 H 185.607 -3.84951 2.9944 0
M  V30 2084 H 184.612 -2.52763 4.88253 0
M  V30 2085 H 185.837 -3.18822 5.99608 0
M  V30 2086 H 183.783 -4.81729 4.45279 0
M  V30 2087 H 183.7 -4.41535 6.13664 0
M  V30 2088 H 184.968 -5.45817 5.5651 0
M  V30 2089 N 189.197 -1.51736 -0.425897 0
M  V30 2090 C 190.127 -1.76827 -1.52494 0
M  V30 2091 C 191.108 -0.618524 -1.58456 0
M  V30 2092 O 192.293 -0.862416 -1.74 0
M  V30 2093 C 189.423 -1.90374 -2.90474 0
M  V30 2094 C 188.377 -3.0588 -2.99369 0
M  V30 2095 C 187.703 -3.04625 -4.3944 0
M  V30 2096 C 189.003 -4.45644 -2.72394 0
M  V30 2097 H 190.697 -2.68855 -1.31748 0
M  V30 2098 H 188.243 -1.29372 -0.632362 0
M  V30 2099 H 190.196 -2.0651 -3.6733 0
M  V30 2100 H 188.92 -0.95004 -3.12477 0
M  V30 2101 H 187.579 -2.89467 -2.24954 0
M  V30 2102 H 187.227 -2.0701 -4.58428 0
M  V30 2103 H 186.927 -3.82195 -4.46319 0
M  V30 2104 H 188.451 -3.22869 -5.18255 0
M  V30 2105 H 189.865 -4.62348 -3.38979 0
M  V30 2106 H 188.262 -5.25006 -2.9067 0
M  V30 2107 H 189.332 -4.54893 -1.67929 0
M  V30 2108 N 190.675 0.682077 -1.42076 0
M  V30 2109 C 191.605 1.80796 -1.47767 0
M  V30 2110 C 192.586 1.6677 -0.334954 0
M  V30 2111 O 193.771 1.863 -0.548264 0
M  V30 2112 C 190.901 3.19038 -1.37229 0
M  V30 2113 C 189.855 3.47789 -2.49453 0
M  V30 2114 C 189.181 4.8553 -2.23975 0
M  V30 2115 C 190.481 3.45411 -3.91776 0
M  V30 2116 H 192.175 1.7629 -2.41997 0
M  V30 2117 H 189.721 0.846721 -1.16476 0
M  V30 2118 H 191.674 3.97528 -1.39821 0
M  V30 2119 H 190.398 3.24204 -0.394907 0
M  V30 2120 H 189.057 2.71657 -2.46166 0
M  V30 2121 H 188.705 4.87337 -1.24547 0
M  V30 2122 H 188.405 5.0573 -2.99184 0
M  V30 2123 H 189.929 5.66312 -2.28304 0
M  V30 2124 H 191.343 4.13882 -3.96705 0
M  V30 2125 H 189.74 3.77145 -4.66778 0
M  V30 2126 H 190.81 2.44122 -4.18966 0
M  V30 2127 N 192.153 1.28127 0.917671 0
M  V30 2128 C 193.083 1.14248 2.03641 0
M  V30 2129 C 194.064 0.0412748 1.7005 0
M  V30 2130 O 195.249 0.217566 1.92977 0
M  V30 2131 C 192.379 0.799431 3.37974 0
M  V30 2132 C 191.333 1.85497 3.85713 0
M  V30 2133 C 190.659 1.36565 5.16966 0
M  V30 2134 C 191.959 3.26085 4.08002 0
M  V30 2135 H 193.653 2.07835 2.15511 0
M  V30 2136 H 191.199 1.00064 1.03553 0
M  V30 2137 H 193.152 0.689114 4.15727 0
M  V30 2138 H 191.876 -0.172145 3.26146 0
M  V30 2139 H 190.535 1.95437 3.10161 0
M  V30 2140 H 190.183 0.383253 5.01538 0
M  V30 2141 H 189.883 2.07143 5.49878 0
M  V30 2142 H 191.407 1.26848 5.97279 0
M  V30 2143 H 192.821 3.19089 4.76293 0
M  V30 2144 H 191.218 3.94462 4.52238 0
M  V30 2145 H 192.288 3.70394 3.12948 0
M  V30 2146 N 193.631 -1.12557 1.10312 0
M  V30 2147 C 194.908 -1.80363 0.756878 0
M  V30 2148 C 195.288 -1.97067 -0.756824 0
M  V30 2149 O 194.636 -1.54601 -1.68259 0
M  V30 2150 C 194.846 -3.14812 1.50647 0
M  V30 2151 C 196.194 -3.90029 1.67817 0
M  V30 2152 O 197.218 -3.24464 1.46974 0
M  V30 2153 O 196.077 -5.07652 2.02365 0
M  V30 2154 H 193.171 -0.780667 0.272926 0
M  V30 2155 H 195.717 -1.19404 1.20586 0
M  V30 2156 H 194.489 -2.97936 2.53672 0
M  V30 2157 H 194.112 -3.83478 1.05026 0
M  V30 2158 N 195.109 -0.891671 -1.2995 0
M  V30 2159 C 196.358 -0.509521 -1.95158 0
M  V30 2160 C 196.671 0.947388 -1.71125 0
M  V30 2161 O 197.877 1.43669 -2.30372 0
M  V30 2162 C 196.333 -0.860315 -3.49466 0
M  V30 2163 C 195.941 -2.33545 -3.8231 0
M  V30 2164 C 197.685 -0.547687 -4.20952 0
M  V30 2165 C 195.592 -2.62752 -5.29826 0
M  V30 2166 H 194.522 -0.18682 -0.730489 0
M  V30 2167 H 197.173 -1.08756 -1.47798 0
M  V30 2168 H 195.555 -0.211285 -3.95436 0
M  V30 2169 H 196.729 -3.02936 -3.47227 0
M  V30 2170 H 195.044 -2.61629 -3.23944 0
M  V30 2171 H 197.641 -0.742854 -5.29515 0
M  V30 2172 H 197.984 0.51332 -4.13123 0
M  V30 2173 H 198.517 -1.1542 -3.80688 0
M  V30 2174 H 195.256 -3.6762 -5.42712 0
M  V30 2175 H 194.776 -1.97977 -5.66185 0
M  V30 2176 H 196.455 -2.48601 -5.97333 0
M  V30 2177 N 196.587 1.43421 -0.653314 0
M  V30 2178 C 197.535 2.32546 0.0501531 0
M  V30 2179 C 198.529 1.48617 0.812985 0
M  V30 2180 O 199.735 1.64825 0.723375 0
M  V30 2181 H 196.11 0.751185 0.0350032 0
M  V30 2182 H 198.081 2.89602 -0.719261 0
M  V30 2183 C 196.83 3.32925 1.00279 0
M  V30 2184 H 196.153 3.97532 0.425236 0
M  V30 2185 H 197.593 3.9792 1.46409 0
M  V30 2186 C 196.052 2.63532 2.09886 0
M  V30 2187 O 196.582 2.45092 3.18265 0
M  V30 2188 N 194.788 2.22905 1.86445 0
M  V30 2189 H 194.335 2.38103 0.98309 0
M  V30 2190 H 194.293 1.76805 2.59976 0
M  V30 2191 N 198.065 0.39524 1.52563 0
M  V30 2192 C 199.342 -0.242908 1.94086 0
M  V30 2193 C 199.722 -1.63841 1.33114 0
M  V30 2194 O 199.07 -2.22928 0.501529 0
M  V30 2195 C 199.28 -0.26327 3.48006 0
M  V30 2196 C 200.628 -0.489354 4.21771 0
M  V30 2197 O 201.652 -0.343226 3.54543 0
M  V30 2198 O 200.511 -0.776169 5.4096 0
M  V30 2199 H 197.605 -0.152536 0.812811 0
M  V30 2200 H 200.151 0.450178 1.6362 0
M  V30 2201 H 198.923 0.713985 3.84731 0
M  V30 2202 H 198.546 -1.00103 3.84792 0
M  V30 2203 N 199.544 -1.57102 0.125237 0
M  V30 2204 C 200.769 -2.0019 -0.542101 0
M  V30 2205 C 201.194 -1.00449 -1.59034 0
M  V30 2206 O 200.552 0.0229423 -1.81285 0
M  V30 2207 C 200.6 -3.42129 -1.13929 0
M  V30 2208 O 199.704 -3.45307 -2.2547 0
M  V30 2209 H 199.045 -0.650171 -0.134812 0
M  V30 2210 H 201.575 -2.03461 0.215553 0
M  V30 2211 H 201.585 -3.80471 -1.4733 0
M  V30 2212 H 200.26 -4.14237 -0.371531 0
M  V30 2213 H 198.837 -3.1879 -1.93462 0
M  V30 2214 N 201.022 0.148545 -1.56898 0
M  V30 2215 C 202.27 0.859717 -1.82902 0
M  V30 2216 C 202.591 1.81775 -0.70588 0
M  V30 2217 O 201.861 1.93994 0.272586 0
M  V30 2218 H 200.441 0.320469 -0.674766 0
M  V30 2219 H 203.103 0.142918 -1.94375 0
M  V30 2220 H 202.199 1.4229 -2.77777 0
M  V30 2221 N 202.5 1.5196 0.417844 0
M  V30 2222 C 203.43 1.77634 1.51554 0
M  V30 2223 C 204.411 0.626918 1.58126 0
M  V30 2224 O 205.596 0.871632 1.7354 0
M  V30 2225 C 202.726 1.91911 2.8946 0
M  V30 2226 C 201.68 3.07463 2.97743 0
M  V30 2227 C 201.006 3.06951 4.37819 0
M  V30 2228 C 202.306 4.47082 2.70027 0
M  V30 2229 H 204 2.6955 1.3032 0
M  V30 2230 H 201.546 1.29706 0.625492 0
M  V30 2231 H 203.499 2.08455 3.6623 0
M  V30 2232 H 202.223 0.966598 3.11969 0
M  V30 2233 H 200.882 2.90656 2.23416 0
M  V30 2234 H 200.53 2.09438 4.57323 0
M  V30 2235 H 200.23 3.84556 4.44286 0
M  V30 2236 H 201.754 3.25613 5.16535 0
M  V30 2237 H 203.168 4.6414 3.36522 0
M  V30 2238 H 201.565 5.2654 2.87881 0
M  V30 2239 H 202.635 4.55777 1.65514 0
M  V30 2240 N 203.978 -0.674533 1.42435 0
M  V30 2241 C 205.389 -1.25514 1.38214 0
M  V30 2242 C 205.74 -1.96055 0.0755464 0
M  V30 2243 O 204.865 -2.00028 -0.8257 0
M  V30 2244 C 205.46 -2.28269 2.50357 0
M  V30 2245 C 204.019 -2.81856 2.49467 0
M  V30 2246 C 203.166 -1.56182 2.29134 0
M  V30 2247 H 206.117 -0.467902 1.51646 0
M  V30 2248 H 206.138 -3.10009 2.20624 0
M  V30 2249 H 205.65 -1.769 3.45439 0
M  V30 2250 H 203.751 -3.37346 1.58204 0
M  V30 2251 H 203.864 -3.30854 3.46515 0
M  V30 2252 H 202.228 -1.82761 1.774 0
M  V30 2253 H 203.011 -1.06778 3.26272 0
M  V30 2254 N 205.456 -1.28612 -0.910864 0
M  V30 2255 C 206.419 -1.12803 -1.9952 0
M  V30 2256 C 207.419 -0.0668264 -1.60661 0
M  V30 2257 O 208.609 -0.312847 -1.71368 0
M  V30 2258 C 205.741 -0.72254 -3.33155 0
M  V30 2259 H 206.934 -2.09109 -2.14973 0
M  V30 2260 H 204.487 -1.11639 -1.09391 0
M  V30 2261 H 205.222 0.241152 -3.23402 0
M  V30 2262 H 205.007 -1.48916 -3.62721 0
M  V30 2263 H 206.497 -0.634666 -4.12749 0
M  V30 2264 N 206.934 1.1197 -1.10907 0
M  V30 2265 C 207.897 2.16031 -0.765707 0
M  V30 2266 C 208.897 1.59393 0.212235 0
M  V30 2267 O 210.087 1.74196 -0.0115441 0
M  V30 2268 C 207.219 3.40632 -0.135053 0
M  V30 2269 H 208.412 2.47919 -1.68748 0
M  V30 2270 H 205.965 1.27061 -0.910226 0
M  V30 2271 H 206.7 3.14348 0.797218 0
M  V30 2272 H 206.485 3.8302 -0.838937 0
M  V30 2273 H 207.975 4.17505 0.0892469 0
M  V30 2274 N 208.412 0.89855 1.29475 0
M  V30 2275 C 209.66 0.522847 1.9522 0
M  V30 2276 C 209.981 -0.93371 1.71192 0
M  V30 2277 O 209.251 -1.65823 1.04305 0
M  V30 2278 H 207.831 0.190366 0.722336 0
M  V30 2279 H 210.493 1.14459 1.5775 0
M  V30 2280 H 209.589 0.704476 3.04045 0
M  V30 2281 N 209.89 -1.43072 0.660911 0
M  V30 2282 C 210.8 -2.34585 -0.0264163 0
M  V30 2283 C 211.816 -1.54316 -0.803898 0
M  V30 2284 O 212.992 -1.86939 -0.749391 0
M  V30 2285 C 210.057 -3.32689 -0.975639 0
M  V30 2286 C 209.118 -4.2886 -0.194236 0
M  V30 2287 C 208.351 -5.22278 -1.09825 0
M  V30 2288 O 208.574 -5.20299 -2.33763 0
M  V30 2289 O 207.508 -5.99228 -0.566513 0
M  V30 2290 H 211.334 -2.94869 0.727034 0
M  V30 2291 H 208.919 -1.43342 0.42111 0
M  V30 2292 H 210.801 -3.92995 -1.52094 0
M  V30 2293 H 209.476 -2.74898 -1.70918 0
M  V30 2294 H 208.383 -3.72011 0.394835 0
M  V30 2295 H 209.716 -4.89655 0.499899 0
M  V30 2296 N 211.368 -0.403325 -1.52352 0
M  V30 2297 C 212.615 0.174347 -2.01748 0
M  V30 2298 C 212.943 1.45636 -1.2892 0
M  V30 2299 O 212.198 1.9193 -0.382258 0
M  V30 2300 C 212.497 0.474665 -3.54234 0
M  V30 2301 C 212.163 -0.717458 -4.45155 0
M  V30 2302 C 210.825 -1.04447 -4.69728 0
M  V30 2303 C 213.177 -1.51432 -4.98716 0
M  V30 2304 C 210.505 -2.16963 -5.45109 0
M  V30 2305 C 212.857 -2.6302 -5.75329 0
M  V30 2306 C 211.521 -2.96213 -5.98175 0
M  V30 2307 H 210.791 0.0637981 -0.738248 0
M  V30 2308 H 213.438 -0.543553 -1.83624 0
M  V30 2309 H 211.743 1.27406 -3.70506 0
M  V30 2310 H 213.44 0.934496 -3.89959 0
M  V30 2311 H 210.03 -0.452596 -4.26204 0
M  V30 2312 H 214.214 -1.27491 -4.79645 0
M  V30 2313 H 209.47 -2.43034 -5.61021 0
M  V30 2314 H 213.644 -3.25158 -6.15829 0
M  V30 2315 H 211.271 -3.83516 -6.56368 0
M  V30 2316 N 212.846 1.57033 -0.133567 0
M  V30 2317 C 213.776 2.1909 0.807567 0
M  V30 2318 C 214.757 1.13517 1.26681 0
M  V30 2319 O 215.942 1.41809 1.32679 0
M  V30 2320 C 213.072 2.80188 2.05212 0
M  V30 2321 C 212.026 3.91471 1.73015 0
M  V30 2322 C 211.352 4.39443 3.04622 0
M  V30 2323 C 212.652 5.12886 0.987168 0
M  V30 2324 H 214.346 2.97988 0.290403 0
M  V30 2325 H 211.892 1.43335 0.138239 0
M  V30 2326 H 213.845 3.22264 2.71521 0
M  V30 2327 H 212.569 1.98601 2.59278 0
M  V30 2328 H 211.228 3.49993 1.0909 0
M  V30 2329 H 210.876 3.54695 3.56651 0
M  V30 2330 H 210.576 5.14495 2.83847 0
M  V30 2331 H 212.1 4.8418 3.72024 0
M  V30 2332 H 213.514 5.51891 1.55208 0
M  V30 2333 H 211.911 5.93615 0.87985 0
M  V30 2334 H 212.981 4.84894 -0.0235286 0
M  V30 2335 N 214.325 -0.140222 1.56975 0
M  V30 2336 C 215.602 -0.880769 1.74648 0
M  V30 2337 C 215.982 -1.99036 0.703404 0
M  V30 2338 O 215.33 -2.26821 -0.27648 0
M  V30 2339 C 215.54 -1.417 3.18939 0
M  V30 2340 C 216.888 -1.87774 3.80823 0
M  V30 2341 O 217.912 -1.51427 3.2241 0
M  V30 2342 O 216.771 -2.54827 4.83452 0
M  V30 2343 H 213.865 -0.416713 0.714338 0
M  V30 2344 H 216.411 -0.125618 1.69234 0
M  V30 2345 H 215.183 -0.619902 3.86359 0
M  V30 2346 H 214.806 -2.23546 3.28805 0
M  V30 2347 N 215.803 -1.52179 -0.40978 0
M  V30 2348 C 216.736 -1.70196 -1.52015 0
M  V30 2349 C 217.714 -0.549542 -1.53032 0
M  V30 2350 O 218.898 -0.776815 -1.71749 0
M  V30 2351 C 216.025 -1.74069 -2.90547 0
M  V30 2352 C 215.071 -2.95601 -3.07445 0
M  V30 2353 S 215.904 -4.55956 -2.80827 0
M  V30 2354 C 217.06 -4.62614 -4.21591 0
M  V30 2355 H 217.293 -2.64109 -1.36504 0
M  V30 2356 H 214.826 -1.4221 -0.601312 0
M  V30 2357 H 216.784 -1.76985 -3.70387 0
M  V30 2358 H 215.445 -0.812835 -3.034 0
M  V30 2359 H 214.638 -2.94791 -4.08796 0
M  V30 2360 H 214.24 -2.90569 -2.35469 0
M  V30 2361 H 216.532 -4.39951 -5.15218 0
M  V30 2362 H 217.475 -5.64548 -4.27424 0
M  V30 2363 H 217.883 -3.91654 -4.06531 0
M  V30 2364 N 217.281 0.66697 -1.42791 0
M  V30 2365 C 218.53 1.42278 -1.42968 0
M  V30 2366 C 218.843 1.9553 -0.0524489 0
M  V30 2367 O 220.049 2.71414 0.068363 0
M  V30 2368 C 218.505 2.57418 -2.51524 0
M  V30 2369 C 218.113 2.10832 -3.9529 0
M  V30 2370 C 219.857 3.34878 -2.60877 0
M  V30 2371 C 217.764 3.23101 -4.95338 0
M  V30 2372 H 216.694 0.534533 -0.531781 0
M  V30 2373 H 219.345 0.721302 -1.68729 0
M  V30 2374 H 217.727 3.29971 -2.18941 0
M  V30 2375 H 218.901 1.4538 -4.37266 0
M  V30 2376 H 217.216 1.46289 -3.89857 0
M  V30 2377 H 219.813 4.18505 -3.32802 0
M  V30 2378 H 220.156 3.81993 -1.6549 0
M  V30 2379 H 220.689 2.69398 -2.92693 0
M  V30 2380 H 217.428 2.80969 -5.9223 0
M  V30 2381 H 216.948 3.87309 -4.57987 0
M  V30 2382 H 218.627 3.88447 -5.17415 0
M  V30 2383 N 218.759 1.29093 0.90403 0
M  V30 2384 C 219.987 1.19689 1.68766 0
M  V30 2385 C 220.402 -0.243113 1.87228 0
M  V30 2386 O 219.759 -1.16326 1.40621 0
M  V30 2387 C 219.81 1.90144 3.07453 0
M  V30 2388 O 219.531 3.2852 2.89838 0
M  V30 2389 C 221.032 1.87162 4.01852 0
M  V30 2390 H 218.252 0.415035 0.527244 0
M  V30 2391 H 220.796 1.7039 1.13082 0
M  V30 2392 H 218.951 1.43289 3.59926 0
M  V30 2393 H 219.365 3.63944 3.77684 0
M  V30 2394 H 220.839 2.41032 4.96596 0
M  V30 2395 H 221.316 0.84617 4.30972 0
M  V30 2396 H 221.922 2.33741 3.5531 0
M  V30 2397 N 220.237 -1.11381 1.11499 0
M  V30 2398 C 221.648 -1.6465 0.880191 0
M  V30 2399 C 221.999 -1.87199 -0.587434 0
M  V30 2400 O 221.124 -1.60667 -1.44966 0
M  V30 2401 C 221.719 -2.99105 1.59128 0
M  V30 2402 C 220.278 -3.49279 1.40289 0
M  V30 2403 C 219.425 -2.24077 1.63354 0
M  V30 2404 H 222.376 -0.950123 1.27116 0
M  V30 2405 H 222.397 -3.66107 1.03664 0
M  V30 2406 H 221.909 -2.82661 2.65941 0
M  V30 2407 H 220.01 -3.70887 0.356888 0
M  V30 2408 H 220.123 -4.2803 2.15238 0
M  V30 2409 H 218.487 -2.31733 1.05698 0
M  V30 2410 H 219.27 -2.10175 2.71443 0
M  V30 2411 N 221.715 -0.905404 -1.28997 0
M  V30 2412 C 222.647 -0.344748 -2.26592 0
M  V30 2413 C 223.66 0.512135 -1.54535 0
M  V30 2414 O 224.849 0.328368 -1.75454 0
M  V30 2415 C 221.949 0.526587 -3.34784 0
M  V30 2416 C 221.122 -0.305871 -4.36329 0
M  V30 2417 C 220.181 0.499209 -5.23827 0
M  V30 2418 O 219.207 -0.0853004 -5.69136 0
M  V30 2419 N 220.409 1.80408 -5.51755 0
M  V30 2420 H 223.174 -1.18359 -2.75338 0
M  V30 2421 H 220.735 -0.770481 -1.42391 0
M  V30 2422 H 222.727 1.07171 -3.90252 0
M  V30 2423 H 221.297 1.26613 -2.85811 0
M  V30 2424 H 220.517 -1.0324 -3.80441 0
M  V30 2425 H 221.805 -0.875773 -5.01206 0
M  V30 2426 H 221.203 2.3016 -5.16762 0
M  V30 2427 H 219.76 2.29621 -6.10014 0
M  V30 2428 N 223.193 1.4272 -0.668489 0
M  V30 2429 C 224.423 2.05668 -0.196063 0
M  V30 2430 C 224.831 1.5028 1.14946 0
M  V30 2431 O 224.174 0.6348 1.72383 0
M  V30 2432 C 224.236 3.59469 -0.0468879 0
M  V30 2433 C 223.9 4.37518 -1.32012 0
M  V30 2434 C 224.897 4.68584 -2.25222 0
M  V30 2435 C 222.582 4.77266 -1.56596 0
M  V30 2436 C 224.576 5.38326 -3.41297 0
M  V30 2437 C 222.263 5.4675 -2.72962 0
M  V30 2438 C 223.261 5.77204 -3.65137 0
M  V30 2439 O 222.949 6.45264 -4.79468 0
M  V30 2440 H 222.681 0.669382 -0.0943599 0
M  V30 2441 H 225.235 1.83954 -0.913788 0
M  V30 2442 H 223.465 3.79817 0.726357 0
M  V30 2443 H 225.154 4.04071 0.384852 0
M  V30 2444 H 225.92 4.38382 -2.07477 0
M  V30 2445 H 221.799 4.52959 -0.857249 0
M  V30 2446 H 225.343 5.62014 -4.13263 0
M  V30 2447 H 221.24 5.76369 -2.90635 0
M  V30 2448 H 222.008 6.63753 -4.78931 0
M  V30 2449 N 224.671 0.411399 1.52136 0
M  V30 2450 C 225.601 -0.404015 2.29978 0
M  V30 2451 C 226.582 -1.04412 1.34284 0
M  V30 2452 O 227.767 -1.0527 1.63192 0
M  V30 2453 C 224.897 -1.5197 3.12286 0
M  V30 2454 C 223.851 -1.00448 4.16046 0
M  V30 2455 C 223.177 -2.21393 4.86712 0
M  V30 2456 C 224.477 -0.0569336 5.22269 0
M  V30 2457 H 226.171 0.245529 2.98392 0
M  V30 2458 H 223.717 0.119525 1.43503 0
M  V30 2459 H 225.67 -2.09715 3.6551 0
M  V30 2460 H 224.394 -2.19716 2.41646 0
M  V30 2461 H 223.053 -0.449421 3.63835 0
M  V30 2462 H 222.701 -2.87699 4.12599 0
M  V30 2463 H 222.401 -1.87571 5.56858 0
M  V30 2464 H 223.925 -2.7974 5.4275 0
M  V30 2465 H 225.339 -0.54325 5.7072 0
M  V30 2466 H 223.736 0.192594 5.99791 0
M  V30 2467 H 224.806 0.887663 4.76706 0
M  V30 2468 N 226.149 -1.5696 0.141893 0
M  V30 2469 C 227.112 -2.15316 -0.785587 0
M  V30 2470 C 228.112 -1.09366 -1.1788 0
M  V30 2471 O 229.302 -1.35031 -1.10056 0
M  V30 2472 C 226.434 -2.71211 -2.06537 0
M  V30 2473 H 227.627 -2.98608 -0.278041 0
M  V30 2474 H 225.18 -1.5593 -0.107519 0
M  V30 2475 H 225.915 -1.91571 -2.6167 0
M  V30 2476 H 225.7 -3.4872 -1.79268 0
M  V30 2477 H 227.19 -3.16189 -2.72789 0
M  V30 2478 N 227.627 0.131896 -1.57047 0
M  V30 2479 C 228.904 0.871495 -1.75112 0
M  V30 2480 C 229.284 1.9866 -0.713949 0
M  V30 2481 O 228.632 2.26965 0.264447 0
M  V30 2482 C 228.842 1.40007 -3.19686 0
M  V30 2483 C 230.19 1.85752 -3.81813 0
M  V30 2484 O 231.214 1.49715 -3.23209 0
M  V30 2485 O 230.073 2.5226 -4.84796 0
M  V30 2486 H 227.167 0.412919 -0.716538 0
M  V30 2487 H 229.713 0.116641 -1.69299 0
M  V30 2488 H 228.485 0.599404 -3.86682 0
M  V30 2489 H 228.108 2.218 -3.29986 0
M  V30 2490 N 229.106 1.52395 0.401703 0
M  V30 2491 C 230.036 1.79231 1.49661 0
M  V30 2492 C 231.017 0.643654 1.57452 0
M  V30 2493 O 232.202 0.889989 1.72606 0
M  V30 2494 C 229.332 1.94971 2.87409 0
M  V30 2495 C 228.286 3.10604 2.94465 0
M  V30 2496 C 227.612 3.11577 4.34538 0
M  V30 2497 C 228.912 4.49921 2.6527 0
M  V30 2498 H 230.606 2.70917 1.27454 0
M  V30 2499 H 228.152 1.30362 0.6117 0
M  V30 2500 H 230.105 2.12328 3.63999 0
M  V30 2501 H 228.829 0.999632 3.10926 0
M  V30 2502 H 227.488 2.93009 2.20321 0
M  V30 2503 H 227.136 2.14277 4.55076 0
M  V30 2504 H 226.836 3.89247 4.40183 0
M  V30 2505 H 228.36 3.31073 5.13053 0
M  V30 2506 H 229.774 4.67683 3.31581 0
M  V30 2507 H 228.171 5.29564 2.82281 0
M  V30 2508 H 229.241 4.57507 1.60671 0
M  V30 2509 N 230.584 -0.659388 1.43143 0
M  V30 2510 C 231.517 -1.78425 1.42267 0
M  V30 2511 C 232.495 -1.60085 0.284894 0
M  V30 2512 O 233.679 -1.82351 0.477527 0
M  V30 2513 C 230.806 -3.15642 1.22833 0
M  V30 2514 C 229.852 -3.52698 2.39806 0
M  V30 2515 S 230.685 -3.53372 4.02353 0
M  V30 2516 C 231.841 -4.93256 3.85291 0
M  V30 2517 H 232.074 -1.78897 2.37452 0
M  V30 2518 H 229.607 -0.831469 1.301 0
M  V30 2519 H 231.565 -3.94838 1.12308 0
M  V30 2520 H 230.226 -3.12739 0.29207 0
M  V30 2521 H 229.419 -4.52475 2.21996 0
M  V30 2522 H 229.021 -2.80899 2.46925 0
M  V30 2523 H 231.313 -5.81751 3.47235 0
M  V30 2524 H 232.256 -5.16115 4.84799 0
M  V30 2525 H 232.664 -4.665 3.17865 0
M  V30 2526 N 232.062 -1.29571 -0.897171 0
M  V30 2527 C 233.287 -1.20705 -1.68656 0
M  V30 2528 C 233.712 0.228582 -1.86706 0
M  V30 2529 O 233.07 1.16494 -1.3892 0
M  V30 2530 C 233.118 -1.9282 -3.04717 0
M  V30 2531 O 232.222 -1.24697 -3.93096 0
M  V30 2532 H 231.563 -0.418126 -0.515816 0
M  V30 2533 H 234.093 -1.71183 -1.12061 0
M  V30 2534 H 234.103 -2.01372 -3.54843 0
M  V30 2535 H 232.778 -2.97239 -2.90899 0
M  V30 2536 H 231.355 -1.2442 -3.51531 0
M  V30 2537 N 233.54 1.10788 -1.12088 0
M  V30 2538 C 234.786 1.8313 -0.885148 0
M  V30 2539 C 235.141 1.8336 0.582839 0
M  V30 2540 O 234.434 1.28062 1.42516 0
M  V30 2541 C 234.628 3.29294 -1.38926 0
M  V30 2542 C 234.457 3.43302 -2.90472 0
M  V30 2543 C 233.227 3.55928 -3.58669 0
M  V30 2544 C 235.425 3.37014 -3.88492 0
M  V30 2545 N 233.407 3.58475 -4.98366 0
M  V30 2546 C 234.778 3.46263 -5.14298 0
M  V30 2547 C 236.833 3.20589 -3.80955 0
M  V30 2548 C 235.536 3.4078 -6.33452 0
M  V30 2549 C 237.562 3.16427 -4.99628 0
M  V30 2550 C 236.924 3.26253 -6.2429 0
M  V30 2551 H 233.023 0.685054 -0.377128 0
M  V30 2552 H 235.607 1.3251 -1.4265 0
M  V30 2553 H 233.778 3.78416 -0.874999 0
M  V30 2554 H 235.51 3.89578 -1.09596 0
M  V30 2555 H 232.265 3.58779 -3.09151 0
M  V30 2556 H 232.689 3.6337 -5.71219 0
M  V30 2557 H 237.331 3.11873 -2.85474 0
M  V30 2558 H 235.049 3.48263 -7.29204 0
M  V30 2559 H 238.635 3.04874 -4.95523 0
M  V30 2560 H 237.515 3.2303 -7.14578 0
M  V30 2561 N 235.018 0.912232 1.28515 0
M  V30 2562 C 236.266 0.543523 1.94654 0
M  V30 2563 C 236.587 -0.9155 1.72173 0
M  V30 2564 O 235.857 -1.64708 1.06058 0
M  V30 2565 H 234.437 0.198017 0.720277 0
M  V30 2566 H 237.099 1.16126 1.56527 0
M  V30 2567 H 236.195 0.736684 3.03281 0
M  V30 2568 N 236.496 -1.42363 0.676048 0
M  V30 2569 C 237.459 -2.29199 0.00766941 0
M  V30 2570 C 238.459 -1.43389 -0.727745 0
M  V30 2571 O 239.649 -1.64764 -0.56556 0
M  V30 2572 C 236.781 -3.2591 -0.999785 0
M  V30 2573 H 237.974 -2.89794 0.771988 0
M  V30 2574 H 235.527 -1.50024 0.438468 0
M  V30 2575 H 236.262 -2.70256 -1.79255 0
M  V30 2576 H 236.047 -3.89202 -0.475829 0
M  V30 2577 H 237.537 -3.91028 -1.46583 0
M  V30 2578 N 237.974 -0.419461 -1.51915 0
M  V30 2579 C 239.223 0.154346 -2.01109 0
M  V30 2580 C 239.536 1.45338 -1.30905 0
M  V30 2581 O 240.742 2.10906 -1.7097 0
M  V30 2582 C 239.198 0.325615 -3.58424 0
M  V30 2583 C 238.806 -0.961934 -4.37551 0
M  V30 2584 C 240.55 0.854155 -4.15818 0
M  V30 2585 C 238.457 -0.757287 -5.86531 0
M  V30 2586 H 237.387 0.0614563 -0.751491 0
M  V30 2587 H 240.038 -0.54649 -1.75173 0
M  V30 2588 H 238.42 1.08903 -3.80731 0
M  V30 2589 H 239.594 -1.7323 -4.26999 0
M  V30 2590 H 237.909 -1.41766 -3.91524 0
M  V30 2591 H 240.506 1.02346 -5.24814 0
M  V30 2592 H 240.849 1.83172 -3.73837 0
M  V30 2593 H 241.382 0.149528 -3.97519 0
M  V30 2594 H 238.121 -1.70671 -6.32892 0
M  V30 2595 H 237.641 -0.0264061 -5.99794 0
M  V30 2596 H 239.32 -0.403482 -6.45741 0
M  V30 2597 N 239.452 1.56882 -0.150215 0
M  V30 2598 C 240.7 1.9584 0.499105 0
M  V30 2599 C 241.021 1.03623 1.65188 0
M  V30 2600 O 240.291 0.0984084 1.95653 0
M  V30 2601 H 238.871 0.723119 0.187373 0
M  V30 2602 H 241.533 1.9358 -0.226466 0
M  V30 2603 H 240.629 2.99638 0.873122 0
M  V30 2604 N 240.93 -0.123565 1.57115 0
M  V30 2605 C 241.893 -1.13583 1.99076 0
M  V30 2606 C 242.893 -1.34564 0.880296 0
M  V30 2607 O 244.083 -1.31158 1.14644 0
M  V30 2608 C 241.215 -2.49128 2.32698 0
M  V30 2609 H 242.408 -0.775287 2.89706 0
M  V30 2610 H 239.961 -0.36771 1.51913 0
M  V30 2611 H 240.696 -2.90111 1.44934 0
M  V30 2612 H 240.481 -2.35255 3.13684 0
M  V30 2613 H 241.971 -3.2199 2.65918 0
M  V30 2614 N 242.408 -1.52605 -0.393616 0
M  V30 2615 C 243.824 -1.41753 -0.733357 0
M  V30 2616 C 244.024 -0.534293 -1.94287 0
M  V30 2617 O 243.08 -0.0059787 -2.52499 0
M  V30 2618 C 244.393 -2.84531 -0.972772 0
M  V30 2619 C 245.941 -2.93978 -1.07453 0
M  V30 2620 C 246.416 -4.37756 -1.3466 0
M  V30 2621 N 247.907 -4.4106 -1.41492 0
M  V30 2622 C 248.642 -5.49387 -1.642 0
M  V30 2623 N 248.138 -6.67806 -1.8441 0
M  V30 2624 N 249.931 -5.36923 -1.66342 0
M  V30 2625 H 242.082 -2.08555 0.402328 0
M  V30 2626 H 244.345 -0.940654 0.117789 0
M  V30 2627 H 244.051 -3.51353 -0.156204 0
M  V30 2628 H 243.925 -3.26508 -1.88871 0
M  V30 2629 H 246.312 -2.27326 -1.88167 0
M  V30 2630 H 246.393 -2.55435 -0.136605 0
M  V30 2631 H 246.037 -5.04972 -0.544581 0
M  V30 2632 H 245.967 -4.73848 -2.2973 0
M  V30 2633 H 248.458 -3.55705 -1.27601 0
M  V30 2634 H 248.771 -7.46141 -2.01231 0
M  V30 2635 H 247.116 -6.70843 -1.81644 0
M  V30 2636 H 250.307 -4.43381 -1.50102 0
M  V30 2637 H 250.48 -6.21416 -1.837 0
M  V30 2638 N 243.887 0.651787 -1.4349 0
M  V30 2639 C 245.115 1.43937 -1.48626 0
M  V30 2640 C 245.53 1.8851 -0.104587 0
M  V30 2641 O 244.887 1.5958 0.885464 0
M  V30 2642 C 244.938 2.6734 -2.43334 0
M  V30 2643 O 244.659 2.24631 -3.76128 0
M  V30 2644 C 246.16 3.60683 -2.57726 0
M  V30 2645 H 243.38 0.44213 -0.504739 0
M  V30 2646 H 245.924 0.798944 -1.88248 0
M  V30 2647 H 244.079 3.2752 -2.06904 0
M  V30 2648 H 244.493 3.04485 -4.2707 0
M  V30 2649 H 245.967 4.43933 -3.28067 0
M  V30 2650 H 246.444 4.08126 -1.62265 0
M  V30 2651 H 247.05 3.06384 -2.94973 0
M  V30 2652 N 245.365 1.30045 0.890287 0
M  V30 2653 C 246.593 1.21472 1.67487 0
M  V30 2654 C 247.008 -0.223241 1.87476 0
M  V30 2655 O 246.365 -1.14828 1.41847 0
M  V30 2656 C 246.416 1.93394 3.05419 0
M  V30 2657 O 246.137 3.31576 2.86337 0
M  V30 2658 C 247.638 1.91414 3.99844 0
M  V30 2659 H 244.858 0.420604 0.522813 0
M  V30 2660 H 247.402 1.7158 1.11268 0
M  V30 2661 H 245.557 1.47099 3.58386 0
M  V30 2662 H 245.971 3.67929 3.73802 0
M  V30 2663 H 247.445 2.46285 4.94012 0
M  V30 2664 H 247.922 0.891833 4.3005 0
M  V30 2665 H 248.528 2.37496 3.52811 0
M  V30 2666 N 246.843 -1.10192 1.12674 0
M  V30 2667 C 247.753 -2.20172 0.810026 0
M  V30 2668 C 248.769 -1.72821 -0.202188 0
M  V30 2669 O 249.945 -2.01369 -0.0351691 0
M  V30 2670 C 247.01 -3.45631 0.272007 0
M  V30 2671 C 246.071 -4.07704 1.34447 0
M  V30 2672 C 245.304 -5.27175 0.832029 0
M  V30 2673 O 245.527 -5.69425 -0.333284 0
M  V30 2674 O 244.461 -5.80168 1.60277 0
M  V30 2675 H 248.287 -2.49701 1.72867 0
M  V30 2676 H 245.872 -1.18977 0.903597 0
M  V30 2677 H 247.754 -4.21394 -0.0230219 0
M  V30 2678 H 246.429 -3.17723 -0.619164 0
M  V30 2679 H 245.336 -3.33614 1.6927 0
M  V30 2680 H 246.669 -4.3982 2.2095 0
M  V30 2681 N 248.321 -0.919034 -1.28029 0
M  V30 2682 C 249.546 -0.570357 -1.99403 0
M  V30 2683 C 249.971 0.842486 -1.68178 0
M  V30 2684 O 249.329 1.56391 -0.917141 0
M  V30 2685 C 249.377 -0.792541 -3.51783 0
M  V30 2686 O 248.481 0.145988 -4.12142 0
M  V30 2687 H 247.822 -0.220555 -0.6263 0
M  V30 2688 H 250.352 -1.23592 -1.63053 0
M  V30 2689 H 250.362 -0.704708 -4.01868 0
M  V30 2690 H 249.037 -1.82247 -3.73844 0
M  V30 2691 H 247.614 0.00897528 -3.72899 0
M  V30 2692 N 249.799 1.42003 -0.683588 0
M  V30 2693 C 250.731 2.29183 0.0283068 0
M  V30 2694 C 251.744 1.4415 0.756611 0
M  V30 2695 O 252.933 1.67779 0.609306 0
M  V30 2696 C 250.033 3.21765 1.06398 0
M  V30 2697 C 249.206 4.35496 0.407723 0
M  V30 2698 C 248.265 5.08737 1.34437 0
M  V30 2699 O 247.291 5.62948 0.841318 0
M  V30 2700 N 248.493 5.15075 2.67728 0
M  V30 2701 H 251.258 2.9092 -0.720105 0
M  V30 2702 H 248.819 1.53025 -0.528682 0
M  V30 2703 H 250.811 3.6763 1.69204 0
M  V30 2704 H 249.381 2.61418 1.71404 0
M  V30 2705 H 248.601 3.92165 -0.400012 0
M  V30 2706 H 249.889 5.08776 -0.0490956 0
M  V30 2707 H 249.287 4.72457 3.11129 0
M  V30 2708 H 247.844 5.64556 3.2576 0
M  V30 2709 N 251.277 0.427512 1.51691 0
M  V30 2710 C 252.523 -0.142439 2.02299 0
M  V30 2711 C 252.856 -1.43214 1.31162 0
M  V30 2712 O 252.131 -1.89833 0.423511 0
M  V30 2713 C 252.414 -0.371301 3.58181 0
M  V30 2714 C 252.267 0.936358 4.39946 0
M  V30 2715 C 253.586 -1.14542 4.24933 0
M  V30 2716 H 250.705 -0.0502937 0.735282 0
M  V30 2717 H 253.347 0.564584 1.81418 0
M  V30 2718 H 251.497 -0.973559 3.76104 0
M  V30 2719 H 253.169 1.57184 4.33694 0
M  V30 2720 H 251.412 1.5432 4.05423 0
M  V30 2721 H 252.083 0.730388 5.47147 0
M  V30 2722 H 254.559 -0.635362 4.11221 0
M  V30 2723 H 253.435 -1.27431 5.33903 0
M  V30 2724 H 253.696 -2.17093 3.85127 0
M  V30 2725 N 252.755 -1.56801 0.158532 0
M  V30 2726 C 253.705 -2.13923 -0.788738 0
M  V30 2727 C 254.689 -1.07006 -1.2016 0
M  V30 2728 O 255.881 -1.33159 -1.1661 0
M  V30 2729 C 253.01 -2.77348 -2.02319 0
M  V30 2730 C 252.096 -3.91404 -1.6329 0
M  V30 2731 N 252.487 -4.9677 -0.951463 0
M  V30 2732 C 250.785 -4.02326 -1.92482 0
M  V30 2733 C 251.486 -5.76698 -0.761221 0
M  V30 2734 N 250.462 -5.27859 -1.29869 0
M  V30 2735 H 254.264 -2.92757 -0.258995 0
M  V30 2736 H 251.778 -1.62344 -0.0426055 0
M  V30 2737 H 253.775 -3.16639 -2.71192 0
M  V30 2738 H 252.435 -1.99991 -2.558 0
M  V30 2739 H 253.446 -5.14284 -0.610928 0
M  V30 2740 H 250.123 -3.36059 -2.47732 0
M  V30 2741 H 251.513 -6.71529 -0.223284 0
M  V30 2742 N 254.233 0.115231 -1.57178 0
M  V30 2743 C 255.649 0.468877 -1.52557 0
M  V30 2744 C 255.849 1.81649 -0.872125 0
M  V30 2745 O 254.905 2.48347 -0.45606 0
M  V30 2746 C 256.218 0.4499 -2.97315 0
M  V30 2747 C 257.766 0.533185 -3.08425 0
M  V30 2748 C 258.241 0.54456 -4.54751 0
M  V30 2749 N 259.732 0.605892 -4.5922 0
M  V30 2750 C 260.467 0.636203 -5.6986 0
M  V30 2751 N 259.963 0.623931 -6.89985 0
M  V30 2752 N 261.756 0.679496 -5.57978 0
M  V30 2753 H 253.907 -0.767712 -1.9804 0
M  V30 2754 H 256.17 -0.283609 -0.904583 0
M  V30 2755 H 255.876 -0.472721 -3.48509 0
M  V30 2756 H 255.75 1.27632 -3.5495 0
M  V30 2757 H 258.137 1.44623 -2.57232 0
M  V30 2758 H 258.218 -0.320995 -2.53778 0
M  V30 2759 H 257.862 -0.364452 -5.06591 0
M  V30 2760 H 257.792 1.41568 -5.07214 0
M  V30 2761 H 260.283 0.621386 -3.72756 0
M  V30 2762 H 260.596 0.649787 -7.70063 0
M  V30 2763 H 258.941 0.591296 -6.9248 0
M  V30 2764 H 262.132 0.686472 -4.63039 0
M  V30 2765 H 262.305 0.69965 -6.44212 0
M  V30 2766 N 255.711 1.52812 0.385517 0
M  V30 2767 C 256.621 1.80766 1.49535 0
M  V30 2768 C 257.637 0.694651 1.59532 0
M  V30 2769 O 258.813 0.982611 1.75803 0
M  V30 2770 C 255.878 1.97381 2.85029 0
M  V30 2771 C 254.939 3.21295 2.84724 0
M  V30 2772 C 254.172 3.37108 4.13756 0
M  V30 2773 O 254.395 2.5765 5.08893 0
M  V30 2774 O 253.329 4.30378 4.20783 0
M  V30 2775 H 257.155 2.75015 1.28842 0
M  V30 2776 H 254.74 1.37946 0.573697 0
M  V30 2777 H 256.622 2.09996 3.65349 0
M  V30 2778 H 255.297 1.06322 3.05741 0
M  V30 2779 H 254.204 3.1412 2.03174 0
M  V30 2780 H 255.537 4.12212 2.68965 0
M  V30 2781 N 257.189 -0.644168 1.43834 0
M  V30 2782 C 258.119 -1.76814 1.52509 0
M  V30 2783 C 259.1 -1.65823 0.379052 0
M  V30 2784 O 260.285 -1.84781 0.597466 0
M  V30 2785 C 257.415 -3.15288 1.4564 0
M  V30 2786 C 256.369 -3.41053 2.58586 0
M  V30 2787 C 255.695 -4.79421 2.36769 0
M  V30 2788 C 256.995 -3.34902 4.00797 0
M  V30 2789 H 258.689 -1.69812 2.46586 0
M  V30 2790 H 256.235 -0.815542 1.1868 0
M  V30 2791 H 258.188 -3.93681 1.50311 0
M  V30 2792 H 256.912 -3.23043 0.480725 0
M  V30 2793 H 255.571 -2.65035 2.53282 0
M  V30 2794 H 255.219 -4.83863 1.37424 0
M  V30 2795 H 254.919 -4.9762 3.12487 0
M  V30 2796 H 256.443 -5.6006 2.43238 0
M  V30 2797 H 257.857 -4.03218 4.07539 0
M  V30 2798 H 256.254 -3.64637 4.76613 0
M  V30 2799 H 257.324 -2.32928 4.25291 0
M  V30 2800 N 258.668 -1.30515 -0.883378 0
M  V30 2801 C 259.631 -1.1701 -1.97082 0
M  V30 2802 C 260.631 -0.10089 -1.60483 0
M  V30 2803 O 261.821 -0.349127 -1.70666 0
M  V30 2804 C 258.953 -0.793045 -3.31547 0
M  V30 2805 H 260.146 -2.13622 -2.10489 0
M  V30 2806 H 257.699 -1.13935 -1.06998 0
M  V30 2807 H 258.434 0.172499 -3.23841 0
M  V30 2808 H 258.219 -1.56576 -3.5948 0
M  V30 2809 H 259.709 -0.722073 -4.1131 0
M  V30 2810 N 260.146 1.09593 -1.13257 0
M  V30 2811 C 261.371 1.8604 -0.916732 0
M  V30 2812 C 261.796 1.80504 0.529146 0
M  V30 2813 O 261.154 1.18127 1.37534 0
M  V30 2814 C 261.202 3.32017 -1.40703 0
M  V30 2815 O 260.306 4.08141 -0.591153 0
M  V30 2816 H 259.647 0.576943 -0.328683 0
M  V30 2817 H 262.177 1.38405 -1.50682 0
M  V30 2818 H 262.187 3.82865 -1.4099 0
M  V30 2819 H 260.862 3.35361 -2.45979 0
M  V30 2820 H 259.439 3.67084 -0.656005 0
M  V30 2821 N 261.624 0.925811 1.2754 0
M  V30 2822 C 262.872 0.564138 1.94067 0
M  V30 2823 C 263.193 -0.897188 1.73134 0
M  V30 2824 O 262.463 -1.63573 1.07799 0
M  V30 2825 H 261.043 0.205645 0.718136 0
M  V30 2826 H 263.705 1.1778 1.55287 0
M  V30 2827 H 262.801 0.76881 3.02483 0
M  V30 2828 N 263.102 -1.41638 0.69111 0
M  V30 2829 C 264.032 -2.3347 0.037248 0
M  V30 2830 C 265.013 -1.51575 -0.771947 0
M  V30 2831 O 266.198 -1.80126 -0.72582 0
M  V30 2832 C 263.328 -3.35354 -0.903064 0
M  V30 2833 C 262.282 -4.27526 -0.201288 0
M  V30 2834 C 261.608 -5.19747 -1.25565 0
M  V30 2835 C 262.908 -5.13959 0.929689 0
M  V30 2836 H 264.602 -2.88397 0.804227 0
M  V30 2837 H 262.148 -1.38669 0.388189 0
M  V30 2838 H 264.101 -3.98519 -1.36969 0
M  V30 2839 H 262.825 -2.78767 -1.70166 0
M  V30 2840 H 261.484 -3.65779 0.245265 0
M  V30 2841 H 261.132 -4.59479 -2.04666 0
M  V30 2842 H 260.832 -5.8225 -0.791128 0
M  V30 2843 H 262.356 -5.85789 -1.72288 0
M  V30 2844 H 263.77 -5.70718 0.543546 0
M  V30 2845 H 262.167 -5.85379 1.32103 0
M  V30 2846 H 263.237 -4.51389 1.77133 0
M  V30 2847 N 264.58 -0.43555 -1.51462 0
M  V30 2848 C 265.805 0.132627 -2.06976 0
M  V30 2849 C 266.23 1.35848 -1.30104 0
M  V30 2850 O 265.588 1.78112 -0.338493 0
M  V30 2851 C 265.636 0.43523 -3.57964 0
M  V30 2852 O 264.74 1.52198 -3.83288 0
M  V30 2853 H 264.081 0.00265 -0.663995 0
M  V30 2854 H 266.611 -0.616369 -1.95095 0
M  V30 2855 H 266.621 0.686206 -4.02188 0
M  V30 2856 H 265.296 -0.460739 -4.1334 0
M  V30 2857 H 263.873 1.2611 -3.50928 0
M  V30 2858 N 266.058 1.56714 -0.166846 0
M  V30 2859 C 267.298 1.98641 0.481763 0
M  V30 2860 C 267.662 1.05038 1.6072 0
M  V30 2861 O 268.863 1.36087 2.31805 0
M  V30 2862 C 267.134 3.44362 0.956517 0
M  V30 2863 S 268.693 4.08317 1.60694 0
M  V30 2864 H 265.511 0.693873 0.155116 0
M  V30 2865 H 268.113 1.93719 -0.263251 0
M  V30 2866 H 266.817 4.10204 0.126936 0
M  V30 2867 H 266.348 3.53041 1.73568 0
M  V30 2868 H 268.363 4.02999 2.89494 0
M  V30 2869 N 267.536 -0.106894 1.57237 0
M  V30 2870 C 268.947 -0.662723 1.74542 0
M  V30 2871 C 269.298 -1.7971 0.787319 0
M  V30 2872 O 268.423 -2.16368 -0.0369636 0
M  V30 2873 C 269.018 -1.20896 3.16496 0
M  V30 2874 C 267.577 -1.71096 3.35266 0
M  V30 2875 C 266.724 -0.615642 2.7038 0
M  V30 2876 H 269.675 0.119106 1.58252 0
M  V30 2877 H 269.696 -2.07847 3.18716 0
M  V30 2878 H 269.208 -0.383122 3.86204 0
M  V30 2879 H 267.309 -2.56119 2.70618 0
M  V30 2880 H 267.422 -1.81208 4.43509 0
M  V30 2881 H 265.786 -1.05222 2.31949 0
M  V30 2882 H 266.569 0.199419 3.4272 0
M  V30 2883 N 269.014 -1.53014 -0.377408 0
M  V30 2884 C 270.26 -1.68872 -1.12294 0
M  V30 2885 C 270.593 -0.433224 -1.89306 0
M  V30 2886 O 269.868 0.569258 -1.85983 0
M  V30 2887 C 270.151 -2.93115 -2.09179 0
M  V30 2888 C 270.004 -4.28794 -1.35853 0
M  V30 2889 C 271.323 -3.12928 -3.09458 0
M  V30 2890 H 268.442 -0.614518 -0.406862 0
M  V30 2891 H 271.084 -1.85633 -0.40503 0
M  V30 2892 H 269.234 -2.78956 -2.70399 0
M  V30 2893 H 270.906 -4.54742 -0.775082 0
M  V30 2894 H 269.149 -4.28744 -0.660364 0
M  V30 2895 H 269.82 -5.11837 -2.06706 0
M  V30 2896 H 272.296 -3.26194 -2.58334 0
M  V30 2897 H 271.172 -4.01316 -3.74482 0
M  V30 2898 H 271.433 -2.27669 -3.78971 0
M  V30 2899 N 270.492 0.636531 -1.44174 0
M  V30 2900 C 271.74 1.39343 -1.46383 0
M  V30 2901 C 272.061 1.94766 -0.0955715 0
M  V30 2902 O 271.331 1.75452 0.871395 0
M  V30 2903 H 269.911 0.517199 -0.538994 0
M  V30 2904 H 272.573 0.74957 -1.7991 0
M  V30 2905 H 271.669 2.22746 -2.18611 0
M  V30 2906 N 271.97 1.30982 0.876444 0
M  V30 2907 C 273.217 1.20296 1.62896 0
M  V30 2908 C 273.545 -0.240395 1.93009 0
M  V30 2909 O 272.8 -1.18733 1.55567 0
M  V30 2910 C 273.099 1.98572 2.9716 0
M  V30 2911 C 272.765 3.48125 2.86566 0
M  V30 2912 C 271.427 3.88905 2.83383 0
M  V30 2913 C 273.779 4.43322 2.74071 0
M  V30 2914 C 271.107 5.2316 2.65556 0
M  V30 2915 C 273.459 5.77695 2.57781 0
M  V30 2916 C 272.123 6.17704 2.52979 0
M  V30 2917 H 271.393 0.440193 0.59608 0
M  V30 2918 H 274.04 1.62177 1.01837 0
M  V30 2919 H 272.345 1.49352 3.62217 0
M  V30 2920 H 274.042 1.8769 3.54364 0
M  V30 2921 H 270.632 3.15723 2.89856 0
M  V30 2922 H 274.816 4.12752 2.75589 0
M  V30 2923 H 270.072 5.53241 2.60259 0
M  V30 2924 H 274.246 6.51091 2.47089 0
M  V30 2925 H 271.873 7.21678 2.38924 0
M  V30 2926 N 273.449 -1.08991 1.13837 0
M  V30 2927 C 274.396 -2.15748 0.819835 0
M  V30 2928 C 275.366 -1.64636 -0.220026 0
M  V30 2929 O 276.551 -1.90582 -0.0912757 0
M  V30 2930 C 273.691 -3.4382 0.296913 0
M  V30 2931 C 272.804 -4.0881 1.39636 0
M  V30 2932 C 271.939 -5.24655 0.831314 0
M  V30 2933 C 270.978 -5.81575 1.90886 0
M  V30 2934 N 270.115 -6.88774 1.36142 0
M  V30 2935 H 274.955 -2.42338 1.73426 0
M  V30 2936 H 272.492 -1.18935 0.865613 0
M  V30 2937 H 274.45 -4.17193 -0.0244339 0
M  V30 2938 H 273.08 -3.17535 -0.580628 0
M  V30 2939 H 272.132 -3.33258 1.83422 0
M  V30 2940 H 273.444 -4.47141 2.21058 0
M  V30 2941 H 272.598 -6.04942 0.461515 0
M  V30 2942 H 271.337 -4.87698 -0.013932 0
M  V30 2943 H 270.342 -4.99946 2.28767 0
M  V30 2944 H 271.567 -6.20592 2.75758 0
M  V30 2945 H 269.513 -6.53788 0.538254 0
M  V30 2946 H 269.43 -7.25898 2.11208 0
M  V30 2947 H 270.698 -7.72806 1.01933 0
M  V30 2948 N 274.927 -0.932562 -1.27047 0
M  V30 2949 C 275.875 -0.42603 -2.28665 0
M  V30 2950 C 276.869 0.49219 -1.62092 0
M  V30 2951 O 278.075 0.371355 -1.76128 0
M  V30 2952 H 274.45 -0.119213 -0.742491 0
M  V30 2953 H 276.421 -1.29579 -2.68797 0
M  V30 2954 C 275.17 0.301426 -3.46391 0
M  V30 2955 H 274.493 -0.39595 -3.97834 0
M  V30 2956 H 275.933 0.6202 -4.1944 0
M  V30 2957 C 274.392 1.51616 -3.00856 0
M  V30 2958 O 274.922 2.61476 -3.04948 0
M  V30 2959 N 273.128 1.36969 -2.56296 0
M  V30 2960 H 272.675 0.475873 -2.53166 0
M  V30 2961 H 272.633 2.18368 -2.26192 0
M  V30 2962 N 276.405 1.4127 -0.698611 0
M  V30 2963 C 277.653 2.00782 -0.230409 0
M  V30 2964 C 277.974 1.5562 1.17505 0
M  V30 2965 O 277.244 0.78815 1.79346 0
M  V30 2966 H 275.824 0.742464 -0.0821944 0
M  V30 2967 H 278.486 1.72852 -0.90045 0
M  V30 2968 H 277.582 3.11095 -0.25021 0
M  V30 2969 N 277.883 0.443576 1.51229 0
M  V30 2970 C 279.111 -0.11929 2.06556 0
M  V30 2971 C 279.526 -1.35921 1.31038 0
M  V30 2972 O 278.883 -1.78675 0.371704 0
M  V30 2973 C 278.934 -0.435228 3.5887 0
M  V30 2974 O 278.655 0.755486 4.31537 0
M  V30 2975 C 280.156 -1.04808 4.30732 0
M  V30 2976 H 277.376 -0.0051584 0.67098 0
M  V30 2977 H 279.92 0.624453 1.94733 0
M  V30 2978 H 278.075 -1.12887 3.70588 0
M  V30 2979 H 278.489 0.483491 5.22267 0
M  V30 2980 H 279.963 -1.2191 5.3837 0
M  V30 2981 H 280.44 -2.03081 3.89429 0
M  V30 2982 H 281.046 -0.393637 4.23474 0
M  V30 2983 N 279.361 -1.56624 0.175154 0
M  V30 2984 C 280.638 -1.88688 -0.515373 0
M  V30 2985 C 281.018 -1.08564 -1.81044 0
M  V30 2986 O 280.366 -0.180703 -2.27784 0
M  V30 2987 C 280.576 -3.40768 -0.753552 0
M  V30 2988 C 281.924 -4.10587 -1.08184 0
M  V30 2989 O 282.948 -3.46106 -0.841961 0
M  V30 2990 O 281.807 -5.24512 -1.53459 0
M  V30 2991 H 278.901 -0.78301 -0.26613 0
M  V30 2992 H 281.447 -1.68347 0.213877 0
M  V30 2993 H 280.219 -3.90965 0.161829 0
M  V30 2994 H 279.842 -3.66733 -1.53598 0
M  V30 2995 N 280.839 0.0985539 -1.57292 0
M  V30 2996 C 282.087 0.801092 -1.85545 0
M  V30 2997 C 282.408 1.79438 -0.763353 0
M  V30 2998 O 281.678 1.94763 0.21073 0
M  V30 2999 H 280.258 0.29884 -0.684619 0
M  V30 3000 H 282.92 0.0810064 -1.94732 0
M  V30 3001 H 282.016 1.3338 -2.82163 0
M  V30 3002 N 282.317 1.53212 0.369288 0
M  V30 3003 C 283.545 1.73119 1.13303 0
M  V30 3004 C 283.96 0.458455 1.83149 0
M  V30 3005 O 283.317 -0.568403 1.73423 0
M  V30 3006 C 283.368 2.89413 2.16616 0
M  V30 3007 O 283.089 4.11761 1.49614 0
M  V30 3008 C 284.59 3.21161 3.05566 0
M  V30 3009 H 281.81 0.579107 0.338934 0
M  V30 3010 H 284.354 1.99942 0.429338 0
M  V30 3011 H 282.509 2.64994 2.82589 0
M  V30 3012 H 282.923 4.76858 2.18419 0
M  V30 3013 H 284.397 4.05949 3.74045 0
M  V30 3014 H 284.874 2.36369 3.70171 0
M  V30 3015 H 285.48 3.47492 2.45213 0
M  V30 3016 N 283.795 -0.628877 1.44509 0
M  V30 3017 C 285.044 -1.38437 1.4669 0
M  V30 3018 C 285.357 -1.95322 0.104272 0
M  V30 3019 O 286.563 -2.715 0.00362163 0
M  V30 3020 C 285.019 -2.50659 2.5826 0
M  V30 3021 C 284.627 -2.00277 4.0074 0
M  V30 3022 C 286.371 -3.27844 2.69664 0
M  V30 3023 C 284.278 -3.09854 5.0373 0
M  V30 3024 H 283.208 -0.520245 0.545766 0
M  V30 3025 H 285.859 -0.676313 1.70582 0
M  V30 3026 H 284.241 -3.2405 2.27612 0
M  V30 3027 H 285.415 -1.33736 4.40966 0
M  V30 3028 H 283.73 -1.35901 3.93599 0
M  V30 3029 H 286.327 -4.09534 3.43781 0
M  V30 3030 H 286.67 -3.77471 1.75559 0
M  V30 3031 H 287.203 -2.61543 2.99733 0
M  V30 3032 H 283.942 -2.65168 5.99472 0
M  V30 3033 H 283.462 -3.7503 4.68095 0
M  V30 3034 H 285.141 -3.74592 5.27532 0
M  V30 3035 N 285.273 -1.31445 -0.869486 0
M  V30 3036 C 286.22 -1.19135 -1.97675 0
M  V30 3037 C 287.19 -0.0770266 -1.65921 0
M  V30 3038 O 288.375 -0.249972 -1.89155 0
M  V30 3039 C 285.515 -0.905149 -3.33018 0
M  V30 3040 C 284.628 -2.10285 -3.77365 0
M  V30 3041 C 283.763 -1.75339 -5.01427 0
M  V30 3042 C 282.802 -2.91515 -5.38224 0
M  V30 3043 N 281.939 -2.56762 -6.53466 0
M  V30 3044 H 286.779 -2.13853 -2.07535 0
M  V30 3045 H 284.316 -1.06379 -1.01597 0
M  V30 3046 H 286.274 -0.719765 -4.10944 0
M  V30 3047 H 284.904 0.00519624 -3.228 0
M  V30 3048 H 283.956 -2.39899 -2.95216 0
M  V30 3049 H 285.268 -2.97237 -4.00564 0
M  V30 3050 H 284.422 -1.53266 -5.87022 0
M  V30 3051 H 283.161 -0.855801 -4.80133 0
M  V30 3052 H 282.166 -3.14237 -4.51149 0
M  V30 3053 H 283.391 -3.81985 -5.61484 0
M  V30 3054 H 281.337 -1.69526 -6.33717 0
M  V30 3055 H 281.254 -3.37243 -6.76612 0
M  V30 3056 H 282.522 -2.38083 -7.42251 0
M  V30 3057 N 286.751 1.08385 -1.14413 0
M  V30 3058 C 287.997 1.81044 -0.913834 0
M  V30 3059 C 288.33 1.86004 0.558209 0
M  V30 3060 O 287.605 1.33606 1.4135 0
M  V30 3061 C 287.888 3.26648 -1.51569 0
M  V30 3062 C 287.741 3.29895 -3.0576 0
M  V30 3063 C 289.06 4.23629 -1.19273 0
M  V30 3064 H 286.179 0.65727 -0.333414 0
M  V30 3065 H 288.821 1.26896 -1.41412 0
M  V30 3066 H 286.971 3.72889 -1.09023 0
M  V30 3067 H 288.643 2.91977 -3.57137 0
M  V30 3068 H 286.886 2.69163 -3.40197 0
M  V30 3069 H 287.557 4.32516 -3.42977 0
M  V30 3070 H 290.033 3.85727 -1.56057 0
M  V30 3071 H 288.909 5.23822 -1.64017 0
M  V30 3072 H 289.17 4.41968 -0.108068 0
M  V30 3073 N 288.23 0.939286 1.26551 0
M  V30 3074 C 289.193 0.451987 2.24699 0
M  V30 3075 C 290.193 -0.435869 1.5478 0
M  V30 3076 O 291.383 -0.235314 1.72603 0
M  V30 3077 C 288.515 -0.348801 3.39111 0
M  V30 3078 H 289.708 1.3193 2.69322 0
M  V30 3079 H 287.261 0.721072 1.38673 0
M  V30 3080 H 287.996 -1.23444 2.99887 0
M  V30 3081 H 287.781 0.287945 3.91041 0
M  V30 3082 H 289.271 -0.679726 4.12031 0
M  V30 3083 N 289.708 -1.40897 0.706093 0
M  V30 3084 C 290.957 -2.00284 0.238574 0
M  V30 3085 C 291.27 -1.56604 -1.17194 0
M  V30 3086 O 292.476 -2.08624 -1.73748 0
M  V30 3087 C 290.932 -3.57934 0.375623 0
M  V30 3088 C 290.54 -4.10591 1.79217 0
M  V30 3089 C 292.284 -4.24488 -0.0315857 0
M  V30 3090 C 290.191 -5.60712 1.88032 0
M  V30 3091 H 289.121 -0.749144 0.0854398 0
M  V30 3092 H 291.772 -1.61251 0.875813 0
M  V30 3093 H 290.154 -3.94622 -0.330042 0
M  V30 3094 H 291.328 -3.85301 2.52745 0
M  V30 3095 H 289.643 -3.56601 2.15 0
M  V30 3096 H 292.24 -5.34698 0.0136842 0
M  V30 3097 H 292.583 -4.02261 -1.072 0
M  V30 3098 H 293.116 -3.92873 0.624181 0
M  V30 3099 H 289.855 -5.87781 2.90161 0
M  V30 3100 H 289.375 -5.87896 1.18903 0
M  V30 3101 H 291.054 -6.25658 1.64805 0
M  V30 3102 N 291.186 -0.45159 -1.50991 0
M  V30 3103 C 292.463 0.170707 -1.94854 0
M  V30 3104 C 292.843 1.58788 -1.39103 0
M  V30 3105 O 292.191 2.20913 -0.583921 0
M  V30 3106 C 292.401 0.133929 -3.48743 0
M  V30 3107 C 293.749 0.33248 -4.23296 0
M  V30 3108 O 294.773 0.211403 -3.55572 0
M  V30 3109 O 293.632 0.57486 -5.43468 0
M  V30 3110 H 290.726 0.122264 -0.817912 0
M  V30 3111 H 293.272 -0.510594 -1.61836 0
M  V30 3112 H 292.044 -0.856283 -3.81816 0
M  V30 3113 H 291.667 0.857529 -3.88242 0
M  V30 3114 N 292.664 1.56529 -0.183458 0
M  V30 3115 C 293.627 2.17324 0.728223 0
M  V30 3116 C 294.627 1.12453 1.14939 0
M  V30 3117 O 295.817 1.37902 1.06437 0
M  V30 3118 C 292.949 2.76591 1.99274 0
M  V30 3119 H 294.142 2.99241 0.198772 0
M  V30 3120 H 291.695 1.5616 0.0661391 0
M  V30 3121 H 292.43 1.98441 2.56499 0
M  V30 3122 H 292.215 3.5335 1.69959 0
M  V30 3123 H 293.705 3.23311 2.6431 0
M  V30 3124 N 294.142 -0.090211 1.57342 0
M  V30 3125 C 295.391 -0.791531 1.8552 0
M  V30 3126 C 295.704 -1.79659 0.773441 0
M  V30 3127 O 296.91 -2.54616 0.942497 0
M  V30 3128 C 295.366 -1.45856 3.2902 0
M  V30 3129 C 294.974 -0.493017 4.45279 0
M  V30 3130 C 296.718 -2.14332 3.66418 0
M  V30 3131 C 294.625 -1.16491 5.79814 0
M  V30 3132 H 293.555 -0.299356 0.692027 0
M  V30 3133 H 296.206 -0.0445343 1.83446 0
M  V30 3134 H 294.588 -2.25318 3.2565 0
M  V30 3135 H 295.762 0.270464 4.60006 0
M  V30 3136 H 294.077 0.0863061 4.16311 0
M  V30 3137 H 296.674 -2.65344 4.64216 0
M  V30 3138 H 297.017 -2.93447 2.95287 0
M  V30 3139 H 297.55 -1.41724 3.71698 0
M  V30 3140 H 294.289 -0.41447 6.54188 0
M  V30 3141 H 293.809 -1.8997 5.68921 0
M  V30 3142 H 295.488 -1.69001 6.24538 0
M  V30 3143 N 295.62 -1.53406 -0.361157 0
M  V30 3144 C 296.568 -1.80832 -1.46296 0
M  V30 3145 C 297.562 -0.677699 -1.55253 0
M  V30 3146 O 298.768 -0.860723 -1.58087 0
M  V30 3147 H 295.143 -0.572627 -0.487445 0
M  V30 3148 H 297.114 -2.73045 -1.20371 0
M  V30 3149 C 295.863 -2.01907 -2.8307 0
M  V30 3150 H 295.186 -2.88349 -2.76938 0
M  V30 3151 H 296.626 -2.25072 -3.59331 0
M  V30 3152 C 295.085 -0.799449 -3.27277 0
M  V30 3153 O 295.615 0.00971761 -4.01699 0
M  V30 3154 N 293.821 -0.621637 -2.83873 0
M  V30 3155 H 293.368 -1.28126 -2.23476 0
M  V30 3156 H 293.326 0.19298 -3.13807 0
M  V30 3157 N 297.098 0.621204 -1.44841 0
M  V30 3158 C 298.061 1.71459 -1.521 0
M  V30 3159 C 299.061 1.55696 -0.401933 0
M  V30 3160 O 300.251 1.61011 -0.664925 0
M  V30 3161 C 297.383 3.10624 -1.40447 0
M  V30 3162 H 298.576 1.66394 -2.49506 0
M  V30 3163 H 296.129 0.835745 -1.3208 0
M  V30 3164 H 296.864 3.21277 -0.441737 0
M  V30 3165 H 296.649 3.23473 -2.21602 0
M  V30 3166 H 298.139 3.90293 -1.4853 0
M  V30 3167 N 298.576 1.31904 0.862503 0
M  V30 3168 C 299.539 1.20131 1.95195 0
M  V30 3169 C 300.539 0.126409 1.60302 0
M  V30 3170 O 301.729 0.376234 1.70089 0
M  V30 3171 C 298.861 0.845691 3.30244 0
M  V30 3172 H 300.054 2.16943 2.07064 0
M  V30 3173 H 297.607 1.15622 1.05172 0
M  V30 3174 H 298.342 -0.120957 3.24074 0
M  V30 3175 H 298.127 1.62276 3.56944 0
M  V30 3176 H 299.617 0.787418 4.10109 0
M  V30 3177 N 300.054 -1.07777 1.14986 0
M  V30 3178 C 301.302 -1.79934 0.920235 0
M  V30 3179 C 301.623 -1.86955 -0.554336 0
M  V30 3180 O 300.893 -1.36731 -1.40291 0
M  V30 3181 H 299.473 -0.666424 0.337473 0
M  V30 3182 H 302.135 -1.3027 1.44968 0
M  V30 3183 H 301.231 -2.82539 1.32583 0
M  V30 3184 N 301.532 -0.945985 -1.26051 0
M  V30 3185 C 302.495 -0.463897 -2.24456 0
M  V30 3186 C 303.495 0.427655 -1.55009 0
M  V30 3187 O 304.685 0.226157 -1.72726 0
M  V30 3188 C 301.817 0.330812 -3.39291 0
M  V30 3189 H 303.01 -1.33357 -2.68619 0
M  V30 3190 H 300.563 -0.728416 -1.38289 0
M  V30 3191 H 301.298 1.21852 -3.00537 0
M  V30 3192 H 301.083 -0.308679 -3.90883 0
M  V30 3193 H 302.573 0.657865 -4.12386 0
M  V30 3194 N 303.011 1.40521 -0.713556 0
M  V30 3195 C 304.422 1.83853 -0.324807 0
M  V30 3196 C 304.773 1.59667 1.14021 0
M  V30 3197 O 303.898 1.07649 1.87725 0
M  V30 3198 C 304.493 3.33751 -0.582746 0
M  V30 3199 C 303.052 3.75584 -0.247727 0
M  V30 3200 C 302.199 2.63753 -0.856121 0
M  V30 3201 H 305.15 1.29817 -0.91286 0
M  V30 3202 H 305.171 3.80194 0.152682 0
M  V30 3203 H 304.683 3.51322 -1.64908 0
M  V30 3204 H 302.784 3.63608 0.813624 0
M  V30 3205 H 302.897 4.7373 -0.715307 0
M  V30 3206 H 301.261 2.53108 -0.28432 0
M  V30 3207 H 302.044 2.84137 -1.92668 0
M  V30 3208 N 304.489 0.459591 1.5075 0
M  V30 3209 C 305.439 -0.358926 2.25157 0
M  V30 3210 C 306.423 -0.971285 1.28276 0
M  V30 3211 O 307.615 -0.885739 1.53244 0
M  V30 3212 C 304.744 -1.44695 3.11317 0
M  V30 3213 C 303.83 -0.842894 4.15639 0
M  V30 3214 N 304.221 0.0299373 5.05791 0
M  V30 3215 C 302.519 -1.10809 4.32015 0
M  V30 3216 C 303.22 0.371563 5.80512 0
M  V30 3217 N 302.196 -0.250409 5.43023 0
M  V30 3218 H 305.998 0.313636 2.92222 0
M  V30 3219 H 303.512 0.273021 1.60089 0
M  V30 3220 H 305.509 -2.04641 3.63218 0
M  V30 3221 H 304.169 -2.12162 2.45799 0
M  V30 3222 H 305.18 0.39797 5.16369 0
M  V30 3223 H 301.857 -1.7786 3.77719 0
M  V30 3224 H 303.247 1.08319 6.63111 0
M  V30 3225 N 305.967 -1.56429 0.191757 0
M  V30 3226 C 307.207 -1.99383 -0.450099 0
M  V30 3227 C 307.571 -1.07581 -1.59029 0
M  V30 3228 O 308.772 -1.39758 -2.29611 0
M  V30 3229 C 307.043 -3.45841 -0.901611 0
M  V30 3230 S 308.602 -4.10822 -1.54177 0
M  V30 3231 H 305.42 -0.696253 -0.144057 0
M  V30 3232 H 308.022 -1.93276 0.294036 0
M  V30 3233 H 306.726 -4.10354 -0.0616596 0
M  V30 3234 H 306.257 -3.55757 -1.67929 0
M  V30 3235 H 308.272 -4.07553 -2.83046 0
M  V30 3236 N 307.445 0.0818655 -1.57387 0
M  V30 3237 C 308.692 0.782914 -1.86753 0
M  V30 3238 C 309.02 1.78082 -0.782118 0
M  V30 3239 O 308.275 1.94426 0.22295 0
M  V30 3240 C 308.574 1.53513 -3.22752 0
M  V30 3241 C 308.24 0.678134 -4.45771 0
M  V30 3242 C 306.902 0.441929 -4.79166 0
M  V30 3243 C 309.254 0.0832243 -5.21134 0
M  V30 3244 C 306.582 -0.398833 -5.85343 0
M  V30 3245 C 308.934 -0.744935 -6.28199 0
M  V30 3246 C 307.598 -0.991107 -6.60101 0
M  V30 3247 H 306.868 0.286489 -0.683378 0
M  V30 3248 H 309.515 0.0439808 -1.91449 0
M  V30 3249 H 307.82 2.34599 -3.138 0
M  V30 3250 H 309.517 2.08218 -3.42705 0
M  V30 3251 H 306.107 0.872357 -4.19628 0
M  V30 3252 H 310.291 0.252847 -4.95655 0
M  V30 3253 H 305.547 -0.598405 -6.08465 0
M  V30 3254 H 309.721 -1.21271 -6.8576 0
M  V30 3255 H 307.348 -1.64437 -7.42202 0
M  V30 3256 N 308.923 1.53595 0.353017 0
M  V30 3257 C 309.853 1.83902 1.43883 0
M  V30 3258 C 310.834 0.693421 1.55324 0
M  V30 3259 O 312.019 0.944452 1.69687 0
M  V30 3260 C 309.149 2.04016 2.8106 0
M  V30 3261 C 308.103 3.19814 2.84434 0
M  V30 3262 C 307.429 3.25244 4.24406 0
M  V30 3263 C 308.729 4.58133 2.50822 0
M  V30 3264 H 310.423 2.74835 1.1877 0
M  V30 3265 H 307.969 1.32242 0.569917 0
M  V30 3266 H 309.922 2.238 3.57059 0
M  V30 3267 H 308.646 1.09804 3.07588 0
M  V30 3268 H 307.305 2.9987 2.10887 0
M  V30 3269 H 306.953 2.28646 4.48029 0
M  V30 3270 H 306.653 4.03054 4.27576 0
M  V30 3271 H 308.177 3.47228 5.0226 0
M  V30 3272 H 309.591 4.77995 3.16534 0
M  V30 3273 H 307.988 5.38276 2.6529 0
M  V30 3274 H 309.058 4.62387 1.46034 0
M  V30 3275 N 310.401 -0.613514 1.45168 0
M  V30 3276 C 311.626 -1.40437 1.52618 0
M  V30 3277 C 312.051 -1.87438 0.157707 0
M  V30 3278 O 311.409 -1.59791 -0.856537 0
M  V30 3279 C 311.457 -2.58894 2.51011 0
M  V30 3280 O 310.561 -3.59326 2.02382 0
M  V30 3281 H 309.902 -0.419506 0.514695 0
M  V30 3282 H 312.432 -0.747215 1.90467 0
M  V30 3283 H 312.442 -3.06214 2.69624 0
M  V30 3284 H 311.117 -2.24032 3.50403 0
M  V30 3285 H 309.694 -3.18695 1.93618 0
M  V30 3286 N 311.879 -1.3236 -0.855495 0
M  V30 3287 C 313.125 -1.23054 -1.612 0
M  V30 3288 C 313.458 0.207404 -1.93089 0
M  V30 3289 O 312.733 1.14432 -1.57275 0
M  V30 3290 C 313.016 -2.08937 -2.93287 0
M  V30 3291 C 312.869 -3.61105 -2.68185 0
M  V30 3292 C 314.188 -1.94986 -3.94549 0
M  V30 3293 H 311.307 -0.448364 -0.584926 0
M  V30 3294 H 313.949 -1.62297 -0.987917 0
M  V30 3295 H 312.099 -1.75599 -3.46551 0
M  V30 3296 H 313.771 -4.04652 -2.21483 0
M  V30 3297 H 312.014 -3.83813 -2.02164 0
M  V30 3298 H 312.685 -4.16522 -3.62234 0
M  V30 3299 H 315.161 -2.24189 -3.5054 0
M  V30 3300 H 314.037 -2.57356 -4.84829 0
M  V30 3301 H 314.298 -0.917263 -4.3248 0
M  V30 3302 N 313.357 1.07166 -1.15556 0
M  V30 3303 C 314.585 1.83514 -0.955519 0
M  V30 3304 C 315 1.82163 0.49621 0
M  V30 3305 O 314.357 1.23441 1.34419 0
M  V30 3306 C 314.408 3.30515 -1.46432 0
M  V30 3307 O 314.129 3.31937 -2.85918 0
M  V30 3308 C 315.63 4.23625 -1.30603 0
M  V30 3309 H 312.85 0.578926 -0.339244 0
M  V30 3310 H 315.394 1.35265 -1.53374 0
M  V30 3311 H 313.549 3.76106 -0.928584 0
M  V30 3312 H 313.963 4.23794 -3.09029 0
M  V30 3313 H 315.437 5.24831 -1.71047 0
M  V30 3314 H 315.914 4.38485 -0.250441 0
M  V30 3315 H 316.52 3.83871 -1.83094 0
M  V30 3316 N 314.835 0.952656 1.25548 0
M  V30 3317 C 315.782 0.47008 2.25962 0
M  V30 3318 C 316.752 -0.476384 1.59122 0
M  V30 3319 O 317.937 -0.39007 1.8677 0
M  V30 3320 C 315.077 -0.247881 3.44209 0
M  V30 3321 C 314.19 0.735591 4.25691 0
M  V30 3322 C 313.325 -0.0047306 5.312 0
M  V30 3323 C 312.364 0.969805 6.04368 0
M  V30 3324 N 311.501 0.260486 7.01617 0
M  V30 3325 H 316.341 1.33126 2.66611 0
M  V30 3326 H 313.878 0.66765 1.31076 0
M  V30 3327 H 315.836 -0.680695 4.1161 0
M  V30 3328 H 314.466 -1.07312 3.0444 0
M  V30 3329 H 313.518 1.28689 3.57971 0
M  V30 3330 H 314.83 1.47934 4.76358 0
M  V30 3331 H 313.984 -0.496275 6.04667 0
M  V30 3332 H 312.723 -0.781282 4.81401 0
M  V30 3333 H 311.728 1.47237 5.29718 0
M  V30 3334 H 312.953 1.74655 6.56256 0
M  V30 3335 H 310.899 -0.497364 6.54112 0
M  V30 3336 H 310.816 0.943362 7.50091 0
M  V30 3337 H 312.084 -0.209587 7.79218 0
M  V30 3338 N 316.313 -1.40141 0.720998 0
M  V30 3339 C 317.559 -2.01572 0.272075 0
M  V30 3340 C 317.914 -1.5616 -1.12391 0
M  V30 3341 O 317.207 -0.774198 -1.75262 0
M  V30 3342 C 317.401 -3.56165 0.296892 0
M  V30 3343 C 317.23 -4.16584 1.69375 0
M  V30 3344 C 316 -4.49783 2.30269 0
M  V30 3345 C 318.198 -4.41076 2.64493 0
M  V30 3346 N 316.18 -4.95626 3.62254 0
M  V30 3347 C 317.551 -4.88971 3.81192 0
M  V30 3348 C 319.606 -4.23122 2.62435 0
M  V30 3349 C 318.309 -5.20796 4.96149 0
M  V30 3350 C 320.335 -4.56052 3.76524 0
M  V30 3351 C 319.697 -5.04141 4.91956 0
M  V30 3352 H 315.796 -0.768343 0.145511 0
M  V30 3353 H 318.38 -1.70287 0.943959 0
M  V30 3354 H 316.551 -3.86868 -0.344578 0
M  V30 3355 H 318.283 -4.04346 -0.169254 0
M  V30 3356 H 315.038 -4.37101 1.82318 0
M  V30 3357 H 315.462 -5.22923 4.29977 0
M  V30 3358 H 320.104 -3.85158 1.74393 0
M  V30 3359 H 317.822 -5.57672 5.84831 0
M  V30 3360 H 321.408 -4.43796 3.76213 0
M  V30 3361 H 320.288 -5.29142 5.78774 0
M  V30 3362 N 317.792 -0.46758 -1.50504 0
M  V30 3363 C 319.04 0.0884469 -2.01906 0
M  V30 3364 C 319.361 1.40532 -1.35188 0
M  V30 3365 O 318.631 1.89515 -0.496079 0
M  V30 3366 H 317.211 0.0356765 -0.746148 0
M  V30 3367 H 319.873 -0.6172 -1.84869 0
M  V30 3368 H 318.969 0.2425 -3.11156 0
M  V30 3369 N 319.27 1.56325 -0.20005 0
M  V30 3370 C 320.22 2.15939 0.731743 0
M  V30 3371 C 321.204 1.10154 1.17281 0
M  V30 3372 O 322.396 1.36203 1.13038 0
M  V30 3373 C 319.525 2.82614 1.94895 0
M  V30 3374 C 318.611 3.95596 1.52855 0
M  V30 3375 N 319.002 4.99118 0.819418 0
M  V30 3376 C 317.3 4.07288 1.81748 0
M  V30 3377 C 318.001 5.78513 0.608053 0
M  V30 3378 N 316.977 5.31117 1.15828 0
M  V30 3379 H 320.779 2.9334 0.181285 0
M  V30 3380 H 318.293 1.624 -0.000452172 0
M  V30 3381 H 320.29 3.23718 2.62702 0
M  V30 3382 H 318.95 2.06702 2.50408 0
M  V30 3383 H 319.961 5.15723 0.47436 0
M  V30 3384 H 316.638 3.42509 2.38734 0
M  V30 3385 H 318.028 6.71885 0.0451619 0
M  V30 3386 N 320.748 -0.0735177 1.57428 0
M  V30 3387 C 321.973 -0.789787 1.91774 0
M  V30 3388 C 322.398 -1.70413 0.796306 0
M  V30 3389 O 321.756 -1.79555 -0.250961 0
M  V30 3390 C 321.804 -1.5609 3.25067 0
M  V30 3391 O 320.908 -2.67144 3.14178 0
M  V30 3392 H 320.249 -0.215582 0.628029 0
M  V30 3393 H 322.779 -0.0422781 2.04556 0
M  V30 3394 H 322.789 -1.94052 3.58898 0
M  V30 3395 H 321.464 -0.890015 4.06265 0
M  V30 3396 H 320.041 -2.32052 2.91901 0
M  V30 3397 N 322.226 -1.5378 -0.344866 0
M  V30 3398 C 323.189 -1.80981 -1.40637 0
M  V30 3399 C 324.189 -0.680816 -1.45676 0
M  V30 3400 O 325.379 -0.949095 -1.46075 0
M  V30 3401 C 322.511 -1.95063 -2.79577 0
M  V30 3402 H 323.704 -2.75803 -1.17783 0
M  V30 3403 H 321.257 -1.45173 -0.579181 0
M  V30 3404 H 321.992 -1.02379 -3.07716 0
M  V30 3405 H 321.777 -2.77198 -2.77315 0
M  V30 3406 H 323.267 -2.17629 -3.56409 0
M  V30 3407 N 323.704 0.605807 -1.45491 0
M  V30 3408 C 324.953 1.36086 -1.48874 0
M  V30 3409 C 325.266 1.95131 -0.135333 0
M  V30 3410 O 326.472 2.7146 -0.0468144 0
M  V30 3411 C 324.928 2.46518 -2.62215 0
M  V30 3412 C 324.536 1.93877 -4.03876 0
M  V30 3413 C 326.28 3.23512 -2.74846 0
M  V30 3414 C 324.187 3.01801 -5.08596 0
M  V30 3415 H 323.117 0.511497 -0.553974 0
M  V30 3416 H 325.768 0.649089 -1.71636 0
M  V30 3417 H 324.15 3.20388 -2.32739 0
M  V30 3418 H 325.324 1.26704 -4.43038 0
M  V30 3419 H 323.639 1.29622 -3.95711 0
M  V30 3420 H 326.236 4.04013 -3.50253 0
M  V30 3421 H 326.579 3.74631 -1.81542 0
M  V30 3422 H 327.112 2.56742 -3.03856 0
M  V30 3423 H 323.851 2.55597 -6.03614 0
M  V30 3424 H 323.371 3.67535 -4.74002 0
M  V30 3425 H 325.05 3.66152 -5.33424 0
M  V30 3426 N 325.182 1.32811 0.848464 0
M  V30 3427 C 326.428 1.23907 1.60546 0
M  V30 3428 C 326.761 -0.197161 1.93197 0
M  V30 3429 O 326.036 -1.13596 1.5788 0
M  V30 3430 C 326.319 2.10489 2.92175 0
M  V30 3431 C 326.172 3.62522 2.66266 0
M  V30 3432 C 327.491 1.97075 3.93509 0
M  V30 3433 H 324.61 0.451459 0.58254 0
M  V30 3434 H 327.252 1.62818 0.979296 0
M  V30 3435 H 325.402 1.77434 3.45614 0
M  V30 3436 H 327.074 4.05821 2.19334 0
M  V30 3437 H 325.317 3.84879 2.00126 0
M  V30 3438 H 325.988 4.18437 3.6002 0
M  V30 3439 H 328.464 2.26045 3.49346 0
M  V30 3440 H 327.34 2.59923 4.83457 0
M  V30 3441 H 327.601 0.940186 4.31987 0
M  V30 3442 N 326.66 -1.06551 1.16123 0
M  V30 3443 C 327.608 -2.16063 0.861371 0
M  V30 3444 C 328.602 -1.6856 -0.168517 0
M  V30 3445 O 329.808 -1.79986 -0.0227579 0
M  V30 3446 H 326.183 -0.705278 0.260934 0
M  V30 3447 H 328.154 -2.38567 1.79244 0
M  V30 3448 C 326.903 -3.45661 0.376018 0
M  V30 3449 H 326.226 -3.82604 1.15992 0
M  V30 3450 H 327.666 -4.23504 0.204951 0
M  V30 3451 C 326.125 -3.24546 -0.903954 0
M  V30 3452 O 326.655 -3.49865 -1.97377 0
M  V30 3453 N 324.861 -2.77992 -0.846679 0
M  V30 3454 H 324.408 -2.57589 0.0241017 0
M  V30 3455 H 324.366 -2.64244 -1.70359 0
M  V30 3456 N 328.138 -0.959301 -1.25041 0
M  V30 3457 C 329.366 -0.633949 -1.96948 0
M  V30 3458 C 329.781 0.794916 -1.7125 0
M  V30 3459 O 329.138 1.53231 -0.991287 0
M  V30 3460 C 329.189 -0.888805 -3.50403 0
M  V30 3461 O 328.91 -2.26149 -3.75218 0
M  V30 3462 C 330.411 -0.576482 -4.39536 0
M  V30 3463 H 327.631 -0.237263 -0.627652 0
M  V30 3464 H 330.175 -1.28495 -1.59089 0
M  V30 3465 H 328.33 -0.284145 -3.86357 0
M  V30 3466 H 328.744 -2.33514 -4.6965 0
M  V30 3467 H 330.218 -0.805314 -5.46094 0
M  V30 3468 H 330.695 0.489075 -4.36468 0
M  V30 3469 H 331.301 -1.16067 -4.09156 0
M  V30 3470 N 329.616 1.39756 -0.72842 0
M  V30 3471 C 330.841 2.05472 -0.282159 0
M  V30 3472 C 331.266 1.54549 1.07221 0
M  V30 3473 O 330.624 0.686372 1.67805 0
M  V30 3474 C 330.672 3.59462 -0.286264 0
M  V30 3475 O 329.776 4.05918 0.728298 0
M  V30 3476 H 329.117 0.651226 -0.129618 0
M  V30 3477 H 331.647 1.78915 -0.992499 0
M  V30 3478 H 331.657 4.07798 -0.128373 0
M  V30 3479 H 330.332 3.95889 -1.27456 0
M  V30 3480 H 328.909 3.69012 0.537081 0
M  V30 3481 N 331.094 0.475555 1.50254 0
M  V30 3482 C 332.342 -0.077738 2.0195 0
M  V30 3483 C 332.663 -1.39813 1.35931 0
M  V30 3484 O 331.933 -1.89249 0.506123 0
M  V30 3485 H 330.513 -0.031719 0.746326 0
M  V30 3486 H 333.175 0.626995 1.84539 0
M  V30 3487 H 332.271 -0.225995 3.11281 0
M  V30 3488 N 332.573 -1.56217 0.208337 0
M  V30 3489 C 333.521 -2.21053 -0.723769 0
M  V30 3490 C 334.515 -1.18578 -1.20978 0
M  V30 3491 O 335.721 -1.36691 -1.17114 0
M  V30 3492 H 332.096 -0.708595 -0.251788 0
M  V30 3493 H 334.067 -2.98006 -0.153365 0
M  V30 3494 C 332.816 -2.89417 -1.927 0
M  V30 3495 H 332.139 -3.68019 -1.56212 0
M  V30 3496 H 333.579 -3.38201 -2.55727 0
M  V30 3497 C 332.038 -1.91166 -2.77411 0
M  V30 3498 O 332.568 -1.42026 -3.75754 0
M  V30 3499 N 330.774 -1.59105 -2.43175 0
M  V30 3500 H 330.321 -1.99259 -1.63259 0
M  V30 3501 H 330.279 -0.936255 -3.00136 0
M  V30 3502 N 334.051 0.0651679 -1.57465 0
M  V30 3503 C 335.299 0.761555 -1.87202 0
M  V30 3504 C 335.62 1.77778 -0.801243 0
M  V30 3505 O 334.89 1.95166 0.16937 0
M  V30 3506 H 333.47 0.284251 -0.690804 0
M  V30 3507 H 336.132 0.0396827 -1.9486 0
M  V30 3508 H 335.228 1.27365 -2.84929 0
M  V30 3509 N 335.529 1.53961 0.336706 0
M  V30 3510 C 336.806 1.62171 1.09361 0
M  V30 3511 C 337.186 0.447263 2.06307 0
M  V30 3512 O 336.534 -0.559802 2.21537 0
M  V30 3513 C 336.744 2.98565 1.80721 0
M  V30 3514 C 338.092 3.54157 2.34218 0
M  V30 3515 O 339.116 3.00784 1.90807 0
M  V30 3516 O 337.975 4.47528 3.13657 0
M  V30 3517 H 335.069 0.6562 0.503319 0
M  V30 3518 H 337.615 1.66307 0.33765 0
M  V30 3519 H 336.387 3.75482 1.10132 0
M  V30 3520 H 336.01 2.9805 2.63158 0
M  V30 3521 N 337.007 -0.598083 1.45811 0
M  V30 3522 C 338.247 -1.36802 1.5187 0
M  V30 3523 C 338.611 -1.9133 0.160224 0
M  V30 3524 O 339.812 -2.6863 0.0955302 0
M  V30 3525 C 338.083 -2.47835 2.57513 0
M  V30 3526 S 339.642 -3.35458 2.82866 0
M  V30 3527 H 336.46 -0.466278 0.536755 0
M  V30 3528 H 339.062 -0.689152 1.82951 0
M  V30 3529 H 337.766 -2.06141 3.54872 0
M  V30 3530 H 337.297 -3.20512 2.28114 0
M  V30 3531 H 339.312 -4.46251 2.16967 0
M  V30 3532 N 338.485 -1.33259 -0.841409 0
M  V30 3533 C 339.435 -1.19872 -1.93945 0
M  V30 3534 C 340.419 -0.102269 -1.60575 0
M  V30 3535 O 341.611 -0.330114 -1.73894 0
M  V30 3536 C 338.74 -0.937517 -3.30251 0
M  V30 3537 C 337.826 -2.07629 -3.69799 0
M  V30 3538 N 338.217 -3.32604 -3.81062 0
M  V30 3539 C 336.515 -1.98242 -3.9952 0
M  V30 3540 C 337.216 -4.07275 -4.15333 0
M  V30 3541 N 336.192 -3.35691 -4.27566 0
M  V30 3542 H 339.994 -2.14604 -2.00805 0
M  V30 3543 H 337.508 -1.2523 -1.03398 0
M  V30 3544 H 339.505 -0.822545 -4.08705 0
M  V30 3545 H 338.165 0.00128798 -3.247 0
M  V30 3546 H 339.176 -3.67382 -3.65035 0
M  V30 3547 H 335.853 -1.12005 -4.02195 0
M  V30 3548 H 337.243 -5.1511 -4.31406 0
M  V30 3549 N 339.963 1.05934 -1.16686 0
M  V30 3550 C 341.212 1.78188 -0.945085 0
M  V30 3551 C 341.525 1.88338 0.528021 0
M  V30 3552 O 342.731 2.57258 0.867799 0
M  V30 3553 C 341.187 3.20277 -1.64167 0
M  V30 3554 C 340.795 3.18281 -3.15279 0
M  V30 3555 C 342.539 3.97039 -1.502 0
M  V30 3556 C 340.446 4.55112 -3.7766 0
M  V30 3557 H 339.376 0.667866 -0.349959 0
M  V30 3558 H 342.027 1.18794 -1.39858 0
M  V30 3559 H 340.409 3.79952 -1.11589 0
M  V30 3560 H 341.583 2.68167 -3.74731 0
M  V30 3561 H 339.898 2.55018 -3.29173 0
M  V30 3562 H 342.495 4.98194 -1.94183 0
M  V30 3563 H 342.838 4.13845 -0.451461 0
M  V30 3564 H 343.371 3.43894 -1.99954 0
M  V30 3565 H 340.11 4.43512 -4.82677 0
M  V30 3566 H 339.63 5.05406 -3.22994 0
M  V30 3567 H 341.309 5.24064 -3.79428 0
M  V30 3568 N 341.441 0.965919 1.2453 0
M  V30 3569 C 342.69 0.622437 1.91856 0
M  V30 3570 C 343.003 -0.846006 1.76358 0
M  V30 3571 O 344.209 -1.29993 2.38357 0
M  V30 3572 C 342.665 1.0626 3.43856 0
M  V30 3573 C 342.273 2.55437 3.68043 0
M  V30 3574 C 344.017 0.792183 4.17043 0
M  V30 3575 C 341.924 2.93196 5.13605 0
M  V30 3576 H 340.854 0.229092 0.718354 0
M  V30 3577 H 343.505 1.17189 1.41206 0
M  V30 3578 H 341.887 0.441476 3.93531 0
M  V30 3579 H 343.061 3.22665 3.28974 0
M  V30 3580 H 341.376 2.8007 3.08139 0
M  V30 3581 H 343.973 1.05031 5.24283 0
M  V30 3582 H 344.316 -0.271584 4.15413 0
M  V30 3583 H 344.849 1.37419 3.73311 0
M  V30 3584 H 341.588 3.98636 5.20355 0
M  V30 3585 H 341.108 2.30651 5.53679 0
M  V30 3586 H 342.787 2.83004 5.81823 0
M  V30 3587 N 342.919 -1.39368 0.735821 0
M  V30 3588 C 343.849 -2.33234 0.111506 0
M  V30 3589 C 344.83 -1.53954 -0.723334 0
M  V30 3590 O 346.015 -1.82344 -0.668147 0
M  V30 3591 C 343.145 -3.38057 -0.795917 0
M  V30 3592 C 342.099 -4.2795 -0.065172 0
M  V30 3593 C 341.425 -5.23479 -1.08967 0
M  V30 3594 C 342.725 -5.10741 1.09273 0
M  V30 3595 H 344.419 -2.85692 0.895571 0
M  V30 3596 H 341.965 -1.37364 0.432109 0
M  V30 3597 H 343.918 -4.02675 -1.24221 0
M  V30 3598 H 342.642 -2.8404 -1.61211 0
M  V30 3599 H 341.301 -3.64813 0.361511 0
M  V30 3600 H 340.949 -4.65758 -1.89944 0
M  V30 3601 H 340.649 -5.84472 -0.605489 0
M  V30 3602 H 342.173 -5.90974 -1.53565 0
M  V30 3603 H 343.587 -5.68699 0.724841 0
M  V30 3604 H 341.984 -5.8088 1.50659 0
M  V30 3605 H 343.054 -4.45525 1.91404 0
M  V30 3606 N 344.397 -0.483516 -1.5 0
M  V30 3607 C 345.813 -0.138404 -1.58999 0
M  V30 3608 C 346.013 1.35597 -1.4905 0
M  V30 3609 O 345.069 2.13039 -1.35539 0
M  V30 3610 C 346.382 -0.699658 -2.92447 0
M  V30 3611 C 347.93 -0.664195 -3.05872 0
M  V30 3612 C 348.405 -1.20321 -4.41913 0
M  V30 3613 N 349.896 -1.16315 -4.48358 0
M  V30 3614 C 350.631 -1.55058 -5.52037 0
M  V30 3615 N 350.127 -2.01311 -6.62907 0
M  V30 3616 N 351.92 -1.46584 -5.42651 0
M  V30 3617 H 344.071 -1.45529 -1.5471 0
M  V30 3618 H 346.334 -0.60258 -0.731848 0
M  V30 3619 H 346.04 -1.747 -3.05242 0
M  V30 3620 H 345.914 -0.150194 -3.76901 0
M  V30 3621 H 348.301 0.374272 -2.92717 0
M  V30 3622 H 348.382 -1.25061 -2.23144 0
M  V30 3623 H 348.026 -2.24037 -4.55818 0
M  V30 3624 H 347.956 -0.592896 -5.23252 0
M  V30 3625 H 350.447 -0.824058 -3.68806 0
M  V30 3626 H 350.76 -2.2899 -7.38095 0
M  V30 3627 H 349.105 -2.05273 -6.63994 0
M  V30 3628 H 352.296 -1.10281 -4.54924 0
M  V30 3629 H 352.469 -1.77103 -6.23329 0
M  V30 3630 N 345.875 1.56104 -0.216619 0
M  V30 3631 C 347.123 1.97781 0.415593 0
M  V30 3632 C 347.444 1.10536 1.60645 0
M  V30 3633 O 346.714 0.181303 1.95059 0
M  V30 3634 H 345.294 0.730415 0.156534 0
M  V30 3635 H 347.956 1.92445 -0.308366 0
M  V30 3636 H 347.052 3.03072 0.74525 0
M  V30 3637 N 347.353 -0.0568162 1.57498 0
M  V30 3638 C 348.601 -0.751617 1.87604 0
M  V30 3639 C 348.922 -1.77351 0.81066 0
M  V30 3640 O 348.192 -1.95254 -0.159018 0
M  V30 3641 H 346.772 -0.280583 0.692302 0
M  V30 3642 H 349.434 -0.0293483 1.94878 0
M  V30 3643 H 348.53 -1.25852 2.856 0
M  V30 3644 N 348.832 -1.54138 -0.328536 0
M  V30 3645 C 349.779 -1.83176 -1.40411 0
M  V30 3646 C 350.749 -0.678494 -1.5161 0
M  V30 3647 O 351.934 -0.92443 -1.6691 0
M  V30 3648 C 349.074 -2.06035 -2.76846 0
M  V30 3649 C 348.187 -3.33727 -2.74318 0
M  V30 3650 C 347.322 -3.46574 -4.02567 0
M  V30 3651 C 346.361 -4.68159 -3.94327 0
M  V30 3652 N 345.498 -4.77959 -5.14296 0
M  V30 3653 H 350.338 -2.74938 -1.14948 0
M  V30 3654 H 347.875 -1.36166 -0.556538 0
M  V30 3655 H 349.833 -2.1728 -3.56153 0
M  V30 3656 H 348.463 -1.1757 -3.00628 0
M  V30 3657 H 347.515 -3.31246 -1.8703 0
M  V30 3658 H 348.827 -4.23139 -2.64111 0
M  V30 3659 H 347.981 -3.57333 -4.90304 0
M  V30 3660 H 346.72 -2.55245 -4.15574 0
M  V30 3661 H 345.725 -4.57461 -3.04974 0
M  V30 3662 H 346.95 -5.60868 -3.82889 0
M  V30 3663 H 344.896 -3.89544 -5.27818 0
M  V30 3664 H 344.813 -5.6133 -5.06404 0
M  V30 3665 H 346.081 -4.93044 -6.03761 0
M  V30 3666 N 350.31 0.590341 -1.46126 0
M  V30 3667 C 351.22 1.72793 -1.58681 0
M  V30 3668 C 352.236 1.67516 -0.470566 0
M  V30 3669 O 353.412 1.87562 -0.733642 0
M  V30 3670 C 350.477 3.09287 -1.5666 0
M  V30 3671 C 349.538 3.25886 -2.79458 0
M  V30 3672 C 348.771 4.55869 -2.77524 0
M  V30 3673 O 348.994 5.3928 -1.85832 0
M  V30 3674 O 347.928 4.75552 -3.68964 0
M  V30 3675 H 351.754 1.65149 -2.54872 0
M  V30 3676 H 349.339 0.756486 -1.28832 0
M  V30 3677 H 351.221 3.90577 -1.58202 0
M  V30 3678 H 349.896 3.17385 -0.636271 0
M  V30 3679 H 348.803 2.44119 -2.83472 0
M  V30 3680 H 350.136 3.22675 -3.71674 0
M  V30 3681 N 351.788 1.33704 0.83433 0
M  V30 3682 C 353.199 1.22813 1.4062 0
M  V30 3683 C 353.55 -0.151107 1.95617 0
M  V30 3684 O 352.675 -1.05092 1.89168 0
M  V30 3685 C 353.27 2.22355 2.55624 0
M  V30 3686 C 351.829 2.1529 3.08751 0
M  V30 3687 C 350.976 2.09589 1.8157 0
M  V30 3688 H 353.927 1.45236 0.639702 0
M  V30 3689 H 353.948 1.83391 3.33389 0
M  V30 3690 H 353.46 3.22728 2.15566 0
M  V30 3691 H 351.561 1.18235 3.53343 0
M  V30 3692 H 351.674 3.06038 3.68616 0
M  V30 3693 H 350.038 1.55134 2.02004 0
M  V30 3694 H 350.821 3.11777 1.43701 0
M  V30 3695 N 353.266 -1.05314 1.17247 0
M  V30 3696 C 354.214 -2.15137 0.884238 0
M  V30 3697 C 355.208 -1.68729 -0.15063 0
M  V30 3698 O 356.414 -1.8 -0.00366673 0
M  V30 3699 H 352.789 -0.702471 0.2684 0
M  V30 3700 H 354.76 -2.36652 1.81764 0
M  V30 3701 C 353.509 -3.45243 0.412659 0
M  V30 3702 H 352.832 -3.81352 1.20043 0
M  V30 3703 H 354.272 -4.23263 0.249858 0
M  V30 3704 C 352.731 -3.25487 -0.86948 0
M  V30 3705 O 353.261 -3.51938 -1.93655 0
M  V30 3706 N 351.467 -2.78875 -0.817147 0
M  V30 3707 H 351.014 -2.57549 0.0514211 0
M  V30 3708 H 350.972 -2.66036 -1.67547 0
M  V30 3709 N 354.744 -0.972509 -1.24016 0
M  V30 3710 C 355.974 -0.653853 -1.9598 0
M  V30 3711 C 356.382 0.781801 -1.72292 0
M  V30 3712 O 355.725 1.53677 -1.00644 0
M  V30 3713 C 355.787 -0.854608 -3.49194 0
M  V30 3714 C 355.451 -2.27082 -3.96589 0
M  V30 3715 C 356.448 -3.24892 -4.05883 0
M  V30 3716 C 354.133 -2.5998 -4.29786 0
M  V30 3717 C 356.127 -4.53684 -4.47716 0
M  V30 3718 C 353.814 -3.88997 -4.71301 0
M  V30 3719 C 354.812 -4.85661 -4.80232 0
M  V30 3720 O 354.5 -6.12376 -5.20818 0
M  V30 3721 H 354.232 -0.242572 -0.630979 0
M  V30 3722 H 356.786 -1.30431 -1.58673 0
M  V30 3723 H 355.016 -0.146985 -3.86421 0
M  V30 3724 H 356.705 -0.534311 -4.02368 0
M  V30 3725 H 357.471 -3.00805 -3.80449 0
M  V30 3726 H 353.35 -1.85457 -4.22051 0
M  V30 3727 H 356.894 -5.29135 -4.54601 0
M  V30 3728 H 352.791 -4.12882 -4.96184 0
M  V30 3729 H 353.559 -6.16013 -5.38953 0
M  V30 3730 N 356.222 1.38976 -0.743202 0
M  V30 3731 C 357.447 2.05161 -0.303936 0
M  V30 3732 C 357.872 1.55677 1.05576 0
M  V30 3733 O 357.23 0.704131 1.67068 0
M  V30 3734 C 357.278 3.59138 -0.324373 0
M  V30 3735 O 356.382 4.06668 0.685204 0
M  V30 3736 H 355.723 0.649815 -0.136518 0
M  V30 3737 H 358.253 1.77852 -1.01142 0
M  V30 3738 H 358.263 4.07639 -0.171618 0
M  V30 3739 H 356.938 3.94515 -1.31647 0
M  V30 3740 H 355.515 3.69561 0.497913 0
M  V30 3741 N 357.7 0.491464 1.49741 0
M  V30 3742 C 358.663 -0.280906 2.27472 0
M  V30 3743 C 359.663 -0.902454 1.33088 0
M  V30 3744 O 360.853 -0.768465 1.56334 0
M  V30 3745 C 357.985 -1.40209 3.10732 0
M  V30 3746 H 359.178 0.401056 2.97206 0
M  V30 3747 H 356.731 0.246131 1.5435 0
M  V30 3748 H 357.466 -2.11849 2.45541 0
M  V30 3749 H 357.251 -0.961969 3.80117 0
M  V30 3750 H 358.741 -1.9464 3.69466 0
M  V30 3751 N 359.178 -1.55987 0.224894 0
M  V30 3752 C 360.125 -2.20436 -0.68385 0
M  V30 3753 C 361.095 -1.16102 -1.18783 0
M  V30 3754 O 362.28 -1.4447 -1.24632 0
M  V30 3755 C 359.42 -2.89076 -1.88491 0
M  V30 3756 C 358.533 -4.08012 -1.41951 0
M  V30 3757 C 357.668 -4.64426 -2.5784 0
M  V30 3758 C 356.707 -5.75656 -2.08053 0
M  V30 3759 N 355.844 -6.26347 -3.17227 0
M  V30 3760 H 360.684 -2.97727 -0.12754 0
M  V30 3761 H 358.221 -1.47011 -0.0511978 0
M  V30 3762 H 360.179 -3.27059 -2.59014 0
M  V30 3763 H 358.809 -2.14298 -2.41405 0
M  V30 3764 H 357.861 -3.75492 -0.609095 0
M  V30 3765 H 359.173 -4.88375 -1.01447 0
M  V30 3766 H 358.327 -5.04869 -3.3644 0
M  V30 3767 H 357.066 -3.83233 -3.01635 0
M  V30 3768 H 356.071 -5.34712 -1.27916 0
M  V30 3769 H 357.296 -6.58686 -1.65255 0
M  V30 3770 H 355.242 -5.48067 -3.60497 0
M  V30 3771 H 355.159 -7.01843 -2.80986 0
M  V30 3772 H 356.427 -6.71447 -3.95953 0
M  V30 3773 N 360.656 0.0484629 -1.57525 0
M  V30 3774 C 361.606 1.06246 -2.01732 0
M  V30 3775 C 362.59 1.33155 -0.903245 0
M  V30 3776 O 363.782 1.33065 -1.16717 0
M  V30 3777 C 360.911 2.36943 -2.48421 0
M  V30 3778 C 359.997 2.13208 -3.6661 0
M  V30 3779 N 360.388 1.5947 -4.80003 0
M  V30 3780 C 358.686 2.43581 -3.7361 0
M  V30 3781 C 359.387 1.51092 -5.61735 0
M  V30 3782 N 358.363 1.9797 -5.0627 0
M  V30 3783 H 362.165 0.640675 -2.86832 0
M  V30 3784 H 359.679 0.255134 -1.60383 0
M  V30 3785 H 361.676 3.10374 -2.78341 0
M  V30 3786 H 360.336 2.79818 -1.64718 0
M  V30 3787 H 361.347 1.28008 -5.01831 0
M  V30 3788 H 358.024 2.89662 -3.00669 0
M  V30 3789 H 359.414 1.10199 -6.62801 0
M  V30 3790 N 362.134 1.5431 0.320358 0
M  V30 3791 C 363.38 1.72924 1.05949 0
M  V30 3792 C 363.713 0.503185 1.87568 0
M  V30 3793 O 362.988 -0.499839 1.87968 0
M  V30 3794 C 363.271 3.00676 1.98156 0
M  V30 3795 C 363.124 4.3354 1.19845 0
M  V30 3796 C 364.443 3.24198 2.9763 0
M  V30 3797 H 361.562 0.629195 0.383774 0
M  V30 3798 H 364.204 1.87008 0.335854 0
M  V30 3799 H 362.354 2.888 2.59859 0
M  V30 3800 H 364.026 4.57305 0.605773 0
M  V30 3801 H 362.269 4.309 0.500784 0
M  V30 3802 H 362.94 5.19156 1.87567 0
M  V30 3803 H 365.416 3.35557 2.4605 0
M  V30 3804 H 364.292 4.14938 3.59329 0
M  V30 3805 H 364.553 2.41577 3.7026 0
M  V30 3806 N 363.613 -0.582584 1.46437 0
M  V30 3807 C 364.576 -1.67366 1.56592 0
M  V30 3808 C 365.576 -1.54575 0.443072 0
M  V30 3809 O 366.766 -1.59191 0.707381 0
M  V30 3810 C 363.898 -3.06791 1.48634 0
M  V30 3811 H 365.091 -1.5972 2.5383 0
M  V30 3812 H 362.644 -0.800432 1.34249 0
M  V30 3813 H 363.379 -3.19993 0.526763 0
M  V30 3814 H 363.164 -3.17484 2.30101 0
M  V30 3815 H 364.654 -3.86218 1.58826 0
M  V30 3816 N 365.091 -1.34144 -0.827227 0
M  V30 3817 C 366.001 -1.27428 -1.96975 0
M  V30 3818 C 367.017 -0.182728 -1.73038 0
M  V30 3819 O 368.193 -0.408426 -1.97215 0
M  V30 3820 C 365.258 -1.02526 -3.31194 0
M  V30 3821 C 364.319 -2.20796 -3.68168 0
M  V30 3822 C 363.552 -1.97073 -4.95982 0
M  V30 3823 O 363.775 -0.926822 -5.6282 0
M  V30 3824 O 362.709 -2.83912 -5.30733 0
M  V30 3825 H 366.535 -2.23537 -2.05584 0
M  V30 3826 H 364.12 -1.14307 -0.961989 0
M  V30 3827 H 366.002 -0.904026 -4.11589 0
M  V30 3828 H 364.677 -0.0945389 -3.23562 0
M  V30 3829 H 363.584 -2.38477 -2.88235 0
M  V30 3830 H 364.917 -3.12243 -3.8048 0
M  V30 3831 N 366.569 1.04691 -1.17803 0
M  V30 3832 C 367.815 1.78045 -0.970969 0
M  V30 3833 C 368.148 1.87686 0.498751 0
M  V30 3834 O 367.423 1.38035 1.37027 0
M  V30 3835 C 367.706 3.2166 -1.61884 0
M  V30 3836 C 367.559 3.20001 -3.161 0
M  V30 3837 C 368.878 4.1962 -1.3269 0
M  V30 3838 H 365.997 0.64633 -0.354155 0
M  V30 3839 H 368.639 1.22333 -1.45378 0
M  V30 3840 H 366.789 3.69232 -1.20831 0
M  V30 3841 H 368.461 2.80467 -3.66246 0
M  V30 3842 H 366.704 2.58203 -3.48588 0
M  V30 3843 H 367.375 4.21386 -3.56564 0
M  V30 3844 H 369.851 3.80567 -1.68249 0
M  V30 3845 H 368.727 5.18339 -1.80599 0
M  V30 3846 H 368.988 4.414 -0.248622 0
M  V30 3847 N 368.047 0.979072 1.23499 0
M  V30 3848 C 368.994 0.517904 2.24914 0
M  V30 3849 C 369.964 -0.442525 1.60097 0
M  V30 3850 O 371.149 -0.350365 1.87556 0
M  V30 3851 C 368.289 -0.174813 3.44657 0
M  V30 3852 C 367.402 0.825721 4.24035 0
M  V30 3853 C 366.537 0.107946 5.3109 0
M  V30 3854 C 365.576 1.09778 6.02175 0
M  V30 3855 N 364.713 0.40925 7.00906 0
M  V30 3856 H 369.553 1.38751 2.63727 0
M  V30 3857 H 367.09 0.695303 1.2963 0
M  V30 3858 H 369.048 -0.593233 4.12961 0
M  V30 3859 H 367.678 -1.0083 3.06648 0
M  V30 3860 H 366.73 1.36253 3.55161 0
M  V30 3861 H 368.042 1.58005 4.73113 0
M  V30 3862 H 367.196 -0.367904 6.05583 0
M  V30 3863 H 365.935 -0.678994 4.8295 0
M  V30 3864 H 364.94 1.5844 5.26476 0
M  V30 3865 H 366.165 1.88536 6.52404 0
M  V30 3866 H 364.111 -0.358506 6.5502 0
M  V30 3867 H 364.028 1.10226 7.47921 0
M  V30 3868 H 365.296 -0.0442557 7.79487 0
M  V30 3869 N 369.525 -1.3858 0.750561 0
M  V30 3870 C 370.435 -2.34278 0.122825 0
M  V30 3871 C 371.451 -1.59116 -0.704131 0
M  V30 3872 O 372.627 -1.91326 -0.628987 0
M  V30 3873 C 369.692 -3.38221 -0.762086 0
M  V30 3874 C 368.753 -4.29227 0.078896 0
M  V30 3875 C 367.986 -5.28205 -0.763874 0
M  V30 3876 O 368.209 -5.34112 -2.00201 0
M  V30 3877 O 367.143 -6.01618 -0.18428 0
M  V30 3878 H 370.969 -2.89649 0.913088 0
M  V30 3879 H 368.554 -1.40374 0.511417 0
M  V30 3880 H 370.436 -4.01872 -1.26793 0
M  V30 3881 H 369.111 -2.85211 -1.5309 0
M  V30 3882 H 368.018 -3.68747 0.630621 0
M  V30 3883 H 369.351 -4.85484 0.810289 0
M  V30 3884 N 371.003 -0.499398 -1.49478 0
M  V30 3885 C 372.251 0.0455996 -2.02049 0
M  V30 3886 C 372.572 1.37633 -1.38138 0
M  V30 3887 O 371.842 1.8842 -0.536166 0
M  V30 3888 H 370.422 0.0198416 -0.746736 0
M  V30 3889 H 373.084 -0.656274 -1.83519 0
M  V30 3890 H 372.18 0.176445 -3.11601 0
M  V30 3891 N 372.481 1.55866 -0.233164 0
M  V30 3892 C 373.411 2.23783 0.666599 0
M  V30 3893 C 374.392 1.21343 1.19205 0
M  V30 3894 O 375.577 1.4996 1.23392 0
M  V30 3895 C 372.707 2.92671 1.86978 0
M  V30 3896 C 371.661 4.01682 1.47768 0
M  V30 3897 C 370.987 4.57926 2.76058 0
M  V30 3898 C 372.287 5.18126 0.658993 0
M  V30 3899 H 373.981 2.99232 0.100306 0
M  V30 3900 H 371.527 1.43924 0.046804 0
M  V30 3901 H 373.48 3.3888 2.50476 0
M  V30 3902 H 372.204 2.14688 2.46123 0
M  V30 3903 H 370.863 3.56222 0.866106 0
M  V30 3904 H 370.511 3.76659 3.33372 0
M  V30 3905 H 370.211 5.31505 2.50552 0
M  V30 3906 H 371.735 5.06859 3.40479 0
M  V30 3907 H 373.149 5.60644 1.19795 0
M  V30 3908 H 371.546 5.98009 0.500552 0
M  V30 3909 H 372.616 4.83763 -0.331856 0
M  V30 3910 N 373.959 -0.0401083 1.57549 0
M  V30 3911 C 374.907 -1.06264 2.06908 0
M  V30 3912 C 375.901 -1.38132 0.980608 0
M  V30 3913 O 377.107 -1.37167 1.16556 0
M  V30 3914 H 373.482 -0.360166 0.660139 0
M  V30 3915 H 375.453 -0.620445 2.91878 0
M  V30 3916 C 374.202 -2.35846 2.55483 0
M  V30 3917 H 373.525 -2.12183 3.38849 0
M  V30 3918 H 374.965 -3.05765 2.93741 0
M  V30 3919 C 373.424 -3.0404 1.45126 0
M  V30 3920 O 373.954 -3.93424 0.811216 0
M  V30 3921 N 372.16 -2.65184 1.18852 0
M  V30 3922 H 371.707 -1.92584 1.71083 0
M  V30 3923 H 371.665 -3.1113 0.452244 0
M  V30 3924 N 375.437 -1.54477 -0.31217 0
M  V30 3925 C 376.384 -1.84655 -1.38461 0
M  V30 3926 C 377.354 -0.694536 -1.50882 0
M  V30 3927 O 378.539 -0.942081 -1.6592 0
M  V30 3928 C 375.679 -2.0896 -2.74645 0
M  V30 3929 C 374.792 -3.36618 -2.70763 0
M  V30 3930 C 373.927 -3.50824 -3.98868 0
M  V30 3931 C 372.966 -4.72315 -3.89339 0
M  V30 3932 N 372.103 -4.83387 -5.09197 0
M  V30 3933 H 376.943 -2.76142 -1.12026 0
M  V30 3934 H 374.48 -1.36748 -0.542065 0
M  V30 3935 H 376.438 -2.21045 -3.53829 0
M  V30 3936 H 375.068 -1.20752 -2.99364 0
M  V30 3937 H 374.12 -3.33211 -1.83506 0
M  V30 3938 H 375.432 -4.25917 -2.59608 0
M  V30 3939 H 374.586 -3.62513 -4.86486 0
M  V30 3940 H 373.325 -2.59638 -4.12843 0
M  V30 3941 H 372.33 -4.6067 -3.00105 0
M  V30 3942 H 373.555 -5.64897 -3.76919 0
M  V30 3943 H 371.501 -3.9512 -5.23657 0
M  V30 3944 H 371.418 -5.66669 -5.00422 0
M  V30 3945 H 372.686 -4.9942 -5.98498 0
M  V30 3946 N 376.915 0.57481 -1.46744 0
M  V30 3947 C 377.878 1.66533 -1.57478 0
M  V30 3948 C 378.878 1.54338 -0.451263 0
M  V30 3949 O 380.068 1.58814 -0.715813 0
M  V30 3950 C 377.2 3.05999 -1.50259 0
M  V30 3951 H 378.393 1.58372 -2.54673 0
M  V30 3952 H 375.946 0.793301 -1.34672 0
M  V30 3953 H 376.681 3.19709 -0.543725 0
M  V30 3954 H 376.466 3.16259 -2.31781 0
M  V30 3955 H 377.956 3.8537 -1.60872 0
M  V30 3956 N 378.394 1.34581 0.820102 0
M  V30 3957 C 379.642 1.26845 1.57336 0
M  V30 3958 C 379.963 -0.160667 1.94337 0
M  V30 3959 O 379.233 -1.09396 1.6251 0
M  V30 3960 H 377.813 0.466514 0.583415 0
M  V30 3961 H 380.475 1.68526 0.979027 0
M  V30 3962 H 379.571 1.87513 2.4949 0
M  V30 3963 N 379.872 -1.04064 1.18357 0
M  V30 3964 C 380.802 -2.14001 0.934113 0
M  V30 3965 C 381.783 -1.69616 -0.128186 0
M  V30 3966 O 382.968 -1.94185 0.0244093 0
M  V30 3967 C 380.098 -3.44253 0.459066 0
M  V30 3968 C 379.052 -4.02261 1.46185 0
M  V30 3969 C 378.378 -5.27992 0.844322 0
M  V30 3970 C 379.678 -4.38432 2.83856 0
M  V30 3971 H 381.372 -2.35127 1.85352 0
M  V30 3972 H 378.918 -1.12998 0.892604 0
M  V30 3973 H 380.871 -4.20522 0.271907 0
M  V30 3974 H 379.595 -3.22813 -0.495912 0
M  V30 3975 H 378.254 -3.28074 1.63595 0
M  V30 3976 H 377.902 -5.02862 -0.117845 0
M  V30 3977 H 377.602 -5.67765 1.51384 0
M  V30 3978 H 379.126 -6.06938 0.667693 0
M  V30 3979 H 380.54 -5.05688 2.70098 0
M  V30 3980 H 378.937 -4.89254 3.47491 0
M  V30 3981 H 380.007 -3.4826 3.37406 0
M  V30 3982 N 381.35 -0.985608 -1.22978 0
M  V30 3983 C 382.761 -0.693593 -1.73338 0
M  V30 3984 C 383.112 0.789935 -1.79595 0
M  V30 3985 O 382.237 1.61771 -1.43733 0
M  V30 3986 C 382.832 -1.25235 -3.14804 0
M  V30 3987 C 381.391 -1.00987 -3.626 0
M  V30 3988 C 380.538 -1.37695 -2.40698 0
M  V30 3989 H 383.489 -1.15884 -1.08428 0
M  V30 3990 H 383.51 -0.627329 -3.75293 0
M  V30 3991 H 383.022 -2.33209 -3.10218 0
M  V30 3992 H 381.123 0.0535565 -3.72562 0
M  V30 3993 H 381.236 -1.66812 -4.49122 0
M  V30 3994 H 379.6 -0.795459 -2.4196 0
M  V30 3995 H 380.383 -2.46657 -2.38779 0
M  V30 3996 N 382.828 1.3818 -0.7579 0
M  V30 3997 C 383.791 2.28764 -0.141286 0
M  V30 3998 C 384.791 1.47388 0.642907 0
M  V30 3999 O 385.981 1.67781 0.468536 0
M  V30 4000 C 383.113 3.31184 0.808069 0
M  V30 4001 H 384.306 2.848 -0.939633 0
M  V30 4002 H 381.859 1.47212 -0.525191 0
M  V30 4003 H 382.594 2.80247 1.63193 0
M  V30 4004 H 382.379 3.91314 0.248104 0
M  V30 4005 H 383.869 3.98909 1.23536 0
M  V30 4006 N 384.306 0.507319 1.49211 0
M  V30 4007 C 385.238 -0.304532 2.27168 0
M  V30 4008 C 386.251 -0.924956 1.33972 0
M  V30 4009 O 387.44 -0.807227 1.59205 0
M  V30 4010 C 384.54 -1.44431 3.06583 0
M  V30 4011 C 383.713 -0.930026 4.27398 0
M  V30 4012 C 382.772 -1.94817 4.88807 0
M  V30 4013 O 381.798 -1.51418 5.4869 0
M  V30 4014 N 383 -3.279 4.79022 0
M  V30 4015 H 385.765 0.36395 2.97482 0
M  V30 4016 H 383.326 0.340249 1.58284 0
M  V30 4017 H 385.318 -2.12311 3.44537 0
M  V30 4018 H 383.888 -2.01684 2.38835 0
M  V30 4019 H 383.108 -0.0759244 3.94127 0
M  V30 4020 H 384.396 -0.564932 5.05654 0
M  V30 4021 H 383.794 -3.65843 4.3148 0
M  V30 4022 H 382.351 -3.91476 5.21142 0
M  V30 4023 N 385.784 -1.5574 0.241426 0
M  V30 4024 C 387.03 -1.99104 -0.385406 0
M  V30 4025 C 387.363 -1.1293 -1.57988 0
M  V30 4026 O 386.638 -0.191449 -1.93555 0
M  V30 4027 C 386.921 -3.51087 -0.800616 0
M  V30 4028 C 386.774 -4.48028 0.398874 0
M  V30 4029 C 388.093 -4.08015 -1.64959 0
M  V30 4030 H 385.212 -0.723848 -0.138614 0
M  V30 4031 H 387.854 -1.86903 0.341642 0
M  V30 4032 H 386.004 -3.61615 -1.4201 0
M  V30 4033 H 387.676 -4.49487 1.03726 0
M  V30 4034 H 385.919 -4.21077 1.04293 0
M  V30 4035 H 386.59 -5.51962 0.0651056 0
M  V30 4036 H 389.066 -4.00555 -1.12672 0
M  V30 4037 H 387.942 -5.14635 -1.90898 0
M  V30 4038 H 388.203 -3.56131 -2.61961 0
M  V30 4039 N 387.262 0.0317525 -1.57568 0
M  V30 4040 C 388.195 1.06621 -2.0176 0
M  V30 4041 C 389.173 1.35323 -0.901462 0
M  V30 4042 O 390.357 1.48025 -1.16708 0
M  V30 4043 C 387.484 2.40155 -2.38837 0
M  V30 4044 C 386.53 2.27327 -3.60867 0
M  V30 4045 S 387.363 1.62925 -5.10113 0
M  V30 4046 C 388.519 2.97955 -5.5043 0
M  V30 4047 H 388.752 0.689781 -2.89187 0
M  V30 4048 H 386.285 0.24164 -1.52497 0
M  V30 4049 H 388.243 3.1695 -2.6087 0
M  V30 4050 H 386.904 2.74946 -1.51867 0
M  V30 4051 H 386.097 3.25898 -3.84456 0
M  V30 4052 H 385.699 1.58675 -3.38671 0
M  V30 4053 H 387.991 3.94285 -5.5095 0
M  V30 4054 H 388.934 2.79102 -6.50775 0
M  V30 4055 H 389.342 3.00404 -4.77931 0
M  V30 4056 N 388.74 1.54641 0.303973 0
M  V30 4057 C 389.989 1.7299 1.03717 0
M  V30 4058 C 390.302 0.521168 1.88529 0
M  V30 4059 O 391.508 0.586408 2.65092 0
M  V30 4060 C 389.964 3.06051 1.89369 0
M  V30 4061 C 389.572 4.34393 1.09574 0
M  V30 4062 C 391.316 3.3376 2.62306 0
M  V30 4063 C 389.223 5.58506 1.94486 0
M  V30 4064 H 388.153 0.64473 0.390947 0
M  V30 4065 H 390.804 1.81124 0.294328 0
M  V30 4066 H 389.186 2.91874 2.67629 0
M  V30 4067 H 390.36 4.59396 0.359485 0
M  V30 4068 H 388.675 4.13597 0.482324 0
M  V30 4069 H 391.272 4.23687 3.26181 0
M  V30 4070 H 391.615 2.52503 3.3098 0
M  V30 4071 H 392.148 3.48894 1.91097 0
M  V30 4072 H 388.887 6.42422 1.30287 0
M  V30 4073 H 388.407 5.37694 2.65792 0
M  V30 4074 H 390.086 5.95651 2.52605 0
M  V30 4075 N 390.218 -0.567019 1.47046 0
M  V30 4076 C 391.495 -1.3276 1.43646 0
M  V30 4077 C 391.875 -2.1071 0.128186 0
M  V30 4078 O 391.223 -2.10441 -0.890326 0
M  V30 4079 C 391.433 -2.2404 2.67595 0
M  V30 4080 C 392.781 -2.85372 3.14401 0
M  V30 4081 O 393.805 -2.34346 2.68254 0
M  V30 4082 O 392.664 -3.78091 3.946 0
M  V30 4083 H 389.758 -0.597293 0.571988 0
M  V30 4084 H 392.304 -0.586735 1.59234 0
M  V30 4085 H 391.076 -1.65975 3.54356 0
M  V30 4086 H 390.699 -3.05439 2.54544 0
M  V30 4087 N 391.696 -1.35014 -0.812953 0
M  V30 4088 C 392.943 -1.27931 -1.56971 0
M  V30 4089 C 393.271 0.148034 -1.93936 0
M  V30 4090 O 392.526 1.11175 -1.61054 0
M  V30 4091 C 392.825 -2.12524 -2.87347 0
M  V30 4092 C 392.491 -3.61401 -2.6963 0
M  V30 4093 C 391.153 -4.01983 -2.64506 0
M  V30 4094 C 393.505 -4.55894 -2.52607 0
M  V30 4095 C 390.833 -5.35235 -2.40293 0
M  V30 4096 C 393.185 -5.89336 -2.29925 0
M  V30 4097 C 391.849 -6.2907 -2.23219 0
M  V30 4098 H 391.119 -0.468131 -0.574399 0
M  V30 4099 H 393.766 -1.66851 -0.939836 0
M  V30 4100 H 392.071 -1.66463 -3.54679 0
M  V30 4101 H 393.768 -2.04383 -3.45005 0
M  V30 4102 H 390.358 -3.29193 -2.74463 0
M  V30 4103 H 394.542 -4.25431 -2.55583 0
M  V30 4104 H 389.798 -5.65028 -2.33566 0
M  V30 4105 H 393.972 -6.62139 -2.15743 0
M  V30 4106 H 391.599 -7.32256 -2.04219 0
M  V30 4107 N 393.175 1.03435 -1.18907 0
M  V30 4108 C 394.4 1.80919 -1.01406 0
M  V30 4109 C 394.825 1.83055 0.432721 0
M  V30 4110 O 394.183 1.25252 1.31079 0
M  V30 4111 C 394.231 3.24091 -1.58105 0
M  V30 4112 O 393.335 4.04434 -0.806669 0
M  V30 4113 H 392.676 0.558709 -0.358803 0
M  V30 4114 H 395.206 1.30223 -1.57807 0
M  V30 4115 H 395.216 3.74853 -1.61087 0
M  V30 4116 H 393.891 3.21851 -2.6341 0
M  V30 4117 H 392.468 3.63091 -0.849666 0
M  V30 4118 N 394.653 0.992116 1.22453 0
M  V30 4119 C 395.603 0.512969 2.22155 0
M  V30 4120 C 396.587 -0.418416 1.55364 0
M  V30 4121 O 397.779 -0.245363 1.75291 0
M  V30 4122 C 394.908 -0.171822 3.4287 0
M  V30 4123 C 393.994 0.779822 4.16869 0
M  V30 4124 N 394.385 1.92734 4.6764 0
M  V30 4125 C 392.683 0.59554 4.42006 0
M  V30 4126 C 393.384 2.52458 5.24061 0
M  V30 4127 N 392.36 1.80735 5.12675 0
M  V30 4128 H 396.162 1.38817 2.5905 0
M  V30 4129 H 393.676 0.854277 1.38115 0
M  V30 4130 H 395.673 -0.532469 4.13486 0
M  V30 4131 H 394.333 -1.04317 3.07487 0
M  V30 4132 H 395.344 2.30816 4.63621 0
M  V30 4133 H 392.021 -0.229805 4.16867 0
M  V30 4134 H 393.411 3.49433 5.73887 0
M  V30 4135 N 396.131 -1.37776 0.765217 0
M  V30 4136 C 397.094 -2.28686 0.153416 0
M  V30 4137 C 398.094 -1.47727 -0.635081 0
M  V30 4138 O 399.284 -1.68027 -0.459632 0
M  V30 4139 C 396.416 -3.31608 -0.790495 0
M  V30 4140 H 397.609 -2.84297 0.954723 0
M  V30 4141 H 395.162 -1.46932 0.53299 0
M  V30 4142 H 395.897 -2.81109 -1.61705 0
M  V30 4143 H 395.682 -3.9144 -0.227348 0
M  V30 4144 H 397.172 -3.99559 -1.21419 0
M  V30 4145 N 397.609 -0.515225 -1.4894 0
M  V30 4146 C 398.557 0.269115 -2.31038 0
M  V30 4147 C 399.551 0.949443 -1.40292 0
M  V30 4148 O 400.757 0.87551 -1.57273 0
M  V30 4149 H 397.132 0.10565 -0.744542 0
M  V30 4150 H 399.103 -0.443096 -2.95092 0
M  V30 4151 C 397.852 1.31213 -3.21991 0
M  V30 4152 H 397.175 0.798034 -3.91754 0
M  V30 4153 H 398.615 1.83263 -3.82349 0
M  V30 4154 C 397.074 2.33791 -2.42576 0
M  V30 4155 O 397.604 3.3995 -2.14003 0
M  V30 4156 N 395.81 2.06625 -2.0434 0
M  V30 4157 H 395.357 1.20314 -2.27777 0
M  V30 4158 H 395.315 2.75483 -1.51514 0
M  V30 4159 N 399.087 1.5561 -0.249682 0
M  V30 4160 C 400.312 2.03865 0.381305 0
M  V30 4161 C 400.737 1.12769 1.50548 0
M  V30 4162 O 400.095 0.121189 1.80895 0
M  V30 4163 C 400.143 3.50101 0.863816 0
M  V30 4164 O 399.247 3.62132 1.97318 0
M  V30 4165 H 398.588 0.658827 0.0827194 0
M  V30 4166 H 401.118 2.01105 -0.376552 0
M  V30 4167 H 401.128 3.90975 1.1663 0
M  V30 4168 H 399.803 4.1588 0.0411816 0
M  V30 4169 H 398.38 3.33155 1.67517 0
M  V30 4170 N 400.565 -0.0233959 1.57583 0
M  V30 4171 C 401.79 -0.728376 1.94189 0
M  V30 4172 C 402.215 -1.67793 0.850119 0
M  V30 4173 O 401.573 -1.80262 -0.19371 0
M  V30 4174 C 401.621 -1.45669 3.29868 0
M  V30 4175 O 400.725 -2.57013 3.22518 0
M  V30 4176 H 400.066 -0.195493 0.63457 0
M  V30 4177 H 402.596 0.0228214 2.04587 0
M  V30 4178 H 402.606 -1.82535 3.6489 0
M  V30 4179 H 401.281 -0.760314 4.08891 0
M  V30 4180 H 399.858 -2.22648 2.99136 0
M  V30 4181 N 402.043 -1.548 -0.295768 0
M  V30 4182 C 402.99 -1.86113 -1.36494 0
M  V30 4183 C 403.96 -0.7105 -1.50137 0
M  V30 4184 O 405.145 -0.959626 -1.64912 0
M  V30 4185 C 402.285 -2.11861 -2.72413 0
M  V30 4186 C 401.398 -3.39471 -2.67177 0
M  V30 4187 C 400.533 -3.55035 -3.95125 0
M  V30 4188 C 399.572 -4.76418 -3.84308 0
M  V30 4189 N 398.709 -4.8876 -5.04042 0
M  V30 4190 H 403.549 -2.77314 -1.09091 0
M  V30 4191 H 401.086 -1.37315 -0.52753 0
M  V30 4192 H 403.044 -2.24786 -3.51464 0
M  V30 4193 H 401.674 -1.2392 -2.98066 0
M  V30 4194 H 400.726 -3.35139 -1.79962 0
M  V30 4195 H 402.038 -4.28646 -2.55076 0
M  V30 4196 H 401.192 -3.67653 -4.82614 0
M  V30 4197 H 399.931 -2.64002 -4.10066 0
M  V30 4198 H 398.936 -4.63827 -2.95202 0
M  V30 4199 H 400.161 -5.68863 -3.70906 0
M  V30 4200 H 398.107 -4.00652 -5.19436 0
M  V30 4201 H 398.024 -5.71945 -4.94384 0
M  V30 4202 H 399.292 -5.0574 -5.93167 0
M  V30 4203 N 403.521 0.559213 -1.47345 0
M  V30 4204 C 404.453 1.68161 -1.55738 0
M  V30 4205 C 405.466 1.56636 -0.443744 0
M  V30 4206 O 406.655 1.6363 -0.713258 0
M  V30 4207 C 403.755 3.06611 -1.4437 0
M  V30 4208 C 402.928 3.4391 -2.70268 0
M  V30 4209 C 401.987 4.61515 -2.52765 0
M  V30 4210 O 401.013 4.66197 -3.26572 0
M  V30 4211 N 402.215 5.57883 -1.6046 0
M  V30 4212 H 404.98 1.61408 -2.52522 0
M  V30 4213 H 402.541 0.7458 -1.43699 0
M  V30 4214 H 404.533 3.83117 -1.30398 0
M  V30 4215 H 403.103 3.07602 -0.556766 0
M  V30 4216 H 402.323 2.56873 -2.99015 0
M  V30 4217 H 403.611 3.65605 -3.53851 0
M  V30 4218 H 403.009 5.56855 -0.996422 0
M  V30 4219 H 401.566 6.33723 -1.52441 0
M  V30 4220 N 404.999 1.35443 0.805782 0
M  V30 4221 C 406.246 1.28761 1.56291 0
M  V30 4222 C 406.574 -0.137747 1.94012 0
M  V30 4223 O 405.829 -1.1032 1.61642 0
M  V30 4224 C 406.128 2.14045 2.86216 0
M  V30 4225 C 405.794 3.62826 2.67709 0
M  V30 4226 C 404.456 4.0338 2.6237 0
M  V30 4227 C 406.808 4.57227 2.50186 0
M  V30 4228 C 404.136 5.36501 2.37451 0
M  V30 4229 C 406.488 5.90547 2.26797 0
M  V30 4230 C 405.152 6.30245 2.1988 0
M  V30 4231 H 404.422 0.471171 0.571908 0
M  V30 4232 H 407.069 1.67347 0.930974 0
M  V30 4233 H 405.374 1.68342 3.53791 0
M  V30 4234 H 407.071 2.0621 3.43917 0
M  V30 4235 H 403.661 3.30644 2.72713 0
M  V30 4236 H 407.845 4.2678 2.53323 0
M  V30 4237 H 403.101 5.66259 2.30567 0
M  V30 4238 H 407.275 6.63274 2.12228 0
M  V30 4239 H 404.902 7.33328 2.00333 0
M  V30 4240 N 406.477 -1.02803 1.19454 0
M  V30 4241 C 407.424 -2.11099 0.933046 0
M  V30 4242 C 408.394 -1.65571 -0.132447 0
M  V30 4243 O 409.579 -1.90797 0.00987576 0
M  V30 4244 C 406.719 -3.41763 0.478747 0
M  V30 4245 C 405.832 -4.00833 1.6111 0
M  V30 4246 C 404.967 -5.19511 1.10825 0
M  V30 4247 C 404.006 -5.70639 2.21445 0
M  V30 4248 N 403.143 -6.80589 1.72461 0
M  V30 4249 H 407.983 -2.32804 1.86028 0
M  V30 4250 H 405.52 -1.14179 0.927441 0
M  V30 4251 H 407.478 -4.16736 0.196745 0
M  V30 4252 H 406.108 -3.20166 -0.411493 0
M  V30 4253 H 405.16 -3.23066 2.00829 0
M  V30 4254 H 406.472 -4.34794 2.4445 0
M  V30 4255 H 405.626 -6.01645 0.781533 0
M  V30 4256 H 404.365 -4.87086 0.244606 0
M  V30 4257 H 403.37 -4.87116 2.54947 0
M  V30 4258 H 404.595 -6.05102 3.08267 0
M  V30 4259 H 402.541 -6.50016 0.884056 0
M  V30 4260 H 402.458 -7.13681 2.49389 0
M  V30 4261 H 403.726 -7.66317 1.42755 0
M  V30 4262 N 407.956 -0.998596 -1.21925 0
M  V30 4263 C 408.903 -0.553621 -2.24062 0
M  V30 4264 C 409.873 0.416999 -1.6078 0
M  V30 4265 O 411.058 0.320482 -1.88089 0
M  V30 4266 C 408.198 0.119959 -3.44891 0
M  V30 4267 C 407.311 -0.893077 -4.22668 0
M  V30 4268 C 406.446 -0.192424 -5.30851 0
M  V30 4269 C 405.485 -1.19344 -6.00353 0
M  V30 4270 N 404.622 -0.520707 -7.00166 0
M  V30 4271 H 409.462 -1.4293 -2.61486 0
M  V30 4272 H 406.999 -0.715838 -1.28507 0
M  V30 4273 H 408.957 0.527459 -4.13852 0
M  V30 4274 H 407.587 0.959389 -3.08214 0
M  V30 4275 H 406.639 -1.41886 -3.52948 0
M  V30 4276 H 407.951 -1.65512 -4.70539 0
M  V30 4277 H 407.105 0.271515 -6.06092 0
M  V30 4278 H 405.844 0.602075 -4.83969 0
M  V30 4279 H 404.849 -1.66795 -5.23889 0
M  V30 4280 H 406.074 -1.98891 -6.49322 0
M  V30 4281 H 404.02 0.254252 -6.55507 0
M  V30 4282 H 403.937 -1.2211 -7.46073 0
M  V30 4283 H 405.205 -0.0797596 -7.79459 0
M  V30 4284 N 409.434 1.37368 -0.772513 0
M  V30 4285 C 410.366 2.28899 -0.117502 0
M  V30 4286 C 411.379 1.4867 0.663405 0
M  V30 4287 O 412.568 1.71314 0.501372 0
M  V30 4288 C 409.668 3.2788 0.857192 0
M  V30 4289 C 408.841 4.37207 0.129938 0
M  V30 4290 C 407.9 5.16257 1.01811 0
M  V30 4291 O 406.926 5.67159 0.481601 0
M  V30 4292 N 408.128 5.31058 2.3443 0
M  V30 4293 H 410.893 2.85752 -0.903662 0
M  V30 4294 H 408.454 1.49353 -0.62493 0
M  V30 4295 H 410.446 3.77647 1.45482 0
M  V30 4296 H 409.016 2.7179 1.54432 0
M  V30 4297 H 408.236 3.88827 -0.648605 0
M  V30 4298 H 409.524 5.07434 -0.372559 0
M  V30 4299 H 408.922 4.91287 2.80452 0
M  V30 4300 H 407.479 5.84131 2.89197 0
M  V30 4301 N 410.912 0.523116 1.48665 0
M  V30 4302 C 411.845 -0.290518 2.26343 0
M  V30 4303 C 412.823 -0.950913 1.31895 0
M  V30 4304 O 414.007 -0.976662 1.61225 0
M  V30 4305 C 411.134 -1.41088 3.07915 0
M  V30 4306 C 410.18 -0.862597 4.17686 0
M  V30 4307 S 411.013 0.264135 5.34848 0
M  V30 4308 C 412.169 -0.858864 6.19979 0
M  V30 4309 H 412.402 0.368726 2.95005 0
M  V30 4310 H 409.935 0.30878 1.51281 0
M  V30 4311 H 411.893 -2.0527 3.55492 0
M  V30 4312 H 410.554 -2.04182 2.38681 0
M  V30 4313 H 409.747 -1.70287 4.74361 0
M  V30 4314 H 409.349 -0.297595 3.72814 0
M  V30 4315 H 411.641 -1.7591 6.54264 0
M  V30 4316 H 412.584 -0.330244 7.07329 0
M  V30 4317 H 412.992 -1.13617 5.52948 0
M  V30 4318 N 412.39 -1.55475 0.257931 0
M  V30 4319 C 413.667 -1.91155 -0.414629 0
M  V30 4320 C 414.047 -1.18008 -1.75035 0
M  V30 4321 O 413.395 -0.301193 -2.26506 0
M  V30 4322 C 413.605 -3.44283 -0.571859 0
M  V30 4323 C 414.953 -4.15744 -0.862678 0
M  V30 4324 O 415.977 -3.50083 -0.657314 0
M  V30 4325 O 414.836 -5.31909 -1.2544 0
M  V30 4326 H 411.93 -0.796016 -0.22425 0
M  V30 4327 H 414.476 -1.66976 0.302814 0
M  V30 4328 H 413.248 -3.89558 0.368844 0
M  V30 4329 H 412.871 -3.7436 -1.33943 0
M  V30 4330 N 413.868 0.0150385 -1.57593 0
M  V30 4331 C 415.114 0.704043 -1.90187 0
M  V30 4332 C 415.447 1.74249 -0.857366 0
M  V30 4333 O 414.722 1.94092 0.125843 0
M  V30 4334 C 415.005 1.36087 -3.33395 0
M  V30 4335 C 414.858 0.334981 -4.48551 0
M  V30 4336 C 416.177 2.29112 -3.7576 0
M  V30 4337 H 413.296 0.254475 -0.691673 0
M  V30 4338 H 415.938 -0.0331678 -1.89971 0
M  V30 4339 H 414.088 1.98922 -3.3371 0
M  V30 4340 H 415.76 -0.292534 -4.60372 0
M  V30 4341 H 414.003 -0.344325 -4.32431 0
M  V30 4342 H 414.674 0.833316 -5.45674 0
M  V30 4343 H 417.15 1.76308 -3.76902 0
M  V30 4344 H 416.026 2.72043 -4.76743 0
M  V30 4345 H 416.287 3.16385 -3.08793 0
M  V30 4346 N 415.346 1.54954 0.287554 0
M  V30 4347 C 416.586 1.76617 1.02887 0
M  V30 4348 C 416.95 0.547759 1.84021 0
M  V30 4349 O 418.151 0.642365 2.61012 0
M  V30 4350 C 416.422 3.02717 1.89993 0
M  V30 4351 S 417.981 3.45438 2.70588 0
M  V30 4352 H 414.799 0.6207 0.346775 0
M  V30 4353 H 417.401 1.93172 0.30082 0
M  V30 4354 H 416.105 3.89503 1.29287 0
M  V30 4355 H 415.636 2.88787 2.67144 0
M  V30 4356 H 417.651 3.03566 3.92508 0
M  V30 4357 N 416.824 -0.551391 1.4764 0
M  V30 4358 C 417.787 -1.64007 1.60107 0
M  V30 4359 C 418.787 -1.53601 0.47576 0
M  V30 4360 O 419.977 -1.57655 0.740988 0
M  V30 4361 C 417.109 -3.03569 1.55108 0
M  V30 4362 H 418.302 -1.543 2.57161 0
M  V30 4363 H 415.855 -0.771776 1.35917 0
M  V30 4364 H 416.59 -3.18804 0.594519 0
M  V30 4365 H 416.375 -3.12532 2.36783 0
M  V30 4366 H 417.865 -3.82762 1.66982 0
M  V30 4367 N 418.302 -1.35869 -0.798587 0
M  V30 4368 C 419.579 -1.20145 -1.54352 0
M  V30 4369 C 419.959 0.216161 -2.0999 0
M  V30 4370 O 419.307 1.22068 -1.93162 0
M  V30 4371 C 419.517 -2.27602 -2.64572 0
M  V30 4372 C 420.865 -2.63811 -3.32699 0
M  V30 4373 O 421.889 -2.26576 -2.74849 0
M  V30 4374 O 420.748 -3.27866 -4.37226 0
M  V30 4375 H 417.842 -0.467248 -0.682355 0
M  V30 4376 H 420.388 -1.47574 -0.837859 0
M  V30 4377 H 419.16 -3.2265 -2.21388 0
M  V30 4378 H 418.783 -2.01488 -3.42766 0
M  V30 4379 N 419.78 1.02168 -1.19998 0
M  V30 4380 C 421.026 1.75945 -1.00852 0
M  V30 4381 C 421.359 1.88702 0.458828 0
M  V30 4382 O 420.634 1.40911 1.34069 0
M  V30 4383 C 420.917 3.18154 -1.68671 0
M  V30 4384 C 420.77 3.13224 -3.22817 0
M  V30 4385 C 422.089 4.16711 -1.41561 0
M  V30 4386 H 419.208 0.638673 -0.367785 0
M  V30 4387 H 421.85 1.19222 -1.4794 0
M  V30 4388 H 420 3.66586 -1.28636 0
M  V30 4389 H 421.672 2.72635 -3.72112 0
M  V30 4390 H 419.915 2.50751 -3.53986 0
M  V30 4391 H 420.586 4.13728 -3.65422 0
M  V30 4392 H 423.062 3.76913 -1.76284 0
M  V30 4393 H 421.938 5.14391 -1.91553 0
M  V30 4394 H 422.199 4.40774 -0.342193 0
M  V30 4395 N 421.258 1.00505 1.21394 0
M  V30 4396 C 422.498 0.696149 1.9218 0
M  V30 4397 C 422.862 -0.759099 1.76357 0
M  V30 4398 O 424.063 -1.17998 2.41516 0
M  V30 4399 C 422.334 1.10571 3.39866 0
M  V30 4400 S 423.893 0.91702 4.29111 0
M  V30 4401 H 420.711 0.254147 0.664026 0
M  V30 4402 H 423.313 1.28988 1.46909 0
M  V30 4403 H 422.017 2.16096 3.489 0
M  V30 4404 H 421.548 0.504268 3.90155 0
M  V30 4405 H 423.563 -0.185855 4.95852 0
M  V30 4406 N 422.737 -1.36956 0.779787 0
M  V30 4407 C 423.669 -2.28833 0.129639 0
M  V30 4408 C 424.682 -1.4902 -0.655511 0
M  V30 4409 O 425.871 -1.71578 -0.492279 0
M  V30 4410 C 422.971 -3.2833 -0.839792 0
M  V30 4411 C 422.144 -4.3727 -0.10675 0
M  V30 4412 C 421.203 -5.16789 -0.990717 0
M  V30 4413 O 420.229 -5.67406 -0.451516 0
M  V30 4414 N 421.431 -5.32294 -2.3161 0
M  V30 4415 H 424.196 -2.85268 0.918803 0
M  V30 4416 H 421.757 -1.49019 0.632841 0
M  V30 4417 H 423.749 -3.78413 -1.43477 0
M  V30 4418 H 422.319 -2.72605 -1.52988 0
M  V30 4419 H 421.539 -3.88478 0.669216 0
M  V30 4420 H 422.827 -5.07229 0.399464 0
M  V30 4421 H 422.225 -4.92768 -2.77843 0
M  V30 4422 H 420.782 -5.85656 -2.86095 0
M  V30 4423 N 424.215 -0.530993 -1.48385 0
M  V30 4424 C 425.147 0.268353 -2.27624 0
M  V30 4425 C 426.16 0.903525 -1.35426 0
M  V30 4426 O 427.349 0.781796 -1.60469 0
M  V30 4427 C 424.449 1.39535 -3.08842 0
M  V30 4428 C 423.622 0.861913 -4.28824 0
M  V30 4429 C 422.681 1.87016 -4.91845 0
M  V30 4430 O 421.707 1.4267 -5.5103 0
M  V30 4431 N 422.909 3.20238 -4.84178 0
M  V30 4432 H 425.674 -0.41123 -2.96865 0
M  V30 4433 H 423.235 -0.365387 -1.57723 0
M  V30 4434 H 425.227 2.06803 -3.47871 0
M  V30 4435 H 423.797 1.97859 -2.42014 0
M  V30 4436 H 423.017 0.0132126 -3.94198 0
M  V30 4437 H 424.305 0.484415 -5.06489 0
M  V30 4438 H 423.703 3.58932 -4.37246 0
M  V30 4439 H 422.26 3.83136 -5.27305 0
M  V30 4440 N 425.693 1.55336 -0.266172 0
M  V30 4441 C 426.942 1.98574 0.353749 0
M  V30 4442 C 427.255 1.15789 1.57646 0
M  V30 4443 O 428.461 1.49129 2.26876 0
M  V30 4444 C 426.917 3.53403 0.680747 0
M  V30 4445 C 426.525 4.44953 -0.52165 0
M  V30 4446 C 428.269 4.05251 1.26379 0
M  V30 4447 C 426.176 5.91156 -0.169736 0
M  V30 4448 H 425.106 0.741643 0.135949 0
M  V30 4449 H 427.757 1.79743 -0.369421 0
M  V30 4450 H 426.139 3.68001 1.46257 0
M  V30 4451 H 427.313 4.42121 -1.29869 0
M  V30 4452 H 425.628 4.03691 -1.02093 0
M  V30 4453 H 428.225 5.12021 1.54074 0
M  V30 4454 H 428.568 3.53749 2.19471 0
M  V30 4455 H 429.101 3.94057 0.544447 0
M  V30 4456 H 425.84 6.46736 -1.0683 0
M  V30 4457 H 425.36 5.97079 0.570717 0
M  V30 4458 H 427.039 6.4655 0.241245 0
M  V30 4459 N 427.171 -0.0066808 1.57599 0
M  V30 4460 C 428.134 -0.985035 2.06953 0
M  V30 4461 C 429.134 -1.27663 0.977687 0
M  V30 4462 O 430.324 -1.22293 1.24057 0
M  V30 4463 C 427.456 -2.3118 2.50536 0
M  V30 4464 H 428.649 -0.558255 2.94658 0
M  V30 4465 H 426.202 -0.254011 1.54222 0
M  V30 4466 H 426.937 -2.78561 1.66054 0
M  V30 4467 H 426.722 -2.11338 3.3027 0
M  V30 4468 H 428.212 -3.01377 2.8907 0
M  V30 4469 N 428.649 -1.55105 -0.279332 0
M  V30 4470 C 429.897 -1.75066 -1.00977 0
M  V30 4471 C 430.218 -0.551276 -1.87045 0
M  V30 4472 O 429.488 0.433984 -1.91032 0
M  V30 4473 H 428.068 -0.645578 -0.375816 0
M  V30 4474 H 430.73 -1.92497 -0.305089 0
M  V30 4475 H 429.826 -2.64894 -1.65038 0
M  V30 4476 N 430.127 0.543554 -1.4793 0
M  V30 4477 C 431.375 1.29752 -1.54948 0
M  V30 4478 C 431.696 1.93764 -0.219242 0
M  V30 4479 O 430.966 1.80639 0.75805 0
M  V30 4480 H 429.546 0.481874 -0.570795 0
M  V30 4481 H 432.208 0.633636 -1.84312 0
M  V30 4482 H 431.304 2.08392 -2.32334 0
M  V30 4483 N 431.605 1.3629 0.791371 0
M  V30 4484 C 432.515 1.32606 1.93527 0
M  V30 4485 C 433.531 0.228541 1.72493 0
M  V30 4486 O 434.707 0.460571 1.96063 0
M  V30 4487 C 431.772 1.11271 3.28359 0
M  V30 4488 C 430.833 2.3048 3.62185 0
M  V30 4489 C 430.066 2.10154 4.90583 0
M  V30 4490 O 430.289 1.07572 5.60165 0
M  V30 4491 O 429.223 2.97884 5.23019 0
M  V30 4492 H 433.049 2.28909 1.99585 0
M  V30 4493 H 430.634 1.16818 0.931344 0
M  V30 4494 H 432.516 1.01283 4.09047 0
M  V30 4495 H 431.191 0.180292 3.23198 0
M  V30 4496 H 430.098 2.46036 2.81811 0
M  V30 4497 H 431.431 3.22221 3.72068 0
M  V30 4498 N 433.083 -1.0153 1.20538 0
M  V30 4499 C 434.03 -2.10098 0.955383 0
M  V30 4500 C 435 -1.65702 -0.114878 0
M  V30 4501 O 436.185 -1.90776 0.0301118 0
M  V30 4502 C 433.325 -3.41236 0.514969 0
M  V30 4503 C 432.438 -3.99102 1.65353 0
M  V30 4504 C 431.573 -5.18306 1.16329 0
M  V30 4505 C 430.612 -5.68258 2.27485 0
M  V30 4506 N 429.749 -6.78722 1.7967 0
M  V30 4507 H 434.589 -2.30818 1.88486 0
M  V30 4508 H 432.126 -1.13189 0.939499 0
M  V30 4509 H 434.084 -4.16504 0.240935 0
M  V30 4510 H 432.714 -3.20585 -0.377512 0
M  V30 4511 H 431.766 -3.20918 2.04245 0
M  V30 4512 H 433.078 -4.32177 2.49047 0
M  V30 4513 H 432.232 -6.00782 0.845302 0
M  V30 4514 H 430.971 -4.86799 0.296254 0
M  V30 4515 H 429.976 -4.84385 2.60099 0
M  V30 4516 H 431.201 -6.01798 3.14667 0
M  V30 4517 H 429.147 -6.49042 0.95295 0
M  V30 4518 H 429.064 -7.10996 2.56944 0
M  V30 4519 H 430.332 -7.64759 1.50875 0
M  V30 4520 N 434.561 -1.01147 -1.20859 0
M  V30 4521 C 435.524 -0.582224 -2.21682 0
M  V30 4522 C 436.524 0.344887 -1.57058 0
M  V30 4523 O 437.714 0.134281 -1.73682 0
M  V30 4524 C 434.846 0.150496 -3.40568 0
M  V30 4525 H 436.039 -1.47408 -2.61172 0
M  V30 4526 H 433.592 -0.800695 -1.34233 0
M  V30 4527 H 434.327 1.0575 -3.06574 0
M  V30 4528 H 434.112 -0.515444 -3.88697 0
M  V30 4529 H 435.602 0.438344 -4.15293 0
M  V30 4530 N 436.039 1.36541 -0.78704 0
M  V30 4531 C 437.288 1.98552 -0.35494 0
M  V30 4532 C 437.601 1.63171 1.07864 0
M  V30 4533 O 438.807 2.18399 1.61289 0
M  V30 4534 C 437.263 3.55136 -0.583671 0
M  V30 4535 C 436.871 3.99444 -2.02851 0
M  V30 4536 C 438.615 4.2395 -0.215957 0
M  V30 4537 C 436.522 5.48796 -2.20403 0
M  V30 4538 H 435.452 0.742888 -0.128972 0
M  V30 4539 H 438.103 1.5587 -0.968337 0
M  V30 4540 H 436.485 3.95875 0.0994046 0
M  V30 4541 H 437.659 3.6991 -2.74779 0
M  V30 4542 H 435.974 3.43459 -2.35425 0
M  V30 4543 H 438.571 5.33709 -0.325405 0
M  V30 4544 H 438.914 4.07827 0.835646 0
M  V30 4545 H 439.447 3.88565 -0.852175 0
M  V30 4546 H 436.186 5.69864 -3.23937 0
M  V30 4547 H 435.706 5.79964 -1.52977 0
M  V30 4548 H 437.385 6.14986 -2.01002 0
M  V30 4549 N 437.518 0.538854 1.48102 0
M  V30 4550 C 438.767 0.0059532 2.01699 0
M  V30 4551 C 439.08 -1.34476 1.42041 0
M  V30 4552 O 440.286 -1.96653 1.87189 0
M  V30 4553 C 438.742 -0.0397627 3.59878 0
M  V30 4554 C 438.35 1.30659 4.28523 0
M  V30 4555 C 440.094 -0.521024 4.2129 0
M  V30 4556 C 438.001 1.22098 5.78659 0
M  V30 4557 H 436.931 -0.00154456 0.753998 0
M  V30 4558 H 439.582 0.683963 1.70277 0
M  V30 4559 H 437.964 -0.783037 3.88181 0
M  V30 4560 H 439.138 2.06613 4.11883 0
M  V30 4561 H 437.453 1.7243 3.79021 0
M  V30 4562 H 440.05 -0.603184 5.31287 0
M  V30 4563 H 440.393 -1.52885 3.8721 0
M  V30 4564 H 440.926 0.166834 3.9745 0
M  V30 4565 H 437.665 2.20424 6.17328 0
M  V30 4566 H 437.185 0.50295 5.97688 0
M  V30 4567 H 438.864 0.915345 6.40492 0
M  V30 4568 N 438.996 -1.55193 0.274407 0
M  V30 4569 C 440.244 -1.99187 -0.341902 0
M  V30 4570 C 440.565 -1.16422 -1.56431 0
M  V30 4571 O 439.835 -0.253573 -1.94252 0
M  V30 4572 H 438.415 -0.735721 -0.129317 0
M  V30 4573 H 441.077 -1.91168 0.379578 0
M  V30 4574 H 440.173 -3.05629 -0.632253 0
M  V30 4575 N 440.474 -0.00167713 -1.576 0
M  V30 4576 C 441.72 0.683832 -1.90923 0
M  V30 4577 C 442.053 1.7333 -0.875799 0
M  V30 4578 O 441.328 1.94215 0.10525 0
M  V30 4579 C 441.611 1.32543 -3.3482 0
M  V30 4580 C 441.464 0.287387 -4.48881 0
M  V30 4581 C 442.783 2.25114 -3.78169 0
M  V30 4582 H 439.902 0.247125 -0.694333 0
M  V30 4583 H 442.544 -0.0533149 -1.89925 0
M  V30 4584 H 440.694 1.95372 -3.35801 0
M  V30 4585 H 442.366 -0.341346 -4.60035 0
M  V30 4586 H 440.609 -0.39017 -4.32042 0
M  V30 4587 H 441.28 0.775393 -5.46527 0
M  V30 4588 H 443.756 1.723 -3.7875 0
M  V30 4589 H 442.632 2.66971 -4.79602 0
M  V30 4590 H 442.893 3.13092 -3.12131 0
M  V30 4591 N 441.952 1.55251 0.271103 0
M  V30 4592 C 442.885 1.83191 1.36075 0
M  V30 4593 C 443.863 0.685091 1.47463 0
M  V30 4594 O 445.047 0.928292 1.64058 0
M  V30 4595 C 442.174 1.99521 2.73696 0
M  V30 4596 C 441.22 3.22081 2.79582 0
M  V30 4597 S 442.053 4.79388 2.38636 0
M  V30 4598 C 443.209 4.98693 3.78228 0
M  V30 4599 H 443.442 2.75327 1.12171 0
M  V30 4600 H 440.975 1.47046 0.470833 0
M  V30 4601 H 442.933 2.09613 3.52948 0
M  V30 4602 H 441.594 1.0827 2.9485 0
M  V30 4603 H 440.787 3.304 3.80594 0
M  V30 4604 H 440.389 3.10589 2.08352 0
M  V30 4605 H 442.681 4.84551 4.73515 0
M  V30 4606 H 443.624 6.00738 3.7486 0
M  V30 4607 H 444.032 4.26665 3.69618 0
M  V30 4608 N 443.43 -0.535701 1.48216 0
M  V30 4609 C 444.676 -1.29375 1.56173 0
M  V30 4610 C 445.009 -1.92804 0.232429 0
M  V30 4611 O 444.284 -1.78992 -0.761048 0
M  V30 4612 C 444.567 -2.38747 2.69577 0
M  V30 4613 C 444.42 -1.80046 4.12193 0
M  V30 4614 C 445.739 -3.40551 2.78771 0
M  V30 4615 H 442.858 -0.469027 0.568491 0
M  V30 4616 H 445.5 -0.597358 1.80365 0
M  V30 4617 H 443.65 -2.98147 2.4908 0
M  V30 4618 H 445.322 -1.24742 4.44114 0
M  V30 4619 H 443.565 -1.10609 4.19462 0
M  V30 4620 H 444.236 -2.59212 4.87353 0
M  V30 4621 H 446.712 -2.91099 2.97322 0
M  V30 4622 H 445.588 -4.1448 3.59857 0
M  V30 4623 H 445.849 -4.00746 1.86696 0
M  V30 4624 N 444.908 -1.36708 -0.784132 0
M  V30 4625 C 445.818 -1.3363 -1.92822 0
M  V30 4626 C 446.834 -0.237686 -1.72369 0
M  V30 4627 O 448.01 -0.470962 -1.95816 0
M  V30 4628 C 445.075 -1.13011 -3.27764 0
M  V30 4629 C 444.136 -2.32397 -3.60957 0
M  V30 4630 C 443.369 -2.12752 -4.89461 0
M  V30 4631 O 443.592 -1.10541 -5.59586 0
M  V30 4632 O 442.526 -3.00653 -5.21432 0
M  V30 4633 H 446.352 -2.29964 -1.98369 0
M  V30 4634 H 443.937 -1.1731 -0.925136 0
M  V30 4635 H 445.819 -1.03451 -4.08504 0
M  V30 4636 H 444.494 -0.19743 -3.23097 0
M  V30 4637 H 443.401 -2.47527 -2.80502 0
M  V30 4638 H 444.734 -3.2419 -3.70354 0
M  V30 4639 N 446.386 1.0089 -1.21074 0
M  V30 4640 C 447.611 1.78727 -1.05221 0
M  V30 4641 C 448.036 1.83932 0.393795 0
M  V30 4642 O 447.394 1.28004 1.28393 0
M  V30 4643 C 447.442 3.20665 -1.64944 0
M  V30 4644 O 446.546 4.02632 -0.892273 0
M  V30 4645 H 445.887 0.550973 -0.370574 0
M  V30 4646 H 448.417 1.26847 -1.60534 0
M  V30 4647 H 448.427 3.71352 -1.69002 0
M  V30 4648 H 447.102 3.16191 -2.70177 0
M  V30 4649 H 445.679 3.61207 -0.926492 0
M  V30 4650 N 447.864 1.01787 1.20321 0
M  V30 4651 C 448.814 0.559976 2.21016 0
M  V30 4652 C 449.798 -0.385366 1.56217 0
M  V30 4653 O 450.99 -0.208126 1.75772 0
M  V30 4654 C 448.119 -0.0990553 3.43157 0
M  V30 4655 C 447.205 0.86807 4.15121 0
M  V30 4656 N 447.596 2.0261 4.63447 0
M  V30 4657 C 445.894 0.689162 4.40643 0
M  V30 4658 C 446.595 2.63518 5.18588 0
M  V30 4659 N 445.571 1.91569 5.08726 0
M  V30 4660 H 449.373 1.44281 2.56048 0
M  V30 4661 H 446.887 0.883381 1.36272 0
M  V30 4662 H 448.884 -0.444643 4.14522 0
M  V30 4663 H 447.544 -0.977709 3.0963 0
M  V30 4664 H 448.555 2.40598 4.58621 0
M  V30 4665 H 445.232 -0.14133 4.17261 0
M  V30 4666 H 446.622 3.61527 5.66346 0
M  V30 4667 N 449.342 -1.36122 0.79427 0
M  V30 4668 C 450.272 -2.32551 0.210328 0
M  V30 4669 C 451.253 -1.56884 -0.657386 0
M  V30 4670 O 452.438 -1.85014 -0.590207 0
M  V30 4671 C 449.568 -3.41128 -0.651819 0
M  V30 4672 C 448.522 -4.27842 0.116395 0
M  V30 4673 C 447.848 -5.2763 -0.86666 0
M  V30 4674 C 449.148 -5.05647 1.30837 0
M  V30 4675 H 450.842 -2.81636 1.01594 0
M  V30 4676 H 448.388 -1.35407 0.489981 0
M  V30 4677 H 450.341 -4.07581 -1.07031 0
M  V30 4678 H 449.065 -2.90622 -1.49019 0
M  V30 4679 H 447.724 -3.62952 0.515915 0
M  V30 4680 H 447.372 -4.73395 -1.70019 0
M  V30 4681 H 447.072 -5.86514 -0.35705 0
M  V30 4682 H 448.596 -5.96955 -1.28361 0
M  V30 4683 H 450.01 -5.65113 0.965393 0
M  V30 4684 H 448.407 -5.73967 1.75161 0
M  V30 4685 H 449.477 -4.37006 2.10128 0
M  V30 4686 N 450.82 -0.546701 -1.47814 0
M  V30 4687 C 452.066 -0.0187684 -2.02791 0
M  V30 4688 C 452.399 1.32338 -1.42128 0
M  V30 4689 O 451.674 1.85867 -0.573023 0
M  V30 4690 C 451.957 0.0854985 -3.59998 0
M  V30 4691 C 451.81 -1.283 -4.31114 0
M  V30 4692 C 453.129 0.80412 -4.32691 0
M  V30 4693 H 450.248 -0.0082946 -0.736953 0
M  V30 4694 H 452.89 -0.706962 -1.76358 0
M  V30 4695 H 451.04 0.671609 -3.82651 0
M  V30 4696 H 452.712 -1.91151 -4.19832 0
M  V30 4697 H 450.955 -1.86049 -3.91878 0
M  V30 4698 H 451.626 -1.16287 -5.39612 0
M  V30 4699 H 454.102 0.306576 -4.14969 0
M  V30 4700 H 452.978 0.846011 -5.42341 0
M  V30 4701 H 453.239 1.85802 -4.01161 0
M  V30 4702 N 452.299 1.55045 -0.282633 0
M  V30 4703 C 453.209 2.26491 0.61147 0
M  V30 4704 C 454.225 1.29348 1.16384 0
M  V30 4705 O 455.401 1.62298 1.19253 0
M  V30 4706 C 452.466 2.97779 1.77563 0
M  V30 4707 C 451.527 4.10418 1.25919 0
M  V30 4708 C 450.76 4.78297 2.36786 0
M  V30 4709 O 450.983 4.45426 3.56303 0
M  V30 4710 O 449.917 5.66089 2.04517 0
M  V30 4711 H 453.743 3.03683 0.0324615 0
M  V30 4712 H 451.328 1.49317 -0.0497576 0
M  V30 4713 H 453.21 3.42554 2.45427 0
M  V30 4714 H 451.885 2.23498 2.34159 0
M  V30 4715 H 450.792 3.70082 0.546797 0
M  V30 4716 H 452.125 4.86622 0.738887 0
M  V30 4717 N 453.777 0.010035 1.57597 0
M  V30 4718 C 455.025 -0.671371 1.90623 0
M  V30 4719 C 455.346 -1.73753 0.885151 0
M  V30 4720 O 454.616 -1.95752 -0.0760611 0
M  V30 4721 H 453.196 -0.250968 0.703579 0
M  V30 4722 H 455.858 0.0533325 1.94827 0
M  V30 4723 H 454.954 -1.13626 2.90681 0
M  V30 4724 N 455.255 -1.55392 -0.262866 0
M  V30 4725 C 456.203 -1.8977 -1.345 0
M  V30 4726 C 457.197 -0.775063 -1.50629 0
M  V30 4727 O 458.403 -0.959519 -1.52293 0
M  V30 4728 H 454.778 -0.602467 -0.450041 0
M  V30 4729 H 456.749 -2.80147 -1.02762 0
M  V30 4730 C 455.498 -2.19501 -2.69657 0
M  V30 4731 H 454.821 -3.05378 -2.5804 0
M  V30 4732 H 456.261 -2.47469 -3.44289 0
M  V30 4733 C 454.72 -1.00597 -3.21531 0
M  V30 4734 O 455.25 -0.245768 -4.00947 0
M  V30 4735 N 453.456 -0.800911 -2.79345 0
M  V30 4736 H 453.003 -1.42079 -2.14875 0
M  V30 4737 H 452.961 -0.00697996 -3.14399 0
M  V30 4738 N 456.733 0.527833 -1.48498 0
M  V30 4739 C 457.665 1.6482 -1.5927 0
M  V30 4740 C 458.678 1.55659 -0.476869 0
M  V30 4741 O 459.867 1.62081 -0.747806 0
M  V30 4742 C 456.967 3.0348 -1.50842 0
M  V30 4743 C 456.14 3.381 -2.77502 0
M  V30 4744 C 455.199 4.5605 -2.62497 0
M  V30 4745 O 454.225 4.59165 -3.36387 0
M  V30 4746 N 455.427 5.54353 -1.72257 0
M  V30 4747 H 458.192 1.56015 -2.55889 0
M  V30 4748 H 455.753 0.715152 -1.45249 0
M  V30 4749 H 457.745 3.80264 -1.38496 0
M  V30 4750 H 456.315 3.06352 -0.621887 0
M  V30 4751 H 455.535 2.50473 -3.04396 0
M  V30 4752 H 456.823 3.58017 -3.61527 0
M  V30 4753 H 456.221 5.54617 -1.11431 0
M  V30 4754 H 454.778 6.30347 -1.65849 0
M  V30 4755 N 458.211 1.37122 0.776871 0
M  V30 4756 C 459.436 1.354 1.57104 0
M  V30 4757 C 459.861 -0.0595562 1.88006 0
M  V30 4758 O 459.219 -1.03514 1.48844 0
M  V30 4759 C 459.267 2.19472 2.8612 0
M  V30 4760 O 458.371 1.59582 3.80273 0
M  V30 4761 H 457.712 0.462869 0.476076 0
M  V30 4762 H 460.242 1.80577 0.961932 0
M  V30 4763 H 460.252 2.32502 3.35271 0
M  V30 4764 H 458.927 3.22222 2.62956 0
M  V30 4765 H 457.504 1.55564 3.38902 0
M  V30 4766 N 459.689 -1.00246 1.21608 0
M  V30 4767 C 460.619 -2.10921 1.00172 0
M  V30 4768 C 461.6 -1.69938 -0.0741587 0
M  V30 4769 O 462.785 -1.94009 0.0861753 0
M  V30 4770 C 459.915 -3.42618 0.568355 0
M  V30 4771 C 458.869 -3.97407 1.58909 0
M  V30 4772 C 458.195 -5.25038 1.01187 0
M  V30 4773 C 459.495 -4.2918 2.97661 0
M  V30 4774 H 461.189 -2.29112 1.92739 0
M  V30 4775 H 458.735 -1.10101 0.928102 0
M  V30 4776 H 460.688 -4.19444 0.405555 0
M  V30 4777 H 459.412 -3.24227 -0.392961 0
M  V30 4778 H 458.071 -3.22703 1.73949 0
M  V30 4779 H 457.719 -5.02982 0.0421965 0
M  V30 4780 H 457.419 -5.62661 1.6937 0
M  V30 4781 H 458.943 -6.04507 0.860448 0
M  V30 4782 H 460.357 -4.96839 2.86049 0
M  V30 4783 H 458.754 -4.77952 3.6288 0
M  V30 4784 H 459.824 -3.3735 3.48315 0
M  V30 4785 N 461.167 -1.02423 -1.1978 0
M  V30 4786 C 462.077 -0.610919 -2.26506 0
M  V30 4787 C 463.093 0.355152 -1.70337 0
M  V30 4788 O 464.269 0.214195 -2.00258 0
M  V30 4789 C 461.334 0.0365921 -3.46681 0
M  V30 4790 C 460.395 -0.976389 -4.18049 0
M  V30 4791 C 459.628 -0.359683 -5.32487 0
M  V30 4792 O 459.851 0.838601 -5.64202 0
M  V30 4793 O 458.785 -1.08022 -5.92127 0
M  V30 4794 H 462.611 -1.49965 -2.64091 0
M  V30 4795 H 460.196 -0.794156 -1.26545 0
M  V30 4796 H 462.078 0.39786 -4.19518 0
M  V30 4797 H 460.753 0.899398 -3.10954 0
M  V30 4798 H 459.66 -1.38916 -3.47352 0
M  V30 4799 H 460.993 -1.80941 -4.57735 0
M  V30 4800 N 462.645 1.35699 -0.801477 0
M  V30 4801 C 463.87 2.03687 -0.390678 0
M  V30 4802 C 464.295 1.60015 0.988778 0
M  V30 4803 O 463.653 0.774357 1.63931 0
M  V30 4804 C 463.701 3.57439 -0.476404 0
M  V30 4805 O 462.805 4.09208 0.512106 0
M  V30 4806 H 462.146 0.64344 -0.163956 0
M  V30 4807 H 464.676 1.73403 -1.08594 0
M  V30 4808 H 464.686 4.06544 -0.344357 0
M  V30 4809 H 463.361 3.88576 -1.48262 0
M  V30 4810 H 461.938 3.7134 0.340721 0
M  V30 4811 N 464.123 0.554532 1.47522 0
M  V30 4812 C 465.371 0.0294208 2.02079 0
M  V30 4813 C 465.692 -1.32411 1.43151 0
M  V30 4814 O 464.962 -1.863 0.605728 0
M  V30 4815 H 463.542 0.00788672 0.746958 0
M  V30 4816 H 466.204 0.723934 1.80956 0
M  V30 4817 H 465.3 -0.0606745 3.12041 0
M  V30 4818 N 465.601 -1.54893 0.290851 0
M  V30 4819 C 466.511 -2.26812 -0.59945 0
M  V30 4820 C 467.527 -1.29963 -1.15696 0
M  V30 4821 O 468.703 -1.62928 -1.18391 0
M  V30 4822 C 465.768 -2.98716 -1.75982 0
M  V30 4823 C 464.829 -4.1108 -1.2374 0
M  V30 4824 C 464.062 -4.79546 -2.34246 0
M  V30 4825 O 464.285 -4.47309 -3.53936 0
M  V30 4826 O 463.219 -5.67165 -2.01512 0
M  V30 4827 H 467.045 -3.03696 -0.0163561 0
M  V30 4828 H 464.63 -1.49289 0.0576755 0
M  V30 4829 H 466.512 -3.43851 -2.43607 0
M  V30 4830 H 465.187 -2.24737 -2.3297 0
M  V30 4831 H 464.094 -3.70367 -0.527163 0
M  V30 4832 H 465.427 -4.87007 -0.71307 0
M  V30 4833 N 467.08 -0.0183926 -1.57589 0
M  V30 4834 C 468.491 0.521927 -1.79256 0
M  V30 4835 C 468.842 1.72885 -0.927636 0
M  V30 4836 O 467.967 2.15978 -0.135091 0
M  V30 4837 C 468.562 0.953632 -3.25102 0
M  V30 4838 C 467.121 1.43913 -3.47801 0
M  V30 4839 C 466.268 0.398837 -2.74417 0
M  V30 4840 H 469.219 -0.244485 -1.56805 0
M  V30 4841 H 469.24 1.81863 -3.34224 0
M  V30 4842 H 468.752 0.0750123 -3.88028 0
M  V30 4843 H 466.853 2.33804 -2.90115 0
M  V30 4844 H 466.966 1.45391 -4.56507 0
M  V30 4845 H 465.33 0.864572 -2.39577 0
M  V30 4846 H 466.113 -0.471132 -3.40052 0
M  V30 4847 N 468.558 1.5553 0.254621 0
M  V30 4848 C 469.488 1.9268 1.31897 0
M  V30 4849 C 470.469 0.790797 1.506 0
M  V30 4850 O 471.654 1.05045 1.63337 0
M  V30 4851 C 468.784 2.21477 2.67517 0
M  V30 4852 C 467.738 3.37256 2.63519 0
M  V30 4853 C 467.064 3.51576 4.02862 0
M  V30 4854 C 468.364 4.73157 2.21179 0
M  V30 4855 H 470.058 2.81832 1.01051 0
M  V30 4856 H 467.604 1.35599 0.484662 0
M  V30 4857 H 469.557 2.46055 3.42104 0
M  V30 4858 H 468.281 1.29144 2.99982 0
M  V30 4859 H 466.94 3.12675 1.9139 0
M  V30 4860 H 466.588 2.56676 4.32581 0
M  V30 4861 H 466.288 4.2943 4.01078 0
M  V30 4862 H 467.812 3.78467 4.79161 0
M  V30 4863 H 469.226 4.97158 2.85494 0
M  V30 4864 H 467.623 5.54058 2.30521 0
M  V30 4865 H 468.693 4.70739 1.16332 0
M  V30 4866 N 470.036 -0.519951 1.48776 0
M  V30 4867 C 470.999 -1.60574 1.6355 0
M  V30 4868 C 471.999 -1.52557 0.508234 0
M  V30 4869 O 473.189 -1.56047 0.774262 0
M  V30 4870 C 470.321 -3.00211 1.61512 0
M  V30 4871 H 471.514 -1.4881 2.60376 0
M  V30 4872 H 469.067 -0.742772 1.37523 0
M  V30 4873 H 469.802 -3.17471 0.662009 0
M  V30 4874 H 469.587 -3.07439 2.43359 0
M  V30 4875 H 471.077 -3.79134 1.75064 0
M  V30 4876 N 471.514 -1.37532 -0.769588 0
M  V30 4877 C 472.744 -1.35861 -1.55645 0
M  V30 4878 C 473.152 0.0574398 -1.89113 0
M  V30 4879 O 472.495 1.03021 -1.52093 0
M  V30 4880 C 472.557 -2.13431 -2.89288 0
M  V30 4881 C 472.221 -3.62378 -2.78444 0
M  V30 4882 C 473.218 -4.56215 -2.49326 0
M  V30 4883 C 470.903 -4.05529 -2.96398 0
M  V30 4884 C 472.897 -5.91181 -2.38294 0
M  V30 4885 C 470.584 -5.40579 -2.84987 0
M  V30 4886 C 471.582 -6.33218 -2.55975 0
M  V30 4887 O 471.27 -7.65787 -2.44594 0
M  V30 4888 H 471.002 -0.467001 -0.48876 0
M  V30 4889 H 473.556 -1.81505 -0.961515 0
M  V30 4890 H 471.786 -1.62481 -3.50909 0
M  V30 4891 H 473.475 -2.04368 -3.50697 0
M  V30 4892 H 474.241 -4.24187 -2.35139 0
M  V30 4893 H 470.12 -3.33781 -3.1798 0
M  V30 4894 H 473.664 -6.63457 -2.15571 0
M  V30 4895 H 469.561 -5.72209 -2.98743 0
M  V30 4896 H 470.329 -7.76132 -2.59927 0
M  V30 4897 N 472.992 0.995999 -1.22138 0
M  V30 4898 C 474.24 1.73167 -1.042 0
M  V30 4899 C 474.561 1.90329 0.42423 0
M  V30 4900 O 473.831 1.4607 1.30539 0
M  V30 4901 H 472.411 0.641593 -0.38258 0
M  V30 4902 H 475.073 1.19974 -1.53598 0
M  V30 4903 H 474.169 2.72734 -1.51731 0
M  V30 4904 N 474.47 1.03057 1.19235 0
M  V30 4905 C 475.417 0.612832 2.22515 0
M  V30 4906 C 476.387 -0.374224 1.61829 0
M  V30 4907 O 477.572 -0.270501 1.88873 0
M  V30 4908 C 474.712 -0.028475 3.45088 0
M  V30 4909 C 473.825 1.00483 4.20151 0
M  V30 4910 C 472.96 0.333102 5.30155 0
M  V30 4911 C 471.999 1.3522 5.96977 0
M  V30 4912 N 471.136 0.70616 6.9854 0
M  V30 4913 H 475.976 1.49812 2.57605 0
M  V30 4914 H 473.513 0.749658 1.26564 0
M  V30 4915 H 475.471 -0.417548 4.15105 0
M  V30 4916 H 474.101 -0.877334 3.10649 0
M  V30 4917 H 473.153 1.51194 3.49062 0
M  V30 4918 H 474.465 1.77929 4.65986 0
M  V30 4919 H 473.619 -0.110725 6.06599 0
M  V30 4920 H 472.358 -0.473547 4.85396 0
M  V30 4921 H 471.363 1.80627 5.19282 0
M  V30 4922 H 472.588 2.16037 6.4382 0
M  V30 4923 H 470.534 -0.0803667 6.55951 0
M  V30 4924 H 470.451 1.41848 7.42573 0
M  V30 4925 H 471.719 0.286391 7.78974 0
M  V30 4926 N 475.948 -1.35272 0.808662 0
M  V30 4927 C 477.173 -2.03477 0.401475 0
M  V30 4928 C 477.598 -1.60537 -0.980279 0
M  V30 4929 O 476.956 -0.78304 -1.63518 0
M  V30 4930 C 477.004 -3.57181 0.495354 0
M  V30 4931 O 476.108 -4.09474 -0.490397 0
M  V30 4932 H 475.449 -0.642561 0.167366 0
M  V30 4933 H 477.979 -1.72824 1.09512 0
M  V30 4934 H 477.989 -4.06356 0.365912 0
M  V30 4935 H 476.664 -3.87784 1.5032 0
M  V30 4936 H 475.241 -3.71516 -0.321023 0
M  V30 4937 N 477.426 -0.562348 -1.47226 0
M  V30 4938 C 478.675 -0.038041 -2.01664 0
M  V30 4939 C 478.988 1.32199 -1.44162 0
M  V30 4940 O 480.194 1.9365 -1.90294 0
M  V30 4941 C 478.65 -0.0174958 -3.59896 0
M  V30 4942 C 478.258 -1.3746 -4.2639 0
M  V30 4943 C 480.002 0.453934 -4.22066 0
M  V30 4944 C 477.909 -1.31289 -5.76643 0
M  V30 4945 H 476.839 -0.0104511 -0.753928 0
M  V30 4946 H 479.49 -0.710966 -1.69167 0
M  V30 4947 H 477.872 0.721182 -3.89378 0
M  V30 4948 H 479.046 -2.1314 -4.08544 0
M  V30 4949 H 477.361 -1.78438 -3.7623 0
M  V30 4950 H 479.958 0.518584 -5.32179 0
M  V30 4951 H 480.301 1.46706 -3.89594 0
M  V30 4952 H 480.834 -0.230044 -3.97134 0
M  V30 4953 H 477.573 -2.30217 -6.13743 0
M  V30 4954 H 477.093 -0.597973 -5.96812 0
M  V30 4955 H 478.772 -1.01713 -6.38955 0
M  V30 4956 N 478.904 1.54736 -0.299062 0
M  V30 4957 C 480.132 2.04512 0.313447 0
M  V30 4958 C 480.547 1.17643 1.47667 0
M  V30 4959 O 479.904 0.20164 1.81383 0
M  V30 4960 C 479.955 3.53171 0.771542 0
M  V30 4961 O 479.676 4.36736 -0.345379 0
M  V30 4962 C 481.177 4.18936 1.4494 0
M  V30 4963 H 478.397 0.667507 0.0683784 0
M  V30 4964 H 480.941 1.99752 -0.438129 0
M  V30 4965 H 479.096 3.58298 1.47314 0
M  V30 4966 H 479.51 5.24499 0.0109219 0
M  V30 4967 H 480.984 5.24482 1.72111 0
M  V30 4968 H 481.461 3.68554 2.38883 0
M  V30 4969 H 482.067 4.17879 0.791028 0
M  V30 4970 N 480.382 0.0267497 1.57577 0
M  V30 4971 C 481.659 -0.690926 1.82991 0
M  V30 4972 C 482.039 -1.90471 0.910164 0
M  V30 4973 O 481.387 -2.28474 -0.0347985 0
M  V30 4974 C 481.597 -1.07139 3.32148 0
M  V30 4975 C 482.945 -1.46402 3.98562 0
M  V30 4976 O 483.969 -1.16443 3.36629 0
M  V30 4977 O 482.828 -2.02214 5.07712 0
M  V30 4978 H 479.922 -0.338747 0.75444 0
M  V30 4979 H 482.468 0.0542506 1.69613 0
M  V30 4980 H 481.24 -0.207394 3.9075 0
M  V30 4981 H 480.863 -1.87481 3.50623 0
M  V30 4982 N 481.861 -1.55662 -0.24637 0
M  V30 4983 C 482.824 -1.89558 -1.28842 0
M  V30 4984 C 483.824 -0.772082 -1.41052 0
M  V30 4985 O 485.014 -1.04007 -1.39743 0
M  V30 4986 C 482.146 -2.12449 -2.66605 0
M  V30 4987 H 483.339 -2.82735 -1.00004 0
M  V30 4988 H 480.892 -1.48562 -0.485684 0
M  V30 4989 H 481.627 -1.21742 -3.00582 0
M  V30 4990 H 481.412 -2.94273 -2.59125 0
M  V30 4991 H 482.902 -2.39854 -3.41847 0
M  V30 4992 N 483.339 0.512053 -1.4905 0
M  V30 4993 C 484.579 1.27715 -1.59588 0
M  V30 4994 C 484.943 1.90071 -0.271502 0
M  V30 4995 O 486.144 2.67616 -0.251987 0
M  V30 4996 C 484.415 2.32399 -2.71524 0
M  V30 4997 S 485.974 3.18396 -3.01943 0
M  V30 4998 H 482.792 0.43419 -0.563027 0
M  V30 4999 H 485.394 0.581315 -1.86657 0
M  V30 5000 H 484.098 1.85101 -3.66287 0
M  V30 5001 H 483.629 3.06667 -2.46412 0
M  V30 5002 H 485.644 4.32842 -2.42616 0
M  V30 5003 N 484.817 1.37938 0.762283 0
M  V30 5004 C 486.066 1.32989 1.51647 0
M  V30 5005 C 486.379 -0.0802922 1.95435 0
M  V30 5006 O 487.585 -0.252295 2.70325 0
M  V30 5007 C 486.041 2.33485 2.73885 0
M  V30 5008 C 485.649 3.80079 2.37157 0
M  V30 5009 C 487.393 2.37563 3.51801 0
M  V30 5010 C 485.3 4.72283 3.55954 0
M  V30 5011 H 484.23 0.494301 0.56937 0
M  V30 5012 H 486.881 1.63448 0.834083 0
M  V30 5013 H 485.263 1.96056 3.44061 0
M  V30 5014 H 486.437 4.26398 1.74704 0
M  V30 5015 H 484.752 3.79037 1.72395 0
M  V30 5016 H 487.349 3.0365 4.40114 0
M  V30 5017 H 487.692 1.39199 3.92338 0
M  V30 5018 H 488.225 2.73747 2.8863 0
M  V30 5019 H 484.964 5.7181 3.2049 0
M  V30 5020 H 484.484 4.30663 4.1748 0
M  V30 5021 H 486.163 4.89876 4.22647 0
M  V30 5022 N 486.295 -0.989507 1.22664 0
M  V30 5023 C 487.543 -1.72612 1.05117 0
M  V30 5024 C 487.864 -1.90552 -0.414131 0
M  V30 5025 O 487.134 -1.4676 -1.29762 0
M  V30 5026 H 485.714 -0.639555 0.385977 0
M  V30 5027 H 488.376 -1.19158 1.54232 0
M  V30 5028 H 487.472 -2.71926 1.53175 0
M  V30 5029 N 487.773 -1.03688 -1.18687 0
M  V30 5030 C 489.019 -0.74888 -1.89112 0
M  V30 5031 C 489.374 0.715345 -1.78607 0
M  V30 5032 O 488.667 1.51498 -1.17299 0
M  V30 5033 C 488.861 -1.14477 -3.3857 0
M  V30 5034 C 488.69 -2.64594 -3.63621 0
M  V30 5035 C 487.46 -3.31685 -3.812 0
M  V30 5036 C 489.658 -3.62811 -3.64517 0
M  V30 5037 N 487.64 -4.70822 -3.93955 0
M  V30 5038 C 489.011 -4.87603 -3.8294 0
M  V30 5039 C 491.066 -3.56495 -3.47585 0
M  V30 5040 C 489.769 -6.0684 -3.86184 0
M  V30 5041 C 491.795 -4.75155 -3.52111 0
M  V30 5042 C 491.157 -5.98765 -3.71026 0
M  V30 5043 H 487.256 -0.32603 -0.710794 0
M  V30 5044 H 489.84 -1.3258 -1.42586 0
M  V30 5045 H 488.011 -0.595974 -3.838 0
M  V30 5046 H 489.743 -0.808187 -3.96548 0
M  V30 5047 H 486.498 -2.82091 -3.80423 0
M  V30 5048 H 486.922 -5.43122 -4.04163 0
M  V30 5049 H 491.564 -2.61907 -3.31911 0
M  V30 5050 H 489.282 -7.01788 -4.00648 0
M  V30 5051 H 492.868 -4.71905 -3.40289 0
M  V30 5052 H 491.748 -6.89047 -3.74412 0
M  V30 5053 N 489.251 1.34841 -0.815825 0
M  V30 5054 C 490.161 2.33425 -0.234462 0
M  V30 5055 C 491.177 1.62295 0.627413 0
M  V30 5056 O 492.353 1.94109 0.536987 0
M  V30 5057 C 489.418 3.41471 0.599849 0
M  V30 5058 C 488.479 4.28362 -0.283596 0
M  V30 5059 C 487.712 5.31248 0.51099 0
M  V30 5060 O 487.935 5.43056 1.7449 0
M  V30 5061 O 486.869 6.01812 -0.10297 0
M  V30 5062 H 490.695 2.84962 -1.05024 0
M  V30 5063 H 488.28 1.37774 -0.577809 0
M  V30 5064 H 490.162 4.07464 1.07475 0
M  V30 5065 H 488.837 2.9219 1.39308 0
M  V30 5066 H 487.744 3.65318 -0.805836 0
M  V30 5067 H 489.077 4.81066 -1.041 0
M  V30 5068 N 490.729 0.570148 1.46925 0
M  V30 5069 C 492.006 -0.0153259 1.95594 0
M  V30 5070 C 492.386 -1.47232 1.51281 0
M  V30 5071 O 491.734 -2.15574 0.757624 0
M  V30 5072 C 491.944 0.143624 3.48704 0
M  V30 5073 C 493.292 0.00494484 4.246 0
M  V30 5074 O 494.316 0.0718214 3.56128 0
M  V30 5075 O 493.175 -0.141175 5.46318 0
M  V30 5076 H 490.269 -0.0568819 0.825041 0
M  V30 5077 H 492.815 0.637583 1.57267 0
M  V30 5078 H 491.587 1.15699 3.73804 0
M  V30 5079 H 491.21 -0.5463 3.93829 0
M  V30 5080 N 492.207 -1.54576 0.307264 0
M  V30 5081 C 493.435 -2.04675 -0.302597 0
M  V30 5082 C 493.85 -1.18425 -1.47041 0
M  V30 5083 O 493.207 -0.211257 -1.81273 0
M  V30 5084 C 493.258 -3.53575 -0.752801 0
M  V30 5085 O 492.979 -4.36547 0.368536 0
M  V30 5086 C 494.48 -4.19699 -1.42717 0
M  V30 5087 H 491.7 -0.66786 -0.0648374 0
M  V30 5088 H 494.244 -1.99516 0.448716 0
M  V30 5089 H 492.399 -3.59074 -1.45412 0
M  V30 5090 H 492.813 -5.24497 0.0168937 0
M  V30 5091 H 494.287 -5.25388 -1.69327 0
M  V30 5092 H 494.764 -3.69815 -2.36925 0
M  V30 5093 H 495.37 -4.18293 -0.768856 0
M  V30 5094 N 493.685 -0.035106 -1.57561 0
M  V30 5095 C 494.962 0.681212 -1.83354 0
M  V30 5096 C 495.342 1.89986 -0.920252 0
M  V30 5097 O 494.69 2.28489 0.0226815 0
M  V30 5098 C 494.9 1.05376 -3.32712 0
M  V30 5099 C 496.248 1.44286 -3.99333 0
M  V30 5100 O 497.272 1.14656 -3.37242 0
M  V30 5101 O 496.131 1.99518 -5.08778 0
M  V30 5102 H 493.225 0.334741 -0.756226 0
M  V30 5103 H 495.771 -0.0632448 -1.69582 0
M  V30 5104 H 494.543 0.186668 -3.90854 0
M  V30 5105 H 494.166 1.85619 -3.51613 0
M  V30 5106 N 495.163 1.55791 0.238111 0
M  V30 5107 C 496.126 1.90239 1.27835 0
M  V30 5108 C 497.126 0.779552 1.4064 0
M  V30 5109 O 498.316 1.04747 1.3919 0
M  V30 5110 C 495.448 2.13859 2.65475 0
M  V30 5111 H 496.641 2.83262 0.985034 0
M  V30 5112 H 494.194 1.48818 0.477799 0
M  V30 5113 H 494.929 1.23334 2.99932 0
M  V30 5114 H 494.714 2.95643 2.57561 0
M  V30 5115 H 496.204 2.41664 3.40571 0
M  V30 5116 N 496.642 -0.504142 1.49319 0
M  V30 5117 C 497.572 -1.61473 1.68667 0
M  V30 5118 C 498.553 -1.61455 0.535378 0
M  V30 5119 O 499.738 -1.78245 0.770868 0
M  V30 5120 C 496.868 -2.99971 1.75028 0
M  V30 5121 C 495.822 -3.14854 2.89916 0
M  V30 5122 C 495.148 -4.54671 2.81387 0
M  V30 5123 C 496.448 -2.95176 4.30893 0
M  V30 5124 H 498.142 -1.45535 2.61648 0
M  V30 5125 H 495.688 -0.698711 1.25913 0
M  V30 5126 H 497.641 -3.77562 1.8715 0
M  V30 5127 H 496.365 -3.1699 0.786441 0
M  V30 5128 H 495.024 -2.39687 2.77391 0
M  V30 5129 H 494.672 -4.68562 1.82917 0
M  V30 5130 H 494.372 -4.6557 3.58494 0
M  V30 5131 H 495.896 -5.34327 2.95512 0
M  V30 5132 H 497.31 -3.62538 4.44116 0
M  V30 5133 H 495.707 -3.17549 5.09198 0
M  V30 5134 H 496.777 -1.91332 4.45556 0
M  V30 5135 N 498.12 -1.38341 -0.754957 0
M  V30 5136 C 499.05 -1.38176 -1.88227 0
M  V30 5137 C 500.031 -0.247873 -1.68284 0
M  V30 5138 O 501.216 -0.45075 -1.88896 0
M  V30 5139 C 498.346 -1.20471 -3.25736 0
M  V30 5140 C 497.3 -2.3105 -3.60278 0
M  V30 5141 C 496.626 -1.98452 -4.96509 0
M  V30 5142 C 497.926 -3.73305 -3.65295 0
M  V30 5143 H 499.62 -2.32512 -1.88622 0
M  V30 5144 H 497.166 -1.1192 -0.906082 0
M  V30 5145 H 499.119 -1.18982 -4.04254 0
M  V30 5146 H 497.843 -0.225965 -3.25817 0
M  V30 5147 H 496.502 -2.31723 -2.84078 0
M  V30 5148 H 496.15 -0.990641 -4.93148 0
M  V30 5149 H 495.85 -2.7251 -5.20588 0
M  V30 5150 H 497.374 -1.98578 -5.77407 0
M  V30 5151 H 498.788 -3.7467 -4.3393 0
M  V30 5152 H 497.185 -4.46557 -4.00883 0
M  V30 5153 H 498.255 -4.05719 -2.65556 0
M  V30 5154 N 499.598 0.982988 -1.23187 0
M  V30 5155 C 501.014 1.2487 -0.993967 0
M  V30 5156 C 501.214 1.99155 0.306498 0
M  V30 5157 O 500.27 2.30688 1.0266 0
M  V30 5158 C 501.583 2.05078 -2.19917 0
M  V30 5159 C 503.131 2.18227 -2.2438 0
M  V30 5160 C 503.606 3.01825 -3.44479 0
M  V30 5161 N 505.097 3.09411 -3.44702 0
M  V30 5162 C 505.832 3.74412 -4.34285 0
M  V30 5163 N 505.328 4.41259 -5.341 0
M  V30 5164 N 507.121 3.71273 -4.22035 0
M  V30 5165 H 499.272 0.485253 -2.06783 0
M  V30 5166 H 501.535 0.276979 -0.906635 0
M  V30 5167 H 501.241 1.57867 -3.14279 0
M  V30 5168 H 501.115 3.05829 -2.2079 0
M  V30 5169 H 503.502 2.64648 -1.30559 0
M  V30 5170 H 503.583 1.16873 -2.2754 0
M  V30 5171 H 503.227 2.56102 -4.38605 0
M  V30 5172 H 503.157 4.03342 -3.38559 0
M  V30 5173 H 505.648 2.61845 -2.7248 0
M  V30 5174 H 505.961 4.88629 -5.98717 0
M  V30 5175 H 504.306 4.39975 -5.38002 0
M  V30 5176 H 507.497 3.18217 -3.43301 0
M  V30 5177 H 507.67 4.21649 -4.92053 0
M  V30 5178 N 501.076 1.04316 1.18135 0
M  V30 5179 C 502.008 0.594444 2.21357 0
M  V30 5180 C 503.021 -0.337215 1.59269 0
M  V30 5181 O 504.21 -0.131337 1.78016 0
M  V30 5182 C 501.31 -0.151251 3.38562 0
M  V30 5183 C 500.483 0.788907 4.30227 0
M  V30 5184 C 499.542 0.0860572 5.2613 0
M  V30 5185 O 498.568 0.717302 5.64662 0
M  V30 5186 N 499.77 -1.17969 5.68387 0
M  V30 5187 H 502.535 1.48227 2.60478 0
M  V30 5188 H 500.096 0.92396 1.32946 0
M  V30 5189 H 502.088 -0.631352 3.99745 0
M  V30 5190 H 500.658 -0.940639 2.98112 0
M  V30 5191 H 499.878 1.44882 3.6661 0
M  V30 5192 H 501.166 1.42738 4.88368 0
M  V30 5193 H 500.564 -1.71302 5.3914 0
M  V30 5194 H 499.121 -1.60402 6.31755 0
M  V30 5195 N 502.554 -1.34406 0.822964 0
M  V30 5196 C 503.484 -2.32052 0.259608 0
M  V30 5197 C 504.465 -1.58243 -0.623961 0
M  V30 5198 O 505.65 -1.86224 -0.55083 0
M  V30 5199 C 502.78 -3.42434 -0.579314 0
M  V30 5200 C 501.734 -4.27499 0.20712 0
M  V30 5201 C 501.06 -5.29349 -0.754547 0
M  V30 5202 C 502.36 -5.02758 1.41533 0
M  V30 5203 H 504.054 -2.79418 1.07545 0
M  V30 5204 H 501.6 -1.34338 0.518593 0
M  V30 5205 H 503.553 -4.0976 -0.983612 0
M  V30 5206 H 502.277 -2.93717 -1.4282 0
M  V30 5207 H 500.936 -3.61776 0.592787 0
M  V30 5208 H 500.584 -4.76895 -1.59939 0
M  V30 5209 H 500.284 -5.8714 -0.232561 0
M  V30 5210 H 501.808 -5.99544 -1.1567 0
M  V30 5211 H 503.222 -5.62938 1.08504 0
M  V30 5212 H 501.619 -5.70123 1.87296 0
M  V30 5213 H 502.689 -4.32451 2.1935 0
M  V30 5214 N 504.032 -0.577932 -1.46621 0
M  V30 5215 C 504.995 0.147805 -2.28723 0
M  V30 5216 C 505.995 0.823325 -1.38123 0
M  V30 5217 O 507.185 0.676011 -1.60548 0
M  V30 5218 C 504.317 1.21853 -3.18378 0
M  V30 5219 H 505.51 -0.573654 -2.94362 0
M  V30 5220 H 503.063 -0.335703 -1.52652 0
M  V30 5221 H 503.798 1.97173 -2.57475 0
M  V30 5222 H 503.583 0.738714 -3.85078 0
M  V30 5223 H 505.073 1.72768 -3.80186 0
M  V30 5224 N 505.51 1.54411 -0.315457 0
M  V30 5225 C 506.458 2.25514 0.569771 0
M  V30 5226 C 507.452 1.2663 1.12522 0
M  V30 5227 O 508.658 1.44434 1.07419 0
M  V30 5228 H 505.033 0.724257 0.202376 0
M  V30 5229 H 507.004 2.98354 -0.0522895 0
M  V30 5230 C 505.753 3.02004 1.72305 0
M  V30 5231 H 505.076 3.77906 1.30488 0
M  V30 5232 H 506.516 3.55014 2.31821 0
M  V30 5233 C 504.975 2.09822 2.63583 0
M  V30 5234 O 505.505 1.67574 3.65078 0
M  V30 5235 N 503.711 1.75478 2.31637 0
M  V30 5236 H 503.258 2.10032 1.49145 0
M  V30 5237 H 503.216 1.14079 2.92973 0
M  V30 5238 N 506.988 0.0434614 1.5754 0
M  V30 5239 C 507.951 -0.918696 2.09982 0
M  V30 5240 C 508.951 -1.24488 1.01781 0
M  V30 5241 O 510.141 -1.18284 1.27885 0
M  V30 5242 C 507.273 -2.23093 2.57764 0
M  V30 5243 H 508.466 -0.464229 2.96285 0
M  V30 5244 H 506.019 -0.204818 1.54952 0
M  V30 5245 H 506.754 -2.73137 1.74832 0
M  V30 5246 H 506.539 -2.00724 3.36827 0
M  V30 5247 H 508.029 -2.92028 2.98512 0
M  V30 5248 N 508.466 -1.55915 -0.229846 0
M  V30 5249 C 509.712 -1.78807 -0.956868 0
M  V30 5250 C 510.045 -0.611687 -1.84315 0
M  V30 5251 O 509.32 0.389398 -1.90562 0
M  V30 5252 C 509.603 -3.11718 -1.80288 0
M  V30 5253 C 509.456 -4.3979 -0.943649 0
M  V30 5254 C 510.775 -3.40999 -2.78222 0
M  V30 5255 H 507.894 -0.6505 -0.346437 0
M  V30 5256 H 510.536 -1.88648 -0.226252 0
M  V30 5257 H 508.686 -3.03459 -2.42579 0
M  V30 5258 H 510.358 -4.60059 -0.338121 0
M  V30 5259 H 508.601 -4.33086 -0.248705 0
M  V30 5260 H 509.272 -5.29208 -1.5698 0
M  V30 5261 H 511.748 -3.49332 -2.26067 0
M  V30 5262 H 510.624 -4.35183 -3.34526 0
M  V30 5263 H 510.885 -2.62754 -3.55546 0
M  V30 5264 N 509.944 0.496216 -1.49584 0
M  V30 5265 C 510.891 1.59722 -1.66606 0
M  V30 5266 C 511.861 1.58158 -0.507477 0
M  V30 5267 O 513.046 1.76072 -0.735076 0
M  V30 5268 C 510.186 2.97844 -1.74308 0
M  V30 5269 C 509.299 3.09388 -3.01502 0
M  V30 5270 C 508.434 4.38271 -3.00153 0
M  V30 5271 C 507.473 4.43466 -4.21906 0
M  V30 5272 N 506.61 5.63784 -4.1844 0
M  V30 5273 H 511.45 1.44515 -2.60613 0
M  V30 5274 H 508.987 0.703048 -1.29212 0
M  V30 5275 H 510.945 3.77907 -1.76754 0
M  V30 5276 H 509.575 3.11743 -0.837619 0
M  V30 5277 H 508.627 2.22357 -3.08645 0
M  V30 5278 H 509.939 3.09085 -3.91494 0
M  V30 5279 H 509.093 5.2666 -3.01188 0
M  V30 5280 H 507.832 4.41146 -2.07947 0
M  V30 5281 H 506.837 3.53478 -4.21109 0
M  V30 5282 H 508.062 4.42303 -5.1531 0
M  V30 5283 H 506.008 5.67491 -3.29074 0
M  V30 5284 H 505.925 5.65118 -5.02173 0
M  V30 5285 H 507.193 6.54367 -4.23585 0
M  V30 5286 N 511.423 1.38739 0.74761 0
M  V30 5287 C 512.386 1.36241 1.84312 0
M  V30 5288 C 513.386 0.261811 1.58654 0
M  V30 5289 O 514.576 0.519031 1.66288 0
M  V30 5290 C 511.708 1.12253 3.21888 0
M  V30 5291 H 512.901 2.33712 1.87933 0
M  V30 5292 H 510.454 1.2412 0.949946 0
M  V30 5293 H 511.189 0.154133 3.23934 0
M  V30 5294 H 510.974 1.91943 3.41907 0
M  V30 5295 H 512.464 1.13215 4.0196 0
M  V30 5296 N 512.901 -0.976442 1.23707 0
M  V30 5297 C 514.317 -1.24341 1.00058 0
M  V30 5298 C 514.517 -1.99315 -0.295932 0
M  V30 5299 O 513.573 -2.3123 -1.01435 0
M  V30 5300 C 514.886 -2.03909 2.21001 0
M  V30 5301 C 516.434 -2.17034 2.25534 0
M  V30 5302 C 516.909 -2.99994 3.46075 0
M  V30 5303 N 518.4 -3.07578 3.46338 0
M  V30 5304 C 519.135 -3.72104 4.36264 0
M  V30 5305 N 518.631 -4.3842 5.36432 0
M  V30 5306 N 520.424 -3.69029 4.23998 0
M  V30 5307 H 512.575 -0.47428 2.07037 0
M  V30 5308 H 514.838 -0.272167 0.908091 0
M  V30 5309 H 514.544 -1.56198 3.15111 0
M  V30 5310 H 514.418 -3.04654 2.22409 0
M  V30 5311 H 516.805 -2.63951 1.31961 0
M  V30 5312 H 516.886 -1.15664 2.28156 0
M  V30 5313 H 516.53 -2.53772 4.39957 0
M  V30 5314 H 516.46 -4.01541 3.40694 0
M  V30 5315 H 518.951 -2.60397 2.73865 0
M  V30 5316 H 519.264 -4.85447 6.013 0
M  V30 5317 H 517.609 -4.37116 5.40328 0
M  V30 5318 H 520.8 -3.16392 3.44984 0
M  V30 5319 H 520.973 -4.19034 4.94282 0
M  V30 5320 N 514.379 -1.04941 -1.1758 0
M  V30 5321 C 515.795 -0.770282 -1.39781 0
M  V30 5322 C 515.995 0.636417 -1.91186 0
M  V30 5323 O 515.051 1.39923 -2.10185 0
M  V30 5324 C 516.364 -1.82376 -2.3908 0
M  V30 5325 C 517.912 -1.84569 -2.52791 0
M  V30 5326 C 518.387 -2.88933 -3.55361 0
M  V30 5327 N 519.878 -2.8788 -3.62877 0
M  V30 5328 C 520.613 -3.65282 -4.41992 0
M  V30 5329 N 520.109 -4.52461 -5.24643 0
M  V30 5330 N 521.902 -3.53732 -4.36841 0
M  V30 5331 H 514.053 -1.95705 -0.825438 0
M  V30 5332 H 516.316 -0.847284 -0.425222 0
M  V30 5333 H 516.022 -2.83323 -2.08376 0
M  V30 5334 H 515.896 -1.66327 -3.38549 0
M  V30 5335 H 518.283 -0.842879 -2.82807 0
M  V30 5336 H 518.364 -2.04696 -1.53406 0
M  V30 5337 H 518.008 -3.89398 -3.26085 0
M  V30 5338 H 517.938 -2.66059 -4.54445 0
M  V30 5339 H 520.429 -2.24666 -3.03864 0
M  V30 5340 H 520.742 -5.08211 -5.82187 0
M  V30 5341 H 519.087 -4.56524 -5.24033 0
M  V30 5342 H 522.278 -2.85021 -3.71323 0
M  V30 5343 H 522.451 -4.14302 -4.98255 0
M  V30 5344 N 515.857 1.33968 -0.830081 0
M  V30 5345 C 517.105 1.97672 -0.420734 0
M  V30 5346 C 517.426 1.66111 1.02138 0
M  V30 5347 O 516.696 0.955503 1.71017 0
M  V30 5348 H 515.276 0.73125 -0.152587 0
M  V30 5349 H 517.938 1.63483 -1.0611 0
M  V30 5350 H 517.034 3.07294 -0.545588 0
M  V30 5351 O 517.374 0.726383 1.44243 0
M  V30 5352 H 518.065 0.275111 1.91736 0
M  V30 END ATOM
M  V30 BEGIN BOND
M  V30 END BOND
M  V30 END CTAB
M  END
$$$$
