drugbank_target|P29350 Tyrosine-protein phosphatase non-receptor type 6 (DB01133)
 OpenBabel12092121233D

  0  0  0     0  0            999 V3000
M  V30 BEGIN CTAB
M  V30 COUNTS 9435 9536 0 0 0
M  V30 BEGIN ATOM
M  V30 1 H -0.908 1.98254 -0.117106 0
M  V30 2 N 0 1.576 0 0
M  V30 3 C 0.933 2.03868 1.02534 0
M  V30 4 C 1.911 0.928543 1.3348 0
M  V30 5 O 3.095 1.19667 1.45644 0
M  V30 6 C 0.222 2.43627 2.35294 0
M  V30 7 C -0.732 3.65373 2.2001 0
M  V30 8 S 0.101 5.13292 1.52614 0
M  V30 9 C 1.257 5.56322 2.86805 0
M  V30 10 H 1.49 2.90518 0.631377 0
M  V30 11 H -0.977 1.52953 0.210867 0
M  V30 12 H 0.981 2.67203 3.11629 0
M  V30 13 H -0.358 1.57376 2.7183 0
M  V30 14 H -1.165 3.90944 3.18086 0
M  V30 15 H -1.563 3.418 1.51819 0
M  V30 16 H 0.729 5.58782 3.83104 0
M  V30 17 H 1.672 6.56266 2.65933 0
M  V30 18 H 2.08 4.83886 2.90714 0
M  V30 19 N 1.4781 -0.272755 1.55222 0
M  V30 20 C 2.7241 -1.00581 1.761 0
M  V30 21 C 3.0571 -1.85932 0.560625 0
M  V30 22 O 2.3321 -1.89416 -0.441801 0
M  V30 23 C 2.6151 -1.88816 3.06628 0
M  V30 24 C 2.4681 -1.06457 4.37021 0
M  V30 25 C 3.7871 -2.8752 3.33197 0
M  V30 26 H 0.9061 -0.364244 0.640699 0
M  V30 27 H 3.5481 -0.278189 1.87952 0
M  V30 28 H 1.6981 -2.50856 2.96654 0
M  V30 29 H 3.3701 -0.464863 4.58952 0
M  V30 30 H 1.6131 -0.368043 4.32236 0
M  V30 31 H 2.2841 -1.71514 5.24678 0
M  V30 32 H 4.7601 -2.35615 3.42965 0
M  V30 33 H 3.6361 -3.46399 4.25792 0
M  V30 34 H 3.8971 -3.62657 2.52849 0
M  V30 35 N 2.9562 -1.48159 -0.537278 0
M  V30 36 C 4.3722 -1.34118 -0.865129 0
M  V30 37 C 4.5722 -0.346678 -1.98495 0
M  V30 38 O 3.6282 0.234715 -2.51407 0
M  V30 39 C 4.9412 -2.73963 -1.23954 0
M  V30 40 C 6.4892 -2.82397 -1.34984 0
M  V30 41 C 6.9642 -4.22928 -1.75772 0
M  V30 42 N 8.4552 -4.25566 -1.82887 0
M  V30 43 C 9.1902 -5.31235 -2.15817 0
M  V30 44 N 8.6862 -6.47189 -2.47222 0
M  V30 45 N 10.4792 -5.18624 -2.16761 0
M  V30 46 H 2.6302 -2.1144 0.201715 0
M  V30 47 H 4.8932 -0.947598 0.0275949 0
M  V30 48 H 4.5992 -3.48264 -0.490381 0
M  V30 49 H 4.4732 -3.0702 -2.19132 0
M  V30 50 H 6.8602 -2.08356 -2.08978 0
M  V30 51 H 6.9412 -2.5297 -0.379448 0
M  V30 52 H 6.5852 -4.97482 -1.02341 0
M  V30 53 H 6.5152 -4.49794 -2.73848 0
M  V30 54 H 9.0062 -3.41924 -1.60924 0
M  V30 55 H 9.3192 -7.23564 -2.71433 0
M  V30 56 H 7.6642 -6.50476 -2.44757 0
M  V30 57 H 10.8552 -4.27056 -1.91679 0
M  V30 58 H 11.0282 -6.01078 -2.42093 0
M  V30 59 N 4.4343 0.785586 -1.36625 0
M  V30 60 C 5.6803 1.5452 -1.32269 0
M  V30 61 C 6.0353 1.92159 0.0962266 0
M  V30 62 O 5.3283 1.60158 1.05167 0
M  V30 63 C 5.5223 2.83007 -2.1827 0
M  V30 64 C 5.3513 2.57925 -3.68382 0
M  V30 65 C 4.1213 2.52752 -4.37544 0
M  V30 66 C 6.3193 2.26861 -4.61561 0
M  V30 67 N 4.3013 2.19608 -5.73276 0
M  V30 68 C 5.6723 2.03738 -5.85569 0
M  V30 69 C 7.7273 2.129 -4.50087 0
M  V30 70 C 6.4303 1.68065 -6.9939 0
M  V30 71 C 8.4563 1.78626 -5.63779 0
M  V30 72 C 7.8183 1.56353 -6.86828 0
M  V30 73 H 3.9173 0.566301 -0.539283 0
M  V30 74 H 6.5013 0.917736 -1.71714 0
M  V30 75 H 4.6723 3.43614 -1.81063 0
M  V30 76 H 6.4043 3.48775 -2.05275 0
M  V30 77 H 3.1593 2.6813 -3.90389 0
M  V30 78 H 3.5833 2.05771 -6.44971 0
M  V30 79 H 8.2253 2.28808 -3.55537 0
M  V30 80 H 5.9433 1.50895 -7.93887 0
M  V30 81 H 9.5293 1.68502 -5.56865 0
M  V30 82 H 8.4093 1.30223 -7.73312 0
M  V30 83 N 5.9124 1.20967 1.01018 0
M  V30 84 C 7.1594 1.02374 1.74716 0
M  V30 85 C 7.4874 -0.443375 1.89379 0
M  V30 86 O 6.7424 -1.34535 1.42123 0
M  V30 87 C 7.0414 1.65997 3.16512 0
M  V30 88 C 6.7074 3.15831 3.2181 0
M  V30 89 C 5.3694 3.56719 3.22963 0
M  V30 90 C 7.7214 4.11816 3.19464 0
M  V30 91 C 5.0494 4.92107 3.19449 0
M  V30 92 C 7.4014 5.47158 3.17491 0
M  V30 93 C 6.0654 5.87451 3.16951 0
M  V30 94 H 5.3354 0.374614 0.639332 0
M  V30 95 H 7.9824 1.50485 1.18434 0
M  V30 96 H 6.2874 1.10166 3.75993 0
M  V30 97 H 7.9844 1.49119 3.72242 0
M  V30 98 H 4.5744 2.83263 3.21652 0
M  V30 99 H 8.7584 3.81257 3.17737 0
M  V30 100 H 4.0144 5.22579 3.17366 0
M  V30 101 H 8.1884 6.21274 3.14629 0
M  V30 102 H 5.8154 6.92329 3.13983 0
M  V30 103 N 7.3905 -1.2043 1.01659 0
M  V30 104 C 8.3405 -2.21076 0.557623 0
M  V30 105 C 9.3245 -1.56176 -0.387029 0
M  V30 106 O 10.5165 -1.7575 -0.209996 0
M  V30 107 C 7.6455 -3.43146 -0.102707 0
M  V30 108 C 6.7315 -4.15213 0.863652 0
M  V30 109 N 7.1225 -4.63662 2.02117 0
M  V30 110 C 5.4205 -4.40716 0.684472 0
M  V30 111 C 6.1215 -5.18868 2.62966 0
M  V30 112 N 5.0975 -5.0893 1.91027 0
M  V30 113 H 8.8995 -2.56201 1.44008 0
M  V30 114 H 6.4135 -1.36366 0.881931 0
M  V30 115 H 8.4105 -4.14475 -0.449054 0
M  V30 116 H 7.0705 -3.09526 -0.981003 0
M  V30 117 H 8.0815 -4.58877 2.40109 0
M  V30 118 H 4.7585 -4.17245 -0.14577 0
M  V30 119 H 6.1485 -5.6673 3.60924 0
M  V30 120 N 8.8686 -0.792821 -1.36206 0
M  V30 121 C 10.2846 -0.474903 -1.52371 0
M  V30 122 C 10.4846 1.00622 -1.74578 0
M  V30 123 O 9.5406 1.79162 -1.77924 0
M  V30 124 C 10.8536 -1.3083 -2.70747 0
M  V30 125 C 12.4016 -1.30234 -2.84619 0
M  V30 126 C 12.8766 -2.11956 -4.06004 0
M  V30 127 N 14.3676 -2.09419 -4.13156 0
M  V30 128 C 15.1026 -2.69419 -5.06163 0
M  V30 129 N 14.5986 -3.3829 -6.04592 0
M  V30 130 N 16.3916 -2.59134 -4.98804 0
M  V30 131 H 8.5426 -1.75222 -1.20046 0
M  V30 132 H 10.8056 -0.745024 -0.586211 0
M  V30 133 H 10.5116 -2.35881 -2.6087 0
M  V30 134 H 10.3856 -0.95196 -3.6499 0
M  V30 135 H 12.7726 -0.259748 -2.93955 0
M  V30 136 H 12.8536 -1.69847 -1.91274 0
M  V30 137 H 12.4976 -3.16248 -3.97429 0
M  V30 138 H 12.4276 -1.69711 -4.98503 0
M  V30 139 H 14.9186 -1.59297 -3.42685 0
M  V30 140 H 15.2316 -3.81394 -6.7213 0
M  V30 141 H 13.5766 -3.42393 -6.04807 0
M  V30 142 H 16.7676 -2.04927 -4.20859 0
M  V30 143 H 16.9406 -3.06185 -5.711 0
M  V30 144 N 10.3467 1.47872 -0.545128 0
M  V30 145 C 11.6237 1.9554 0.0485222 0
M  V30 146 C 12.0037 1.4876 1.49779 0
M  V30 147 O 11.3517 0.720925 2.16829 0
M  V30 148 C 11.5617 3.48898 -0.084417 0
M  V30 149 C 12.9097 4.24547 0.0671239 0
M  V30 150 O 13.9337 3.56198 -0.0113649 0
M  V30 151 O 12.7927 5.45999 0.233882 0
M  V30 152 H 9.8867 0.823957 0.0708773 0
M  V30 153 H 12.4327 1.58327 -0.610798 0
M  V30 154 H 11.2047 3.75714 -1.09337 0
M  V30 155 H 10.8277 3.92845 0.613066 0
M  V30 156 N 11.8248 0.280983 1.55075 0
M  V30 157 C 12.7548 -0.597469 2.25727 0
M  V30 158 C 13.7358 -1.15417 1.24952 0
M  V30 159 O 14.9208 -1.18722 1.53684 0
M  V30 160 C 12.0508 -1.7789 2.98283 0
M  V30 161 C 11.0048 -1.35347 4.06036 0
M  V30 162 C 10.3308 -2.61846 4.66198 0
M  V30 163 C 11.6308 -0.499354 5.19907 0
M  V30 164 H 13.3248 -0.00824265 2.99399 0
M  V30 165 H 10.8708 -0.0025244 1.44 0
M  V30 166 H 12.8238 -2.39937 3.46422 0
M  V30 167 H 11.5478 -2.39405 2.22155 0
M  V30 168 H 10.2068 -0.756156 3.58717 0
M  V30 169 H 9.8548 -3.21632 3.86732 0
M  V30 170 H 9.5548 -2.3409 5.38958 0
M  V30 171 H 11.0788 -3.24732 5.1709 0
M  V30 172 H 12.4928 -1.02498 5.64063 0
M  V30 173 H 10.8898 -0.316424 5.99265 0
M  V30 174 H 11.9598 0.480459 4.82514 0
M  V30 175 N 13.3029 -1.57598 0.00835791 0
M  V30 176 C 14.5279 -1.95617 -0.689103 0
M  V30 177 C 14.9529 -0.883753 -1.66046 0
M  V30 178 O 14.3109 0.157352 -1.80616 0
M  V30 179 C 14.3589 -3.32736 -1.38994 0
M  V30 180 O 13.4629 -3.27631 -2.50463 0
M  V30 181 H 12.8039 -0.638379 -0.182668 0
M  V30 182 H 15.3339 -2.045 0.064036 0
M  V30 183 H 15.3439 -3.68494 -1.75147 0
M  V30 184 H 14.0189 -4.1034 -0.677778 0
M  V30 185 H 12.5959 -3.03561 -2.16576 0
M  V30 186 N 14.781 0.264519 -1.55364 0
M  V30 187 C 16.029 0.993021 -1.76021 0
M  V30 188 C 16.35 1.86511 -0.569099 0
M  V30 189 O 15.62 1.91438 0.415735 0
M  V30 190 H 14.2 0.369639 -0.649135 0
M  V30 191 H 16.862 0.286707 -1.9278 0
M  V30 192 H 15.958 1.62502 -2.66457 0
M  V30 193 N 16.2591 1.48442 0.529413 0
M  V30 194 C 17.1891 1.65902 1.64313 0
M  V30 195 C 18.1701 0.507897 1.6234 0
M  V30 196 O 19.3551 0.740503 1.79528 0
M  V30 197 C 16.4851 1.69911 3.02898 0
M  V30 198 C 15.4391 2.8453 3.19729 0
M  V30 199 C 14.7651 2.73629 4.59381 0
M  V30 200 C 16.0651 4.25821 3.02447 0
M  V30 201 H 17.7591 2.5914 1.49955 0
M  V30 202 H 15.3051 1.24709 0.719982 0
M  V30 203 H 17.2581 1.80715 3.80684 0
M  V30 204 H 15.9821 0.732524 3.18279 0
M  V30 205 H 14.6411 2.73283 2.44361 0
M  V30 206 H 14.2891 1.74938 4.71599 0
M  V30 207 H 13.9891 3.50541 4.71588 0
M  V30 208 H 15.5131 2.86401 5.39265 0
M  V30 209 H 16.9271 4.37898 3.70024 0
M  V30 210 H 15.3241 5.03735 3.26146 0
M  V30 211 H 16.3941 4.42244 1.98867 0
M  V30 212 N 17.7372 -0.778329 1.37039 0
M  V30 213 C 19.0142 -1.52551 1.22424 0
M  V30 214 C 19.3942 -2.10288 -0.184964 0
M  V30 215 O 18.7422 -1.94953 -1.19187 0
M  V30 216 C 18.9522 -2.61164 2.31504 0
M  V30 217 C 20.3002 -3.28746 2.68721 0
M  V30 218 O 21.3242 -2.71455 2.30631 0
M  V30 219 O 20.1832 -4.3231 3.3432 0
M  V30 220 H 17.2772 -0.675343 0.477326 0
M  V30 221 H 19.8232 -0.815859 1.48801 0
M  V30 222 H 18.5952 -2.16574 3.25901 0
M  V30 223 H 18.2182 -3.39737 2.06554 0
M  V30 224 N 19.2153 -1.21501 -1.00376 0
M  V30 225 C 20.1783 -0.976927 -2.07337 0
M  V30 226 C 21.1783 0.0525322 -1.60714 0
M  V30 227 O 22.3683 -0.184869 -1.73216 0
M  V30 228 C 19.5003 -0.473423 -3.37597 0
M  V30 229 H 20.6933 -1.92587 -2.29892 0
M  V30 230 H 18.2463 -1.03217 -1.17371 0
M  V30 231 H 18.9813 0.480379 -3.20722 0
M  V30 232 H 18.7663 -1.216 -3.72768 0
M  V30 233 H 20.2563 -0.32675 -4.1632 0
M  V30 234 N 20.6934 1.19889 -1.02296 0
M  V30 235 C 21.6034 2.26571 -0.608508 0
M  V30 236 C 22.6194 1.70299 0.356964 0
M  V30 237 O 23.7954 2.00235 0.216326 0
M  V30 238 C 20.8604 3.46677 0.0402814 0
M  V30 239 C 19.9214 4.18153 -0.97194 0
M  V30 240 C 19.1544 5.32525 -0.354016 0
M  V30 241 O 19.3774 5.64112 0.844604 0
M  V30 242 O 18.3114 5.92242 -1.07391 0
M  V30 243 H 22.1374 2.64251 -1.49684 0
M  V30 244 H 19.7224 1.26629 -0.792809 0
M  V30 245 H 21.6044 4.19475 0.402324 0
M  V30 246 H 20.2794 3.10858 0.902707 0
M  V30 247 H 19.1864 3.47499 -1.38546 0
M  V30 248 H 20.5194 4.57927 -1.80454 0
M  V30 249 N 22.1715 0.800033 1.35784 0
M  V30 250 C 23.3995 0.389606 2.03199 0
M  V30 251 C 23.8145 -0.997375 1.60306 0
M  V30 252 O 23.1715 -1.64154 0.797481 0
M  V30 253 C 23.2225 0.455855 3.58614 0
M  V30 254 O 22.9435 1.78815 3.99946 0
M  V30 255 C 24.4445 0.0374032 4.43284 0
M  V30 256 H 21.6645 0.159132 0.651857 0
M  V30 257 H 24.2085 1.08183 1.73541 0
M  V30 258 H 22.3635 -0.188057 3.86943 0
M  V30 259 H 22.7775 1.74636 4.94573 0
M  V30 260 H 24.2515 0.134882 5.51835 0
M  V30 261 H 24.7285 -1.01651 4.27275 0
M  V30 262 H 25.3345 0.654215 4.20238 0
M  V30 263 N 23.6496 -1.47581 0.552962 0
M  V30 264 C 24.5796 -2.32762 -0.185451 0
M  V30 265 C 25.5606 -1.43527 -0.912905 0
M  V30 266 O 26.7456 -1.72388 -0.894201 0
M  V30 267 C 23.8756 -3.25219 -1.21859 0
M  V30 268 C 22.8296 -4.23661 -0.607864 0
M  V30 269 C 22.1556 -5.05413 -1.74533 0
M  V30 270 C 23.4556 -5.20481 0.435582 0
M  V30 271 H 25.1496 -2.94749 0.525684 0
M  V30 272 H 22.6956 -1.41738 0.254251 0
M  V30 273 H 24.6486 -3.8365 -1.7433 0
M  V30 274 H 23.3726 -2.61279 -1.95961 0
M  V30 275 H 22.0316 -3.66451 -0.104489 0
M  V30 276 H 21.6796 -4.3788 -2.47529 0
M  V30 277 H 21.3796 -5.72059 -1.34249 0
M  V30 278 H 22.9036 -5.66701 -2.27338 0
M  V30 279 H 24.3176 -5.733 -0.00290157 0
M  V30 280 H 22.7146 -5.95305 0.757067 0
M  V30 281 H 23.7846 -4.66217 1.33303 0
M  V30 282 N 25.1277 -0.289203 -1.54924 0
M  V30 283 C 26.0577 0.58549 -2.2604 0
M  V30 284 C 27.0387 1.14753 -1.25562 0
M  V30 285 O 28.2237 1.17906 -1.54311 0
M  V30 286 C 25.3537 1.76305 -2.99222 0
M  V30 287 C 24.3077 1.33191 -4.06748 0
M  V30 288 C 23.6337 2.5937 -4.6758 0
M  V30 289 C 24.9337 0.471775 -5.20165 0
M  V30 290 H 26.6277 -0.00763532 -2.99399 0
M  V30 291 H 24.1737 -0.00511229 -1.43999 0
M  V30 292 H 26.1267 2.38097 -3.47689 0
M  V30 293 H 24.8507 2.38223 -2.23422 0
M  V30 294 H 23.5097 0.737121 -3.59113 0
M  V30 295 H 23.1577 3.19576 -3.88433 0
M  V30 296 H 22.8577 2.31228 -5.40192 0
M  V30 297 H 24.3817 3.21985 -5.18804 0
M  V30 298 H 25.7957 0.995056 -5.64599 0
M  V30 299 H 24.1927 0.284639 -5.99425 0
M  V30 300 H 25.2627 -0.506041 -4.82252 0
M  V30 301 N 26.6058 1.57591 -0.0167156 0
M  V30 302 C 27.5528 2.09462 0.969251 0
M  V30 303 C 28.5228 0.99381 1.33089 0
M  V30 304 O 29.7078 1.26726 1.42636 0
M  V30 305 C 26.8478 2.61622 2.25051 0
M  V30 306 C 25.9608 3.85666 1.94642 0
M  V30 307 C 25.0958 4.26266 3.16972 0
M  V30 308 C 24.1348 5.43101 2.82326 0
M  V30 309 N 23.2718 5.78915 3.97243 0
M  V30 310 H 28.1118 2.93428 0.519997 0
M  V30 311 H 25.6488 1.45044 0.245087 0
M  V30 312 H 27.6068 2.89949 2.99976 0
M  V30 313 H 26.2368 1.80505 2.67615 0
M  V30 314 H 25.2888 3.64145 1.10013 0
M  V30 315 H 26.6008 4.70678 1.65117 0
M  V30 316 H 25.7548 4.55963 4.00228 0
M  V30 317 H 24.4938 3.39996 3.49648 0
M  V30 318 H 23.4988 5.1311 1.97479 0
M  V30 319 H 24.7238 6.3106 2.50879 0
M  V30 320 H 22.6698 4.95602 4.29785 0
M  V30 321 H 22.5868 6.58539 3.71299 0
M  V30 322 H 23.8548 6.13212 4.81239 0
M  V30 323 N 28.0839 -0.256276 1.55502 0
M  V30 324 C 29.3319 -0.983672 1.76545 0
M  V30 325 C 29.6529 -1.86206 0.578982 0
M  V30 326 O 28.9229 -1.91656 -0.405577 0
M  V30 327 H 27.5029 -0.366191 0.651086 0
M  V30 328 H 30.1649 -0.276479 1.92929 0
M  V30 329 H 29.2609 -1.61087 2.67315 0
M  V30 330 N 29.562 -1.4872 -0.521534 0
M  V30 331 C 30.978 -1.35028 -0.850855 0
M  V30 332 C 31.178 -0.367712 -1.98116 0
M  V30 333 O 30.234 0.208037 -2.51642 0
M  V30 334 C 31.547 -2.75263 -1.21041 0
M  V30 335 C 33.095 -2.83813 -1.31981 0
M  V30 336 C 33.57 -4.24769 -1.71276 0
M  V30 337 N 35.061 -4.27482 -1.78363 0
M  V30 338 C 35.796 -5.33494 -2.1017 0
M  V30 339 N 35.292 -6.49775 -2.40343 0
M  V30 340 N 37.085 -5.20894 -2.11248 0
M  V30 341 H 29.236 -2.11214 0.22413 0
M  V30 342 H 31.499 -0.947252 0.0376439 0
M  V30 343 H 31.205 -3.48765 -0.453415 0
M  V30 344 H 31.079 -3.09327 -2.15863 0
M  V30 345 H 33.466 -2.10561 -2.06756 0
M  V30 346 H 33.547 -2.53358 -0.352596 0
M  V30 347 H 33.191 -4.9854 -0.970588 0
M  V30 348 H 33.121 -4.52673 -2.69062 0
M  V30 349 H 35.612 -3.43611 -1.57288 0
M  V30 350 H 35.925 -7.26402 -2.63743 0
M  V30 351 H 34.27 -6.53035 -2.37844 0
M  V30 352 H 37.461 -4.29065 -1.87139 0
M  V30 353 H 37.634 -6.03612 -2.35704 0
M  V30 354 N 31.0401 0.771051 -1.3745 0
M  V30 355 C 32.2881 1.52661 -1.32435 0
M  V30 356 C 32.6091 1.9479 0.0905024 0
M  V30 357 O 31.8791 1.66348 1.03466 0
M  V30 358 H 30.4591 0.566218 -0.487244 0
M  V30 359 H 33.1211 0.917636 -1.71946 0
M  V30 360 H 32.2171 2.42568 -1.96385 0
M  V30 361 N 32.5182 1.22032 0.997298 0
M  V30 362 C 33.7642 1.04376 1.73878 0
M  V30 363 C 34.0972 -0.420716 1.89588 0
M  V30 364 O 33.3722 -1.31202 1.43583 0
M  V30 365 C 33.6552 1.75047 3.14691 0
M  V30 366 C 33.5082 3.29062 3.06656 0
M  V30 367 C 34.8272 1.49928 4.13775 0
M  V30 368 H 31.9462 0.380578 0.631133 0
M  V30 369 H 34.5882 1.50312 1.16217 0
M  V30 370 H 32.7382 1.35996 3.63919 0
M  V30 371 H 34.4102 3.7753 2.65083 0
M  V30 372 H 32.6532 3.58967 2.43568 0
M  V30 373 H 33.3242 3.73683 4.06282 0
M  V30 374 H 35.8002 1.83842 3.73285 0
M  V30 375 H 34.6762 2.01878 5.10428 0
M  V30 376 H 34.9372 0.430929 4.39995 0
M  V30 377 N 33.9963 -1.19345 1.0293 0
M  V30 378 C 34.9463 -2.20472 0.58104 0
M  V30 379 C 35.9303 -1.56578 -0.370442 0
M  V30 380 O 37.1223 -1.75963 -0.191344 0
M  V30 381 C 34.2513 -3.43236 -0.066306 0
M  V30 382 C 33.3373 -4.14274 0.907642 0
M  V30 383 N 33.7283 -4.61492 2.07023 0
M  V30 384 C 32.0263 -4.39966 0.731177 0
M  V30 385 C 32.7273 -5.1605 2.68454 0
M  V30 386 N 31.7033 -5.06875 1.96414 0
M  V30 387 H 35.5053 -2.54659 1.46717 0
M  V30 388 H 33.0193 -1.35423 0.896345 0
M  V30 389 H 35.0163 -4.14927 -0.405068 0
M  V30 390 H 33.6763 -3.10549 -0.948118 0
M  V30 391 H 34.6873 -4.56304 2.44963 0
M  V30 392 H 31.3643 -4.17377 -0.101507 0
M  V30 393 H 32.7543 -5.6287 3.66915 0
M  V30 394 N 35.4744 -0.807222 -1.35358 0
M  V30 395 C 36.7224 -0.387122 -1.98358 0
M  V30 396 C 37.0434 1.04942 -1.64354 0
M  V30 397 O 36.3134 1.72615 -0.926339 0
M  V30 398 H 34.8934 -0.140154 -0.733734 0
M  V30 399 H 37.5554 -1.0332 -1.6526 0
M  V30 400 H 36.6514 -0.493352 -3.08176 0
M  V30 401 N 36.9525 1.47285 -0.560781 0
M  V30 402 C 38.1775 2.07359 -0.0410566 0
M  V30 403 C 38.6025 1.41017 1.24483 0
M  V30 404 O 37.9605 0.486368 1.74654 0
M  V30 405 C 38.0085 3.6035 0.134123 0
M  V30 406 O 37.1125 3.94681 1.19587 0
M  V30 407 H 36.4535 0.661887 -0.0529291 0
M  V30 408 H 38.9835 1.89252 -0.777482 0
M  V30 409 H 38.9935 4.0652 0.347207 0
M  V30 410 H 37.6685 4.08034 -0.805047 0
M  V30 411 H 36.2455 3.60251 0.962987 0
M  V30 412 N 38.4306 0.297415 1.54768 0
M  V30 413 C 39.6776 -0.312913 2.00068 0
M  V30 414 C 40.0056 -1.54171 1.18582 0
M  V30 415 O 39.2606 -1.94108 0.249133 0
M  V30 416 C 39.5596 -0.717561 3.50123 0
M  V30 417 C 39.2256 0.409095 4.4904 0
M  V30 418 C 37.8876 0.718399 4.75807 0
M  V30 419 C 40.2396 1.16717 5.07963 0
M  V30 420 C 37.5676 1.78896 5.5876 0
M  V30 421 C 39.9196 2.22762 5.92081 0
M  V30 422 C 38.5836 2.54303 6.1716 0
M  V30 423 H 37.8536 -0.114503 0.7321 0
M  V30 424 H 40.5006 0.415767 1.86932 0
M  V30 425 H 38.8056 -1.52627 3.60849 0
M  V30 426 H 40.5026 -1.20091 3.82595 0
M  V30 427 H 37.0926 0.157918 4.28309 0
M  V30 428 H 41.2766 0.941466 4.87289 0
M  V30 429 H 36.5326 2.0381 5.7643 0
M  V30 430 H 40.7066 2.81962 6.36765 0
M  V30 431 H 38.3336 3.3739 6.81229 0
M  V30 432 N 39.9087 -1.5758 0.0250728 0
M  V30 433 C 40.8387 -2.13007 -0.956575 0
M  V30 434 C 41.8197 -1.0452 -1.342 0
M  V30 435 O 43.0047 -1.32332 -1.42133 0
M  V30 436 C 40.1347 -2.65386 -2.24026 0
M  V30 437 C 39.0887 -3.78623 -1.99571 0
M  V30 438 C 38.4147 -4.17414 -3.3417 0
M  V30 439 C 39.7147 -5.04867 -1.33814 0
M  V30 440 H 41.4087 -2.9528 -0.494991 0
M  V30 441 H 38.9547 -1.42042 -0.236651 0
M  V30 442 H 40.9077 -3.02794 -2.93076 0
M  V30 443 H 39.6317 -1.80268 -2.72343 0
M  V30 444 H 38.2907 -3.41646 -1.32941 0
M  V30 445 H 37.9387 -3.29284 -3.80238 0
M  V30 446 H 37.6387 -4.93719 -3.18615 0
M  V30 447 H 39.1627 -4.57402 -4.04495 0
M  V30 448 H 40.5767 -5.39888 -1.92857 0
M  V30 449 H 38.9737 -5.86144 -1.28669 0
M  V30 450 H 40.0437 -4.83904 -0.310561 0
M  V30 451 N 41.3868 0.248026 -1.55636 0
M  V30 452 C 42.3498 1.29044 -1.89421 0
M  V30 453 C 43.3498 1.41134 -0.770581 0
M  V30 454 O 44.5398 1.39854 -1.03858 0
M  V30 455 C 41.6718 2.66831 -2.12165 0
M  V30 456 H 42.8648 1.00305 -2.82629 0
M  V30 457 H 40.4178 0.487265 -1.48511 0
M  V30 458 H 41.1528 3.00711 -1.21422 0
M  V30 459 H 40.9378 2.59438 -2.93997 0
M  V30 460 H 42.4278 3.42103 -2.3949 0
M  V30 461 N 42.8649 1.48995 0.513639 0
M  V30 462 C 44.2809 1.35478 0.843682 0
M  V30 463 C 44.4809 0.378213 1.97919 0
M  V30 464 O 43.5369 -0.194689 2.51748 0
M  V30 465 C 44.8499 2.75901 1.1958 0
M  V30 466 C 46.3979 2.84509 1.30474 0
M  V30 467 C 46.8729 4.25671 1.69021 0
M  V30 468 N 48.3639 4.28422 1.76094 0
M  V30 469 C 49.0989 5.34601 2.07338 0
M  V30 470 N 48.5949 6.5104 2.36894 0
M  V30 471 N 50.3879 5.22007 2.08483 0
M  V30 472 H 42.5389 2.11092 -0.235328 0
M  V30 473 H 44.8019 0.947039 -0.0426669 0
M  V30 474 H 44.5079 3.49001 0.434913 0
M  V30 475 H 44.3819 3.10467 2.1422 0
M  V30 476 H 46.7689 2.11655 2.05637 0
M  V30 477 H 46.8499 2.53542 0.339155 0
M  V30 478 H 46.4939 4.99048 0.944135 0
M  V30 479 H 46.4239 4.54094 2.66658 0
M  V30 480 H 48.9149 3.44441 1.55464 0
M  V30 481 H 49.2279 7.2779 2.59887 0
M  V30 482 H 47.5729 6.54287 2.34378 0
M  V30 483 H 50.7639 4.30051 1.84861 0
M  V30 484 H 50.9369 6.04854 2.325 0
M  V30 485 N 44.343 -0.763751 1.37857 0
M  V30 486 C 45.754 -1.3405 1.29952 0
M  V30 487 C 46.105 -1.96138 -0.0492898 0
M  V30 488 O 45.23 -1.94372 -0.951239 0
M  V30 489 C 45.825 -2.43729 2.35333 0
M  V30 490 C 44.384 -2.97151 2.31037 0
M  V30 491 C 43.531 -1.70438 2.18738 0
M  V30 492 H 46.482 -0.563396 1.48363 0
M  V30 493 H 46.503 -3.23412 2.00462 0
M  V30 494 H 46.015 -1.9851 3.33489 0
M  V30 495 H 44.116 -3.46724 1.3643 0
M  V30 496 H 44.229 -3.52221 3.24772 0
M  V30 497 H 42.593 -1.93673 1.65418 0
M  V30 498 H 43.376 -1.27312 3.18821 0
M  V30 499 N 45.8211 -1.22559 -0.990812 0
M  V30 500 C 47.0461 -1.07862 -1.77145 0
M  V30 501 C 47.4711 0.366447 -1.84496 0
M  V30 502 O 46.8291 1.26478 -1.29896 0
M  V30 503 C 46.8771 -1.69686 -3.18181 0
M  V30 504 O 45.9811 -0.951946 -4.01263 0
M  V30 505 H 45.3221 -0.378712 -0.545411 0
M  V30 506 H 47.8521 -1.62399 -1.2445 0
M  V30 507 H 47.8621 -1.74496 -3.68802 0
M  V30 508 H 46.5371 -2.74841 -3.12146 0
M  V30 509 H 45.1141 -0.980011 -3.59792 0
M  V30 510 N 47.2992 1.18797 -1.03562 0
M  V30 511 C 48.7152 1.40671 -0.753917 0
M  V30 512 C 48.9152 1.9043 0.658686 0
M  V30 513 O 47.9712 2.08538 1.42366 0
M  V30 514 C 49.2842 2.41192 -1.79574 0
M  V30 515 C 50.8322 2.54928 -1.81606 0
M  V30 516 C 51.3072 3.58709 -2.84766 0
M  V30 517 N 52.7982 3.66212 -2.83625 0
M  V30 518 C 53.5332 4.46225 -3.60098 0
M  V30 519 N 53.0292 5.29888 -4.46308 0
M  V30 520 N 54.8222 4.40939 -3.4861 0
M  V30 521 H 46.9732 0.848221 -1.94728 0
M  V30 522 H 49.2362 0.435081 -0.842264 0
M  V30 523 H 48.9422 2.11669 -2.80872 0
M  V30 524 H 48.8162 3.40467 -1.62365 0
M  V30 525 H 51.2032 2.83771 -0.809817 0
M  V30 526 H 51.2842 1.55784 -2.02891 0
M  V30 527 H 50.9282 3.30607 -3.85566 0
M  V30 528 H 50.8582 4.57519 -2.60737 0
M  V30 529 H 53.3492 3.06466 -2.21105 0
M  V30 530 H 53.6622 5.88078 -5.01382 0
M  V30 531 H 52.0072 5.29326 -4.50377 0
M  V30 532 H 55.1982 3.74624 -2.80668 0
M  V30 533 H 55.3712 5.03056 -4.08459 0
M  V30 534 N 48.7773 0.814389 1.34928 0
M  V30 535 C 49.7243 0.22822 2.29669 0
M  V30 536 C 50.6943 -0.642164 1.53184 0
M  V30 537 O 51.8793 -0.585605 1.81591 0
M  V30 538 C 49.0193 -0.61089 3.3965 0
M  V30 539 C 48.1323 0.280792 4.31086 0
M  V30 540 C 47.2673 -0.567067 5.28165 0
M  V30 541 C 46.3063 0.324531 6.11239 0
M  V30 542 N 45.4433 -0.483756 7.00431 0
M  V30 543 H 50.2833 1.04153 2.79206 0
M  V30 544 H 47.8203 0.525133 1.37407 0
M  V30 545 H 49.7783 -1.11263 4.0209 0
M  V30 546 H 48.4083 -1.38939 2.91369 0
M  V30 547 H 47.4603 0.900688 3.69583 0
M  V30 548 H 48.7723 0.966723 4.89342 0
M  V30 549 H 47.9263 -1.13363 5.96015 0
M  V30 550 H 46.6653 -1.28654 4.70425 0
M  V30 551 H 45.6703 0.903298 5.42329 0
M  V30 552 H 46.8953 1.04198 6.71059 0
M  V30 553 H 44.8413 -1.18706 6.45171 0
M  V30 554 H 44.7583 0.143965 7.55863 0
M  V30 555 H 46.0263 -1.03334 7.7262 0
M  V30 556 N 50.2554 -1.46986 0.568584 0
M  V30 557 C 51.2034 -2.31858 -0.185649 0
M  V30 558 C 52.1974 -1.43624 -0.898249 0
M  V30 559 O 53.4034 -1.60327 -0.818242 0
M  V30 560 H 49.7784 -0.747866 -0.0787399 0
M  V30 561 H 51.7494 -2.93303 0.549191 0
M  V30 562 C 50.4984 -3.26513 -1.19519 0
M  V30 563 H 49.8214 -3.94377 -0.656285 0
M  V30 564 H 51.2614 -3.88707 -1.6936 0
M  V30 565 C 49.7204 -2.50847 -2.24894 0
M  V30 566 O 50.2504 -2.26119 -3.32014 0
M  V30 567 N 48.4564 -2.11656 -1.99124 0
M  V30 568 H 48.0034 -2.31966 -1.12024 0
M  V30 569 H 47.9614 -1.61347 -2.69842 0
M  V30 570 N 51.7335 -0.305618 -1.54608 0
M  V30 571 C 52.6655 0.602161 -2.21149 0
M  V30 572 C 53.6785 1.09394 -1.20569 0
M  V30 573 O 54.8675 1.0106 -1.47136 0
M  V30 574 C 51.9675 1.83692 -2.84799 0
M  V30 575 C 51.1405 1.48686 -4.11353 0
M  V30 576 C 50.1995 2.57725 -4.58764 0
M  V30 577 O 49.2255 2.22623 -5.23858 0
M  V30 578 N 50.4275 3.88346 -4.31471 0
M  V30 579 H 53.1925 0.0324966 -2.99682 0
M  V30 580 H 50.7535 -0.128021 -1.61393 0
M  V30 581 H 52.7455 2.55994 -3.13448 0
M  V30 582 H 51.3155 2.31486 -2.10078 0
M  V30 583 H 50.5355 0.596269 -3.89664 0
M  V30 584 H 51.8235 1.22842 -4.93748 0
M  V30 585 H 51.2215 4.19671 -3.79331 0
M  V30 586 H 49.7785 4.56932 -4.64818 0
M  V30 587 N 53.2116 1.57565 -0.0334293 0
M  V30 588 C 54.4596 1.91598 0.642999 0
M  V30 589 C 54.7806 0.910847 1.7242 0
M  V30 590 O 54.0506 -0.0469931 1.95844 0
M  V30 591 H 52.6306 0.707228 0.240496 0
M  V30 592 H 55.2926 1.94726 -0.0822488 0
M  V30 593 H 54.3886 2.92336 1.09298 0
M  V30 594 N 54.6897 -0.239769 1.55765 0
M  V30 595 C 55.9667 -0.990056 1.68693 0
M  V30 596 C 56.3467 -2.03107 0.5754 0
M  V30 597 O 55.6947 -2.24604 -0.42017 0
M  V30 598 C 55.9047 -1.61696 3.09282 0
M  V30 599 C 57.2527 -2.11613 3.6811 0
M  V30 600 O 58.2767 -1.71624 3.12127 0
M  V30 601 O 57.1357 -2.85057 4.66267 0
M  V30 602 H 54.2297 -0.461299 0.686391 0
M  V30 603 H 56.7757 -0.232991 1.68093 0
M  V30 604 H 55.5477 -0.864357 3.81634 0
M  V30 605 H 55.1707 -2.44005 3.13923 0
M  V30 606 N 56.1678 -1.49265 -0.50573 0
M  V30 607 C 57.4148 -1.58513 -1.26015 0
M  V30 608 C 57.7428 -0.26972 -1.92621 0
M  V30 609 O 56.9978 0.741997 -1.81088 0
M  V30 610 C 57.2968 -2.69008 -2.35308 0
M  V30 611 C 56.9628 -4.10662 -1.86192 0
M  V30 612 C 55.6248 -4.49212 -1.72516 0
M  V30 613 C 57.9768 -4.99336 -1.49375 0
M  V30 614 C 55.3048 -5.74214 -1.20394 0
M  V30 615 C 57.6568 -6.24852 -0.987072 0
M  V30 616 C 56.3208 -6.62236 -0.836669 0
M  V30 617 H 55.5908 -0.580041 -0.461122 0
M  V30 618 H 58.2378 -1.83078 -0.561665 0
M  V30 619 H 56.5428 -2.38396 -3.10926 0
M  V30 620 H 58.2398 -2.73373 -2.93374 0
M  V30 621 H 54.8298 -3.8023 -1.97795 0
M  V30 622 H 59.0138 -4.70212 -1.5879 0
M  V30 623 H 54.2698 -6.01883 -1.07458 0
M  V30 624 H 58.4438 -6.92944 -0.692983 0
M  V30 625 H 56.0708 -7.58979 -0.430607 0
M  V30 626 N 57.6459 0.756429 -1.3826 0
M  V30 627 C 58.8709 1.55077 -1.37717 0
M  V30 628 C 59.2959 1.88073 0.03164 0
M  V30 629 O 58.6539 1.50364 1.01293 0
M  V30 630 C 58.7019 2.8283 -2.23695 0
M  V30 631 O 57.8059 3.77862 -1.6521 0
M  V30 632 H 57.1469 0.469152 -0.469885 0
M  V30 633 H 59.6769 0.935019 -1.81985 0
M  V30 634 H 59.6869 3.31783 -2.37453 0
M  V30 635 H 58.3619 2.58144 -3.2609 0
M  V30 636 H 56.9389 3.36555 -1.60578 0
M  V30 637 N 59.124 1.23083 0.984299 0
M  V30 638 C 60.054 1.03292 2.09411 0
M  V30 639 C 61.035 -0.048923 1.7003 0
M  V30 640 O 62.22 0.114967 1.93859 0
M  V30 641 C 59.35 0.619155 3.41736 0
M  V30 642 C 58.304 1.64791 3.95004 0
M  V30 643 C 57.63 1.0897 5.23478 0
M  V30 644 C 58.93 3.03999 4.24714 0
M  V30 645 H 60.624 1.96119 2.26225 0
M  V30 646 H 58.17 0.944344 1.08711 0
M  V30 647 H 60.123 0.467777 4.18796 0
M  V30 648 H 58.847 -0.344786 3.24775 0
M  V30 649 H 57.506 1.78721 3.20085 0
M  V30 650 H 57.154 0.11686 5.02864 0
M  V30 651 H 56.854 1.77704 5.60085 0
M  V30 652 H 58.378 0.950093 6.03163 0
M  V30 653 H 59.792 2.93393 4.92538 0
M  V30 654 H 58.189 3.69936 4.72512 0
M  V30 655 H 59.259 3.53285 3.32142 0
M  V30 656 N 60.6021 -1.18246 1.0419 0
M  V30 657 C 61.8271 -1.92736 0.765996 0
M  V30 658 C 62.2521 -1.75728 -0.67091 0
M  V30 659 O 61.6101 -1.06825 -1.46486 0
M  V30 660 C 61.6581 -3.42148 1.13875 0
M  V30 661 O 60.7621 -4.11548 0.264954 0
M  V30 662 H 60.1031 -0.601238 0.281797 0
M  V30 663 H 62.6331 -1.49942 1.39207 0
M  V30 664 H 62.6431 -3.92858 1.1012 0
M  V30 665 H 61.3181 -3.53848 2.18551 0
M  V30 666 H 59.8951 -3.71137 0.362226 0
M  V30 667 N 62.0802 -0.821533 -1.34494 0
M  V30 668 C 63.3262 -0.409552 -1.98622 0
M  V30 669 C 63.6592 1.0244 -1.64984 0
M  V30 670 O 62.9342 1.71325 -0.920758 0
M  V30 671 C 63.2172 -0.610458 -3.54888 0
M  V30 672 C 63.0702 -2.09043 -3.98273 0
M  V30 673 C 64.3892 -0.0455379 -4.40076 0
M  V30 674 H 61.5082 -0.15028 -0.721516 0
M  V30 675 H 64.1502 -1.03384 -1.59411 0
M  V30 676 H 62.3002 -0.079044 -3.8842 0
M  V30 677 H 63.9722 -2.68537 -3.75081 0
M  V30 678 H 62.2152 -2.58139 -3.48635 0
M  V30 679 H 62.8862 -2.18182 -5.07051 0
M  V30 680 H 65.3622 -0.499557 -4.1309 0
M  V30 681 H 64.2382 -0.215922 -5.48475 0
M  V30 682 H 64.4992 1.04939 -4.29465 0
M  V30 683 N 63.5583 1.46682 -0.576371 0
M  V30 684 C 64.9743 1.57822 -0.237562 0
M  V30 685 C 65.1743 1.57237 1.26011 0
M  V30 686 O 64.2303 1.48596 2.04146 0
M  V30 687 C 65.5433 2.87499 -0.881168 0
M  V30 688 C 67.0913 3.01119 -0.85417 0
M  V30 689 C 67.5663 4.33524 -1.4772 0
M  V30 690 N 69.0573 4.40207 -1.44125 0
M  V30 691 C 69.7923 5.4126 -1.89276 0
M  V30 692 N 69.2883 6.49021 -2.42371 0
M  V30 693 N 71.0813 5.32422 -1.80231 0
M  V30 694 H 63.2323 1.45306 -1.54919 0
M  V30 695 H 65.4953 0.692733 -0.647167 0
M  V30 696 H 65.2013 2.9372 -1.93447 0
M  V30 697 H 65.0753 3.75224 -0.385592 0
M  V30 698 H 67.4623 2.94485 0.190491 0
M  V30 699 H 67.5433 2.14887 -1.3877 0
M  V30 700 H 67.1873 4.40916 -2.52103 0
M  V30 701 H 67.1173 5.1852 -0.918947 0
M  V30 702 H 69.6083 3.62931 -1.05307 0
M  V30 703 H 69.9213 7.2233 -2.74698 0
M  V30 704 H 68.2663 6.49858 -2.46393 0
M  V30 705 H 71.4573 4.47137 -1.38514 0
M  V30 706 H 71.6303 6.11034 -2.15735 0
M  V30 707 N 65.0364 0.313813 1.54444 0
M  V30 708 C 66.2824 -0.292108 2.00685 0
M  V30 709 C 66.6154 -1.52548 1.20177 0
M  V30 710 O 65.8904 -1.92452 0.281531 0
M  V30 711 C 66.1734 -0.635968 3.5444 0
M  V30 712 C 66.0264 0.607437 4.4568 0
M  V30 713 C 67.3454 -1.45747 4.15266 0
M  V30 714 H 64.4644 -0.104697 0.729526 0
M  V30 715 H 67.1064 0.428457 1.85106 0
M  V30 716 H 65.2564 -1.24986 3.67846 0
M  V30 717 H 66.9284 1.24581 4.44159 0
M  V30 718 H 65.1714 1.23822 4.15753 0
M  V30 719 H 65.8424 0.322515 5.51057 0
M  V30 720 H 68.3184 -0.938645 4.05375 0
M  V30 721 H 67.1944 -1.66683 5.2298 0
M  V30 722 H 67.4554 -2.45063 3.67963 0
M  V30 723 N 66.5145 -1.57545 0.0417849 0
M  V30 724 C 67.7625 -1.91937 -0.632829 0
M  V30 725 C 68.0835 -0.919978 -1.71934 0
M  V30 726 O 67.3535 0.0366064 -1.95866 0
M  V30 727 H 65.9335 -0.708493 -0.236742 0
M  V30 728 H 68.5955 -1.9468 0.0925745 0
M  V30 729 H 67.6915 -2.92912 -1.07746 0
M  V30 730 N 67.9926 0.231505 -1.5589 0
M  V30 731 C 69.2696 0.981096 -1.69215 0
M  V30 732 C 69.6496 2.02799 -0.586164 0
M  V30 733 O 68.9976 2.24823 0.408253 0
M  V30 734 C 69.2076 1.60054 -3.10135 0
M  V30 735 C 70.5556 2.09658 -3.69227 0
M  V30 736 O 71.5796 1.69967 -3.13033 0
M  V30 737 O 70.4386 2.8258 -4.67772 0
M  V30 738 H 67.5326 0.457653 -0.688827 0
M  V30 739 H 70.0786 0.224073 -1.68214 0
M  V30 740 H 68.8506 0.844105 -3.82087 0
M  V30 741 H 68.4736 2.42336 -3.15212 0
M  V30 742 N 69.4707 1.49531 0.497807 0
M  V30 743 C 70.4027 1.62559 1.61578 0
M  V30 744 C 71.4157 0.508134 1.54667 0
M  V30 745 O 72.6047 0.780309 1.60541 0
M  V30 746 C 69.7047 1.56925 3.00379 0
M  V30 747 C 68.8777 2.84257 3.3244 0
M  V30 748 C 67.9367 2.71632 4.50669 0
M  V30 749 O 66.9627 3.4557 4.52294 0
M  V30 750 N 68.1647 1.83391 5.5077 0
M  V30 751 H 70.9297 2.58981 1.50828 0
M  V30 752 H 68.4907 1.4666 0.685743 0
M  V30 753 H 70.4827 1.46129 3.77397 0
M  V30 754 H 69.0527 0.683483 3.05037 0
M  V30 755 H 68.2727 3.09381 2.44289 0
M  V30 756 H 69.5607 3.68666 3.5066 0
M  V30 757 H 68.9587 1.22583 5.52259 0
M  V30 758 H 67.5157 1.78515 6.26878 0
M  V30 759 N 70.9488 -0.749086 1.3866 0
M  V30 760 C 72.1948 -1.51056 1.35314 0
M  V30 761 C 72.5278 -1.94121 -0.0553751 0
M  V30 762 O 71.8028 -1.65763 -1.01749 0
M  V30 763 C 72.0858 -2.76003 2.31288 0
M  V30 764 C 71.9388 -2.39047 3.8102 0
M  V30 765 C 73.2578 -3.78046 2.2532 0
M  V30 766 H 70.3768 -0.547972 0.492844 0
M  V30 767 H 73.0188 -0.857628 1.69543 0
M  V30 768 H 71.1688 -3.31716 2.02229 0
M  V30 769 H 72.8408 -1.89074 4.20771 0
M  V30 770 H 71.0838 -1.71449 3.98482 0
M  V30 771 H 71.7548 -3.28462 4.4364 0
M  V30 772 H 74.2308 -3.31884 2.50983 0
M  V30 773 H 73.1068 -4.63159 2.94576 0
M  V30 774 H 73.3678 -4.23957 1.25352 0
M  V30 775 N 72.4269 -1.23603 -0.977757 0
M  V30 776 C 73.6549 -1.09646 -1.75458 0
M  V30 777 C 74.0699 0.351859 -1.85492 0
M  V30 778 O 73.4269 1.24327 -1.336 0
M  V30 779 C 73.4779 -1.71895 -3.18016 0
M  V30 780 O 73.1989 -3.11063 -3.08498 0
M  V30 781 C 74.6999 -1.63415 -4.12081 0
M  V30 782 H 71.9199 -0.38359 -0.550545 0
M  V30 783 H 74.4639 -1.63507 -1.22824 0
M  V30 784 H 72.6189 -1.22061 -3.67668 0
M  V30 785 H 73.0329 -3.41305 -3.9826 0
M  V30 786 H 74.5069 -2.11669 -5.09804 0
M  V30 787 H 74.9839 -0.593462 -4.35172 0
M  V30 788 H 75.5899 -2.12628 -3.68334 0
M  V30 789 N 73.905 1.17692 -1.04816 0
M  V30 790 C 74.855 2.1952 -0.616042 0
M  V30 791 C 75.839 1.57147 0.345485 0
M  V30 792 O 77.031 1.76245 0.163325 0
M  V30 793 C 74.16 3.43298 0.0116917 0
M  V30 794 C 73.246 4.12777 -0.973435 0
M  V30 795 N 73.637 4.5814 -2.14339 0
M  V30 796 C 71.935 4.38747 -0.80108 0
M  V30 797 C 72.636 5.11713 -2.7663 0
M  V30 798 N 71.612 5.03686 -2.04453 0
M  V30 799 H 75.414 2.52293 -1.5075 0
M  V30 800 H 72.928 1.3398 -0.917776 0
M  V30 801 H 74.925 4.15519 0.339006 0
M  V30 802 H 73.585 3.12018 0.898593 0
M  V30 803 H 74.596 4.52349 -2.52191 0
M  V30 804 H 71.273 4.17485 0.0350934 0
M  V30 805 H 72.663 5.56962 -3.75823 0
M  V30 806 N 75.3831 0.828654 1.34056 0
M  V30 807 C 76.6321 0.415828 1.97367 0
M  V30 808 C 76.9451 -1.02796 1.6641 0
M  V30 809 O 78.1511 -1.54497 2.23255 0
M  V30 810 C 76.6071 0.692601 3.53173 0
M  V30 811 C 76.2151 2.15038 3.93017 0
M  V30 812 C 77.9591 0.346222 4.23086 0
M  V30 813 C 75.8661 2.37174 5.41758 0
M  V30 814 H 74.7961 0.151755 0.738571 0
M  V30 815 H 77.4471 1.01581 1.52819 0
M  V30 816 H 75.8291 0.0223764 3.95994 0
M  V30 817 H 77.0031 2.86024 3.61285 0
M  V30 818 H 75.3181 2.45875 3.36057 0
M  V30 819 H 77.9151 0.48937 5.32456 0
M  V30 820 H 78.2581 -0.709842 4.10204 0
M  V30 821 H 78.7911 0.971258 3.85761 0
M  V30 822 H 75.5301 3.41308 5.59633 0
M  V30 823 H 75.0501 1.70738 5.74986 0
M  V30 824 H 76.7291 2.19818 6.08514 0
M  V30 825 N 76.8612 -1.46375 0.584142 0
M  V30 826 C 78.2772 -1.57694 0.245929 0
M  V30 827 C 78.4772 -1.57903 -1.25175 0
M  V30 828 O 77.5332 -1.49676 -2.03355 0
M  V30 829 C 78.8462 -2.87028 0.896402 0
M  V30 830 C 80.3942 -3.00662 0.870127 0
M  V30 831 C 80.8692 -4.32734 1.50017 0
M  V30 832 N 82.3602 -4.39436 1.46458 0
M  V30 833 C 83.0952 -5.40248 1.92144 0
M  V30 834 N 82.5912 -6.47726 2.4581 0
M  V30 835 N 84.3842 -5.31459 1.83052 0
M  V30 836 H 76.5352 -1.44483 1.55687 0
M  V30 837 H 78.7982 -0.689291 0.650831 0
M  V30 838 H 78.5042 -2.9269 1.95002 0
M  V30 839 H 78.3782 -3.75014 0.405486 0
M  V30 840 H 80.7652 -2.94581 -0.174871 0
M  V30 841 H 80.8462 -2.14148 1.39908 0
M  V30 842 H 80.4902 -4.39573 2.54437 0
M  V30 843 H 80.4202 -5.18025 0.946432 0
M  V30 844 H 82.9112 -3.62367 1.07231 0
M  V30 845 H 83.2242 -7.20863 2.78525 0
M  V30 846 H 81.5692 -6.48542 2.49836 0
M  V30 847 H 84.7602 -4.46396 1.40883 0
M  V30 848 H 84.9332 -6.09881 2.18973 0
M  V30 849 N 78.3393 -0.321999 -1.54275 0
M  V30 850 C 79.5883 0.281931 -1.9972 0
M  V30 851 C 79.9013 1.53369 -1.21397 0
M  V30 852 O 81.1073 2.21352 -1.57211 0
M  V30 853 C 79.5633 0.5529 -3.55628 0
M  V30 854 C 79.1713 -0.681721 -4.42783 0
M  V30 855 C 80.9153 1.11687 -4.09544 0
M  V30 856 C 78.8223 -0.382742 -5.9016 0
M  V30 857 H 77.7523 0.109124 -0.746062 0
M  V30 858 H 80.4033 -0.43398 -1.78294 0
M  V30 859 H 78.7853 1.32896 -3.73035 0
M  V30 860 H 79.9593 -1.45723 -4.37151 0
M  V30 861 H 78.2743 -1.1658 -3.99748 0
M  V30 862 H 80.8713 1.35515 -5.17242 0
M  V30 863 H 81.2143 2.06575 -3.61431 0
M  V30 864 H 81.7473 0.402032 -3.95763 0
M  V30 865 H 78.4863 -1.30076 -6.42464 0
M  V30 866 H 78.0063 0.355094 -5.98748 0
M  V30 867 H 79.6853 0.00800157 -6.47 0
M  V30 868 N 79.8174 1.5752 -0.0501392 0
M  V30 869 C 80.7494 2.08413 0.95376 0
M  V30 870 C 81.7624 1.01175 1.27544 0
M  V30 871 O 82.9514 1.28744 1.23641 0
M  V30 872 C 80.0514 2.51138 2.27559 0
M  V30 873 C 79.2244 3.817 2.13598 0
M  V30 874 C 78.2834 4.10749 3.28895 0
M  V30 875 O 77.3094 4.80685 3.04845 0
M  V30 876 N 78.5114 3.62579 4.5334 0
M  V30 877 H 81.2764 2.95165 0.519383 0
M  V30 878 H 78.8374 1.61327 0.136127 0
M  V30 879 H 80.8294 2.67648 3.03557 0
M  V30 880 H 79.3994 1.6964 2.62567 0
M  V30 881 H 78.6194 3.74782 1.22197 0
M  V30 882 H 79.9074 4.67201 2.01496 0
M  V30 883 H 79.3054 3.06039 4.75769 0
M  V30 884 H 77.8624 3.84329 5.26436 0
M  V30 885 N 81.2955 -0.223234 1.56011 0
M  V30 886 C 82.2435 -1.29627 1.93131 0
M  V30 887 C 83.2375 -1.48608 0.813146 0
M  V30 888 O 84.4435 -1.49802 0.997966 0
M  V30 889 H 80.8185 -0.434563 0.613726 0
M  V30 890 H 82.7895 -0.955995 2.82672 0
M  V30 891 C 81.5385 -2.63983 2.26292 0
M  V30 892 H 80.8615 -2.50185 3.11846 0
M  V30 893 H 82.3015 -3.3788 2.56151 0
M  V30 894 C 80.7605 -3.18866 1.08747 0
M  V30 895 O 81.2905 -4.00192 0.347727 0
M  V30 896 N 79.4965 -2.77217 0.871743 0
M  V30 897 H 79.0435 -2.1119 1.47501 0
M  V30 898 H 79.0015 -3.1428 0.0869905 0
M  V30 899 N 82.7736 -1.49793 -0.48987 0
M  V30 900 C 83.9986 -1.63836 -1.27172 0
M  V30 901 C 84.4236 -0.31402 -1.8546 0
M  V30 902 O 83.7816 0.719803 -1.66399 0
M  V30 903 C 83.8296 -2.71797 -2.36978 0
M  V30 904 O 82.9336 -2.31744 -3.41128 0
M  V30 905 H 82.2746 -0.547997 -0.37496 0
M  V30 906 H 84.8046 -1.96053 -0.585191 0
M  V30 907 H 84.8146 -2.94305 -2.82575 0
M  V30 908 H 83.4896 -3.67923 -1.93921 0
M  V30 909 H 82.0666 -2.1961 -3.01373 0
M  V30 910 N 84.2517 0.741722 -1.39055 0
M  V30 911 C 85.4997 1.49818 -1.35643 0
M  V30 912 C 85.8207 1.94938 0.0491642 0
M  V30 913 O 85.0907 1.68505 0.999141 0
M  V30 914 H 83.6707 0.555755 -0.499144 0
M  V30 915 H 86.3327 0.880957 -1.73854 0
M  V30 916 H 85.4287 2.38348 -2.01486 0
M  V30 917 N 85.7298 1.2412 0.971189 0
M  V30 918 C 87.0068 0.986867 1.6888 0
M  V30 919 C 87.3868 -0.491857 2.0529 0
M  V30 920 O 86.7348 -1.46531 1.75331 0
M  V30 921 C 86.9448 1.9063 2.92338 0
M  V30 922 C 88.2928 2.17515 3.64654 0
M  V30 923 O 89.3168 1.88254 3.02388 0
M  V30 924 O 88.1758 2.6719 4.7673 0
M  V30 925 H 85.2698 0.372944 0.738134 0
M  V30 926 H 87.8158 1.35203 1.02559 0
M  V30 927 H 86.5878 2.90552 2.62097 0
M  V30 928 H 86.2108 1.54408 3.66393 0
M  V30 929 N 87.2079 -1.17134 1.05439 0
M  V30 930 C 88.4549 -1.87456 0.765942 0
M  V30 931 C 88.7829 -1.81189 -0.707153 0
M  V30 932 O 88.0379 -1.21633 -1.5331 0
M  V30 933 C 88.3369 -3.36833 1.19491 0
M  V30 934 C 88.0029 -3.63301 2.67063 0
M  V30 935 C 86.6649 -3.70234 3.07376 0
M  V30 936 C 89.0169 -3.74575 3.62413 0
M  V30 937 C 86.3449 -3.85933 4.41896 0
M  V30 938 C 88.6969 -3.91793 4.9667 0
M  V30 939 C 87.3609 -3.96966 5.36633 0
M  V30 940 H 86.6309 -0.685948 0.280278 0
M  V30 941 H 89.2779 -1.38556 1.32192 0
M  V30 942 H 87.5829 -3.87807 0.557969 0
M  V30 943 H 89.2799 -3.89611 0.948893 0
M  V30 944 H 85.8699 -3.58532 2.34846 0
M  V30 945 H 90.0539 -3.68537 3.32406 0
M  V30 946 H 85.3099 -3.88187 4.72357 0
M  V30 947 H 89.4839 -3.99458 5.70444 0
M  V30 948 H 87.1109 -4.08883 6.40874 0
M  V30 949 N 88.686 -0.835752 -1.33615 0
M  V30 950 C 89.916 -0.442701 -2.01801 0
M  V30 951 C 90.324 0.959807 -1.63047 0
M  V30 952 O 89.667 1.63468 -0.838088 0
M  V30 953 C 89.729 -0.480125 -3.56279 0
M  V30 954 C 89.393 -1.8382 -4.18401 0
M  V30 955 C 90.39 -2.80097 -4.37998 0
M  V30 956 C 88.075 -2.13019 -4.54894 0
M  V30 957 C 90.069 -4.03736 -4.9323 0
M  V30 958 C 87.756 -3.36916 -5.09834 0
M  V30 959 C 88.754 -4.32091 -5.28948 0
M  V30 960 O 88.442 -5.53797 -5.82721 0
M  V30 961 H 88.174 -0.17441 -0.653114 0
M  V30 962 H 90.728 -1.129 -1.71589 0
M  V30 963 H 88.958 0.262931 -3.85805 0
M  V30 964 H 90.647 -0.105335 -4.05763 0
M  V30 965 H 91.413 -2.58838 -4.10156 0
M  V30 966 H 87.292 -1.39733 -4.39313 0
M  V30 967 H 90.836 -4.78034 -5.08064 0
M  V30 968 H 86.733 -3.58033 -5.37106 0
M  V30 969 H 87.501 -5.55494 -6.0114 0
M  V30 970 N 90.1641 1.46063 -0.591896 0
M  V30 971 C 91.4411 1.95595 -0.0137119 0
M  V30 972 C 91.8211 1.5345 1.4497 0
M  V30 973 O 91.1691 0.789543 2.14426 0
M  V30 974 C 91.3791 3.48453 -0.195373 0
M  V30 975 C 92.7271 4.24546 -0.0679765 0
M  V30 976 O 93.7511 3.55982 -0.124681 0
M  V30 977 O 92.6101 5.46467 0.0600579 0
M  V30 978 H 89.7041 0.825795 0.0446279 0
M  V30 979 H 92.2501 1.56303 -0.660859 0
M  V30 980 H 91.0221 3.72045 -1.21235 0
M  V30 981 H 90.6451 3.94597 0.487775 0
M  V30 982 N 91.6422 0.330177 1.54103 0
M  V30 983 C 92.5722 -0.525353 2.27513 0
M  V30 984 C 93.5532 -1.11383 1.2856 0
M  V30 985 O 94.7382 -1.13773 1.57383 0
M  V30 986 C 91.8682 -1.6831 3.03791 0
M  V30 987 C 90.8222 -1.2236 4.10137 0
M  V30 988 C 90.1482 -2.46882 4.74293 0
M  V30 989 C 91.4482 -0.333697 5.21233 0
M  V30 990 H 93.1422 0.087013 2.99274 0
M  V30 991 H 90.6882 0.0432893 1.43935 0
M  V30 992 H 92.6412 -2.28795 3.5388 0
M  V30 993 H 91.3652 -2.32216 2.29659 0
M  V30 994 H 90.0242 -0.64165 3.60941 0
M  V30 995 H 89.6722 -3.09165 3.96769 0
M  V30 996 H 89.3722 -2.16825 5.46133 0
M  V30 997 H 90.8962 -3.08117 5.27159 0
M  V30 998 H 92.3102 -0.845013 5.67038 0
M  V30 999 H 90.7072 -0.125612 5.99969 0
M  V30 1000 H 91.7772 0.633724 4.80741 0
M  V30 1001 N 93.1203 -1.57491 0.0584922 0
M  V30 1002 C 94.3503 -1.9701 -0.622134 0
M  V30 1003 C 94.7583 -0.935034 -1.6448 0
M  V30 1004 O 94.1013 0.0882904 -1.83488 0
M  V30 1005 C 94.1633 -3.32794 -1.35972 0
M  V30 1006 C 93.8273 -4.54343 -0.492043 0
M  V30 1007 C 94.8243 -5.19323 0.244901 0
M  V30 1008 C 92.5093 -5.00534 -0.420821 0
M  V30 1009 C 94.5033 -6.28835 1.04143 0
M  V30 1010 C 92.1903 -6.09921 0.379389 0
M  V30 1011 C 93.1883 -6.73933 1.10919 0
M  V30 1012 O 92.8763 -7.81216 1.89623 0
M  V30 1013 H 92.6083 -0.653127 -0.174359 0
M  V30 1014 H 95.1623 -2.05029 0.123418 0
M  V30 1015 H 93.3923 -3.21351 -2.15105 0
M  V30 1016 H 95.0813 -3.5701 -1.93129 0
M  V30 1017 H 95.8473 -4.8459 0.19939 0
M  V30 1018 H 91.7263 -4.50496 -0.978474 0
M  V30 1019 H 95.2703 -6.7873 1.61157 0
M  V30 1020 H 91.1673 -6.44089 0.426512 0
M  V30 1021 H 91.9353 -7.98029 1.81913 0
M  V30 1022 N 94.5984 0.214957 -1.56127 0
M  V30 1023 C 95.8464 0.936518 -1.79091 0
M  V30 1024 C 96.1674 1.84606 -0.628148 0
M  V30 1025 O 95.4374 1.92664 0.35462 0
M  V30 1026 H 94.0174 0.3488 -0.660566 0
M  V30 1027 H 96.6794 0.22523 -1.93594 0
M  V30 1028 H 95.7754 1.53943 -2.71492 0
M  V30 1029 N 96.0765 1.50051 0.48192 0
M  V30 1030 C 97.3245 1.60181 1.23234 0
M  V30 1031 C 97.6455 0.299176 1.92691 0
M  V30 1032 O 96.9155 -0.682708 1.83619 0
M  V30 1033 H 95.4955 0.590232 0.457859 0
M  V30 1034 H 98.1575 1.86775 0.556881 0
M  V30 1035 H 97.2535 2.40753 1.98607 0
M  V30 1036 N 97.5546 -0.734337 1.39446 0
M  V30 1037 C 98.4646 -1.87879 1.40495 0
M  V30 1038 C 99.4806 -1.714 0.299672 0
M  V30 1039 O 100.657 -1.93991 0.541249 0
M  V30 1040 C 97.7216 -3.23477 1.24754 0
M  V30 1041 C 96.7826 -3.52344 2.45259 0
M  V30 1042 C 96.0156 -4.81473 2.30259 0
M  V30 1043 O 96.2386 -5.55237 1.30643 0
M  V30 1044 O 95.1726 -5.10254 3.19256 0
M  V30 1045 H 98.9986 -1.89949 2.36966 0
M  V30 1046 H 96.5836 -0.882243 1.20569 0
M  V30 1047 H 98.4656 -4.04509 1.18111 0
M  V30 1048 H 97.1406 -3.22176 0.313781 0
M  V30 1049 H 96.0476 -2.71396 2.57478 0
M  V30 1050 H 97.3806 -3.58426 3.37331 0
M  V30 1051 N 99.0327 -1.24633 -0.964593 0
M  V30 1052 C 99.9797 -1.04144 -2.05968 0
M  V30 1053 C 100.95 0.046262 -1.66036 0
M  V30 1054 O 102.135 -0.108972 -1.90489 0
M  V30 1055 C 99.2747 -0.65563 -3.38815 0
M  V30 1056 C 98.3877 -1.81714 -3.91923 0
M  V30 1057 C 97.5227 -1.37662 -5.13052 0
M  V30 1058 C 96.5617 -2.50788 -5.58365 0
M  V30 1059 N 95.6987 -2.07582 -6.70712 0
M  V30 1060 H 100.539 -1.9787 -2.22827 0
M  V30 1061 H 98.0757 -0.9855 -1.09208 0
M  V30 1062 H 100.034 -0.412954 -4.15151 0
M  V30 1063 H 98.6637 0.244627 -3.21872 0
M  V30 1064 H 97.7157 -2.1734 -3.12198 0
M  V30 1065 H 99.0277 -2.66705 -4.21509 0
M  V30 1066 H 98.1817 -1.093 -5.96773 0
M  V30 1067 H 96.9207 -0.497293 -4.85158 0
M  V30 1068 H 95.9257 -2.79906 -4.73215 0
M  V30 1069 H 97.1507 -3.39283 -5.88272 0
M  V30 1070 H 95.0967 -1.22051 -6.44546 0
M  V30 1071 H 95.0137 -2.86125 -6.99763 0
M  V30 1072 H 96.2817 -1.82369 -7.57867 0
M  V30 1073 N 100.511 1.16574 -1.06058 0
M  V30 1074 C 101.758 1.87047 -0.775873 0
M  V30 1075 C 102.086 1.81562 0.697534 0
M  V30 1076 O 101.341 1.22445 1.52662 0
M  V30 1077 C 101.64 3.36195 -1.21275 0
M  V30 1078 C 101.306 3.6188 -2.68986 0
M  V30 1079 C 99.9678 3.68599 -3.09335 0
M  V30 1080 C 102.32 3.72648 -3.64394 0
M  V30 1081 C 99.6478 3.83584 -4.43937 0
M  V30 1082 C 102 3.89154 -4.98741 0
M  V30 1083 C 100.664 3.94114 -5.3873 0
M  V30 1084 H 99.9338 0.684452 -0.283912 0
M  V30 1085 H 102.581 1.37853 -1.32925 0
M  V30 1086 H 100.886 3.87505 -0.578528 0
M  V30 1087 H 102.583 3.89103 -0.969542 0
M  V30 1088 H 99.1728 3.57281 -2.36744 0
M  V30 1089 H 103.357 3.66769 -3.34356 0
M  V30 1090 H 98.6128 3.85677 -4.74409 0
M  V30 1091 H 102.787 3.96427 -5.72554 0
M  V30 1092 H 100.414 4.05478 -6.43033 0
M  V30 1093 N 101.989 0.842826 1.3317 0
M  V30 1094 C 102.952 0.284065 2.27433 0
M  V30 1095 C 103.952 -0.54948 1.5112 0
M  V30 1096 O 105.142 -0.362699 1.70382 0
M  V30 1097 C 102.274 -0.599384 3.35589 0
M  V30 1098 H 103.467 1.11589 2.78366 0
M  V30 1099 H 101.02 0.616221 1.4364 0
M  V30 1100 H 101.755 -1.45349 2.89904 0
M  V30 1101 H 101.54 -0.00291266 3.921 0
M  V30 1102 H 103.03 -0.983488 4.05854 0
M  V30 1103 N 103.467 -1.45747 0.599634 0
M  V30 1104 C 104.695 -2.06668 0.0978551 0
M  V30 1105 C 105.11 -1.44562 -1.21439 0
M  V30 1106 O 104.467 -0.556923 -1.73795 0
M  V30 1107 C 104.518 -3.61456 -0.0567044 0
M  V30 1108 O 104.239 -4.21242 1.20361 0
M  V30 1109 C 105.74 -4.39345 -0.590869 0
M  V30 1110 H 102.96 -0.667825 0.0651943 0
M  V30 1111 H 105.504 -1.87115 0.82511 0
M  V30 1112 H 103.659 -3.80378 -0.734251 0
M  V30 1113 H 104.073 -5.14323 1.02821 0
M  V30 1114 H 105.547 -5.48182 -0.648131 0
M  V30 1115 H 106.024 -4.08568 -1.61147 0
M  V30 1116 H 106.63 -4.25268 0.0523679 0
M  V30 1117 N 104.945 -0.338344 -1.53925 0
M  V30 1118 C 105.875 0.51328 -2.27789 0
M  V30 1119 C 106.856 1.107 -1.29149 0
M  V30 1120 O 108.041 1.12937 -1.57984 0
M  V30 1121 C 105.171 1.66697 -3.04679 0
M  V30 1122 C 104.125 1.20183 -4.1078 0
M  V30 1123 C 103.451 2.44363 -4.75595 0
M  V30 1124 C 104.751 0.30605 -5.21403 0
M  V30 1125 H 106.445 -0.102883 -2.99223 0
M  V30 1126 H 103.991 -0.0509219 -1.4391 0
M  V30 1127 H 105.944 2.26915 -3.55088 0
M  V30 1128 H 104.668 2.30995 -2.30887 0
M  V30 1129 H 103.327 0.622499 -3.61276 0
M  V30 1130 H 102.975 3.07057 -3.98403 0
M  V30 1131 H 102.675 2.13925 -5.47275 0
M  V30 1132 H 104.199 3.05317 -5.28786 0
M  V30 1133 H 105.613 0.814929 -5.67478 0
M  V30 1134 H 104.01 0.0937929 -6.00027 0
M  V30 1135 H 105.08 -0.65921 -4.80398 0
M  V30 1136 N 106.423 1.57458 -0.0668435 0
M  V30 1137 C 107.651 1.97624 0.612565 0
M  V30 1138 C 108.066 0.94502 1.63447 0
M  V30 1139 O 107.423 -0.0689276 1.8237 0
M  V30 1140 C 107.474 3.37869 1.28555 0
M  V30 1141 O 107.195 4.3704 0.304557 0
M  V30 1142 C 108.696 3.92882 2.05325 0
M  V30 1143 H 105.916 0.650045 0.166381 0
M  V30 1144 H 108.46 2.04035 -0.137782 0
M  V30 1145 H 106.615 3.3256 1.98702 0
M  V30 1146 H 107.029 5.18565 0.786779 0
M  V30 1147 H 108.503 4.93247 2.47812 0
M  V30 1148 H 108.98 3.29156 2.9078 0
M  V30 1149 H 109.586 4.01577 1.40056 0
M  V30 1150 N 107.901 -0.206675 1.56239 0
M  V30 1151 C 108.811 -1.27686 1.96808 0
M  V30 1152 C 109.827 -1.50455 0.874035 0
M  V30 1153 O 111.003 -1.63295 1.17884 0
M  V30 1154 C 108.068 -2.60358 2.28942 0
M  V30 1155 C 107.129 -2.45762 3.51994 0
M  V30 1156 C 106.362 -3.72108 3.82585 0
M  V30 1157 O 106.585 -4.75776 3.14631 0
M  V30 1158 O 105.519 -3.6833 4.76043 0
M  V30 1159 H 109.345 -0.962593 2.88041 0
M  V30 1160 H 106.93 -0.410746 1.43643 0
M  V30 1161 H 108.812 -3.38687 2.50737 0
M  V30 1162 H 107.487 -2.91435 1.4088 0
M  V30 1163 H 106.394 -1.65584 3.35459 0
M  V30 1164 H 107.727 -2.19621 4.40486 0
M  V30 1165 N 109.379 -1.50304 -0.473955 0
M  V30 1166 C 110.309 -1.71886 -1.58042 0
M  V30 1167 C 111.29 -0.567799 -1.60344 0
M  V30 1168 O 112.475 -0.806623 -1.76656 0
M  V30 1169 C 109.605 -1.81036 -2.96384 0
M  V30 1170 C 108.559 -2.962 -3.08949 0
M  V30 1171 C 107.885 -2.9049 -4.48909 0
M  V30 1172 C 109.185 -4.36752 -2.86434 0
M  V30 1173 H 110.879 -2.64527 -1.40234 0
M  V30 1174 H 108.425 -1.27295 -0.673201 0
M  V30 1175 H 110.378 -1.94719 -3.73714 0
M  V30 1176 H 109.102 -0.850147 -3.15341 0
M  V30 1177 H 107.761 -2.82164 -2.3405 0
M  V30 1178 H 107.409 -1.92321 -4.64781 0
M  V30 1179 H 107.109 -3.67802 -4.58253 0
M  V30 1180 H 108.633 -3.06218 -5.28264 0
M  V30 1181 H 110.047 -4.5133 -3.53517 0
M  V30 1182 H 108.444 -5.15493 -3.07225 0
M  V30 1183 H 109.514 -4.49321 -1.82316 0
M  V30 1184 N 110.857 0.726932 -1.39834 0
M  V30 1185 C 112.103 1.48884 -1.377 0
M  V30 1186 C 112.436 1.94185 0.0244852 0
M  V30 1187 O 111.711 1.67361 0.990986 0
M  V30 1188 C 111.994 2.72288 -2.3565 0
M  V30 1189 C 111.847 2.32956 -3.84775 0
M  V30 1190 C 113.166 3.74414 -2.31306 0
M  V30 1191 H 110.285 0.540062 -0.5015 0
M  V30 1192 H 112.927 0.830547 -1.70886 0
M  V30 1193 H 111.077 3.28457 -2.07481 0
M  V30 1194 H 112.749 1.82356 -4.23726 0
M  V30 1195 H 110.992 1.65088 -4.01159 0
M  V30 1196 H 111.663 3.21362 -4.4881 0
M  V30 1197 H 114.139 3.27849 -2.56231 0
M  V30 1198 H 113.015 4.58414 -3.01907 0
M  V30 1199 H 113.276 4.21909 -1.32081 0
M  V30 1200 N 112.336 1.25143 0.95797 0
M  V30 1201 C 113.246 1.06968 2.08794 0
M  V30 1202 C 114.262 0.00773911 1.73998 0
M  V30 1203 O 115.438 0.207972 2.00323 0
M  V30 1204 C 112.503 0.68691 3.39827 0
M  V30 1205 C 111.564 1.82641 3.88511 0
M  V30 1206 C 110.797 1.46181 5.1329 0
M  V30 1207 O 111.02 0.355971 5.69288 0
M  V30 1208 O 109.954 2.29085 5.566 0
M  V30 1209 H 113.78 2.01723 2.27027 0
M  V30 1210 H 111.365 1.04051 1.07209 0
M  V30 1211 H 113.247 0.485417 4.18595 0
M  V30 1212 H 111.922 -0.231417 3.22872 0
M  V30 1213 H 110.829 2.08274 3.10762 0
M  V30 1214 H 112.162 2.72386 4.09959 0
M  V30 1215 N 113.814 -1.1601 1.06675 0
M  V30 1216 C 115.044 -1.90251 0.805497 0
M  V30 1217 C 115.452 -1.77891 -0.64431 0
M  V30 1218 O 114.795 -1.12383 -1.45313 0
M  V30 1219 C 114.857 -3.41419 1.12576 0
M  V30 1220 C 114.521 -3.77564 2.57477 0
M  V30 1221 C 115.518 -3.79161 3.55715 0
M  V30 1222 C 113.203 -4.08079 2.92877 0
M  V30 1223 C 115.197 -4.10767 4.8739 0
M  V30 1224 C 112.884 -4.39351 4.24751 0
M  V30 1225 C 113.882 -4.40675 5.21818 0
M  V30 1226 O 113.57 -4.71202 6.51325 0
M  V30 1227 H 113.302 -0.610018 0.291297 0
M  V30 1228 H 115.856 -1.47958 1.4247 0
M  V30 1229 H 114.086 -3.84079 0.449503 0
M  V30 1230 H 115.775 -3.9694 0.84814 0
M  V30 1231 H 116.541 -3.55693 3.29708 0
M  V30 1232 H 112.42 -4.06211 2.17976 0
M  V30 1233 H 115.964 -4.11715 5.63148 0
M  V30 1234 H 111.861 -4.62285 4.50514 0
M  V30 1235 H 112.629 -4.88996 6.56373 0
M  V30 1236 N 115.292 -0.849877 -1.32721 0
M  V30 1237 C 116.522 -0.46408 -2.0132 0
M  V30 1238 C 116.93 0.94246 -1.64056 0
M  V30 1239 O 116.273 1.6257 -0.855379 0
M  V30 1240 C 116.335 -0.517887 -3.5575 0
M  V30 1241 C 115.999 -1.88248 -4.16427 0
M  V30 1242 C 116.996 -2.84726 -4.35002 0
M  V30 1243 C 114.681 -2.17832 -4.52609 0
M  V30 1244 C 116.675 -4.08945 -4.8892 0
M  V30 1245 C 114.362 -3.42304 -5.06232 0
M  V30 1246 C 115.36 -4.37677 -5.24335 0
M  V30 1247 O 115.048 -5.59946 -5.76815 0
M  V30 1248 H 114.78 -0.181327 -0.651227 0
M  V30 1249 H 117.334 -1.14713 -1.70382 0
M  V30 1250 H 115.564 0.221997 -3.86062 0
M  V30 1251 H 117.253 -0.148366 -4.05629 0
M  V30 1252 H 118.019 -2.63174 -4.07388 0
M  V30 1253 H 113.898 -1.44385 -4.37806 0
M  V30 1254 H 117.442 -4.83396 -5.02966 0
M  V30 1255 H 113.339 -3.63709 -5.33278 0
M  V30 1256 H 114.107 -5.61838 -5.95214 0
M  V30 1257 N 116.77 1.45427 -0.607355 0
M  V30 1258 C 117.998 2.06614 -0.108814 0
M  V30 1259 C 118.413 1.45204 1.2067 0
M  V30 1260 O 117.77 0.566132 1.73497 0
M  V30 1261 C 117.821 3.61481 0.0375347 0
M  V30 1262 O 117.542 4.20598 -1.22593 0
M  V30 1263 C 119.043 4.39652 0.567561 0
M  V30 1264 H 116.263 0.66747 -0.0687351 0
M  V30 1265 H 118.807 1.86675 -0.835022 0
M  V30 1266 H 116.962 3.80762 0.714068 0
M  V30 1267 H 117.376 5.1377 -1.05547 0
M  V30 1268 H 118.85 5.48518 0.61905 0
M  V30 1269 H 119.327 4.09417 1.58978 0
M  V30 1270 H 119.933 4.25234 -0.0749202 0
M  V30 1271 N 118.248 0.346503 1.53744 0
M  V30 1272 C 119.18 -0.543316 2.22667 0
M  V30 1273 C 120.193 -1.06159 1.23427 0
M  V30 1274 O 121.382 -0.971235 1.49764 0
M  V30 1275 C 118.482 -1.76076 2.89569 0
M  V30 1276 C 117.655 -1.37727 4.15151 0
M  V30 1277 C 116.714 -2.45471 4.65436 0
M  V30 1278 O 115.74 -2.08655 5.29577 0
M  V30 1279 N 116.942 -3.7677 4.41616 0
M  V30 1280 H 119.707 0.0469703 2.99663 0
M  V30 1281 H 117.268 0.170766 1.60997 0
M  V30 1282 H 119.26 -2.47593 3.20125 0
M  V30 1283 H 117.83 -2.25835 2.16142 0
M  V30 1284 H 117.05 -0.492746 3.91108 0
M  V30 1285 H 118.338 -1.09708 4.96832 0
M  V30 1286 H 117.736 -4.09467 3.90325 0
M  V30 1287 H 116.293 -4.44448 4.7677 0
M  V30 1288 N 119.726 -1.57421 0.075193 0
M  V30 1289 C 120.658 -2.09904 -0.920483 0
M  V30 1290 C 121.671 -1.03191 -1.25918 0
M  V30 1291 O 122.86 -1.30695 -1.21577 0
M  V30 1292 C 119.96 -2.54726 -2.23534 0
M  V30 1293 C 119.133 -3.8505 -2.07498 0
M  V30 1294 C 118.192 -4.15929 -3.22319 0
M  V30 1295 O 117.218 -4.85474 -2.9716 0
M  V30 1296 N 118.42 -3.69745 -4.47514 0
M  V30 1297 H 121.185 -2.95954 -0.472359 0
M  V30 1298 H 118.746 -1.61523 -0.110444 0
M  V30 1299 H 120.738 -2.72443 -2.9926 0
M  V30 1300 H 119.308 -1.73795 -2.59835 0
M  V30 1301 H 118.528 -3.76679 -1.16219 0
M  V30 1302 H 119.816 -4.70348 -1.94038 0
M  V30 1303 H 119.214 -3.13569 -4.7084 0
M  V30 1304 H 117.771 -3.92655 -5.20255 0
M  V30 1305 N 121.204 0.198386 -1.56346 0
M  V30 1306 C 122.136 1.26987 -1.90806 0
M  V30 1307 C 123.149 1.41877 -0.798419 0
M  V30 1308 O 124.338 1.42362 -1.07682 0
M  V30 1309 C 121.438 2.64246 -2.12196 0
M  V30 1310 C 120.611 2.71007 -3.43328 0
M  V30 1311 C 119.67 3.89439 -3.5387 0
M  V30 1312 O 118.696 3.76695 -4.26719 0
M  V30 1313 N 119.898 5.04752 -2.86715 0
M  V30 1314 H 122.663 0.977433 -2.83313 0
M  V30 1315 H 120.224 0.388322 -1.57174 0
M  V30 1316 H 122.216 3.41896 -2.1654 0
M  V30 1317 H 120.786 2.85992 -1.26204 0
M  V30 1318 H 120.006 1.79657 -3.50881 0
M  V30 1319 H 121.294 2.72512 -4.29668 0
M  V30 1320 H 120.692 5.18004 -2.2735 0
M  V30 1321 H 119.249 5.8036 -2.96691 0
M  V30 1322 N 122.682 1.50554 0.465978 0
M  V30 1323 C 123.93 1.61479 1.21528 0
M  V30 1324 C 124.251 0.319596 1.92363 0
M  V30 1325 O 123.521 -0.663194 1.84333 0
M  V30 1326 H 122.101 0.595055 0.451573 0
M  V30 1327 H 124.763 1.87355 0.53704 0
M  V30 1328 H 123.859 2.42846 1.96042 0
M  V30 1329 N 124.16 -0.719506 1.40217 0
M  V30 1330 C 125.406 -1.48152 1.38488 0
M  V30 1331 C 125.739 -1.94195 -0.0141867 0
M  V30 1332 O 125.014 -1.67884 -0.982096 0
M  V30 1333 C 125.297 -2.71035 2.37091 0
M  V30 1334 C 125.15 -2.30912 3.86005 0
M  V30 1335 C 126.469 -3.73182 2.33288 0
M  V30 1336 H 123.588 -0.537395 0.504357 0
M  V30 1337 H 126.23 -0.821472 1.71324 0
M  V30 1338 H 124.38 -3.27352 2.0922 0
M  V30 1339 H 126.052 -1.80107 4.24687 0
M  V30 1340 H 124.295 -1.62958 4.02029 0
M  V30 1341 H 124.966 -3.18978 4.50508 0
M  V30 1342 H 127.442 -3.26485 2.57966 0
M  V30 1343 H 126.318 -4.56806 3.04334 0
M  V30 1344 H 126.579 -4.21202 1.34317 0
M  V30 1345 N 125.638 -1.25649 -0.95132 0
M  V30 1346 C 126.568 -1.08808 -2.06599 0
M  V30 1347 C 127.549 0.00382547 -1.701 0
M  V30 1348 O 128.734 -0.166325 -1.93486 0
M  V30 1349 C 125.864 -0.709542 -3.39975 0
M  V30 1350 C 124.818 -1.75206 -3.90496 0
M  V30 1351 C 124.144 -1.22811 -5.20405 0
M  V30 1352 C 125.444 -3.15153 -4.16504 0
M  V30 1353 H 127.138 -2.02048 -2.20946 0
M  V30 1354 H 124.684 -0.972835 -1.06169 0
M  V30 1355 H 126.637 -0.578649 -4.17408 0
M  V30 1356 H 125.361 0.258556 -3.25575 0
M  V30 1357 H 124.02 -1.87145 -3.15234 0
M  V30 1358 H 123.668 -0.250145 -5.02378 0
M  V30 1359 H 123.368 -1.92492 -5.55176 0
M  V30 1360 H 124.892 -1.10968 -6.00432 0
M  V30 1361 H 126.306 -3.06349 -4.84586 0
M  V30 1362 H 124.703 -3.82333 -4.62538 0
M  V30 1363 H 125.773 -3.61966 -3.22658 0
M  V30 1364 N 127.117 1.15442 -1.07289 0
M  V30 1365 C 128.049 2.19773 -0.650585 0
M  V30 1366 C 129.062 1.60076 0.296572 0
M  V30 1367 O 130.251 1.78293 0.0859905 0
M  V30 1368 C 127.351 3.38838 0.0650398 0
M  V30 1369 C 126.524 4.2808 -0.898141 0
M  V30 1370 C 125.583 5.2574 -0.219926 0
M  V30 1371 O 124.609 5.62654 -0.860773 0
M  V30 1372 N 125.811 5.71205 1.03466 0
M  V30 1373 H 128.576 2.56622 -1.54808 0
M  V30 1374 H 126.137 1.30551 -0.957494 0
M  V30 1375 H 128.129 4.01222 0.529415 0
M  V30 1376 H 126.699 3.00409 0.864466 0
M  V30 1377 H 125.919 3.62804 -1.54165 0
M  V30 1378 H 127.207 4.84577 -1.5512 0
M  V30 1379 H 126.605 5.43325 1.57526 0
M  V30 1380 H 125.162 6.35633 1.44272 0
M  V30 1381 N 128.595 0.856903 1.32268 0
M  V30 1382 C 129.872 0.382583 1.91822 0
M  V30 1383 C 130.252 -1.13407 1.78051 0
M  V30 1384 O 129.6 -1.95673 1.18001 0
M  V30 1385 C 129.81 0.849446 3.38505 0
M  V30 1386 C 131.158 0.867936 4.15634 0
M  V30 1387 O 132.182 0.794232 3.47232 0
M  V30 1388 O 131.041 0.972286 5.37781 0
M  V30 1389 H 128.135 0.112014 0.819379 0
M  V30 1390 H 130.681 0.943952 1.41024 0
M  V30 1391 H 129.453 1.89267 3.42482 0
M  V30 1392 H 129.076 0.265652 3.96712 0
M  V30 1393 N 130.073 -1.45103 0.615059 0
M  V30 1394 C 131.489 -1.57137 0.279322 0
M  V30 1395 C 131.689 -1.60523 -1.21797 0
M  V30 1396 O 130.745 -1.53956 -2.00134 0
M  V30 1397 C 132.058 -2.85062 0.957083 0
M  V30 1398 C 133.606 -2.98749 0.933706 0
M  V30 1399 C 134.081 -4.29455 1.59162 0
M  V30 1400 N 135.572 -4.36231 1.55746 0
M  V30 1401 C 136.307 -5.36051 2.0356 0
M  V30 1402 N 135.803 -6.42367 2.59494 0
M  V30 1403 N 137.596 -5.27456 1.94284 0
M  V30 1404 H 129.747 -1.41148 1.58717 0
M  V30 1405 H 132.01 -0.675331 0.665306 0
M  V30 1406 H 131.716 -2.88488 2.01166 0
M  V30 1407 H 131.59 -3.7407 0.48494 0
M  V30 1408 H 133.977 -2.94886 -0.112347 0
M  V30 1409 H 134.058 -2.11132 1.44419 0
M  V30 1410 H 133.702 -4.34077 2.63704 0
M  V30 1411 H 133.632 -5.15901 1.0561 0
M  V30 1412 H 136.123 -3.60011 1.14893 0
M  V30 1413 H 136.436 -7.14793 2.93752 0
M  V30 1414 H 134.781 -6.43097 2.63537 0
M  V30 1415 H 137.972 -4.43308 1.5032 0
M  V30 1416 H 138.145 -6.05099 2.3186 0
M  V30 1417 N 131.551 -0.354651 -1.53558 0
M  V30 1418 C 132.828 0.294281 -1.93374 0
M  V30 1419 C 133.208 1.67313 -1.28723 0
M  V30 1420 O 132.556 2.24179 -0.442247 0
M  V30 1421 C 132.766 0.355445 -3.47185 0
M  V30 1422 C 134.114 0.601007 -4.20325 0
M  V30 1423 O 135.138 0.437106 -3.53508 0
M  V30 1424 O 133.997 0.919322 -5.38712 0
M  V30 1425 H 131.091 0.174033 -0.808481 0
M  V30 1426 H 133.637 -0.406638 -1.64756 0
M  V30 1427 H 132.409 -0.611729 -3.86489 0
M  V30 1428 H 132.032 1.1027 -3.82003 0
M  V30 1429 N 133.029 1.57378 -0.0835403 0
M  V30 1430 C 134.277 1.93547 0.581718 0
M  V30 1431 C 134.598 0.96524 1.69435 0
M  V30 1432 O 133.868 0.0153369 1.95894 0
M  V30 1433 H 132.448 0.714521 0.217874 0
M  V30 1434 H 135.11 1.94366 -0.144158 0
M  V30 1435 H 134.206 2.95665 0.999423 0
M  V30 1436 N 134.507 -0.190092 1.56449 0
M  V30 1437 C 135.735 -0.925772 1.85033 0
M  V30 1438 C 136.15 -1.76638 0.666658 0
M  V30 1439 O 135.507 -1.78822 -0.364565 0
M  V30 1440 C 135.558 -1.81786 3.12468 0
M  V30 1441 O 135.279 -1.01118 4.26271 0
M  V30 1442 C 136.78 -2.6648 3.54265 0
M  V30 1443 H 134 -0.269872 0.614337 0
M  V30 1444 H 136.544 -0.195837 2.0356 0
M  V30 1445 H 134.699 -2.50136 2.95822 0
M  V30 1446 H 135.113 -1.61956 4.98869 0
M  V30 1447 H 136.587 -3.24722 4.46385 0
M  V30 1448 H 137.064 -3.40434 2.77491 0
M  V30 1449 H 137.67 -2.03493 3.73458 0
M  V30 1450 N 135.985 -1.50799 -0.457987 0
M  V30 1451 C 137.234 -1.6168 -1.20593 0
M  V30 1452 C 137.547 -0.32888 -1.92815 0
M  V30 1453 O 138.753 -0.316773 -2.69646 0
M  V30 1454 C 137.209 -2.8545 -2.19195 0
M  V30 1455 C 136.817 -4.21168 -1.52715 0
M  V30 1456 C 138.561 -3.05681 -2.94549 0
M  V30 1457 C 136.468 -5.3611 -2.4968 0
M  V30 1458 H 135.398 -0.602134 -0.453818 0
M  V30 1459 H 138.049 -1.77245 -0.475031 0
M  V30 1460 H 136.431 -2.63472 -2.95632 0
M  V30 1461 H 137.605 -4.53449 -0.819775 0
M  V30 1462 H 135.92 -4.06648 -0.895922 0
M  V30 1463 H 138.517 -3.88727 -3.67145 0
M  V30 1464 H 138.86 -2.17929 -3.54701 0
M  V30 1465 H 139.393 -3.27901 -2.25223 0
M  V30 1466 H 136.132 -6.26057 -1.94249 0
M  V30 1467 H 135.652 -5.0823 -3.18532 0
M  V30 1468 H 137.331 -5.6722 -3.11241 0
M  V30 1469 N 137.463 0.71206 -1.40597 0
M  V30 1470 C 138.712 1.46754 -1.38369 0
M  V30 1471 C 139.025 1.95598 0.0097839 0
M  V30 1472 O 140.231 2.71059 0.154677 0
M  V30 1473 C 138.687 2.65289 -2.43207 0
M  V30 1474 C 138.295 2.23301 -3.88382 0
M  V30 1475 C 140.039 3.43008 -2.50091 0
M  V30 1476 C 137.946 3.38696 -4.84808 0
M  V30 1477 H 136.876 0.55118 -0.514506 0
M  V30 1478 H 139.527 0.774616 -1.66349 0
M  V30 1479 H 137.909 3.36769 -2.08332 0
M  V30 1480 H 139.083 1.59218 -4.32419 0
M  V30 1481 H 137.398 1.58618 -3.85006 0
M  V30 1482 H 139.995 4.28881 -3.1932 0
M  V30 1483 H 140.338 3.87065 -1.53253 0
M  V30 1484 H 140.871 2.78574 -2.83974 0
M  V30 1485 H 137.61 2.99668 -5.82992 0
M  V30 1486 H 137.13 4.01683 -4.45433 0
M  V30 1487 H 138.809 4.04712 -5.04794 0
M  V30 1488 N 138.941 1.26152 0.944643 0
M  V30 1489 C 139.891 1.04081 2.02857 0
M  V30 1490 C 140.875 -0.0256555 1.6088 0
M  V30 1491 O 142.067 0.190884 1.75968 0
M  V30 1492 C 139.196 0.672118 3.36656 0
M  V30 1493 C 138.282 1.77586 3.85128 0
M  V30 1494 N 138.673 3.01272 4.06287 0
M  V30 1495 C 136.971 1.65867 4.1401 0
M  V30 1496 C 137.672 3.72983 4.46384 0
M  V30 1497 N 136.648 3.00653 4.52889 0
M  V30 1498 H 140.45 1.97968 2.17223 0
M  V30 1499 H 137.964 1.16618 1.13022 0
M  V30 1500 H 139.961 0.495166 4.13949 0
M  V30 1501 H 138.621 -0.259307 3.23663 0
M  V30 1502 H 139.632 3.37213 3.93075 0
M  V30 1503 H 136.309 0.796907 4.09824 0
M  V30 1504 H 137.699 4.792 4.70975 0
M  V30 1505 N 140.419 -1.14872 1.07899 0
M  V30 1506 C 141.349 -2.2193 0.725887 0
M  V30 1507 C 142.33 -1.67622 -0.28927 0
M  V30 1508 O 143.515 -1.93533 -0.160787 0
M  V30 1509 C 140.645 -3.47061 0.128856 0
M  V30 1510 C 139.599 -4.14363 1.07178 0
M  V30 1511 C 138.925 -5.33636 0.337229 0
M  V30 1512 C 140.225 -4.63492 2.40775 0
M  V30 1513 H 141.919 -2.51724 1.62097 0
M  V30 1514 H 139.465 -1.20991 0.780838 0
M  V30 1515 H 141.418 -4.21199 -0.130147 0
M  V30 1516 H 140.142 -3.16617 -0.80134 0
M  V30 1517 H 138.801 -3.42173 1.3158 0
M  V30 1518 H 138.449 -4.99449 -0.596606 0
M  V30 1519 H 138.149 -5.79609 0.965788 0
M  V30 1520 H 139.673 -6.10539 0.0861567 0
M  V30 1521 H 141.087 -5.2913 2.20669 0
M  V30 1522 H 139.484 -5.20148 2.99276 0
M  V30 1523 H 140.554 -3.78834 3.02676 0
M  V30 1524 N 141.898 -0.863906 -1.31812 0
M  V30 1525 C 142.845 -0.313303 -2.28664 0
M  V30 1526 C 143.815 0.584868 -1.55462 0
M  V30 1527 O 145 0.517805 -1.83639 0
M  V30 1528 C 142.14 0.48441 -3.41683 0
M  V30 1529 C 141.253 -0.440594 -4.29747 0
M  V30 1530 C 140.388 0.370652 -5.29905 0
M  V30 1531 C 139.427 -0.551164 -6.09613 0
M  V30 1532 N 138.564 0.223462 -7.01744 0
M  V30 1533 H 143.404 -1.14444 -2.75148 0
M  V30 1534 H 140.941 -0.575769 -1.35364 0
M  V30 1535 H 142.899 0.962627 -4.05943 0
M  V30 1536 H 141.529 1.28029 -2.96325 0
M  V30 1537 H 140.581 -1.03724 -3.65986 0
M  V30 1538 H 141.893 -1.14767 -4.85417 0
M  V30 1539 H 141.047 0.911638 -5.99812 0
M  V30 1540 H 139.786 1.11105 -4.74876 0
M  V30 1541 H 138.791 -1.10396 -5.38603 0
M  V30 1542 H 140.016 -1.29032 -6.66729 0
M  V30 1543 H 137.962 0.946787 -6.49132 0
M  V30 1544 H 137.879 -0.424399 -7.54808 0
M  V30 1545 H 139.147 0.745876 -7.75923 0
M  V30 1546 N 143.376 1.44774 -0.622745 0
M  V30 1547 C 144.606 2.06187 -0.130532 0
M  V30 1548 C 145.014 1.46547 1.19669 0
M  V30 1549 O 144.357 0.579636 1.74316 0
M  V30 1550 C 144.419 3.59437 0.0674983 0
M  V30 1551 C 144.083 4.41496 -1.18026 0
M  V30 1552 C 145.08 4.75512 -2.102 0
M  V30 1553 C 142.765 4.82007 -1.41333 0
M  V30 1554 C 144.759 5.48912 -3.23998 0
M  V30 1555 C 142.446 5.55157 -2.55429 0
M  V30 1556 C 143.444 5.88528 -3.46589 0
M  V30 1557 O 143.132 6.60191 -4.58697 0
M  V30 1558 H 142.864 0.672045 -0.0730162 0
M  V30 1559 H 145.418 1.86768 -0.854802 0
M  V30 1560 H 143.648 3.77314 0.846825 0
M  V30 1561 H 145.337 4.02642 0.513209 0
M  V30 1562 H 146.103 4.4476 -1.93425 0
M  V30 1563 H 141.982 4.55457 -0.712709 0
M  V30 1564 H 145.526 5.74877 -3.95174 0
M  V30 1565 H 141.423 5.85324 -2.72151 0
M  V30 1566 H 142.191 6.78654 -4.57571 0
M  V30 1567 N 144.854 0.36279 1.53368 0
M  V30 1568 C 146.265 -0.117022 1.86333 0
M  V30 1569 C 146.616 -1.48397 1.28347 0
M  V30 1570 O 145.741 -2.07787 0.604428 0
M  V30 1571 C 146.336 -0.21912 3.38091 0
M  V30 1572 C 144.895 -0.643184 3.70864 0
M  V30 1573 C 144.042 0.211318 2.76494 0
M  V30 1574 H 146.993 0.581687 1.47655 0
M  V30 1575 H 147.014 -1.04319 3.6592 0
M  V30 1576 H 146.526 0.775902 3.80265 0
M  V30 1577 H 144.627 -1.64654 3.34245 0
M  V30 1578 H 144.74 -0.41973 4.77258 0
M  V30 1579 H 143.104 -0.319367 2.5269 0
M  V30 1580 H 143.887 1.20383 3.21501 0
M  V30 1581 N 146.332 -1.57332 0.0918853 0
M  V30 1582 C 147.262 -2.16872 -0.865371 0
M  V30 1583 C 148.243 -1.10118 -1.29646 0
M  V30 1584 O 149.428 -1.38242 -1.36392 0
M  V30 1585 C 146.558 -2.74649 -2.12569 0
M  V30 1586 C 145.512 -3.86747 -1.83333 0
M  V30 1587 C 144.838 -4.31212 -3.16166 0
M  V30 1588 C 146.138 -5.10089 -1.1228 0
M  V30 1589 H 147.832 -2.97114 -0.369307 0
M  V30 1590 H 145.378 -1.42918 -0.176194 0
M  V30 1591 H 147.331 -3.14952 -2.7997 0
M  V30 1592 H 146.055 -1.91657 -2.64452 0
M  V30 1593 H 144.714 -3.46978 -1.18331 0
M  V30 1594 H 144.362 -3.45115 -3.6593 0
M  V30 1595 H 144.062 -5.06788 -2.97388 0
M  V30 1596 H 145.586 -4.74146 -3.84731 0
M  V30 1597 H 147 -5.47582 -1.69785 0
M  V30 1598 H 145.397 -5.91073 -1.03693 0
M  V30 1599 H 146.467 -4.84786 -0.105041 0
M  V30 1600 N 147.81 0.181792 -1.56548 0
M  V30 1601 C 148.758 1.24461 -1.965 0
M  V30 1602 C 149.752 1.464 -0.852261 0
M  V30 1603 O 150.958 1.47103 -1.03733 0
M  V30 1604 H 147.333 0.418138 -0.625031 0
M  V30 1605 H 149.304 0.880714 -2.85107 0
M  V30 1606 C 148.053 2.57891 -2.33212 0
M  V30 1607 H 147.376 2.41829 -3.18369 0
M  V30 1608 H 148.816 3.3097 -2.65019 0
M  V30 1609 C 147.275 3.15871 -1.17163 0
M  V30 1610 O 147.805 3.9913 -0.453708 0
M  V30 1611 N 146.011 2.74808 -0.944936 0
M  V30 1612 H 145.558 2.07205 -1.53049 0
M  V30 1613 H 145.516 3.13939 -0.170286 0
M  V30 1614 N 149.288 1.51039 0.449983 0
M  V30 1615 C 150.528 1.64732 1.21007 0
M  V30 1616 C 150.892 0.349865 1.88785 0
M  V30 1617 O 152.093 0.362431 2.66345 0
M  V30 1618 C 150.364 2.80902 2.20973 0
M  V30 1619 S 151.923 3.14851 3.05638 0
M  V30 1620 H 148.741 0.5805 0.410538 0
M  V30 1621 H 151.343 1.88901 0.503634 0
M  V30 1622 H 150.047 3.73627 1.69796 0
M  V30 1623 H 149.578 2.58882 2.96215 0
M  V30 1624 H 151.593 2.60306 4.22439 0
M  V30 1625 N 150.766 -0.704594 1.40972 0
M  V30 1626 C 151.991 -1.49858 1.43378 0
M  V30 1627 C 152.416 -1.88061 0.038184 0
M  V30 1628 O 151.774 -1.5402 -0.956425 0
M  V30 1629 C 151.822 -2.74333 2.34038 0
M  V30 1630 O 150.926 -3.7147 1.7912 0
M  V30 1631 H 150.267 -0.45139 0.486974 0
M  V30 1632 H 152.797 -0.866832 1.8533 0
M  V30 1633 H 152.807 -3.22741 2.49604 0
M  V30 1634 H 151.482 -2.45863 3.35446 0
M  V30 1635 H 150.059 -3.30363 1.72958 0
M  V30 1636 N 152.244 -1.26651 -0.937939 0
M  V30 1637 C 153.521 -1.0313 -1.66204 0
M  V30 1638 C 153.901 0.437256 -2.06522 0
M  V30 1639 O 153.249 1.41831 -1.79154 0
M  V30 1640 C 153.459 -1.98314 -2.87181 0
M  V30 1641 C 154.807 -2.27107 -3.58758 0
M  V30 1642 O 155.831 -1.96205 -2.97291 0
M  V30 1643 O 154.69 -2.79736 -4.69479 0
M  V30 1644 H 151.784 -0.392384 -0.727986 0
M  V30 1645 H 154.33 -1.37874 -0.989382 0
M  V30 1646 H 153.102 -2.97399 -2.54302 0
M  V30 1647 H 152.725 -1.64068 -3.6217 0
M  V30 1648 N 153.722 1.14298 -1.08507 0
M  V30 1649 C 155.133 1.66926 -0.836227 0
M  V30 1650 C 155.484 1.85576 0.63686 0
M  V30 1651 O 154.609 1.56767 1.49175 0
M  V30 1652 C 155.204 3.03219 -1.51142 0
M  V30 1653 C 153.763 3.52876 -1.30979 0
M  V30 1654 C 152.91 2.2833 -1.57356 0
M  V30 1655 H 155.861 0.983491 -1.24552 0
M  V30 1656 H 155.882 3.68726 -0.939211 0
M  V30 1657 H 155.394 2.89612 -2.58353 0
M  V30 1658 H 153.495 3.71703 -0.258429 0
M  V30 1659 H 153.608 4.33586 -2.03814 0
M  V30 1660 H 151.972 2.34454 -0.995164 0
M  V30 1661 H 152.755 2.17298 -2.65775 0
M  V30 1662 N 155.201 0.870884 1.31352 0
M  V30 1663 C 156.429 0.49677 2.00848 0
M  V30 1664 C 156.844 -0.910998 1.65367 0
M  V30 1665 O 156.201 -1.59696 0.883374 0
M  V30 1666 C 156.252 0.645308 3.55694 0
M  V30 1667 O 155.973 1.99764 3.89905 0
M  V30 1668 C 157.474 0.272326 4.42463 0
M  V30 1669 H 154.694 0.193462 0.642506 0
M  V30 1670 H 157.238 1.1723 1.67563 0
M  V30 1671 H 155.393 0.0173176 3.87396 0
M  V30 1672 H 155.807 2.00607 4.84621 0
M  V30 1673 H 157.281 0.427208 5.50344 0
M  V30 1674 H 157.758 -0.788587 4.32062 0
M  V30 1675 H 158.364 0.876054 4.1618 0
M  V30 1676 N 156.679 -1.44442 0.630414 0
M  V30 1677 C 157.904 -2.06927 0.139944 0
M  V30 1678 C 158.329 -1.46795 -1.17613 0
M  V30 1679 O 157.687 -0.569144 -1.72135 0
M  V30 1680 C 157.735 -3.6058 0.0379581 0
M  V30 1681 O 156.839 -3.99937 -1.0062 0
M  V30 1682 H 156.18 -0.658608 0.0844483 0
M  V30 1683 H 158.71 -1.85327 0.866891 0
M  V30 1684 H 158.72 -4.07714 -0.152856 0
M  V30 1685 H 157.395 -4.03728 0.998809 0
M  V30 1686 H 155.972 -3.64436 -0.79001 0
M  V30 1687 N 158.157 -0.370918 -1.53173 0
M  V30 1688 C 159.067 0.480823 -2.2962 0
M  V30 1689 C 160.083 1.08789 -1.35798 0
M  V30 1690 O 161.259 1.09768 -1.68858 0
M  V30 1691 C 158.324 1.60227 -3.07454 0
M  V30 1692 C 157.385 1.0222 -4.16953 0
M  V30 1693 C 156.618 2.0902 -4.91066 0
M  V30 1694 O 156.841 3.30222 -4.65091 0
M  V30 1695 O 155.775 1.71778 -5.76867 0
M  V30 1696 H 159.601 -0.141421 -3.03371 0
M  V30 1697 H 157.186 -0.135146 -1.48787 0
M  V30 1698 H 159.068 2.25417 -3.56041 0
M  V30 1699 H 157.743 2.20982 -2.36535 0
M  V30 1700 H 156.65 0.334064 -3.72605 0
M  V30 1701 H 157.983 0.459131 -4.90054 0
M  V30 1702 N 159.635 1.57281 -0.100228 0
M  V30 1703 C 161.051 1.57527 0.256416 0
M  V30 1704 C 161.251 1.11173 1.68056 0
M  V30 1705 O 160.307 0.79053 2.39806 0
M  V30 1706 C 161.62 3.00673 0.0401747 0
M  V30 1707 C 163.168 3.12815 0.107528 0
M  V30 1708 C 163.643 4.57929 -0.0807834 0
M  V30 1709 N 165.134 4.63193 -0.0261207 0
M  V30 1710 C 165.869 5.73212 -0.146999 0
M  V30 1711 N 165.365 6.92047 -0.322999 0
M  V30 1712 N 167.158 5.62031 -0.0879044 0
M  V30 1713 H 159.309 1.85718 -1.03065 0
M  V30 1714 H 161.572 0.857446 -0.404339 0
M  V30 1715 H 161.278 3.38804 -0.943649 0
M  V30 1716 H 161.152 3.69042 0.780262 0
M  V30 1717 H 163.539 2.74554 1.08186 0
M  V30 1718 H 163.62 2.47028 -0.664134 0
M  V30 1719 H 163.264 4.96886 -1.05201 0
M  V30 1720 H 163.194 5.21783 0.710635 0
M  V30 1721 H 165.685 3.77748 0.107161 0
M  V30 1722 H 165.998 7.7173 -0.406608 0
M  V30 1723 H 164.343 6.94074 -0.358733 0
M  V30 1724 H 167.534 4.68075 0.048498 0
M  V30 1725 H 167.707 6.47734 -0.185557 0
M  V30 1726 N 161.113 -0.173488 1.56642 0
M  V30 1727 C 162.359 -0.887108 1.83035 0
M  V30 1728 C 162.714 -1.79965 0.680461 0
M  V30 1729 O 162.007 -1.88854 -0.323225 0
M  V30 1730 C 162.201 -1.72069 3.13252 0
M  V30 1731 C 162.03 -0.89035 4.40798 0
M  V30 1732 C 160.8 -0.566282 5.02117 0
M  V30 1733 C 162.998 -0.232921 5.13772 0
M  V30 1734 N 160.98 0.280427 6.13259 0
M  V30 1735 C 162.351 0.475046 6.18177 0
M  V30 1736 C 164.406 -0.150863 4.97671 0
M  V30 1737 C 163.109 1.25729 7.08227 0
M  V30 1738 C 165.135 0.618039 5.88162 0
M  V30 1739 C 164.497 1.31438 6.92029 0
M  V30 1740 H 160.596 -0.303303 0.720785 0
M  V30 1741 H 163.18 -0.154244 1.94088 0
M  V30 1742 H 161.351 -2.42499 3.03395 0
M  V30 1743 H 163.083 -2.37545 3.2765 0
M  V30 1744 H 159.838 -0.895852 4.6505 0
M  V30 1745 H 160.262 0.694027 6.73433 0
M  V30 1746 H 164.904 -0.674868 4.17379 0
M  V30 1747 H 162.622 1.79265 7.87966 0
M  V30 1748 H 166.208 0.683173 5.77775 0
M  V30 1749 H 165.088 1.89981 7.6084 0
M  V30 1750 N 162.591 -1.51276 -0.441967 0
M  V30 1751 C 163.821 -1.67273 -1.21257 0
M  V30 1752 C 164.229 -0.367624 -1.85594 0
M  V30 1753 O 163.572 0.663349 -1.71305 0
M  V30 1754 C 163.634 -2.72807 -2.34129 0
M  V30 1755 C 163.298 -4.1554 -1.90198 0
M  V30 1756 C 164.295 -5.00471 -1.40801 0
M  V30 1757 C 161.98 -4.61616 -1.9803 0
M  V30 1758 C 163.974 -6.29536 -0.998174 0
M  V30 1759 C 161.661 -5.90679 -1.56658 0
M  V30 1760 C 162.659 -6.74466 -1.07633 0
M  V30 1761 O 162.347 -8.01116 -0.668459 0
M  V30 1762 H 162.079 -0.564614 -0.371734 0
M  V30 1763 H 164.633 -1.9843 -0.530521 0
M  V30 1764 H 162.863 -2.36954 -3.05597 0
M  V30 1765 H 164.552 -2.77729 -2.96009 0
M  V30 1766 H 165.318 -4.66079 -1.34148 0
M  V30 1767 H 161.197 -3.96526 -2.35135 0
M  V30 1768 H 164.741 -6.94885 -0.61482 0
M  V30 1769 H 160.638 -6.24586 -1.62979 0
M  V30 1770 H 161.406 -8.14633 -0.794722 0
M  V30 1771 N 164.069 0.697108 -1.41344 0
M  V30 1772 C 165.019 1.80313 -1.39539 0
M  V30 1773 C 166.003 1.58618 -0.270001 0
M  V30 1774 O 167.195 1.69477 -0.510551 0
M  V30 1775 C 164.324 3.18606 -1.27848 0
M  V30 1776 C 163.41 3.46001 -2.45244 0
M  V30 1777 N 163.801 3.44103 -3.70711 0
M  V30 1778 C 162.099 3.76542 -2.39023 0
M  V30 1779 C 162.8 3.7036 -4.48563 0
M  V30 1780 N 161.776 3.90027 -3.78655 0
M  V30 1781 H 165.578 1.77207 -2.34468 0
M  V30 1782 H 163.092 0.897031 -1.35378 0
M  V30 1783 H 165.089 3.97833 -1.24637 0
M  V30 1784 H 163.749 3.22925 -0.339032 0
M  V30 1785 H 164.76 3.2452 -4.03618 0
M  V30 1786 H 161.437 3.88241 -1.53542 0
M  V30 1787 H 162.827 3.75042 -5.57488 0
M  V30 1788 N 165.547 1.27147 0.931209 0
M  V30 1789 C 166.795 1.13055 1.6752 0
M  V30 1790 C 167.116 -0.324791 1.92276 0
M  V30 1791 O 166.386 -1.22775 1.52654 0
M  V30 1792 H 164.966 0.415391 0.620854 0
M  V30 1793 H 167.628 1.59623 1.11833 0
M  V30 1794 H 166.724 1.65694 2.64485 0
M  V30 1795 N 167.025 -1.13721 1.09112 0
M  V30 1796 C 167.975 -2.17082 0.697091 0
M  V30 1797 C 168.959 -1.58321 -0.286923 0
M  V30 1798 O 170.151 -1.7673 -0.0978008 0
M  V30 1799 C 167.28 -3.43105 0.115729 0
M  V30 1800 C 166.366 -4.0888 1.12596 0
M  V30 1801 N 166.757 -4.4987 2.31195 0
M  V30 1802 C 165.055 -4.35471 0.963366 0
M  V30 1803 C 165.756 -5.01094 2.95431 0
M  V30 1804 N 164.732 -4.95751 2.23006 0
M  V30 1805 H 168.534 -2.46524 1.6001 0
M  V30 1806 H 166.048 -1.30481 0.966869 0
M  V30 1807 H 168.045 -4.16491 -0.184555 0
M  V30 1808 H 166.705 -3.15138 -0.78217 0
M  V30 1809 H 167.716 -4.42678 2.68806 0
M  V30 1810 H 164.393 -4.17328 0.119878 0
M  V30 1811 H 165.783 -5.4263 3.96236 0
M  V30 1812 N 168.503 -0.877838 -1.30888 0
M  V30 1813 C 169.436 -0.283995 -2.26426 0
M  V30 1814 C 170.414 0.591361 -1.51465 0
M  V30 1815 O 171.598 0.54304 -1.80509 0
M  V30 1816 C 168.725 0.597129 -3.33395 0
M  V30 1817 C 167.771 -0.207937 -4.25993 0
M  V30 1818 S 168.604 -1.59158 -5.11301 0
M  V30 1819 C 169.76 -0.716791 -6.21782 0
M  V30 1820 H 169.993 -1.09383 -2.76446 0
M  V30 1821 H 167.526 -0.676828 -1.38775 0
M  V30 1822 H 169.484 1.09978 -3.95493 0
M  V30 1823 H 168.145 1.38099 -2.82113 0
M  V30 1824 H 167.338 0.464163 -5.01858 0
M  V30 1825 H 166.94 -0.642963 -3.68432 0
M  V30 1826 H 169.232 0.0692833 -6.77465 0
M  V30 1827 H 170.175 -1.44682 -6.93161 0
M  V30 1828 H 170.583 -0.280855 -5.63801 0
M  V30 1829 N 169.982 1.44106 -0.638065 0
M  V30 1830 C 171.207 2.0685 -0.150916 0
M  V30 1831 C 171.632 1.47417 1.16833 0
M  V30 1832 O 170.99 0.578264 1.71831 0
M  V30 1833 C 171.038 3.60555 -0.05708 0
M  V30 1834 O 170.142 4.00465 0.984972 0
M  V30 1835 H 169.483 0.658151 -0.0879399 0
M  V30 1836 H 172.013 1.84865 -0.876707 0
M  V30 1837 H 172.023 4.07789 0.131232 0
M  V30 1838 H 170.698 4.03193 -1.02021 0
M  V30 1839 H 169.275 3.64849 0.770672 0
M  V30 1840 N 171.46 0.379036 1.52974 0
M  V30 1841 C 172.708 -0.206014 2.01047 0
M  V30 1842 C 173.029 -1.48175 1.26765 0
M  V30 1843 O 172.299 -1.92085 0.384743 0
M  V30 1844 H 170.879 -0.0791184 0.742798 0
M  V30 1845 H 173.541 0.508366 1.88153 0
M  V30 1846 H 172.637 -0.423501 3.09213 0
M  V30 1847 N 172.938 -1.57226 0.108567 0
M  V30 1848 C 174.186 -1.94448 -0.550853 0
M  V30 1849 C 174.507 -0.992074 -1.67878 0
M  V30 1850 O 173.777 -0.0465 -1.95845 0
M  V30 1851 H 172.357 -0.717897 -0.206479 0
M  V30 1852 H 175.019 -1.94112 0.175062 0
M  V30 1853 H 174.115 -2.97218 -0.952259 0
M  V30 1854 N 174.416 0.165178 -1.56732 0
M  V30 1855 C 175.348 1.22911 -1.93457 0
M  V30 1856 C 176.361 1.40152 -0.828333 0
M  V30 1857 O 177.55 1.40046 -1.10677 0
M  V30 1858 C 174.65 2.59686 -2.17753 0
M  V30 1859 C 173.823 2.63663 -3.48999 0
M  V30 1860 C 172.882 3.81845 -3.62051 0
M  V30 1861 O 171.908 3.67559 -4.34613 0
M  V30 1862 N 173.11 4.98557 -2.97357 0
M  V30 1863 H 175.875 0.917118 -2.85323 0
M  V30 1864 H 173.436 0.354895 -1.57962 0
M  V30 1865 H 175.428 3.37225 -2.23743 0
M  V30 1866 H 173.998 2.83251 -1.32242 0
M  V30 1867 H 173.218 1.72173 -3.54612 0
M  V30 1868 H 174.506 2.63336 -4.35352 0
M  V30 1869 H 173.904 5.13065 -2.38287 0
M  V30 1870 H 172.461 5.73936 -3.08934 0
M  V30 1871 N 175.894 1.51508 0.433938 0
M  V30 1872 C 176.857 1.72473 1.50949 0
M  V30 1873 C 177.857 0.594725 1.49398 0
M  V30 1874 O 179.047 0.862315 1.5136 0
M  V30 1875 C 176.179 1.78431 2.90474 0
M  V30 1876 H 177.372 2.68467 1.33662 0
M  V30 1877 H 174.925 1.41549 0.662836 0
M  V30 1878 H 175.66 0.842645 3.13161 0
M  V30 1879 H 175.445 2.60558 2.93005 0
M  V30 1880 H 176.935 1.96479 3.68491 0
M  V30 1881 N 177.372 -0.689602 1.41712 0
M  V30 1882 C 178.282 -1.83314 1.46401 0
M  V30 1883 C 179.298 -1.7036 0.35405 0
M  V30 1884 O 180.474 -1.92171 0.602692 0
M  V30 1885 C 177.539 -3.19344 1.34982 0
M  V30 1886 C 176.6 -3.44363 2.56344 0
M  V30 1887 C 175.833 -4.73904 2.45461 0
M  V30 1888 O 176.056 -5.508 1.48241 0
M  V30 1889 O 174.99 -4.99839 3.35328 0
M  V30 1890 H 178.816 -1.82314 2.42889 0
M  V30 1891 H 176.401 -0.843438 1.23315 0
M  V30 1892 H 178.283 -4.00547 1.3092 0
M  V30 1893 H 176.958 -3.21014 0.41612 0
M  V30 1894 H 175.865 -2.63067 2.65982 0
M  V30 1895 H 177.198 -3.47512 3.48563 0
M  V30 1896 N 178.85 -1.27639 -0.924453 0
M  V30 1897 C 180.078 -1.16989 -1.70649 0
M  V30 1898 C 180.493 0.272869 -1.86818 0
M  V30 1899 O 179.85 1.18549 -1.38753 0
M  V30 1900 C 179.901 -1.85229 -3.10439 0
M  V30 1901 O 179.622 -3.23868 -2.95028 0
M  V30 1902 C 181.123 -1.80746 -4.04779 0
M  V30 1903 H 178.343 -0.406595 -0.53378 0
M  V30 1904 H 180.887 -1.68569 -1.15778 0
M  V30 1905 H 179.042 -1.37545 -3.6216 0
M  V30 1906 H 179.456 -3.57889 -3.83426 0
M  V30 1907 H 180.93 -2.33101 -5.00368 0
M  V30 1908 H 181.407 -0.777499 -4.32263 0
M  V30 1909 H 182.013 -2.28059 -3.58984 0
M  V30 1910 N 180.328 1.1314 -1.09713 0
M  V30 1911 C 181.258 2.20748 -0.761102 0
M  V30 1912 C 182.239 1.68061 0.262566 0
M  V30 1913 O 183.424 1.93765 0.129977 0
M  V30 1914 C 180.554 3.46812 -0.184054 0
M  V30 1915 C 179.508 4.12606 -1.13757 0
M  V30 1916 C 178.834 5.33031 -0.422083 0
M  V30 1917 C 180.134 4.59603 -2.48118 0
M  V30 1918 H 181.828 2.49113 -1.66082 0
M  V30 1919 H 179.374 1.19734 -0.799987 0
M  V30 1920 H 181.327 4.21353 0.0631215 0
M  V30 1921 H 180.051 3.17851 0.750868 0
M  V30 1922 H 178.71 3.40036 -1.37007 0
M  V30 1923 H 178.358 5.00335 0.517072 0
M  V30 1924 H 178.058 5.77999 -1.05788 0
M  V30 1925 H 179.582 6.10325 -0.183277 0
M  V30 1926 H 180.996 5.25552 -2.29059 0
M  V30 1927 H 179.393 5.15321 -3.07514 0
M  V30 1928 H 180.463 3.73971 -3.08665 0
M  V30 1929 N 181.806 0.884767 1.30421 0
M  V30 1930 C 182.736 0.367574 2.30589 0
M  V30 1931 C 183.717 -0.549464 1.60981 0
M  V30 1932 O 184.902 -0.46336 1.88591 0
M  V30 1933 C 182.032 -0.418944 3.44764 0
M  V30 1934 C 180.986 0.406316 4.26067 0
M  V30 1935 C 180.312 -0.506793 5.32293 0
M  V30 1936 C 181.612 1.64832 4.95608 0
M  V30 1937 H 183.306 1.20462 2.74097 0
M  V30 1938 H 180.852 0.580695 1.31772 0
M  V30 1939 H 182.805 -0.791395 4.13902 0
M  V30 1940 H 181.529 -1.28964 3.0006 0
M  V30 1941 H 180.188 0.760903 3.58617 0
M  V30 1942 H 179.836 -1.37519 4.83836 0
M  V30 1943 H 179.536 0.0415828 5.87585 0
M  V30 1944 H 181.06 -0.875764 6.04287 0
M  V30 1945 H 182.474 1.34646 5.57264 0
M  V30 1946 H 180.871 2.13688 5.60765 0
M  V30 1947 H 181.941 2.39284 4.21748 0
M  V30 1948 N 183.284 -1.43765 0.645699 0
M  V30 1949 C 184.216 -2.29027 -0.0890605 0
M  V30 1950 C 185.229 -1.42093 -0.794563 0
M  V30 1951 O 186.418 -1.66104 -0.653575 0
M  V30 1952 C 183.518 -3.18831 -1.14891 0
M  V30 1953 C 182.691 -4.34261 -0.523043 0
M  V30 1954 C 181.75 -5.04994 -1.47878 0
M  V30 1955 O 180.776 -5.6052 -0.990277 0
M  V30 1956 N 181.978 -5.07795 -2.81291 0
M  V30 1957 H 184.743 -2.92727 0.64272 0
M  V30 1958 H 182.304 -1.54373 0.487924 0
M  V30 1959 H 184.296 -3.63015 -1.78892 0
M  V30 1960 H 182.866 -2.56782 -1.78275 0
M  V30 1961 H 182.086 -3.93088 0.295896 0
M  V30 1962 H 183.374 -5.08728 -0.0858147 0
M  V30 1963 H 182.772 -4.64042 -3.23546 0
M  V30 1964 H 181.329 -5.55721 -3.40614 0
M  V30 1965 N 184.763 -0.387143 -1.52771 0
M  V30 1966 C 185.726 0.436939 -2.24997 0
M  V30 1967 C 186.726 0.991991 -1.26555 0
M  V30 1968 O 187.916 0.874335 -1.50669 0
M  V30 1969 C 185.048 1.61281 -3.00335 0
M  V30 1970 H 186.241 -0.195365 -2.99263 0
M  V30 1971 H 183.794 -0.139218 -1.55679 0
M  V30 1972 H 184.529 2.2826 -2.30364 0
M  V30 1973 H 184.314 1.22154 -3.72587 0
M  V30 1974 H 185.804 2.19629 -3.5518 0
M  V30 1975 N 186.241 1.57166 -0.116904 0
M  V30 1976 C 187.188 2.15202 0.83408 0
M  V30 1977 C 188.158 1.07644 1.26499 0
M  V30 1978 O 189.343 1.35541 1.34288 0
M  V30 1979 C 186.483 2.75405 2.07957 0
M  V30 1980 C 185.596 3.97264 1.69721 0
M  V30 1981 C 184.731 4.45561 2.89221 0
M  V30 1982 C 183.77 5.59956 2.47215 0
M  V30 1983 N 182.907 6.03006 3.59622 0
M  V30 1984 H 187.747 2.96141 0.332335 0
M  V30 1985 H 185.284 1.46309 0.152349 0
M  V30 1986 H 187.242 3.08439 2.80929 0
M  V30 1987 H 185.872 1.97159 2.55594 0
M  V30 1988 H 184.924 3.70404 0.866316 0
M  V30 1989 H 186.236 4.80226 1.34849 0
M  V30 1990 H 185.39 4.80493 3.7042 0
M  V30 1991 H 184.129 3.61544 3.27318 0
M  V30 1992 H 183.134 5.2463 1.64448 0
M  V30 1993 H 184.359 6.45738 2.10238 0
M  V30 1994 H 182.305 5.21931 3.97396 0
M  V30 1995 H 182.222 6.80819 3.28667 0
M  V30 1996 H 183.49 6.42576 4.41267 0
M  V30 1997 N 187.719 -0.156864 1.56817 0
M  V30 1998 C 188.967 -0.869404 1.82444 0
M  V30 1999 C 189.288 -1.82147 0.69623 0
M  V30 2000 O 188.558 -1.93847 -0.28287 0
M  V30 2001 H 187.138 -0.324043 0.673056 0
M  V30 2002 H 189.8 -0.153224 1.94297 0
M  V30 2003 H 188.896 -1.43761 2.77019 0
M  V30 2004 N 189.197 -1.51736 -0.425897 0
M  V30 2005 C 190.107 -1.76738 -1.54275 0
M  V30 2006 C 191.123 -0.65211 -1.61318 0
M  V30 2007 O 192.299 -0.935654 -1.78346 0
M  V30 2008 C 189.364 -1.89755 -2.90162 0
M  V30 2009 C 188.425 -3.13633 -2.93143 0
M  V30 2010 C 187.658 -3.2602 -4.22548 0
M  V30 2011 O 187.881 -2.44067 -5.15546 0
M  V30 2012 O 186.815 -4.19071 -4.32046 0
M  V30 2013 H 190.641 -2.71502 -1.36089 0
M  V30 2014 H 188.226 -1.36376 -0.610069 0
M  V30 2015 H 190.108 -2.00236 -3.70788 0
M  V30 2016 H 188.783 -0.981785 -3.08452 0
M  V30 2017 H 187.69 -3.08622 -2.11431 0
M  V30 2018 H 189.023 -4.04936 -2.798 0
M  V30 2019 N 190.675 0.682077 -1.42076 0
M  V30 2020 C 192.086 1.26246 -1.37546 0
M  V30 2021 C 192.437 1.96092 -0.0651481 0
M  V30 2022 O 191.562 1.99587 0.836297 0
M  V30 2023 C 192.157 2.29594 -2.49143 0
M  V30 2024 C 190.716 2.83175 -2.47969 0
M  V30 2025 C 189.863 1.57395 -2.28303 0
M  V30 2026 H 192.814 0.475937 -1.51395 0
M  V30 2027 H 192.835 3.11175 -2.18976 0
M  V30 2028 H 192.347 1.78729 -3.44496 0
M  V30 2029 H 190.448 3.3818 -1.56413 0
M  V30 2030 H 190.561 3.32687 -3.44755 0
M  V30 2031 H 188.925 1.83699 -1.76428 0
M  V30 2032 H 189.708 1.08507 -3.25701 0
M  V30 2033 N 192.153 1.28127 0.917671 0
M  V30 2034 C 193.399 1.16232 1.66918 0
M  V30 2035 C 193.754 -0.28701 1.90247 0
M  V30 2036 O 193.047 -1.20586 1.48895 0
M  V30 2037 C 193.241 1.89018 3.03327 0
M  V30 2038 C 193.07 3.4088 2.9331 0
M  V30 2039 C 191.84 4.10214 2.95047 0
M  V30 2040 C 194.038 4.36689 2.71675 0
M  V30 2041 N 192.02 5.48571 2.75577 0
M  V30 2042 C 193.391 5.62382 2.6101 0
M  V30 2043 C 195.446 4.26661 2.56641 0
M  V30 2044 C 194.149 6.79189 2.36843 0
M  V30 2045 C 196.175 5.432 2.33853 0
M  V30 2046 C 195.537 6.67855 2.23939 0
M  V30 2047 H 191.636 0.48024 0.617166 0
M  V30 2048 H 194.22 1.61727 1.08409 0
M  V30 2049 H 192.391 1.45963 3.59929 0
M  V30 2050 H 194.123 1.69541 3.67475 0
M  V30 2051 H 190.878 3.61762 3.05655 0
M  V30 2052 H 191.302 6.21287 2.68945 0
M  V30 2053 H 195.944 3.30998 2.63059 0
M  V30 2054 H 193.662 7.74926 2.29164 0
M  V30 2055 H 197.248 5.37328 2.23091 0
M  V30 2056 H 196.128 7.56511 2.06546 0
M  V30 2057 N 193.631 -1.12557 1.10312 0
M  V30 2058 C 194.859 -1.87864 0.866873 0
M  V30 2059 C 195.274 -1.79588 -0.582557 0
M  V30 2060 O 194.631 -1.16887 -1.40156 0
M  V30 2061 C 194.682 -3.37125 1.30496 0
M  V30 2062 O 194.403 -3.45201 2.69755 0
M  V30 2063 C 195.904 -4.29373 1.10243 0
M  V30 2064 H 193.124 -0.594452 0.311236 0
M  V30 2065 H 195.668 -1.42429 1.46745 0
M  V30 2066 H 193.823 -3.80109 0.748081 0
M  V30 2067 H 194.237 -4.38056 2.88457 0
M  V30 2068 H 195.711 -5.32394 1.45811 0
M  V30 2069 H 196.188 -4.39181 0.0409492 0
M  V30 2070 H 196.794 -3.92169 1.64571 0
M  V30 2071 N 195.109 -0.891671 -1.2995 0
M  V30 2072 C 196.356 -0.513501 -1.95881 0
M  V30 2073 C 196.684 0.938655 -1.70351 0
M  V30 2074 O 195.939 1.67936 -1.00478 0
M  V30 2075 C 196.238 -0.742868 -3.49594 0
M  V30 2076 C 195.904 -2.17114 -3.95186 0
M  V30 2077 C 194.566 -2.56169 -4.07346 0
M  V30 2078 C 196.918 -3.10162 -4.18866 0
M  V30 2079 C 194.246 -3.87469 -4.4055 0
M  V30 2080 C 196.598 -4.41001 -4.53542 0
M  V30 2081 C 195.262 -4.79941 -4.63911 0
M  V30 2082 H 194.532 -0.187903 -0.71678 0
M  V30 2083 H 197.179 -1.1288 -1.54694 0
M  V30 2084 H 195.484 -0.044586 -3.91775 0
M  V30 2085 H 197.181 -0.429767 -3.9869 0
M  V30 2086 H 193.771 -1.85801 -3.86233 0
M  V30 2087 H 197.955 -2.81206 -4.08946 0
M  V30 2088 H 193.211 -4.17371 -4.46779 0
M  V30 2089 H 197.385 -5.13133 -4.70815 0
M  V30 2090 H 195.012 -5.81719 -4.89395 0
M  V30 2091 N 196.587 1.43421 -0.653314 0
M  V30 2092 C 197.517 2.33487 0.0246656 0
M  V30 2093 C 198.498 1.49475 0.811863 0
M  V30 2094 O 199.683 1.78139 0.773322 0
M  V30 2095 C 196.813 3.32841 0.99166 0
M  V30 2096 C 195.767 4.26842 0.314568 0
M  V30 2097 C 195.093 5.16236 1.39302 0
M  V30 2098 C 196.393 5.16243 -0.793095 0
M  V30 2099 H 198.087 2.90427 -0.727481 0
M  V30 2100 H 195.633 1.39649 -0.351287 0
M  V30 2101 H 197.586 3.94747 1.47487 0
M  V30 2102 H 196.31 2.74158 1.77497 0
M  V30 2103 H 194.969 3.663 -0.148199 0
M  V30 2104 H 194.617 4.53891 2.16776 0
M  V30 2105 H 194.317 5.79948 0.945223 0
M  V30 2106 H 195.841 5.81015 1.87759 0
M  V30 2107 H 197.255 5.71958 -0.392039 0
M  V30 2108 H 195.652 5.88676 -1.16536 0
M  V30 2109 H 196.722 4.55927 -1.65103 0
M  V30 2110 N 198.065 0.39524 1.52563 0
M  V30 2111 C 199.311 -0.185318 2.01952 0
M  V30 2112 C 199.644 -1.45964 1.28095 0
M  V30 2113 O 198.919 -1.90689 0.38315 0
M  V30 2114 C 199.202 -0.447193 3.57312 0
M  V30 2115 C 199.055 0.842828 4.41833 0
M  V30 2116 C 200.374 -1.23529 4.22408 0
M  V30 2117 H 197.493 -0.0658788 0.73405 0
M  V30 2118 H 200.135 0.525975 1.82575 0
M  V30 2119 H 198.285 -1.05312 3.73954 0
M  V30 2120 H 199.957 1.4795 4.36931 0
M  V30 2121 H 198.2 1.45686 4.08605 0
M  V30 2122 H 198.871 0.614165 5.48573 0
M  V30 2123 H 201.347 -0.722445 4.0978 0
M  V30 2124 H 200.223 -1.38727 5.3108 0
M  V30 2125 H 200.484 -2.25213 3.80436 0
M  V30 2126 N 199.544 -1.57102 0.125237 0
M  V30 2127 C 200.96 -1.57915 -0.231322 0
M  V30 2128 C 201.16 -1.13833 -1.66266 0
M  V30 2129 O 200.216 -0.828581 -2.38518 0
M  V30 2130 C 201.529 -3.00699 0.00766489 0
M  V30 2131 C 203.077 -3.12947 -0.0577483 0
M  V30 2132 C 203.552 -4.57742 0.153626 0
M  V30 2133 N 205.043 -4.63092 0.0998073 0
M  V30 2134 C 205.778 -5.72905 0.238174 0
M  V30 2135 N 205.274 -6.91445 0.433057 0
M  V30 2136 N 207.067 -5.6182 0.177308 0
M  V30 2137 H 199.218 -1.84055 1.06007 0
M  V30 2138 H 201.481 -0.850905 0.417929 0
M  V30 2139 H 201.187 -3.3726 0.997431 0
M  V30 2140 H 201.061 -3.70236 -0.721452 0
M  V30 2141 H 203.448 -2.7624 -1.03804 0
M  V30 2142 H 203.529 -2.4594 0.70335 0
M  V30 2143 H 203.173 -4.95149 1.13092 0
M  V30 2144 H 203.103 -5.22848 -0.627534 0
M  V30 2145 H 205.594 -3.77871 -0.047051 0
M  V30 2146 H 205.907 -7.70985 0.529332 0
M  V30 2147 H 204.252 -6.93415 0.469109 0
M  V30 2148 H 207.443 -4.68093 0.0259748 0
M  V30 2149 H 207.616 -6.47357 0.288582 0
M  V30 2150 N 201.022 0.148545 -1.56898 0
M  V30 2151 C 201.932 1.20293 -2.01412 0
M  V30 2152 C 202.948 1.47107 -0.929273 0
M  V30 2153 O 204.124 1.58807 -1.23863 0
M  V30 2154 C 201.189 2.51682 -2.38447 0
M  V30 2155 C 200.25 2.32529 -3.60872 0
M  V30 2156 C 199.483 3.57653 -3.96132 0
M  V30 2157 O 199.706 4.63771 -3.32073 0
M  V30 2158 O 198.64 3.50408 -4.89385 0
M  V30 2159 H 202.466 0.855025 -2.91416 0
M  V30 2160 H 200.051 0.357151 -1.45068 0
M  V30 2161 H 201.933 3.29147 -2.63135 0
M  V30 2162 H 200.608 2.86006 -1.51599 0
M  V30 2163 H 199.515 1.53019 -3.41373 0
M  V30 2164 H 200.848 2.03121 -4.48333 0
M  V30 2165 N 202.5 1.5196 0.417844 0
M  V30 2166 C 203.725 1.69717 1.1921 0
M  V30 2167 C 204.15 0.402148 1.83751 0
M  V30 2168 O 203.508 -0.639593 1.69643 0
M  V30 2169 C 203.556 2.82794 2.2374 0
M  V30 2170 O 202.66 2.47756 3.29683 0
M  V30 2171 H 202.001 0.565263 0.348387 0
M  V30 2172 H 204.531 1.98621 0.490985 0
M  V30 2173 H 204.541 3.07452 2.68212 0
M  V30 2174 H 203.216 3.76756 1.76146 0
M  V30 2175 H 201.793 2.33739 2.90552 0
M  V30 2176 N 203.978 -0.674533 1.42435 0
M  V30 2177 C 204.908 -1.80009 1.48724 0
M  V30 2178 C 205.889 -1.6659 0.343793 0
M  V30 2179 O 207.074 -1.86007 0.558137 0
M  V30 2180 C 204.204 -3.18306 1.38919 0
M  V30 2181 C 203.158 -3.46461 2.51294 0
M  V30 2182 C 202.484 -4.84335 2.26547 0
M  V30 2183 C 203.784 -3.43328 3.93603 0
M  V30 2184 H 205.478 -1.75004 2.42928 0
M  V30 2185 H 203.024 -0.840533 1.16923 0
M  V30 2186 H 204.977 -3.9678 1.41927 0
M  V30 2187 H 203.701 -3.2399 0.412094 0
M  V30 2188 H 202.36 -2.70348 2.47604 0
M  V30 2189 H 202.008 -4.86669 1.2713 0
M  V30 2190 H 201.708 -5.04136 3.01861 0
M  V30 2191 H 203.232 -5.65094 2.31304 0
M  V30 2192 H 204.646 -4.11772 3.98894 0
M  V30 2193 H 203.043 -3.74664 4.68771 0
M  V30 2194 H 204.113 -2.41897 4.20255 0
M  V30 2195 N 205.456 -1.28612 -0.910864 0
M  V30 2196 C 206.681 -1.1891 -1.69927 0
M  V30 2197 C 207.106 0.248372 -1.86453 0
M  V30 2198 O 206.464 1.17961 -1.37676 0
M  V30 2199 C 206.512 -1.89578 -3.06745 0
M  V30 2200 O 205.616 -1.20521 -3.94396 0
M  V30 2201 H 204.957 -0.412632 -0.520222 0
M  V30 2202 H 207.487 -1.69985 -1.1387 0
M  V30 2203 H 207.497 -1.97597 -3.56958 0
M  V30 2204 H 206.172 -2.94136 -2.94035 0
M  V30 2205 H 204.749 -1.20684 -3.52831 0
M  V30 2206 N 206.934 1.1197 -1.10907 0
M  V30 2207 C 207.866 2.17592 -0.720175 0
M  V30 2208 C 208.879 1.60938 0.245495 0
M  V30 2209 O 210.068 1.78476 0.0292245 0
M  V30 2210 C 207.168 3.38873 -0.0427917 0
M  V30 2211 C 206.341 4.25006 -1.03388 0
M  V30 2212 C 205.4 5.24774 -0.387075 0
M  V30 2213 O 204.426 5.59631 -1.03934 0
M  V30 2214 N 205.628 5.74208 0.852407 0
M  V30 2215 H 208.393 2.51567 -1.62893 0
M  V30 2216 H 205.954 1.27439 -0.998543 0
M  V30 2217 H 207.946 4.02703 0.401501 0
M  V30 2218 H 206.516 3.03007 0.768456 0
M  V30 2219 H 205.736 3.57716 -1.65629 0
M  V30 2220 H 207.024 4.79397 -1.70458 0
M  V30 2221 H 206.422 5.48062 1.40161 0
M  V30 2222 H 204.979 6.39901 1.23977 0
M  V30 2223 N 208.412 0.89855 1.29475 0
M  V30 2224 C 209.823 0.572537 1.77705 0
M  V30 2225 C 210.174 -0.911778 1.73727 0
M  V30 2226 O 209.299 -1.71288 1.32247 0
M  V30 2227 C 209.894 1.03252 3.22683 0
M  V30 2228 C 208.453 0.757687 3.68695 0
M  V30 2229 C 207.6 1.20787 2.49612 0
M  V30 2230 H 210.551 1.08139 1.16153 0
M  V30 2231 H 210.572 0.367307 3.78723 0
M  V30 2232 H 210.084 2.11285 3.25546 0
M  V30 2233 H 208.185 -0.310079 3.71308 0
M  V30 2234 H 208.298 1.35476 4.59547 0
M  V30 2235 H 206.662 0.626888 2.46865 0
M  V30 2236 H 207.445 2.29622 2.55203 0
M  V30 2237 N 209.89 -1.43072 0.660911 0
M  V30 2238 C 211.138 -2.01323 0.177094 0
M  V30 2239 C 211.459 -1.5245 -1.2159 0
M  V30 2240 O 210.729 -0.740322 -1.81373 0
M  V30 2241 H 209.309 -0.744382 0.0624804 0
M  V30 2242 H 211.971 -1.75179 0.854305 0
M  V30 2243 H 211.067 -3.11649 0.167641 0
M  V30 2244 N 211.368 -0.403325 -1.52352 0
M  V30 2245 C 212.645 0.232611 -1.94212 0
M  V30 2246 C 213.025 1.63133 -1.33981 0
M  V30 2247 O 212.373 2.22659 -0.513344 0
M  V30 2248 C 212.583 0.244811 -3.4814 0
M  V30 2249 C 213.931 0.46698 -4.22024 0
M  V30 2250 O 214.955 0.324419 -3.5472 0
M  V30 2251 O 213.814 0.74747 -5.41364 0
M  V30 2252 H 210.908 0.148223 -0.813609 0
M  V30 2253 H 213.454 -0.458848 -1.63379 0
M  V30 2254 H 212.226 -0.734378 -3.84347 0
M  V30 2255 H 211.849 0.980611 -3.85318 0
M  V30 2256 N 212.846 1.57033 -0.133567 0
M  V30 2257 C 214.093 1.95686 0.520877 0
M  V30 2258 C 214.421 1.0177 1.6575 0
M  V30 2259 O 213.676 0.0443195 1.9565 0
M  V30 2260 C 213.975 3.40674 1.08057 0
M  V30 2261 C 213.641 4.50855 0.0637899 0
M  V30 2262 C 212.303 4.80716 -0.215757 0
M  V30 2263 C 214.655 5.17398 -0.62835 0
M  V30 2264 C 211.983 5.74433 -1.19348 0
M  V30 2265 C 214.335 6.12167 -1.5948 0
M  V30 2266 C 212.999 6.40414 -1.88218 0
M  V30 2267 H 212.269 0.716067 0.190602 0
M  V30 2268 H 214.916 1.9026 -0.217556 0
M  V30 2269 H 213.221 3.42865 1.89606 0
M  V30 2270 H 214.918 3.67902 1.59529 0
M  V30 2271 H 211.508 4.27605 0.291855 0
M  V30 2272 H 215.692 4.94472 -0.425562 0
M  V30 2273 H 210.948 5.94616 -1.42272 0
M  V30 2274 H 215.122 6.6281 -2.13671 0
M  V30 2275 H 212.749 7.12838 -2.64133 0
M  V30 2276 N 214.325 -0.140222 1.56975 0
M  V30 2277 C 215.571 -0.852949 1.83991 0
M  V30 2278 C 215.904 -1.80512 0.716187 0
M  V30 2279 O 215.179 -1.92479 -0.279681 0
M  V30 2280 C 215.462 -1.6215 3.21527 0
M  V30 2281 C 215.315 -0.690363 4.4447 0
M  V30 2282 C 216.634 -2.58247 3.56366 0
M  V30 2283 H 213.753 -0.308634 0.669264 0
M  V30 2284 H 216.395 -0.117898 1.89634 0
M  V30 2285 H 214.545 -2.24812 3.16847 0
M  V30 2286 H 216.217 -0.0742264 4.6124 0
M  V30 2287 H 214.46 -0.000396433 4.338 0
M  V30 2288 H 215.131 -1.2643 5.37326 0
M  V30 2289 H 217.607 -2.05701 3.61699 0
M  V30 2290 H 216.483 -3.09067 4.53617 0
M  V30 2291 H 216.744 -3.39923 2.82674 0
M  V30 2292 N 215.803 -1.52179 -0.40978 0
M  V30 2293 C 216.733 -1.78435 -1.5061 0
M  V30 2294 C 217.714 -0.635295 -1.57791 0
M  V30 2295 O 218.899 -0.880823 -1.73076 0
M  V30 2296 C 216.029 -1.93444 -2.88439 0
M  V30 2297 C 214.983 -3.09038 -2.96108 0
M  V30 2298 C 214.309 -3.09268 -4.36185 0
M  V30 2299 C 215.609 -4.48508 -2.67652 0
M  V30 2300 H 217.303 -2.70237 -1.28889 0
M  V30 2301 H 214.849 -1.30036 -0.618605 0
M  V30 2302 H 216.802 -2.10394 -3.65119 0
M  V30 2303 H 215.526 -0.983129 -3.11452 0
M  V30 2304 H 214.185 -2.91837 -2.21872 0
M  V30 2305 H 213.833 -2.11861 -4.56206 0
M  V30 2306 H 213.533 -3.86907 -4.42241 0
M  V30 2307 H 215.057 -3.28348 -5.14801 0
M  V30 2308 H 216.471 -4.65918 -3.34056 0
M  V30 2309 H 214.868 -5.28059 -2.85085 0
M  V30 2310 H 215.938 -4.56649 -1.63095 0
M  V30 2311 N 217.281 0.66697 -1.42791 0
M  V30 2312 C 218.506 1.46004 -1.47301 0
M  V30 2313 C 218.931 1.87894 -0.0880317 0
M  V30 2314 O 218.289 1.56502 0.915253 0
M  V30 2315 C 218.337 2.68031 -2.41229 0
M  V30 2316 O 217.441 3.6659 -1.88906 0
M  V30 2317 H 216.782 0.43832 -0.49877 0
M  V30 2318 H 219.312 0.817391 -1.87563 0
M  V30 2319 H 219.322 3.1601 -2.58073 0
M  V30 2320 H 217.997 2.36883 -3.41847 0
M  V30 2321 H 216.574 3.25661 -1.81656 0
M  V30 2322 N 218.759 1.29093 0.90403 0
M  V30 2323 C 220.005 1.16986 1.65656 0
M  V30 2324 C 220.338 -0.278925 1.92186 0
M  V30 2325 O 219.613 -1.2019 1.5292 0
M  V30 2326 C 219.896 1.97908 3.0084 0
M  V30 2327 C 219.749 3.50903 2.81403 0
M  V30 2328 C 221.068 1.80208 4.01513 0
M  V30 2329 H 218.187 0.426346 0.601164 0
M  V30 2330 H 220.829 1.58518 1.04747 0
M  V30 2331 H 218.979 1.62616 3.52829 0
M  V30 2332 H 220.651 3.96153 2.36348 0
M  V30 2333 H 218.894 3.76045 2.1627 0
M  V30 2334 H 219.565 4.02791 3.77443 0
M  V30 2335 H 222.041 2.11025 3.58619 0
M  V30 2336 H 220.917 2.39184 4.94047 0
M  V30 2337 H 221.178 0.756119 4.35586 0
M  V30 2338 N 220.237 -1.11381 1.11499 0
M  V30 2339 C 221.167 -2.19509 0.796125 0
M  V30 2340 C 222.148 -1.68458 -0.235796 0
M  V30 2341 O 223.333 -1.93947 -0.0991344 0
M  V30 2342 C 220.463 -3.46475 0.239205 0
M  V30 2343 C 219.417 -4.10744 1.20307 0
M  V30 2344 C 218.743 -5.32293 0.50683 0
M  V30 2345 C 220.043 -4.55597 2.55399 0
M  V30 2346 H 221.737 -2.46439 1.70024 0
M  V30 2347 H 219.283 -1.18446 0.818935 0
M  V30 2348 H 221.236 -4.214 0.00392006 0
M  V30 2349 H 219.96 -3.19006 -0.700206 0
M  V30 2350 H 218.619 -3.37813 1.42399 0
M  V30 2351 H 218.267 -5.01095 -0.437408 0
M  V30 2352 H 217.967 -5.76243 1.1497 0
M  V30 2353 H 219.491 -6.09956 0.280351 0
M  V30 2354 H 220.905 -5.21841 2.37391 0
M  V30 2355 H 219.302 -5.10363 3.15673 0
M  V30 2356 H 220.372 -3.69013 3.14575 0
M  V30 2357 N 221.715 -0.905404 -1.28997 0
M  V30 2358 C 222.94 -0.549175 -1.99997 0
M  V30 2359 C 223.365 0.860276 -1.67275 0
M  V30 2360 O 222.723 1.57355 -0.900502 0
M  V30 2361 C 222.771 -0.755185 -3.52604 0
M  V30 2362 O 221.875 0.189692 -4.11964 0
M  V30 2363 H 221.216 -0.213899 -0.628604 0
M  V30 2364 H 223.746 -1.21856 -1.64354 0
M  V30 2365 H 223.756 -0.662045 -4.02593 0
M  V30 2366 H 222.431 -1.78271 -3.75755 0
M  V30 2367 H 221.008 0.0485257 -3.72868 0
M  V30 2368 N 223.193 1.4272 -0.668489 0
M  V30 2369 C 224.47 1.95248 -0.117373 0
M  V30 2370 C 224.85 1.60919 1.36632 0
M  V30 2371 O 224.198 0.902095 2.09939 0
M  V30 2372 C 224.408 3.46927 -0.379806 0
M  V30 2373 C 225.756 4.23588 -0.292923 0
M  V30 2374 O 226.78 3.5482 -0.313204 0
M  V30 2375 O 225.639 5.46017 -0.229697 0
M  V30 2376 H 222.733 0.827 0.00079152 0
M  V30 2377 H 225.279 1.52581 -0.742783 0
M  V30 2378 H 224.051 3.65096 -1.40786 0
M  V30 2379 H 223.674 3.96627 0.277923 0
M  V30 2380 N 224.671 0.411399 1.52136 0
M  V30 2381 C 225.603 -0.448386 2.24771 0
M  V30 2382 C 226.616 -1.00828 1.27818 0
M  V30 2383 O 227.805 -0.906841 1.53749 0
M  V30 2384 C 224.905 -1.63636 2.96777 0
M  V30 2385 C 224.078 -1.19995 4.20618 0
M  V30 2386 C 223.137 -2.25509 4.75428 0
M  V30 2387 O 222.163 -1.86007 5.3795 0
M  V30 2388 N 223.365 -3.577 4.57199 0
M  V30 2389 H 226.13 0.174025 2.99194 0
M  V30 2390 H 223.691 0.238897 1.60128 0
M  V30 2391 H 225.683 -2.33793 3.30338 0
M  V30 2392 H 224.253 -2.16465 2.25526 0
M  V30 2393 H 223.473 -0.326421 3.92846 0
M  V30 2394 H 224.761 -0.885365 5.01038 0
M  V30 2395 H 224.159 -3.92543 4.07341 0
M  V30 2396 H 222.716 -4.23827 4.95191 0
M  V30 2397 N 226.149 -1.5696 0.141893 0
M  V30 2398 C 227.56 -1.82797 -0.379776 0
M  V30 2399 C 227.911 -1.06033 -1.6508 0
M  V30 2400 O 227.036 -0.304011 -2.14254 0
M  V30 2401 C 227.631 -3.31578 -0.695802 0
M  V30 2402 C 226.19 -3.58014 -1.16201 0
M  V30 2403 C 225.337 -2.76699 -0.182455 0
M  V30 2404 H 228.288 -1.54406 0.366675 0
M  V30 2405 H 228.309 -3.47454 -1.55099 0
M  V30 2406 H 227.821 -3.87421 0.229449 0
M  V30 2407 H 225.922 -3.07553 -2.10338 0
M  V30 2408 H 226.035 -4.66501 -1.09151 0
M  V30 2409 H 224.399 -2.45618 -0.674072 0
M  V30 2410 H 225.182 -3.35311 0.736297 0
M  V30 2411 N 227.627 0.131896 -1.57047 0
M  V30 2412 C 228.574 1.16236 -1.99393 0
M  V30 2413 C 229.544 1.41863 -0.863943 0
M  V30 2414 O 230.729 1.53946 -1.12718 0
M  V30 2415 C 227.869 2.48708 -2.39245 0
M  V30 2416 C 226.982 2.30127 -3.65603 0
M  V30 2417 C 226.117 3.55738 -3.94492 0
M  V30 2418 C 225.156 3.32259 -5.14073 0
M  V30 2419 N 224.293 4.50039 -5.38896 0
M  V30 2420 H 229.133 0.794251 -2.87221 0
M  V30 2421 H 226.67 0.380707 -1.42088 0
M  V30 2422 H 228.628 3.25969 -2.60384 0
M  V30 2423 H 227.258 2.83437 -1.54478 0
M  V30 2424 H 226.31 1.43845 -3.52154 0
M  V30 2425 H 227.622 2.08746 -4.5302 0
M  V30 2426 H 226.776 4.41423 -4.1621 0
M  V30 2427 H 225.515 3.80138 -3.05526 0
M  V30 2428 H 224.52 2.44963 -4.92212 0
M  V30 2429 H 225.745 3.09242 -6.04604 0
M  V30 2430 H 223.691 4.74584 -4.52886 0
M  V30 2431 H 223.608 4.31716 -6.2061 0
M  V30 2432 H 224.876 5.36895 -5.65123 0
M  V30 2433 N 229.106 1.52395 0.401703 0
M  V30 2434 C 230.069 1.75636 1.47257 0
M  V30 2435 C 231.069 0.62628 1.48103 0
M  V30 2436 O 232.259 0.894227 1.49497 0
M  V30 2437 C 229.391 1.84553 2.86624 0
M  V30 2438 H 230.584 2.71241 1.27938 0
M  V30 2439 H 228.137 1.42923 0.632662 0
M  V30 2440 H 228.872 0.908882 3.11303 0
M  V30 2441 H 228.657 2.66715 2.87412 0
M  V30 2442 H 230.147 2.04251 3.64241 0
M  V30 2443 N 230.584 -0.659388 1.43143 0
M  V30 2444 C 231.832 -1.41654 1.44147 0
M  V30 2445 C 232.153 -1.94893 0.0645739 0
M  V30 2446 O 231.423 -1.74044 -0.899198 0
M  V30 2447 H 230.003 -0.525708 0.530697 0
M  V30 2448 H 232.665 -0.778097 1.78694 0
M  V30 2449 H 231.761 -2.26195 2.1504 0
M  V30 2450 N 232.062 -1.29571 -0.897171 0
M  V30 2451 C 233.473 -1.15964 -1.46319 0
M  V30 2452 C 233.824 0.244267 -1.94674 0
M  V30 2453 O 232.949 1.13998 -1.83939 0
M  V30 2454 C 233.544 -2.09906 -2.65942 0
M  V30 2455 C 232.103 -2.00314 -3.18671 0
M  V30 2456 C 231.25 -2.00687 -1.91363 0
M  V30 2457 H 234.201 -1.42019 -0.708268 0
M  V30 2458 H 234.222 -1.67276 -3.41759 0
M  V30 2459 H 233.734 -3.12075 -2.30718 0
M  V30 2460 H 231.835 -1.01242 -3.58582 0
M  V30 2461 H 231.948 -2.88102 -3.82798 0
M  V30 2462 H 230.312 -1.45319 -2.09175 0
M  V30 2463 H 231.095 -3.04566 -1.58413 0
M  V30 2464 N 233.54 1.10788 -1.12088 0
M  V30 2465 C 234.788 1.8231 -0.872205 0
M  V30 2466 C 235.109 1.85419 0.603709 0
M  V30 2467 O 234.379 1.32963 1.43867 0
M  V30 2468 H 232.959 0.675137 -0.319686 0
M  V30 2469 H 235.621 1.34068 -1.41463 0
M  V30 2470 H 234.717 2.85955 -1.25045 0
M  V30 2471 N 235.018 0.912232 1.28515 0
M  V30 2472 C 236.243 0.559774 1.99703 0
M  V30 2473 C 236.668 -0.851393 1.67729 0
M  V30 2474 O 236.026 -1.56875 0.908834 0
M  V30 2475 C 236.074 0.773874 3.52198 0
M  V30 2476 O 235.178 -0.167842 4.12058 0
M  V30 2477 H 234.519 0.21723 0.627461 0
M  V30 2478 H 237.049 1.22725 1.63706 0
M  V30 2479 H 237.059 0.683386 4.02236 0
M  V30 2480 H 235.734 1.80261 3.74805 0
M  V30 2481 H 234.311 -0.0287509 3.72889 0
M  V30 2482 N 236.496 -1.42363 0.676048 0
M  V30 2483 C 237.907 -1.84649 0.275948 0
M  V30 2484 C 238.258 -1.56588 -1.18214 0
M  V30 2485 O 237.383 -1.02634 -1.90513 0
M  V30 2486 C 237.978 -3.35178 0.494053 0
M  V30 2487 C 236.537 -3.76109 0.148061 0
M  V30 2488 C 235.684 -2.65931 0.785891 0
M  V30 2489 H 238.635 -1.32192 0.878121 0
M  V30 2490 H 238.656 -3.79655 -0.25343 0
M  V30 2491 H 238.168 -3.55571 1.55535 0
M  V30 2492 H 236.269 -3.61323 -0.909742 0
M  V30 2493 H 236.382 -4.7546 0.589454 0
M  V30 2494 H 234.746 -2.53773 0.217113 0
M  V30 2495 H 235.529 -2.89146 1.85067 0
M  V30 2496 N 237.974 -0.419461 -1.51915 0
M  V30 2497 C 238.904 0.391813 -2.30189 0
M  V30 2498 C 239.885 1.03699 -1.34836 0
M  V30 2499 O 241.07 1.04403 -1.63748 0
M  V30 2500 C 238.2 1.50312 -3.13087 0
M  V30 2501 C 237.154 0.9824 -4.16573 0
M  V30 2502 C 236.48 2.18809 -4.8788 0
M  V30 2503 C 237.78 0.0292356 -5.22292 0
M  V30 2504 H 239.474 -0.26135 -2.98257 0
M  V30 2505 H 237.02 -0.127134 -1.43438 0
M  V30 2506 H 238.973 2.07773 -3.66617 0
M  V30 2507 H 237.697 2.18431 -2.42807 0
M  V30 2508 H 236.356 0.430119 -3.64068 0
M  V30 2509 H 236.004 2.85507 -4.14119 0
M  V30 2510 H 235.704 1.84615 -5.57845 0
M  V30 2511 H 237.228 2.76858 -5.44226 0
M  V30 2512 H 238.642 0.512976 -5.71 0
M  V30 2513 H 237.039 -0.2244 -5.9968 0
M  V30 2514 H 238.109 -0.912931 -4.76228 0
M  V30 2515 N 239.452 1.56882 -0.150215 0
M  V30 2516 C 240.868 1.58263 0.20617 0
M  V30 2517 C 241.068 1.16464 1.64434 0
M  V30 2518 O 240.124 0.866422 2.3717 0
M  V30 2519 C 241.437 3.00649 -0.0555025 0
M  V30 2520 C 242.985 3.12999 0.00795388 0
M  V30 2521 C 243.46 4.5744 -0.226429 0
M  V30 2522 N 244.951 4.62875 -0.173469 0
M  V30 2523 C 245.686 5.72454 -0.329288 0
M  V30 2524 N 245.182 6.90669 -0.543005 0
M  V30 2525 N 246.975 5.61467 -0.266666 0
M  V30 2526 H 239.126 1.82345 -1.08922 0
M  V30 2527 H 241.389 0.844149 -0.431413 0
M  V30 2528 H 241.095 3.3563 -1.05096 0
M  V30 2529 H 240.969 3.71337 0.66246 0
M  V30 2530 H 243.356 2.77857 0.993966 0
M  V30 2531 H 243.437 2.4479 -0.742388 0
M  V30 2532 H 243.081 4.93287 -1.20956 0
M  V30 2533 H 243.011 5.2378 0.544274 0
M  V30 2534 H 245.502 3.77898 -0.0130709 0
M  V30 2535 H 245.815 7.70045 -0.651922 0
M  V30 2536 H 244.16 6.92581 -0.579366 0
M  V30 2537 H 247.351 4.67992 -0.100441 0
M  V30 2538 H 247.524 6.46816 -0.391535 0
M  V30 2539 N 240.93 -0.123565 1.57115 0
M  V30 2540 C 242.176 -0.833386 1.84885 0
M  V30 2541 C 242.509 -1.79742 0.735292 0
M  V30 2542 O 241.784 -1.92764 -0.25925 0
M  V30 2543 C 242.067 -1.5873 3.23228 0
M  V30 2544 C 241.92 -0.643183 4.45178 0
M  V30 2545 C 243.239 -2.54453 3.59085 0
M  V30 2546 H 240.358 -0.301518 0.6725 0
M  V30 2547 H 243 -0.097778 1.89748 0
M  V30 2548 H 241.15 -2.21438 3.19214 0
M  V30 2549 H 242.822 -0.0253015 4.61293 0
M  V30 2550 H 241.065 0.0456139 4.33776 0
M  V30 2551 H 241.736 -1.20724 5.38637 0
M  V30 2552 H 244.212 -2.01853 3.63861 0
M  V30 2553 H 243.088 -3.04238 4.5687 0
M  V30 2554 H 243.349 -3.36906 2.86264 0
M  V30 2555 N 242.408 -1.52605 -0.393616 0
M  V30 2556 C 243.636 -1.71294 -1.16043 0
M  V30 2557 C 244.051 -0.429259 -1.83855 0
M  V30 2558 O 243.408 0.595921 -1.72496 0
M  V30 2559 C 243.459 -2.8593 -2.21193 0
M  V30 2560 O 243.18 -4.09329 -1.56146 0
M  V30 2561 C 244.681 -3.16259 -3.10636 0
M  V30 2562 H 241.901 -0.573641 -0.348104 0
M  V30 2563 H 244.445 -1.99234 -0.461092 0
M  V30 2564 H 242.6 -2.60465 -2.86769 0
M  V30 2565 H 243.014 -4.73323 -2.25978 0
M  V30 2566 H 244.488 -3.99946 -3.80456 0
M  V30 2567 H 244.965 -2.3045 -3.73884 0
M  V30 2568 H 245.571 -3.43547 -2.50711 0
M  V30 2569 N 243.887 0.651787 -1.4349 0
M  V30 2570 C 244.837 1.75783 -1.45205 0
M  V30 2571 C 245.821 1.57679 -0.320328 0
M  V30 2572 O 247.013 1.67767 -0.564211 0
M  V30 2573 C 244.142 3.14377 -1.3792 0
M  V30 2574 C 243.228 3.38023 -2.56127 0
M  V30 2575 N 243.619 3.32135 -3.81471 0
M  V30 2576 C 241.917 3.68747 -2.50882 0
M  V30 2577 C 242.618 3.55902 -4.60118 0
M  V30 2578 N 241.594 3.77783 -3.90872 0
M  V30 2579 H 245.396 1.69657 -2.39987 0
M  V30 2580 H 242.91 0.853508 -1.38163 0
M  V30 2581 H 244.907 3.93666 -1.37231 0
M  V30 2582 H 243.567 3.21683 -0.441596 0
M  V30 2583 H 244.578 3.11515 -4.13738 0
M  V30 2584 H 241.255 3.8316 -1.65816 0
M  V30 2585 H 242.645 3.57116 -5.69138 0
M  V30 2586 N 245.365 1.30045 0.890287 0
M  V30 2587 C 246.614 1.17929 1.63633 0
M  V30 2588 C 246.927 -0.266204 1.9378 0
M  V30 2589 O 248.133 -0.508804 2.6669 0
M  V30 2590 C 246.589 2.06317 2.94892 0
M  V30 2591 C 246.197 3.55745 2.72305 0
M  V30 2592 C 247.941 2.0295 3.72843 0
M  V30 2593 C 245.848 4.36205 3.99348 0
M  V30 2594 H 244.778 0.437782 0.613892 0
M  V30 2595 H 247.429 1.54754 0.986075 0
M  V30 2596 H 245.811 1.6237 3.61182 0
M  V30 2597 H 246.985 4.07805 2.1455 0
M  V30 2598 H 245.3 3.6088 2.07737 0
M  V30 2599 H 247.897 2.60319 4.67053 0
M  V30 2600 H 248.24 1.0117 4.0382 0
M  V30 2601 H 248.773 2.4499 3.13408 0
M  V30 2602 H 245.512 5.38659 3.73533 0
M  V30 2603 H 245.032 3.8891 4.56628 0
M  V30 2604 H 246.711 4.47362 4.67415 0
M  V30 2605 N 246.843 -1.10192 1.12674 0
M  V30 2606 C 247.79 -2.16606 0.796906 0
M  V30 2607 C 248.76 -1.64394 -0.237476 0
M  V30 2608 O 249.945 -1.90474 -0.111484 0
M  V30 2609 C 247.085 -3.44116 0.26043 0
M  V30 2610 C 246.198 -4.10268 1.35293 0
M  V30 2611 C 245.333 -5.25507 0.775621 0
M  V30 2612 C 244.372 -5.83567 1.84706 0
M  V30 2613 N 243.509 -6.90179 1.28829 0
M  V30 2614 H 248.349 -2.44163 1.70846 0
M  V30 2615 H 245.886 -1.19846 0.85295 0
M  V30 2616 H 247.844 -4.17143 -0.0686814 0
M  V30 2617 H 246.474 -3.16901 -0.614274 0
M  V30 2618 H 245.526 -3.35184 1.79877 0
M  V30 2619 H 246.838 -4.4946 2.16303 0
M  V30 2620 H 245.992 -6.05398 0.397327 0
M  V30 2621 H 244.731 -4.87656 -0.0656581 0
M  V30 2622 H 243.736 -5.02344 2.23452 0
M  V30 2623 H 244.961 -6.23482 2.69161 0
M  V30 2624 H 242.907 -6.54322 0.468881 0
M  V30 2625 H 242.824 -7.28097 2.03497 0
M  V30 2626 H 244.092 -7.73844 0.937311 0
M  V30 2627 N 248.321 -0.919034 -1.28029 0
M  V30 2628 C 249.567 -0.555757 -1.95036 0
M  V30 2629 C 249.9 0.899198 -1.72128 0
M  V30 2630 O 249.175 1.64023 -1.04531 0
M  V30 2631 C 249.458 -0.872024 -3.49382 0
M  V30 2632 C 249.311 -2.3801 -3.81669 0
M  V30 2633 C 250.63 -0.37185 -4.38526 0
M  V30 2634 H 247.749 -0.203386 -0.708381 0
M  V30 2635 H 250.391 -1.14924 -1.51303 0
M  V30 2636 H 248.541 -0.366946 -3.86763 0
M  V30 2637 H 250.213 -2.9562 -3.54128 0
M  V30 2638 H 248.456 -2.83289 -3.28526 0
M  V30 2639 H 249.127 -2.55192 -4.8947 0
M  V30 2640 H 251.603 -0.804602 -4.08247 0
M  V30 2641 H 250.479 -0.622173 -5.45362 0
M  V30 2642 H 250.74 0.727934 -4.36066 0
M  V30 2643 N 249.799 1.42003 -0.683588 0
M  V30 2644 C 250.732 2.28166 0.039592 0
M  V30 2645 C 251.71 1.41562 0.799942 0
M  V30 2646 O 252.894 1.70997 0.793248 0
M  V30 2647 C 250.021 3.21575 1.06335 0
M  V30 2648 C 249.067 4.24643 0.397562 0
M  V30 2649 S 249.9 5.2869 -0.851296 0
M  V30 2650 C 251.056 6.25666 0.171166 0
M  V30 2651 H 251.289 2.89153 -0.691229 0
M  V30 2652 H 248.822 1.46962 -0.473435 0
M  V30 2653 H 250.78 3.75928 1.6489 0
M  V30 2654 H 249.441 2.59707 1.76667 0
M  V30 2655 H 248.634 4.90223 1.17035 0
M  V30 2656 H 248.236 3.73824 -0.114611 0
M  V30 2657 H 250.528 6.69653 1.02819 0
M  V30 2658 H 251.471 7.06666 -0.450397 0
M  V30 2659 H 251.879 5.62095 0.520578 0
M  V30 2660 N 251.277 0.427512 1.51691 0
M  V30 2661 C 252.517 -0.141524 2.03909 0
M  V30 2662 C 252.881 -1.40811 1.30523 0
M  V30 2663 O 254.082 -2.05676 1.73063 0
M  V30 2664 C 252.353 -0.364962 3.55532 0
M  V30 2665 S 253.912 -0.898812 4.29496 0
M  V30 2666 H 250.73 -0.0364542 0.710065 0
M  V30 2667 H 253.332 0.584659 1.86553 0
M  V30 2668 H 252.036 0.56336 4.06515 0
M  V30 2669 H 251.567 -1.1185 3.77164 0
M  V30 2670 H 253.582 -2.17747 4.45871 0
M  V30 2671 N 252.755 -1.56801 0.158532 0
M  V30 2672 C 253.665 -2.20916 -0.789518 0
M  V30 2673 C 254.681 -1.1969 -1.26294 0
M  V30 2674 O 255.857 -1.52308 -1.31773 0
M  V30 2675 C 252.922 -2.82727 -2.00665 0
M  V30 2676 C 251.983 -3.99114 -1.58134 0
M  V30 2677 C 251.216 -4.57968 -2.74045 0
M  V30 2678 O 251.439 -4.15704 -3.90572 0
M  V30 2679 O 250.373 -5.48047 -2.48855 0
M  V30 2680 H 254.199 -3.02464 -0.273681 0
M  V30 2681 H 251.784 -1.4924 -0.0690548 0
M  V30 2682 H 253.666 -3.21968 -2.71872 0
M  V30 2683 H 252.341 -2.04184 -2.51179 0
M  V30 2684 H 251.248 -3.64567 -0.839155 0
M  V30 2685 H 252.581 -4.79212 -1.12325 0
M  V30 2686 N 254.233 0.115231 -1.57178 0
M  V30 2687 C 255.481 0.820727 -1.84685 0
M  V30 2688 C 255.802 1.80237 -0.744279 0
M  V30 2689 O 255.072 1.94529 0.231375 0
M  V30 2690 H 253.652 0.306084 -0.681411 0
M  V30 2691 H 256.314 0.101656 -1.94635 0
M  V30 2692 H 255.41 1.36366 -2.80733 0
M  V30 2693 N 255.711 1.52812 0.385517 0
M  V30 2694 C 256.959 1.67694 1.12797 0
M  V30 2695 C 257.28 0.421115 1.90399 0
M  V30 2696 O 256.55 -0.564551 1.87589 0
M  V30 2697 H 255.13 0.618155 0.419396 0
M  V30 2698 H 257.792 1.89938 0.436972 0
M  V30 2699 H 256.888 2.52896 1.82894 0
M  V30 2700 N 257.189 -0.644168 1.43834 0
M  V30 2701 C 258.605 -0.960875 1.27434 0
M  V30 2702 C 258.805 -2.00499 0.200618 0
M  V30 2703 O 257.861 -2.49018 -0.417906 0
M  V30 2704 C 259.174 -1.43653 2.64167 0
M  V30 2705 C 260.722 -1.55271 2.71772 0
M  V30 2706 C 261.197 -2.06224 4.08944 0
M  V30 2707 N 262.688 -2.13513 4.11055 0
M  V30 2708 C 263.423 -2.54081 5.14033 0
M  V30 2709 N 262.919 -2.9388 6.27381 0
M  V30 2710 N 264.712 -2.54101 5.01387 0
M  V30 2711 H 256.863 0.0465779 2.12349 0
M  V30 2712 H 259.126 -0.0417638 0.94708 0
M  V30 2713 H 258.832 -0.743706 3.43747 0
M  V30 2714 H 258.706 -2.40993 2.90176 0
M  V30 2715 H 261.093 -2.23653 1.92519 0
M  V30 2716 H 261.174 -0.563395 2.49519 0
M  V30 2717 H 260.818 -1.38441 4.88668 0
M  V30 2718 H 260.748 -3.06003 4.28567 0
M  V30 2719 H 263.239 -1.85493 3.29242 0
M  V30 2720 H 263.552 -3.2361 7.01781 0
M  V30 2721 H 261.897 -2.91663 6.30839 0
M  V30 2722 H 265.088 -2.22391 4.11898 0
M  V30 2723 H 265.261 -2.85394 5.81768 0
M  V30 2724 N 258.668 -1.30515 -0.883378 0
M  V30 2725 C 259.898 -1.22182 -1.66599 0
M  V30 2726 C 260.306 0.217507 -1.87946 0
M  V30 2727 O 259.649 1.1554 -1.42815 0
M  V30 2728 C 259.711 -1.88146 -3.06335 0
M  V30 2729 C 259.375 -3.37476 -3.08154 0
M  V30 2730 C 260.372 -4.33443 -2.87094 0
M  V30 2731 C 258.057 -3.7895 -3.29701 0
M  V30 2732 C 260.051 -5.68858 -2.8754 0
M  V30 2733 C 257.738 -5.14482 -3.29776 0
M  V30 2734 C 258.736 -6.09246 -3.0872 0
M  V30 2735 O 258.424 -7.42302 -3.08615 0
M  V30 2736 H 258.156 -0.423898 -0.52658 0
M  V30 2737 H 260.71 -1.72703 -1.11188 0
M  V30 2738 H 258.94 -1.32157 -3.63416 0
M  V30 2739 H 260.629 -1.7391 -3.66756 0
M  V30 2740 H 261.395 -4.02733 -2.70243 0
M  V30 2741 H 257.274 -3.05631 -3.45124 0
M  V30 2742 H 260.818 -6.428 -2.71024 0
M  V30 2743 H 256.715 -5.44832 -3.46163 0
M  V30 2744 H 257.483 -7.5131 -3.24769 0
M  V30 2745 N 260.146 1.09593 -1.13257 0
M  V30 2746 C 261.374 1.855 -0.916378 0
M  V30 2747 C 261.789 1.81069 0.534738 0
M  V30 2748 O 261.146 1.20562 1.37007 0
M  V30 2749 C 261.197 3.33546 -1.39388 0
M  V30 2750 O 260.918 3.37927 -2.78813 0
M  V30 2751 C 262.419 4.26299 -1.21588 0
M  V30 2752 H 259.639 0.585991 -0.326887 0
M  V30 2753 H 262.183 1.38488 -1.5047 0
M  V30 2754 H 260.338 3.77992 -0.848597 0
M  V30 2755 H 260.752 4.30254 -2.9997 0
M  V30 2756 H 262.226 5.28341 -1.59876 0
M  V30 2757 H 262.703 4.38918 -0.157376 0
M  V30 2758 H 263.309 3.87668 -1.7491 0
M  V30 2759 N 261.624 0.925811 1.2754 0
M  V30 2760 C 262.87 0.566092 1.94739 0
M  V30 2761 C 263.203 -0.890057 1.72603 0
M  V30 2762 O 262.478 -1.63467 1.05399 0
M  V30 2763 C 262.761 0.89054 3.48915 0
M  V30 2764 C 262.614 2.4003 3.80402 0
M  V30 2765 C 263.933 0.395101 4.38323 0
M  V30 2766 H 261.052 0.20714 0.707292 0
M  V30 2767 H 263.694 1.15725 1.50691 0
M  V30 2768 H 261.844 0.387452 3.86563 0
M  V30 2769 H 263.516 2.97494 3.52555 0
M  V30 2770 H 261.759 2.85028 3.2702 0
M  V30 2771 H 262.43 2.57785 4.8811 0
M  V30 2772 H 264.906 0.826241 4.07814 0
M  V30 2773 H 263.782 0.651086 5.45025 0
M  V30 2774 H 264.043 -0.704798 4.36446 0
M  V30 2775 N 263.102 -1.41638 0.69111 0
M  V30 2776 C 264.35 -2.00902 0.219758 0
M  V30 2777 C 264.671 -1.54994 -1.18329 0
M  V30 2778 O 263.941 -0.778628 -1.79762 0
M  V30 2779 H 262.521 -0.74289 0.0782558 0
M  V30 2780 H 265.183 -1.73327 0.891271 0
M  V30 2781 H 264.279 -3.11224 0.233708 0
M  V30 2782 N 264.58 -0.43555 -1.51462 0
M  V30 2783 C 265.828 0.131254 -2.01673 0
M  V30 2784 C 266.149 1.43368 -1.32177 0
M  V30 2785 O 265.419 1.90524 -0.455769 0
M  V30 2786 H 263.999 0.0514954 -0.745223 0
M  V30 2787 H 266.661 -0.577847 -1.86137 0
M  V30 2788 H 265.757 0.308446 -3.10572 0
M  V30 2789 N 266.058 1.56714 -0.166846 0
M  V30 2790 C 266.988 2.20754 0.760913 0
M  V30 2791 C 267.969 1.16178 1.24244 0
M  V30 2792 O 269.154 1.44592 1.29641 0
M  V30 2793 C 266.284 2.84478 1.99223 0
M  V30 2794 C 265.238 3.95053 1.64672 0
M  V30 2795 C 264.564 4.45805 2.95232 0
M  V30 2796 C 265.864 5.14865 0.878155 0
M  V30 2797 H 267.558 2.98537 0.22713 0
M  V30 2798 H 265.104 1.43596 0.107805 0
M  V30 2799 H 267.057 3.27951 2.64624 0
M  V30 2800 H 265.781 2.04056 2.55007 0
M  V30 2801 H 264.44 3.52228 1.01641 0
M  V30 2802 H 264.088 3.62181 3.49047 0
M  V30 2803 H 263.788 5.204 2.7287 0
M  V30 2804 H 265.312 4.91962 3.6167 0
M  V30 2805 H 266.726 5.55059 1.43466 0
M  V30 2806 H 265.123 5.95348 0.753738 0
M  V30 2807 H 266.193 4.84735 -0.126377 0
M  V30 2808 N 267.536 -0.106894 1.57237 0
M  V30 2809 C 268.446 -1.14911 2.0453 0
M  V30 2810 C 269.462 -1.44592 0.96795 0
M  V30 2811 O 270.638 -1.55468 1.2803 0
M  V30 2812 C 267.703 -2.45272 2.45036 0
M  V30 2813 C 266.764 -2.22879 3.66911 0
M  V30 2814 C 265.997 -3.47024 4.05475 0
M  V30 2815 O 266.22 -4.54804 3.44252 0
M  V30 2816 O 265.154 -3.3731 4.98504 0
M  V30 2817 H 268.98 -0.777461 2.9358 0
M  V30 2818 H 266.565 -0.318563 1.45964 0
M  V30 2819 H 268.447 -3.22055 2.71769 0
M  V30 2820 H 267.122 -2.81886 1.59129 0
M  V30 2821 H 266.029 -1.43915 3.45311 0
M  V30 2822 H 267.362 -1.91163 4.53561 0
M  V30 2823 N 269.014 -1.53014 -0.377408 0
M  V30 2824 C 270.242 -1.72515 -1.14219 0
M  V30 2825 C 270.657 -0.448735 -1.8339 0
M  V30 2826 O 270.014 0.577592 -1.73119 0
M  V30 2827 C 270.065 -2.8826 -2.18148 0
M  V30 2828 O 269.786 -4.10962 -1.51795 0
M  V30 2829 C 271.287 -3.19536 -3.07264 0
M  V30 2830 H 268.507 -0.577301 -0.342001 0
M  V30 2831 H 271.051 -1.99712 -0.439935 0
M  V30 2832 H 269.206 -2.63492 -2.83991 0
M  V30 2833 H 269.62 -4.75693 -2.20945 0
M  V30 2834 H 271.094 -4.03959 -3.76193 0
M  V30 2835 H 271.571 -2.34403 -3.71419 0
M  V30 2836 H 272.177 -3.46186 -2.47053 0
M  V30 2837 N 270.492 0.636531 -1.44174 0
M  V30 2838 C 271.739 1.39619 -1.46672 0
M  V30 2839 C 272.067 1.94257 -0.0972691 0
M  V30 2840 O 271.322 1.73768 0.900175 0
M  V30 2841 C 271.621 2.58309 -2.47005 0
M  V30 2842 C 271.287 2.21992 -3.92467 0
M  V30 2843 C 269.949 2.118 -4.32081 0
M  V30 2844 C 272.301 1.9321 -4.84065 0
M  V30 2845 C 269.629 1.71007 -5.61225 0
M  V30 2846 C 271.981 1.53911 -6.13591 0
M  V30 2847 C 270.645 1.42257 -6.52165 0
M  V30 2848 H 269.915 0.510902 -0.536712 0
M  V30 2849 H 272.562 0.722328 -1.77355 0
M  V30 2850 H 270.867 3.30903 -2.09786 0
M  V30 2851 H 272.564 3.16533 -2.46186 0
M  V30 2852 H 269.154 2.30841 -3.61124 0
M  V30 2853 H 273.338 1.99997 -4.54219 0
M  V30 2854 H 268.594 1.60583 -5.89935 0
M  V30 2855 H 272.768 1.30677 -6.8403 0
M  V30 2856 H 270.395 1.10419 -7.52138 0
M  V30 2857 N 271.97 1.30982 0.876444 0
M  V30 2858 C 273.247 1.10942 1.61094 0
M  V30 2859 C 273.627 -0.338223 2.08373 0
M  V30 2860 O 272.975 -1.33122 1.85717 0
M  V30 2861 C 273.185 2.11789 2.77392 0
M  V30 2862 C 274.533 2.43965 3.47514 0
M  V30 2863 O 275.557 2.10166 2.87591 0
M  V30 2864 O 274.416 3.01817 4.55597 0
M  V30 2865 H 271.51 0.42667 0.708436 0
M  V30 2866 H 274.056 1.42438 0.922474 0
M  V30 2867 H 272.828 3.09194 2.39823 0
M  V30 2868 H 272.451 1.81161 3.5393 0
M  V30 2869 N 273.449 -1.08991 1.13837 0
M  V30 2870 C 274.674 -1.85551 0.926585 0
M  V30 2871 C 275.099 -1.80782 -0.519566 0
M  V30 2872 O 274.457 -1.18855 -1.36906 0
M  V30 2873 C 274.505 -3.31266 1.42462 0
M  V30 2874 O 273.609 -4.07822 0.612789 0
M  V30 2875 H 272.95 -0.575192 0.331738 0
M  V30 2876 H 275.48 -1.37604 1.51414 0
M  V30 2877 H 275.49 -3.82112 1.43019 0
M  V30 2878 H 274.165 -3.34052 2.47754 0
M  V30 2879 H 272.742 -3.66731 0.675463 0
M  V30 2880 N 274.927 -0.932562 -1.27047 0
M  V30 2881 C 275.857 -0.452902 -2.29066 0
M  V30 2882 C 276.838 0.489338 -1.62909 0
M  V30 2883 O 278.023 0.393046 -1.90181 0
M  V30 2884 C 275.153 0.290698 -3.46081 0
M  V30 2885 C 274.107 -0.564168 -4.24265 0
M  V30 2886 C 273.433 0.308886 -5.33807 0
M  V30 2887 C 274.733 -1.83112 -4.89149 0
M  V30 2888 H 276.427 -1.30552 -2.69437 0
M  V30 2889 H 273.973 -0.629201 -1.29526 0
M  V30 2890 H 275.926 0.637233 -4.16554 0
M  V30 2891 H 274.65 1.17738 -3.0464 0
M  V30 2892 H 273.309 -0.893477 -3.55545 0
M  V30 2893 H 272.957 1.19467 -4.88607 0
M  V30 2894 H 272.657 -0.259633 -5.87026 0
M  V30 2895 H 274.181 0.650884 -6.07121 0
M  V30 2896 H 275.595 -1.55236 -5.51883 0
M  V30 2897 H 273.992 -2.34353 -5.52448 0
M  V30 2898 H 275.062 -2.54772 -4.12576 0
M  V30 2899 N 276.405 1.4127 -0.698611 0
M  V30 2900 C 277.633 2.05503 -0.239992 0
M  V30 2901 C 278.048 1.52584 1.11191 0
M  V30 2902 O 277.405 0.675323 1.69545 0
M  V30 2903 C 277.456 3.60987 -0.192429 0
M  V30 2904 O 277.177 4.1195 -1.49094 0
M  V30 2905 C 278.678 4.42371 0.28681 0
M  V30 2906 H 275.898 0.661748 -0.111045 0
M  V30 2907 H 278.442 1.80987 -0.95205 0
M  V30 2908 H 276.597 3.84533 0.470472 0
M  V30 2909 H 277.011 5.06018 -1.38007 0
M  V30 2910 H 278.485 5.51344 0.26896 0
M  V30 2911 H 278.962 4.18699 1.32619 0
M  V30 2912 H 279.568 4.23897 -0.345201 0
M  V30 2913 N 277.883 0.443576 1.51229 0
M  V30 2914 C 279.16 -0.181038 1.9476 0
M  V30 2915 C 279.54 -1.59523 1.38259 0
M  V30 2916 O 278.888 -2.2122 0.572198 0
M  V30 2917 C 279.098 -0.152422 3.48667 0
M  V30 2918 C 280.446 -0.354923 4.23114 0
M  V30 2919 O 281.47 -0.230257 3.55455 0
M  V30 2920 O 280.329 -0.603674 5.43156 0
M  V30 2921 H 277.423 -0.1266 0.817252 0
M  V30 2922 H 279.969 0.502004 1.62105 0
M  V30 2923 H 278.741 0.836022 3.82265 0
M  V30 2924 H 278.364 -0.878107 3.87782 0
M  V30 2925 N 279.361 -1.56624 0.175154 0
M  V30 2926 C 280.291 -2.21155 -0.749195 0
M  V30 2927 C 281.272 -1.16836 -1.23626 0
M  V30 2928 O 282.457 -1.45277 -1.28873 0
M  V30 2929 C 279.587 -2.8553 -1.97711 0
M  V30 2930 C 278.541 -3.95921 -1.62575 0
M  V30 2931 C 277.867 -4.47365 -2.92864 0
M  V30 2932 C 279.167 -5.15323 -0.850838 0
M  V30 2933 H 280.861 -2.98653 -0.211295 0
M  V30 2934 H 278.407 -1.43651 -0.100188 0
M  V30 2935 H 280.36 -3.2935 -2.62881 0
M  V30 2936 H 279.084 -2.05406 -2.53921 0
M  V30 2937 H 277.743 -3.52762 -0.997719 0
M  V30 2938 H 277.391 -3.64027 -3.47122 0
M  V30 2939 H 277.091 -5.21839 -2.70106 0
M  V30 2940 H 278.615 -4.93873 -3.59056 0
M  V30 2941 H 280.029 -5.55812 -1.40521 0
M  V30 2942 H 278.426 -5.95739 -0.722154 0
M  V30 2943 H 279.496 -4.84661 0.152082 0
M  V30 2944 N 280.839 0.0985539 -1.57292 0
M  V30 2945 C 282.085 0.803867 -1.86188 0
M  V30 2946 C 282.418 1.78549 -0.763794 0
M  V30 2947 O 281.693 1.93153 0.22855 0
M  V30 2948 C 281.976 1.53568 -3.25713 0
M  V30 2949 C 281.829 0.572277 -4.46145 0
M  V30 2950 C 283.148 2.48708 -3.63087 0
M  V30 2951 H 280.267 0.290781 -0.677211 0
M  V30 2952 H 282.909 0.0675783 -1.8988 0
M  V30 2953 H 281.059 2.16332 -3.22696 0
M  V30 2954 H 282.731 -0.0480894 -4.61275 0
M  V30 2955 H 280.974 -0.114618 -4.33649 0
M  V30 2956 H 281.645 1.12139 -5.40489 0
M  V30 2957 H 284.121 1.96039 -3.67026 0
M  V30 2958 H 282.997 2.96932 -4.61652 0
M  V30 2959 H 283.258 3.32309 -2.91588 0
M  V30 2960 N 282.317 1.53212 0.369288 0
M  V30 2961 C 283.227 1.82342 1.47609 0
M  V30 2962 C 284.243 0.711532 1.58787 0
M  V30 2963 O 285.419 1.0012 1.74751 0
M  V30 2964 C 282.484 2.00393 2.8292 0
M  V30 2965 C 281.545 3.24297 2.81301 0
M  V30 2966 C 280.778 3.41478 4.10157 0
M  V30 2967 O 281.001 2.63033 5.06132 0
M  V30 2968 O 279.935 4.34817 4.16194 0
M  V30 2969 H 283.761 2.76366 1.25918 0
M  V30 2970 H 281.346 1.38547 0.559034 0
M  V30 2971 H 283.228 2.13859 3.63101 0
M  V30 2972 H 281.903 1.09559 3.04596 0
M  V30 2973 H 280.81 3.16257 1.99831 0
M  V30 2974 H 282.143 4.15041 2.64578 0
M  V30 2975 N 283.795 -0.628877 1.44509 0
M  V30 2976 C 284.745 -1.7345 1.47983 0
M  V30 2977 C 285.729 -1.5715 0.345373 0
M  V30 2978 O 286.921 -1.66848 0.590829 0
M  V30 2979 C 284.05 -3.12143 1.42904 0
M  V30 2980 C 283.136 -3.33906 2.61472 0
M  V30 2981 N 283.527 -3.26024 3.86706 0
M  V30 2982 C 281.825 -3.64709 2.56716 0
M  V30 2983 C 282.526 -3.48536 4.65722 0
M  V30 2984 N 281.502 -3.71517 3.96832 0
M  V30 2985 H 285.304 -1.65818 2.42655 0
M  V30 2986 H 282.818 -0.831419 1.39503 0
M  V30 2987 H 284.815 -3.91433 1.43476 0
M  V30 2988 H 283.475 -3.2094 0.492717 0
M  V30 2989 H 284.486 -3.04893 4.18641 0
M  V30 2990 H 281.163 -3.80473 1.71891 0
M  V30 2991 H 282.553 -3.48016 5.74747 0
M  V30 2992 N 285.273 -1.31445 -0.869486 0
M  V30 2993 C 286.52 -1.21158 -1.62256 0
M  V30 2994 C 286.848 0.230155 -1.93133 0
M  V30 2995 O 286.103 1.17906 -1.56194 0
M  V30 2996 C 286.402 -2.00145 -2.96102 0
M  V30 2997 C 286.068 -3.4964 -2.84715 0
M  V30 2998 C 284.73 -3.90403 -2.81317 0
M  V30 2999 C 287.082 -4.44769 -2.71716 0
M  V30 3000 C 284.41 -5.24561 -2.62778 0
M  V30 3001 C 286.762 -5.79054 -2.54714 0
M  V30 3002 C 285.426 -6.19037 -2.49699 0
M  V30 3003 H 284.696 -0.443348 -0.593737 0
M  V30 3004 H 287.343 -1.62715 -1.00976 0
M  V30 3005 H 285.648 -1.5127 -3.6142 0
M  V30 3006 H 287.345 -1.89566 -3.53363 0
M  V30 3007 H 283.935 -3.17256 -2.88178 0
M  V30 3008 H 288.119 -4.14208 -2.73397 0
M  V30 3009 H 283.375 -5.54613 -2.57321 0
M  V30 3010 H 287.549 -6.52393 -2.43632 0
M  V30 3011 H 285.176 -7.22935 -2.35093 0
M  V30 3012 N 286.751 1.08385 -1.14413 0
M  V30 3013 C 287.698 2.15311 -0.831265 0
M  V30 3014 C 288.668 1.64751 0.211292 0
M  V30 3015 O 289.853 1.90627 0.0811674 0
M  V30 3016 C 286.993 3.43658 -0.315143 0
M  V30 3017 C 286.106 4.08064 -1.41802 0
M  V30 3018 C 285.241 5.24207 -0.859126 0
M  V30 3019 C 284.28 5.80554 -1.93967 0
M  V30 3020 N 283.417 6.88042 -1.39793 0
M  V30 3021 H 288.257 2.41415 -1.74708 0
M  V30 3022 H 285.794 1.18474 -0.871909 0
M  V30 3023 H 287.752 4.172 0.00230884 0
M  V30 3024 H 286.382 3.17839 0.56378 0
M  V30 3025 H 285.434 3.3228 -1.85187 0
M  V30 3026 H 286.746 4.45962 -2.23427 0
M  V30 3027 H 285.9 6.04689 -0.49359 0
M  V30 3028 H 284.639 4.87699 -0.011932 0
M  V30 3029 H 283.644 4.98725 -2.31415 0
M  V30 3030 H 284.869 6.19121 -2.79046 0
M  V30 3031 H 282.815 6.53493 -0.572919 0
M  V30 3032 H 282.732 7.24767 -2.15054 0
M  V30 3033 H 284 7.72255 -1.0603 0
M  V30 3034 N 288.23 0.939286 1.26551 0
M  V30 3035 C 289.177 0.446088 2.26448 0
M  V30 3036 C 290.147 -0.493234 1.58608 0
M  V30 3037 O 291.332 -0.409857 1.86346 0
M  V30 3038 C 288.472 -0.284375 3.43926 0
M  V30 3039 C 287.585 0.690399 4.26448 0
M  V30 3040 C 286.72 -0.0610712 5.31165 0
M  V30 3041 C 285.759 0.905649 6.05363 0
M  V30 3042 N 284.896 0.186055 7.01853 0
M  V30 3043 H 289.736 1.30291 2.68008 0
M  V30 3044 H 287.273 0.65371 1.31776 0
M  V30 3045 H 289.231 -0.724313 4.10864 0
M  V30 3046 H 287.861 -1.10535 3.03285 0
M  V30 3047 H 286.913 1.24885 3.59316 0
M  V30 3048 H 288.225 1.42873 4.779 0
M  V30 3049 H 287.379 -0.56038 6.04106 0
M  V30 3050 H 286.118 -0.832297 4.80546 0
M  V30 3051 H 285.123 1.4161 5.3125 0
M  V30 3052 H 286.348 1.67685 6.58072 0
M  V30 3053 H 284.294 -0.566714 6.53548 0
M  V30 3054 H 284.211 0.863752 7.51049 0
M  V30 3055 H 285.479 -0.292221 7.78952 0
M  V30 3056 N 289.708 -1.40897 0.706093 0
M  V30 3057 C 290.936 -2.05373 0.250887 0
M  V30 3058 C 291.351 -1.53172 -1.10381 0
M  V30 3059 O 290.708 -0.684305 -1.69185 0
M  V30 3060 C 290.759 -3.6088 0.211571 0
M  V30 3061 O 290.48 -4.11153 1.51276 0
M  V30 3062 C 291.981 -4.42517 -0.263346 0
M  V30 3063 H 289.201 -0.66115 0.114552 0
M  V30 3064 H 291.745 -1.80479 0.961635 0
M  V30 3065 H 289.9 -3.84777 -0.450073 0
M  V30 3066 H 290.314 -5.05279 1.40689 0
M  V30 3067 H 291.788 -5.51479 -0.239718 0
M  V30 3068 H 292.265 -4.19396 -1.30397 0
M  V30 3069 H 292.871 -4.23708 0.367677 0
M  V30 3070 N 291.186 -0.45159 -1.50991 0
M  V30 3071 C 292.434 0.109857 -2.01801 0
M  V30 3072 C 292.755 1.41958 -1.3369 0
M  V30 3073 O 292.025 1.9003 -0.475951 0
M  V30 3074 H 290.605 0.0435884 -0.745727 0
M  V30 3075 H 293.267 -0.597557 -1.85514 0
M  V30 3076 H 292.363 0.275489 -3.10882 0
M  V30 3077 N 292.664 1.56529 -0.183458 0
M  V30 3078 C 293.913 1.96419 0.458511 0
M  V30 3079 C 294.226 1.0727 1.63562 0
M  V30 3080 O 295.432 1.36893 2.34462 0
M  V30 3081 C 293.888 3.49298 0.867122 0
M  V30 3082 C 293.496 4.47092 -0.285057 0
M  V30 3083 C 295.24 3.97983 1.47683 0
M  V30 3084 C 293.147 5.91225 0.143862 0
M  V30 3085 H 292.077 0.733394 0.175071 0
M  V30 3086 H 294.728 1.81448 -0.273624 0
M  V30 3087 H 293.11 3.59731 1.65559 0
M  V30 3088 H 294.284 4.48383 -1.0625 0
M  V30 3089 H 292.599 4.08535 -0.805503 0
M  V30 3090 H 295.196 5.03134 1.80999 0
M  V30 3091 H 295.539 3.41618 2.37914 0
M  V30 3092 H 296.072 3.90617 0.752562 0
M  V30 3093 H 292.811 6.5149 -0.723974 0
M  V30 3094 H 292.331 5.93214 0.886413 0
M  V30 3095 H 294.01 6.44362 0.583628 0
M  V30 3096 N 294.142 -0.090211 1.57342 0
M  V30 3097 C 295.052 -1.12735 2.05738 0
M  V30 3098 C 296.068 -1.43557 0.983231 0
M  V30 3099 O 297.244 -1.54101 1.29672 0
M  V30 3100 C 294.309 -2.42659 2.47624 0
M  V30 3101 C 293.37 -2.18975 3.69254 0
M  V30 3102 C 292.603 -3.42704 4.09133 0
M  V30 3103 O 292.826 -4.51127 3.49057 0
M  V30 3104 O 291.76 -3.32003 5.02053 0
M  V30 3105 H 295.586 -0.746279 2.94388 0
M  V30 3106 H 293.171 -0.303064 1.46294 0
M  V30 3107 H 295.053 -3.19155 2.7517 0
M  V30 3108 H 293.728 -2.80182 1.62109 0
M  V30 3109 H 292.635 -1.40244 3.46818 0
M  V30 3110 H 293.968 -1.86342 4.55563 0
M  V30 3111 N 295.62 -1.53406 -0.361157 0
M  V30 3112 C 296.53 -1.83122 -1.4664 0
M  V30 3113 C 297.546 -0.719943 -1.58407 0
M  V30 3114 O 298.722 -1.01046 -1.74218 0
M  V30 3115 C 295.787 -2.01891 -2.81853 0
M  V30 3116 C 294.848 -3.25784 -2.79577 0
M  V30 3117 C 294.081 -3.43648 -4.0834 0
M  V30 3118 O 294.304 -2.65714 -5.0473 0
M  V30 3119 O 293.238 -4.37018 -4.13883 0
M  V30 3120 H 297.064 -2.7703 -1.24451 0
M  V30 3121 H 294.649 -1.38841 -0.551678 0
M  V30 3122 H 296.531 -2.15782 -3.61962 0
M  V30 3123 H 295.206 -1.11173 -3.0401 0
M  V30 3124 H 294.113 -3.17312 -1.98151 0
M  V30 3125 H 295.446 -4.16439 -2.62373 0
M  V30 3126 N 297.098 0.621204 -1.44841 0
M  V30 3127 C 298.061 1.71459 -1.521 0
M  V30 3128 C 299.061 1.55696 -0.401933 0
M  V30 3129 O 300.251 1.61011 -0.664925 0
M  V30 3130 C 297.383 3.10624 -1.40447 0
M  V30 3131 H 298.576 1.66394 -2.49506 0
M  V30 3132 H 296.129 0.835745 -1.3208 0
M  V30 3133 H 296.864 3.21277 -0.441737 0
M  V30 3134 H 296.649 3.23473 -2.21602 0
M  V30 3135 H 298.139 3.90293 -1.4853 0
M  V30 3136 N 298.576 1.31904 0.862503 0
M  V30 3137 C 299.801 1.25135 1.65397 0
M  V30 3138 C 300.226 -0.179 1.87246 0
M  V30 3139 O 299.584 -1.1277 1.4196 0
M  V30 3140 C 299.632 2.00832 2.99498 0
M  V30 3141 O 298.736 1.35075 3.89652 0
M  V30 3142 H 298.077 0.431655 0.504549 0
M  V30 3143 H 300.607 1.74094 1.07483 0
M  V30 3144 H 300.617 2.10709 3.49379 0
M  V30 3145 H 299.292 3.04847 2.82916 0
M  V30 3146 H 297.869 1.33696 3.48109 0
M  V30 3147 N 300.054 -1.07777 1.14986 0
M  V30 3148 C 301.302 -1.79934 0.920235 0
M  V30 3149 C 301.623 -1.86955 -0.554336 0
M  V30 3150 O 300.893 -1.36731 -1.40291 0
M  V30 3151 H 299.473 -0.666424 0.337473 0
M  V30 3152 H 302.135 -1.3027 1.44968 0
M  V30 3153 H 301.231 -2.82539 1.32583 0
M  V30 3154 N 301.532 -0.945985 -1.26051 0
M  V30 3155 C 302.495 -0.463897 -2.24456 0
M  V30 3156 C 303.495 0.427655 -1.55009 0
M  V30 3157 O 304.685 0.226157 -1.72726 0
M  V30 3158 C 301.817 0.330812 -3.39291 0
M  V30 3159 H 303.01 -1.33357 -2.68619 0
M  V30 3160 H 300.563 -0.728416 -1.38289 0
M  V30 3161 H 301.298 1.21852 -3.00537 0
M  V30 3162 H 301.083 -0.308679 -3.90883 0
M  V30 3163 H 302.573 0.657865 -4.12386 0
M  V30 3164 N 303.011 1.40521 -0.713556 0
M  V30 3165 C 304.258 2.00923 -0.25219 0
M  V30 3166 C 304.586 1.56571 1.15395 0
M  V30 3167 O 303.841 0.775874 1.79663 0
M  V30 3168 C 304.14 3.56317 -0.278 0
M  V30 3169 C 303.806 4.20246 -1.63415 0
M  V30 3170 C 302.468 4.37422 -2.00538 0
M  V30 3171 C 304.82 4.55923 -2.52554 0
M  V30 3172 C 302.148 4.87558 -3.2635 0
M  V30 3173 C 304.5 5.07458 -3.77716 0
M  V30 3174 C 303.164 5.22843 -4.14959 0
M  V30 3175 H 302.434 0.735231 -0.0922829 0
M  V30 3176 H 305.081 1.68161 -0.916188 0
M  V30 3177 H 303.386 3.88976 0.469567 0
M  V30 3178 H 305.083 4.00883 0.0967819 0
M  V30 3179 H 301.673 4.07263 -1.33546 0
M  V30 3180 H 305.857 4.42291 -2.25149 0
M  V30 3181 H 301.113 4.97654 -3.55176 0
M  V30 3182 H 305.287 5.34041 -4.4696 0
M  V30 3183 H 302.914 5.61454 -5.12516 0
M  V30 3184 N 304.489 0.459591 1.5075 0
M  V30 3185 C 305.735 -0.0994966 2.02556 0
M  V30 3186 C 306.068 -1.40399 1.3417 0
M  V30 3187 O 305.343 -1.88892 0.463683 0
M  V30 3188 C 305.626 -0.295242 3.58888 0
M  V30 3189 C 305.479 1.02947 4.37861 0
M  V30 3190 C 306.798 -1.05502 4.27267 0
M  V30 3191 H 303.917 -0.034686 0.736183 0
M  V30 3192 H 306.559 0.602938 1.8018 0
M  V30 3193 H 304.709 -0.893563 3.78084 0
M  V30 3194 H 306.381 1.66348 4.30263 0
M  V30 3195 H 304.624 1.62885 4.02058 0
M  V30 3196 H 305.295 0.846281 5.45474 0
M  V30 3197 H 307.771 -0.547993 4.12476 0
M  V30 3198 H 306.647 -1.16077 5.36486 0
M  V30 3199 H 306.908 -2.08875 3.89645 0
M  V30 3200 N 305.967 -1.56429 0.191757 0
M  V30 3201 C 307.197 -2.01574 -0.452928 0
M  V30 3202 C 307.605 -1.07107 -1.55964 0
M  V30 3203 O 306.948 -0.067534 -1.83576 0
M  V30 3204 C 307.01 -3.43121 -1.07278 0
M  V30 3205 C 306.674 -4.56879 -0.105214 0
M  V30 3206 C 307.671 -5.15379 0.684149 0
M  V30 3207 C 305.356 -5.023 0.00489824 0
M  V30 3208 C 307.35 -6.17746 1.57062 0
M  V30 3209 C 305.037 -6.04511 0.894935 0
M  V30 3210 C 306.035 -6.62108 1.67637 0
M  V30 3211 O 305.723 -7.62335 2.55149 0
M  V30 3212 H 305.455 -0.665554 -0.118379 0
M  V30 3213 H 308.009 -2.03245 0.296737 0
M  V30 3214 H 306.239 -3.38425 -1.87097 0
M  V30 3215 H 307.928 -3.72093 -1.62177 0
M  V30 3216 H 308.694 -4.81157 0.609365 0
M  V30 3217 H 304.573 -4.57168 -0.593156 0
M  V30 3218 H 308.117 -6.6263 2.181 0
M  V30 3219 H 304.014 -6.38157 0.970847 0
M  V30 3220 H 304.782 -7.79741 2.48892 0
M  V30 3221 N 307.445 0.0818655 -1.57387 0
M  V30 3222 C 308.375 1.09885 -2.06028 0
M  V30 3223 C 309.356 1.4098 -0.951774 0
M  V30 3224 O 310.541 1.50781 -1.22387 0
M  V30 3225 C 307.671 2.4151 -2.4958 0
M  V30 3226 C 306.625 2.24792 -3.64215 0
M  V30 3227 C 305.951 3.61712 -3.93787 0
M  V30 3228 C 307.251 1.67749 -4.94629 0
M  V30 3229 H 308.945 0.694128 -2.91243 0
M  V30 3230 H 306.491 0.332448 -1.4011 0
M  V30 3231 H 308.444 3.12939 -2.82219 0
M  V30 3232 H 307.168 2.83943 -1.61381 0
M  V30 3233 H 305.827 1.55807 -3.31843 0
M  V30 3234 H 305.475 4.01697 -3.02735 0
M  V30 3235 H 305.175 3.51368 -4.70971 0
M  V30 3236 H 306.699 4.34587 -4.28913 0
M  V30 3237 H 308.113 2.29032 -5.25564 0
M  V30 3238 H 306.51 1.68128 -5.76067 0
M  V30 3239 H 307.58 0.638059 -4.80684 0
M  V30 3240 N 308.923 1.53595 0.353017 0
M  V30 3241 C 310.339 1.43648 0.695516 0
M  V30 3242 C 310.539 0.585617 1.92802 0
M  V30 3243 O 309.595 0.0729223 2.52395 0
M  V30 3244 C 310.908 2.8701 0.896991 0
M  V30 3245 C 312.456 2.96723 0.996209 0
M  V30 3246 C 312.931 4.41173 1.23007 0
M  V30 3247 N 314.422 4.44657 1.29749 0
M  V30 3248 C 315.157 5.53547 1.49577 0
M  V30 3249 N 314.653 6.72461 1.66639 0
M  V30 3250 N 316.446 5.41145 1.52048 0
M  V30 3251 H 308.597 2.07415 -0.457481 0
M  V30 3252 H 310.86 0.9372 -0.142687 0
M  V30 3253 H 310.566 3.51644 0.0629938 0
M  V30 3254 H 310.44 3.31401 1.80148 0
M  V30 3255 H 312.827 2.32235 1.82074 0
M  V30 3256 H 312.908 2.55707 0.0688331 0
M  V30 3257 H 312.552 5.06238 0.410505 0
M  V30 3258 H 312.482 4.79772 2.17086 0
M  V30 3259 H 314.973 3.58963 1.18126 0
M  V30 3260 H 315.286 7.51214 1.81378 0
M  V30 3261 H 313.631 6.75423 1.63794 0
M  V30 3262 H 316.822 4.47205 1.38294 0
M  V30 3263 H 316.995 6.26068 1.67159 0
M  V30 3264 N 310.401 -0.613514 1.45168 0
M  V30 3265 C 311.333 -1.73825 1.4939 0
M  V30 3266 C 312.346 -1.58175 0.385304 0
M  V30 3267 O 313.535 -1.66165 0.652036 0
M  V30 3268 C 310.635 -3.11758 1.32891 0
M  V30 3269 C 309.808 -3.53704 2.57317 0
M  V30 3270 C 308.867 -4.70579 2.35462 0
M  V30 3271 O 307.893 -4.77996 3.09044 0
M  V30 3272 N 309.095 -5.63454 1.39644 0
M  V30 3273 H 311.86 -1.70669 2.46358 0
M  V30 3274 H 309.421 -0.79862 1.40832 0
M  V30 3275 H 311.413 -3.87692 1.1609 0
M  V30 3276 H 309.983 -3.09456 0.442218 0
M  V30 3277 H 309.203 -2.67794 2.89275 0
M  V30 3278 H 310.491 -3.78486 3.40038 0
M  V30 3279 H 309.889 -5.6017 0.789062 0
M  V30 3280 H 308.446 -6.38944 1.28816 0
M  V30 3281 N 311.879 -1.3236 -0.855495 0
M  V30 3282 C 313.29 -1.2056 -1.42556 0
M  V30 3283 C 313.641 0.182209 -1.95352 0
M  V30 3284 O 312.766 1.08088 -1.87472 0
M  V30 3285 C 313.361 -2.1826 -2.59129 0
M  V30 3286 C 311.92 -2.10351 -3.12137 0
M  V30 3287 C 311.067 -2.06674 -1.84882 0
M  V30 3288 H 314.018 -1.442 -0.662727 0
M  V30 3289 H 314.039 -1.78064 -3.36264 0
M  V30 3290 H 313.551 -3.19257 -2.20673 0
M  V30 3291 H 311.652 -1.12599 -3.55179 0
M  V30 3292 H 311.765 -3.00135 -3.73438 0
M  V30 3293 H 310.129 -1.51901 -2.04446 0
M  V30 3294 H 310.912 -3.09451 -1.48643 0
M  V30 3295 N 313.357 1.07166 -1.15556 0
M  V30 3296 C 314.587 1.83248 -0.954133 0
M  V30 3297 C 314.995 1.82449 0.500911 0
M  V30 3298 O 314.338 1.23575 1.35923 0
M  V30 3299 C 314.4 3.31393 -1.39351 0
M  V30 3300 C 314.064 3.5591 -2.86666 0
M  V30 3301 C 315.061 3.49695 -3.8472 0
M  V30 3302 C 312.746 3.83515 -3.24379 0
M  V30 3303 C 314.74 3.70737 -5.18491 0
M  V30 3304 C 312.427 4.04209 -4.58321 0
M  V30 3305 C 313.425 3.97815 -5.55186 0
M  V30 3306 O 313.113 4.17954 -6.86709 0
M  V30 3307 H 312.845 0.584941 -0.338851 0
M  V30 3308 H 315.399 1.36169 -1.53777 0
M  V30 3309 H 313.629 3.79292 -0.75329 0
M  V30 3310 H 315.318 3.88945 -1.16089 0
M  V30 3311 H 316.084 3.28368 -3.56931 0
M  V30 3312 H 311.963 3.87605 -2.49567 0
M  V30 3313 H 315.507 3.65663 -5.94085 0
M  V30 3314 H 311.404 4.25023 -4.85825 0
M  V30 3315 H 312.172 4.35291 -6.93155 0
M  V30 3316 N 314.835 0.952656 1.25548 0
M  V30 3317 C 316.065 0.622592 1.96996 0
M  V30 3318 C 316.473 -0.809112 1.71026 0
M  V30 3319 O 315.816 -1.55258 0.981861 0
M  V30 3320 C 315.878 0.798946 3.5051 0
M  V30 3321 C 315.542 2.20744 4.00151 0
M  V30 3322 C 316.539 3.18394 4.11001 0
M  V30 3323 C 314.224 2.5311 4.33867 0
M  V30 3324 C 316.218 4.46504 4.54877 0
M  V30 3325 C 313.905 3.8145 4.7743 0
M  V30 3326 C 314.903 4.77959 4.87897 0
M  V30 3327 O 314.591 6.04012 5.30494 0
M  V30 3328 H 314.323 0.232503 0.634758 0
M  V30 3329 H 316.877 1.2789 1.60728 0
M  V30 3330 H 315.107 0.0854903 3.86605 0
M  V30 3331 H 316.796 0.47023 4.03167 0
M  V30 3332 H 317.562 2.94715 3.85186 0
M  V30 3333 H 313.441 1.78719 4.24948 0
M  V30 3334 H 316.985 5.21835 4.62962 0
M  V30 3335 H 312.882 4.04936 5.0269 0
M  V30 3336 H 313.65 6.0736 5.48685 0
M  V30 3337 N 316.313 -1.40141 0.720998 0
M  V30 3338 C 317.276 -2.29058 0.0805834 0
M  V30 3339 C 318.276 -1.45632 -0.681758 0
M  V30 3340 O 319.466 -1.6648 -0.512856 0
M  V30 3341 C 316.598 -3.28925 -0.895593 0
M  V30 3342 H 317.791 -2.87191 0.863793 0
M  V30 3343 H 315.344 -1.48553 0.485975 0
M  V30 3344 H 316.079 -2.75822 -1.70566 0
M  V30 3345 H 315.864 -3.90519 -0.351766 0
M  V30 3346 H 317.354 -3.95494 -1.34069 0
M  V30 3347 N 317.792 -0.46758 -1.50504 0
M  V30 3348 C 319.02 0.0864133 -2.06719 0
M  V30 3349 C 319.435 1.33819 -1.33184 0
M  V30 3350 O 318.792 1.78061 -0.400083 0
M  V30 3351 C 318.843 0.378079 -3.59517 0
M  V30 3352 O 318.564 -0.824044 -4.3028 0
M  V30 3353 C 320.065 0.979426 -4.32345 0
M  V30 3354 H 317.285 -0.00551697 -0.670977 0
M  V30 3355 H 319.829 -0.655354 -1.93715 0
M  V30 3356 H 317.984 1.06977 -3.72337 0
M  V30 3357 H 318.398 -0.566518 -5.21432 0
M  V30 3358 H 319.872 1.1333 -5.40241 0
M  V30 3359 H 320.349 1.9686 -3.9261 0
M  V30 3360 H 320.955 0.326216 -4.24047 0
M  V30 3361 N 319.27 1.56325 -0.20005 0
M  V30 3362 C 320.686 1.58839 0.155716 0
M  V30 3363 C 320.886 1.21636 1.60645 0
M  V30 3364 O 319.942 0.941437 2.34293 0
M  V30 3365 C 321.255 3.0032 -0.151124 0
M  V30 3366 C 322.803 3.12866 -0.0916284 0
M  V30 3367 C 323.278 4.56488 -0.371845 0
M  V30 3368 N 324.769 4.62089 -0.320641 0
M  V30 3369 C 325.504 5.71116 -0.511243 0
M  V30 3370 N 325 6.88592 -0.762461 0
M  V30 3371 N 326.793 5.60335 -0.445157 0
M  V30 3372 H 318.944 1.78788 -1.14668 0
M  V30 3373 H 321.207 0.829996 -0.458051 0
M  V30 3374 H 320.913 3.32117 -1.15721 0
M  V30 3375 H 320.787 3.73257 0.543986 0
M  V30 3376 H 323.174 2.80878 0.905065 0
M  V30 3377 H 323.255 2.42304 -0.81989 0
M  V30 3378 H 322.899 4.89189 -1.36588 0
M  V30 3379 H 322.829 5.25246 0.377362 0
M  V30 3380 H 325.32 3.77665 -0.13329 0
M  V30 3381 H 325.633 7.67581 -0.896576 0
M  V30 3382 H 323.978 6.90387 -0.799412 0
M  V30 3383 H 327.169 4.67436 -0.249278 0
M  V30 3384 H 327.342 6.45243 -0.597116 0
M  V30 3385 N 320.748 -0.0735177 1.57428 0
M  V30 3386 C 321.994 -0.774145 1.87443 0
M  V30 3387 C 322.327 -1.77311 0.792103 0
M  V30 3388 O 321.602 -1.93492 -0.197793 0
M  V30 3389 C 321.885 -1.48367 3.28115 0
M  V30 3390 C 321.738 -0.501227 4.46999 0
M  V30 3391 C 323.057 -2.429 3.66998 0
M  V30 3392 H 320.176 -0.279971 0.681752 0
M  V30 3393 H 322.818 -0.0373616 1.89963 0
M  V30 3394 H 320.968 -2.11171 3.26097 0
M  V30 3395 H 322.64 0.121468 4.6114 0
M  V30 3396 H 320.883 0.183593 4.33411 0
M  V30 3397 H 321.554 -1.03526 5.42205 0
M  V30 3398 H 324.03 -1.90175 3.70098 0
M  V30 3399 H 322.906 -2.89549 4.66318 0
M  V30 3400 H 323.167 -3.27628 2.96837 0
M  V30 3401 N 322.226 -1.5378 -0.344866 0
M  V30 3402 C 323.174 -1.82373 -1.4437 0
M  V30 3403 C 324.168 -0.694128 -1.54526 0
M  V30 3404 O 325.374 -0.877442 -1.57165 0
M  V30 3405 H 321.749 -0.577765 -0.481344 0
M  V30 3406 H 323.72 -2.74306 -1.17468 0
M  V30 3407 C 322.469 -2.04898 -2.80913 0
M  V30 3408 H 321.792 -2.9127 -2.73865 0
M  V30 3409 H 323.232 -2.28871 -3.56923 0
M  V30 3410 C 321.691 -0.834116 -3.26411 0
M  V30 3411 O 322.221 -0.0328885 -4.01687 0
M  V30 3412 N 320.427 -0.65171 -2.83198 0
M  V30 3413 H 319.974 -1.30489 -2.22104 0
M  V30 3414 H 319.932 0.159686 -3.13994 0
M  V30 3415 N 323.704 0.605807 -1.45491 0
M  V30 3416 C 324.667 1.69836 -1.5391 0
M  V30 3417 C 325.667 1.55261 -0.418424 0
M  V30 3418 O 326.857 1.60296 -0.681965 0
M  V30 3419 C 323.989 3.09117 -1.43734 0
M  V30 3420 H 325.182 1.63738 -2.51257 0
M  V30 3421 H 322.735 0.821689 -1.32959 0
M  V30 3422 H 323.47 3.20791 -0.475788 0
M  V30 3423 H 323.255 3.21104 -2.25021 0
M  V30 3424 H 324.745 3.88696 -1.52661 0
M  V30 3425 N 325.182 1.32811 0.848464 0
M  V30 3426 C 326.145 1.22194 1.9391 0
M  V30 3427 C 327.145 0.143404 1.60159 0
M  V30 3428 O 328.335 0.394253 1.6968 0
M  V30 3429 C 325.467 0.88067 3.29328 0
M  V30 3430 H 326.66 2.19127 2.04752 0
M  V30 3431 H 324.213 1.16731 1.0394 0
M  V30 3432 H 324.948 -0.0865776 3.24184 0
M  V30 3433 H 324.733 1.66052 3.55203 0
M  V30 3434 H 326.223 0.830871 4.09251 0
M  V30 3435 N 326.66 -1.06551 1.16123 0
M  V30 3436 C 327.937 -1.76097 0.85142 0
M  V30 3437 C 328.317 -2.00802 -0.6513 0
M  V30 3438 O 327.665 -1.63302 -1.59827 0
M  V30 3439 C 327.875 -3.06384 1.67122 0
M  V30 3440 C 329.223 -3.80585 1.88255 0
M  V30 3441 O 330.247 -3.16218 1.63966 0
M  V30 3442 O 329.106 -4.96212 2.2899 0
M  V30 3443 H 326.2 -0.765102 0.313923 0
M  V30 3444 H 328.746 -1.12844 1.26745 0
M  V30 3445 H 327.518 -2.84071 2.69108 0
M  V30 3446 H 327.141 -3.77371 1.25206 0
M  V30 3447 N 328.138 -0.959301 -1.25041 0
M  V30 3448 C 329.387 -0.612254 -1.92183 0
M  V30 3449 C 329.7 0.855347 -1.75907 0
M  V30 3450 O 330.906 1.31256 -2.37664 0
M  V30 3451 C 329.362 -1.04435 -3.44414 0
M  V30 3452 C 328.97 -2.53482 -3.69393 0
M  V30 3453 C 330.714 -0.770055 -4.17457 0
M  V30 3454 C 328.621 -2.90468 -5.15153 0
M  V30 3455 H 327.551 -0.225279 -0.719559 0
M  V30 3456 H 330.202 -1.16438 -1.41825 0
M  V30 3457 H 328.584 -0.4206 -3.9376 0
M  V30 3458 H 329.758 -3.20916 -3.30681 0
M  V30 3459 H 328.073 -2.78432 -3.0962 0
M  V30 3460 H 330.67 -1.02249 -5.24832 0
M  V30 3461 H 331.013 0.293611 -4.15263 0
M  V30 3462 H 331.546 -1.35437 -3.74034 0
M  V30 3463 H 328.285 -3.95871 -5.22462 0
M  V30 3464 H 327.805 -2.27711 -5.54894 0
M  V30 3465 H 329.484 -2.79914 -5.83315 0
M  V30 3466 N 329.616 1.39756 -0.72842 0
M  V30 3467 C 330.526 2.34444 -0.0855374 0
M  V30 3468 C 331.542 1.57976 0.729356 0
M  V30 3469 O 332.718 1.90301 0.659346 0
M  V30 3470 C 329.783 3.36965 0.815798 0
M  V30 3471 C 328.844 4.29299 -0.0105996 0
M  V30 3472 C 328.077 5.26923 0.84781 0
M  V30 3473 O 328.3 5.30859 2.08673 0
M  V30 3474 O 327.234 6.01249 0.279969 0
M  V30 3475 H 331.06 2.91065 -0.866892 0
M  V30 3476 H 328.645 1.4117 -0.48902 0
M  V30 3477 H 330.527 3.99804 1.33171 0
M  V30 3478 H 329.202 2.82739 1.57608 0
M  V30 3479 H 328.109 3.69703 -0.571877 0
M  V30 3480 H 329.442 4.86712 -0.73295 0
M  V30 3481 N 331.094 0.475555 1.50254 0
M  V30 3482 C 332.042 -0.330276 2.30243 0
M  V30 3483 C 333.036 -0.986306 1.37726 0
M  V30 3484 O 334.242 -0.9169 1.54897 0
M  V30 3485 H 330.617 -0.125353 0.741479 0
M  V30 3486 H 332.588 0.364702 2.96163 0
M  V30 3487 C 331.337 -1.39704 3.18399 0
M  V30 3488 H 330.66 -0.901621 3.89501 0
M  V30 3489 H 332.1 -1.93336 3.77355 0
M  V30 3490 C 330.559 -2.4014 2.36293 0
M  V30 3491 O 331.089 -3.45504 2.04914 0
M  V30 3492 N 329.295 -2.1197 1.98789 0
M  V30 3493 H 328.842 -1.2631 2.24507 0
M  V30 3494 H 328.8 -2.79403 1.44157 0
M  V30 3495 N 332.573 -1.56217 0.208337 0
M  V30 3496 C 333.989 -1.58919 -0.14729 0
M  V30 3497 C 334.189 -1.22486 -1.59998 0
M  V30 3498 O 333.245 -0.953849 -2.3379 0
M  V30 3499 C 334.558 -3.00236 0.167048 0
M  V30 3500 C 336.106 -3.12813 0.108219 0
M  V30 3501 C 336.581 -4.56284 0.396049 0
M  V30 3502 N 338.072 -4.61912 0.345142 0
M  V30 3503 C 338.807 -5.70837 0.541523 0
M  V30 3504 N 338.303 -6.88178 0.798968 0
M  V30 3505 N 340.096 -5.60091 0.474867 0
M  V30 3506 H 332.247 -1.78177 1.15614 0
M  V30 3507 H 334.51 -0.827555 0.462446 0
M  V30 3508 H 334.216 -3.31499 1.1748 0
M  V30 3509 H 334.09 -3.7354 -0.524184 0
M  V30 3510 H 336.477 -2.81354 -0.890157 0
M  V30 3511 H 336.558 -2.41866 0.832729 0
M  V30 3512 H 336.202 -4.88458 1.3918 0
M  V30 3513 H 336.132 -5.25439 -0.349502 0
M  V30 3514 H 338.623 -3.77589 0.153316 0
M  V30 3515 H 338.936 -7.67095 0.93727 0
M  V30 3516 H 337.281 -6.89953 0.836013 0
M  V30 3517 H 340.472 -4.67297 0.274064 0
M  V30 3518 H 340.645 -6.44917 0.631326 0
M  V30 3519 N 334.051 0.0651679 -1.57465 0
M  V30 3520 C 335.297 0.764193 -1.87851 0
M  V30 3521 C 335.63 1.76889 -0.801495 0
M  V30 3522 O 334.905 1.93594 0.187528 0
M  V30 3523 C 335.188 1.46625 -3.28897 0
M  V30 3524 C 335.041 0.477515 -4.47258 0
M  V30 3525 C 336.36 2.4095 -3.68281 0
M  V30 3526 H 333.479 0.276351 -0.683227 0
M  V30 3527 H 336.121 0.0272868 -1.8998 0
M  V30 3528 H 334.271 2.09438 -3.27212 0
M  V30 3529 H 335.943 -0.145922 -4.61069 0
M  V30 3530 H 334.186 -0.206576 -4.33308 0
M  V30 3531 H 334.857 1.0065 -5.42746 0
M  V30 3532 H 337.333 1.88209 -3.71102 0
M  V30 3533 H 336.209 2.87072 -4.67847 0
M  V30 3534 H 336.47 3.26049 -2.98571 0
M  V30 3535 N 335.529 1.53961 0.336706 0
M  V30 3536 C 336.459 1.85417 1.41925 0
M  V30 3537 C 337.44 0.709856 1.5458 0
M  V30 3538 O 338.625 0.962396 1.68676 0
M  V30 3539 C 335.755 2.06985 2.78881 0
M  V30 3540 C 334.709 3.22813 2.81026 0
M  V30 3541 C 334.035 3.29727 4.20932 0
M  V30 3542 C 335.335 4.60767 2.45949 0
M  V30 3543 H 337.029 2.76079 1.15848 0
M  V30 3544 H 334.575 1.32839 0.555859 0
M  V30 3545 H 336.528 2.27575 3.54665 0
M  V30 3546 H 335.252 1.13061 3.06406 0
M  V30 3547 H 333.911 3.0209 2.07695 0
M  V30 3548 H 333.559 2.33385 4.45579 0
M  V30 3549 H 333.259 4.07566 4.23277 0
M  V30 3550 H 334.783 3.52536 4.98549 0
M  V30 3551 H 336.197 4.81325 3.11446 0
M  V30 3552 H 334.594 5.4106 2.59566 0
M  V30 3553 H 335.664 4.6391 1.41122 0
M  V30 3554 N 337.007 -0.598083 1.45811 0
M  V30 3555 C 337.917 -1.73632 1.57763 0
M  V30 3556 C 338.933 -1.67763 0.461676 0
M  V30 3557 O 340.109 -1.87949 0.723685 0
M  V30 3558 C 337.174 -3.10114 1.55018 0
M  V30 3559 C 336.235 -3.27364 2.77726 0
M  V30 3560 C 335.468 -4.57334 2.75102 0
M  V30 3561 O 335.691 -5.40258 1.8297 0
M  V30 3562 O 334.625 -4.77502 3.66437 0
M  V30 3563 H 338.451 -1.66498 2.53992 0
M  V30 3564 H 336.036 -0.763308 1.28429 0
M  V30 3565 H 337.918 -3.9141 1.56129 0
M  V30 3566 H 336.593 -3.17718 0.619431 0
M  V30 3567 H 335.5 -2.45619 2.82174 0
M  V30 3568 H 336.833 -3.24641 3.69958 0
M  V30 3569 N 338.485 -1.33259 -0.841409 0
M  V30 3570 C 339.415 -1.25926 -1.96634 0
M  V30 3571 C 340.396 -0.140349 -1.6952 0
M  V30 3572 O 341.581 -0.329707 -1.91381 0
M  V30 3573 C 338.711 -0.99512 -3.32738 0
M  V30 3574 C 337.665 -2.0767 -3.74242 0
M  V30 3575 C 336.991 -1.66474 -5.08125 0
M  V30 3576 C 338.291 -3.49318 -3.88297 0
M  V30 3577 H 339.985 -2.20046 -2.03027 0
M  V30 3578 H 337.531 -1.05931 -0.975425 0
M  V30 3579 H 339.484 -0.930323 -4.11002 0
M  V30 3580 H 338.208 -0.0183004 -3.26595 0
M  V30 3581 H 336.867 -2.13187 -2.98239 0
M  V30 3582 H 336.515 -0.675012 -4.9845 0
M  V30 3583 H 336.215 -2.3885 -5.36865 0
M  V30 3584 H 337.739 -1.61455 -5.88867 0
M  V30 3585 H 339.153 -3.46316 -4.56879 0
M  V30 3586 H 337.55 -4.20158 -4.28471 0
M  V30 3587 H 338.62 -3.8801 -2.9082 0
M  V30 3588 N 339.963 1.05934 -1.16686 0
M  V30 3589 C 340.911 2.15603 -0.872817 0
M  V30 3590 C 341.905 1.68647 0.159576 0
M  V30 3591 O 343.111 1.79995 0.0132125 0
M  V30 3592 H 339.486 0.703885 -0.264671 0
M  V30 3593 H 341.457 2.37613 -1.80507 0
M  V30 3594 C 340.206 3.45457 -0.394344 0
M  V30 3595 H 339.529 3.81984 -1.18019 0
M  V30 3596 H 340.969 4.2339 -0.227408 0
M  V30 3597 C 339.428 3.25021 0.88673 0
M  V30 3598 O 339.958 3.50906 1.95519 0
M  V30 3599 N 338.164 2.78437 0.831925 0
M  V30 3600 H 337.711 2.57572 -0.0377619 0
M  V30 3601 H 337.669 2.65144 1.68956 0
M  V30 3602 N 341.441 0.965919 1.2453 0
M  V30 3603 C 342.388 0.49402 2.25451 0
M  V30 3604 C 343.358 -0.45948 1.59618 0
M  V30 3605 O 344.543 -0.370238 1.87173 0
M  V30 3606 C 341.683 -0.211359 3.44452 0
M  V30 3607 C 340.796 0.7807 4.24887 0
M  V30 3608 C 339.931 0.0516105 5.31175 0
M  V30 3609 C 338.97 1.03385 6.03306 0
M  V30 3610 N 338.107 0.334887 7.01301 0
M  V30 3611 H 342.947 1.35946 2.65184 0
M  V30 3612 H 340.484 0.681515 1.3036 0
M  V30 3613 H 342.442 -0.637 4.12308 0
M  V30 3614 H 341.072 -1.04077 3.05562 0
M  V30 3615 H 340.124 1.32479 3.56586 0
M  V30 3616 H 341.436 1.52978 4.74762 0
M  V30 3617 H 340.59 -0.432114 6.05159 0
M  V30 3618 H 339.329 -0.730179 4.82203 0
M  V30 3619 H 338.334 1.52847 5.28127 0
M  V30 3620 H 339.559 1.81606 6.54367 0
M  V30 3621 H 337.505 -0.427959 6.54603 0
M  V30 3622 H 337.422 1.02287 7.49048 0
M  V30 3623 H 338.69 -0.126928 7.79397 0
M  V30 3624 N 342.919 -1.39368 0.735821 0
M  V30 3625 C 343.866 -2.30599 0.0963825 0
M  V30 3626 C 344.836 -1.49257 -0.728794 0
M  V30 3627 O 346.021 -1.77941 -0.688588 0
M  V30 3628 C 343.161 -3.35596 -0.804305 0
M  V30 3629 C 342.274 -4.31987 0.0335761 0
M  V30 3630 C 341.409 -5.24053 -0.868461 0
M  V30 3631 C 340.448 -6.12095 -0.0258776 0
M  V30 3632 N 339.585 -6.96514 -0.883893 0
M  V30 3633 H 344.425 -2.8471 0.880002 0
M  V30 3634 H 341.962 -1.40188 0.445619 0
M  V30 3635 H 343.92 -3.95062 -1.34096 0
M  V30 3636 H 342.55 -2.82938 -1.55389 0
M  V30 3637 H 341.602 -3.74133 0.68766 0
M  V30 3638 H 342.914 -4.94074 0.685036 0
M  V30 3639 H 342.068 -5.88549 -1.47293 0
M  V30 3640 H 340.807 -4.62289 -1.5537 0
M  V30 3641 H 339.812 -5.4661 0.591386 0
M  V30 3642 H 341.037 -6.75923 0.656156 0
M  V30 3643 H 338.983 -6.37318 -1.55441 0
M  V30 3644 H 338.9 -7.55448 -0.288931 0
M  V30 3645 H 340.168 -7.65439 -1.4739 0
M  V30 3646 N 344.397 -0.483516 -1.5 0
M  V30 3647 C 345.329 0.340634 -2.26655 0
M  V30 3648 C 346.342 0.946152 -1.32483 0
M  V30 3649 O 347.531 0.832453 -1.579 0
M  V30 3650 C 344.631 1.4929 -3.04246 0
M  V30 3651 C 343.804 0.997903 -4.25865 0
M  V30 3652 C 342.863 2.02569 -4.85646 0
M  V30 3653 O 341.889 1.60128 -5.46212 0
M  V30 3654 N 343.091 3.3548 -4.73744 0
M  V30 3655 H 345.856 -0.316577 -2.98023 0
M  V30 3656 H 343.417 -0.315024 -1.58806 0
M  V30 3657 H 345.409 2.17766 -3.41116 0
M  V30 3658 H 343.979 2.05458 -2.35597 0
M  V30 3659 H 343.199 0.138617 -3.93956 0
M  V30 3660 H 344.487 0.645305 -5.04691 0
M  V30 3661 H 343.885 3.72661 -4.25605 0
M  V30 3662 H 342.442 3.99718 -5.14848 0
M  V30 3663 N 345.875 1.56104 -0.216619 0
M  V30 3664 C 346.785 2.23694 0.706982 0
M  V30 3665 C 347.801 1.24295 1.21765 0
M  V30 3666 O 348.977 1.57094 1.2603 0
M  V30 3667 C 346.042 2.8998 1.90033 0
M  V30 3668 C 345.103 4.04708 1.43213 0
M  V30 3669 C 344.336 4.67824 2.56859 0
M  V30 3670 O 344.559 4.29913 3.74874 0
M  V30 3671 O 343.493 5.56905 2.28343 0
M  V30 3672 H 347.319 3.03272 0.161235 0
M  V30 3673 H 344.904 1.49394 0.0136177 0
M  V30 3674 H 346.786 3.31837 2.59735 0
M  V30 3675 H 345.461 2.13365 2.43428 0
M  V30 3676 H 344.368 3.6743 0.70327 0
M  V30 3677 H 345.701 4.83051 0.944615 0
M  V30 3678 N 347.353 -0.0568162 1.57498 0
M  V30 3679 C 348.578 -0.769402 1.92601 0
M  V30 3680 C 349.003 -1.69559 0.814336 0
M  V30 3681 O 348.361 -1.79811 -0.231903 0
M  V30 3682 C 348.409 -1.52634 3.26704 0
M  V30 3683 O 347.513 -2.63797 3.16994 0
M  V30 3684 H 346.854 -0.208909 0.63028 0
M  V30 3685 H 349.384 -0.0205798 2.0459 0
M  V30 3686 H 349.394 -1.90234 3.60936 0
M  V30 3687 H 348.069 -0.846875 4.07186 0
M  V30 3688 H 346.646 -2.28943 2.94346 0
M  V30 3689 N 348.832 -1.54138 -0.328536 0
M  V30 3690 C 349.742 -1.86192 -1.42723 0
M  V30 3691 C 350.758 -0.753382 -1.56844 0
M  V30 3692 O 351.934 -1.04718 -1.72035 0
M  V30 3693 C 348.999 -2.07824 -2.77507 0
M  V30 3694 C 348.06 -3.31641 -2.72603 0
M  V30 3695 C 347.293 -3.52232 -4.00959 0
M  V30 3696 O 347.516 -2.7636 -4.9898 0
M  V30 3697 O 346.45 -4.45699 -4.0452 0
M  V30 3698 H 350.276 -2.79608 -1.18547 0
M  V30 3699 H 347.861 -1.3998 -0.522104 0
M  V30 3700 H 349.743 -2.23411 -3.57303 0
M  V30 3701 H 348.418 -1.17596 -3.01584 0
M  V30 3702 H 347.325 -3.21444 -1.91376 0
M  V30 3703 H 348.658 -4.2191 -2.53481 0
M  V30 3704 N 350.31 0.590341 -1.46126 0
M  V30 3705 C 351.587 1.35029 -1.41515 0
M  V30 3706 C 351.967 2.10888 -0.0946472 0
M  V30 3707 O 351.315 2.08998 0.923693 0
M  V30 3708 C 351.525 2.28269 -2.63997 0
M  V30 3709 C 352.873 2.90338 -3.09821 0
M  V30 3710 O 353.897 2.38585 -2.64492 0
M  V30 3711 O 352.756 3.84321 -3.88535 0
M  V30 3712 H 349.85 0.606317 -0.562413 0
M  V30 3713 H 352.396 0.611994 -1.58281 0
M  V30 3714 H 351.168 1.71591 -3.51671 0
M  V30 3715 H 350.791 3.0945 -2.49652 0
M  V30 3716 N 351.788 1.33704 0.83433 0
M  V30 3717 C 353.016 1.28467 1.62185 0
M  V30 3718 C 353.431 -0.143526 1.88254 0
M  V30 3719 O 352.788 -1.08709 1.4659 0
M  V30 3720 C 352.839 2.06174 2.96942 0
M  V30 3721 O 352.56 3.43422 2.72016 0
M  V30 3722 C 354.061 2.08201 3.91366 0
M  V30 3723 H 351.281 0.4424 0.504503 0
M  V30 3724 H 353.825 1.76145 1.03891 0
M  V30 3725 H 351.98 1.62167 3.51825 0
M  V30 3726 H 352.394 3.83453 3.57861 0
M  V30 3727 H 353.868 2.67017 4.83121 0
M  V30 3728 H 354.345 1.07343 4.2588 0
M  V30 3729 H 354.951 2.52246 3.42421 0
M  V30 3730 N 353.266 -1.05314 1.17247 0
M  V30 3731 C 354.229 -2.112 0.890357 0
M  V30 3732 C 355.229 -1.60359 -0.118943 0
M  V30 3733 O 356.419 -1.73833 0.113086 0
M  V30 3734 C 353.551 -3.39266 0.333422 0
M  V30 3735 H 354.744 -2.37659 1.82916 0
M  V30 3736 H 352.297 -1.21538 0.982758 0
M  V30 3737 H 353.032 -3.18462 -0.612587 0
M  V30 3738 H 352.817 -3.77477 1.06082 0
M  V30 3739 H 354.307 -4.17315 0.154322 0
M  V30 3740 N 354.744 -0.972509 -1.24016 0
M  V30 3741 C 355.691 -0.505969 -2.25186 0
M  V30 3742 C 356.661 0.451009 -1.5986 0
M  V30 3743 O 357.846 0.360307 -1.87367 0
M  V30 3744 C 354.986 0.193089 -3.44559 0
M  V30 3745 C 354.099 -0.803222 -4.24467 0
M  V30 3746 C 353.234 -0.0797793 -5.3114 0
M  V30 3747 C 352.273 -1.06583 -6.02749 0
M  V30 3748 N 351.41 -0.372074 -7.01113 0
M  V30 3749 H 356.25 -1.37351 -2.64459 0
M  V30 3750 H 353.787 -0.688419 -1.29997 0
M  V30 3751 H 355.745 0.615125 -4.1264 0
M  V30 3752 H 354.375 1.02455 -3.06109 0
M  V30 3753 H 353.427 -1.34368 -3.55878 0
M  V30 3754 H 354.739 -1.55494 -4.73944 0
M  V30 3755 H 353.893 0.400015 -6.0538 0
M  V30 3756 H 352.632 0.704597 -4.82583 0
M  V30 3757 H 351.637 -1.55645 -5.27309 0
M  V30 3758 H 352.862 -1.85074 -6.53395 0
M  V30 3759 H 350.808 0.393238 -6.5482 0
M  V30 3760 H 350.725 -1.06258 -7.48495 0
M  V30 3761 H 351.993 0.0855932 -7.79453 0
M  V30 3762 N 356.222 1.38976 -0.743202 0
M  V30 3763 C 357.185 2.28901 -0.117014 0
M  V30 3764 C 358.185 1.46698 0.658503 0
M  V30 3765 O 359.375 1.67274 0.486305 0
M  V30 3766 C 356.507 3.30309 0.84315 0
M  V30 3767 H 357.7 2.8578 -0.909373 0
M  V30 3768 H 355.253 1.47761 -0.509547 0
M  V30 3769 H 355.988 2.785 1.66157 0
M  V30 3770 H 355.773 3.91029 0.289594 0
M  V30 3771 H 357.263 3.97577 1.2776 0
M  V30 3772 N 357.7 0.491464 1.49741 0
M  V30 3773 C 358.948 -0.0563141 2.02022 0
M  V30 3774 C 359.269 -1.38363 1.37407 0
M  V30 3775 O 358.539 -1.88702 0.526166 0
M  V30 3776 H 357.119 -0.0238014 0.746621 0
M  V30 3777 H 359.781 0.646533 1.83864 0
M  V30 3778 H 358.877 -0.192967 3.11503 0
M  V30 3779 N 359.178 -1.55987 0.224894 0
M  V30 3780 C 360.425 -1.9839 -0.4059 0
M  V30 3781 C 360.753 -1.11261 -1.59535 0
M  V30 3782 O 360.008 -0.158314 -1.95059 0
M  V30 3783 C 360.307 -3.46394 -0.880106 0
M  V30 3784 C 359.973 -4.5046 0.19918 0
M  V30 3785 C 358.635 -4.7864 0.495661 0
M  V30 3786 C 360.987 -5.12855 0.928939 0
M  V30 3787 C 358.315 -5.66497 1.52636 0
M  V30 3788 C 360.667 -6.01828 1.949 0
M  V30 3789 C 359.331 -6.28351 2.25236 0
M  V30 3790 H 358.601 -0.725961 -0.148529 0
M  V30 3791 H 361.248 -1.88668 0.328113 0
M  V30 3792 H 359.553 -3.53337 -1.69294 0
M  V30 3793 H 361.25 -3.76577 -1.37808 0
M  V30 3794 H 357.84 -4.28579 -0.0420526 0
M  V30 3795 H 362.024 -4.9115 0.713129 0
M  V30 3796 H 357.28 -5.8531 1.76698 0
M  V30 3797 H 361.454 -6.49225 2.51951 0
M  V30 3798 H 359.081 -6.96226 3.05244 0
M  V30 3799 N 360.656 0.0484629 -1.57525 0
M  V30 3800 C 361.902 0.738854 -1.89506 0
M  V30 3801 C 362.257 1.73989 -0.821319 0
M  V30 3802 O 361.55 1.90825 0.172129 0
M  V30 3803 C 361.744 1.46632 -3.25935 0
M  V30 3804 C 361.573 0.537254 -4.46479 0
M  V30 3805 C 360.343 0.165484 -5.05029 0
M  V30 3806 C 362.541 -0.176085 -5.13998 0
M  V30 3807 N 360.523 -0.766868 -6.09091 0
M  V30 3808 C 361.894 -0.96478 -6.12448 0
M  V30 3809 C 363.949 -0.24509 -4.97296 0
M  V30 3810 C 362.652 -1.8161 -6.95996 0
M  V30 3811 C 364.678 -1.08347 -5.81391 0
M  V30 3812 C 364.04 -1.86014 -6.79395 0
M  V30 3813 H 360.139 0.245067 -0.742608 0
M  V30 3814 H 362.723 -0.000476161 -1.947 0
M  V30 3815 H 360.894 2.17623 -3.21706 0
M  V30 3816 H 362.626 2.10757 -3.45491 0
M  V30 3817 H 359.381 0.523466 -4.70698 0
M  V30 3818 H 359.805 -1.22698 -6.65788 0
M  V30 3819 H 364.447 0.341063 -4.21422 0
M  V30 3820 H 362.165 -2.41313 -7.71229 0
M  V30 3821 H 365.751 -1.14014 -5.70519 0
M  V30 3822 H 364.631 -2.4984 -7.43337 0
M  V30 3823 N 362.134 1.5431 0.320358 0
M  V30 3824 C 363.044 1.86946 1.41734 0
M  V30 3825 C 364.06 0.761689 1.56443 0
M  V30 3826 O 365.236 1.05629 1.71477 0
M  V30 3827 C 362.301 2.09293 2.76401 0
M  V30 3828 C 361.362 3.33082 2.70841 0
M  V30 3829 C 360.595 3.54353 3.99086 0
M  V30 3830 O 360.818 2.79002 4.97508 0
M  V30 3831 O 359.752 4.47838 4.0215 0
M  V30 3832 H 363.578 2.80232 1.17062 0
M  V30 3833 H 361.163 1.40255 0.514673 0
M  V30 3834 H 363.045 2.25303 3.56113 0
M  V30 3835 H 361.72 1.19194 3.00956 0
M  V30 3836 H 360.627 3.22454 1.89668 0
M  V30 3837 H 361.96 4.23249 2.5124 0
M  V30 3838 N 363.613 -0.582584 1.46437 0
M  V30 3839 C 364.523 -1.71949 1.59595 0
M  V30 3840 C 365.539 -1.67264 0.479443 0
M  V30 3841 O 366.715 -1.87171 0.743579 0
M  V30 3842 C 363.78 -3.08452 1.58298 0
M  V30 3843 C 362.841 -3.244 2.81182 0
M  V30 3844 C 362.074 -4.54391 2.79937 0
M  V30 3845 O 362.297 -5.38287 1.8869 0
M  V30 3846 O 361.231 -4.73588 3.71481 0
M  V30 3847 H 365.057 -1.63795 2.55744 0
M  V30 3848 H 362.642 -0.749643 1.29231 0
M  V30 3849 H 364.524 -3.89732 1.60271 0
M  V30 3850 H 363.199 -3.17043 0.653094 0
M  V30 3851 H 362.106 -2.42613 2.84763 0
M  V30 3852 H 363.439 -3.20699 3.7338 0
M  V30 3853 N 365.091 -1.34144 -0.827227 0
M  V30 3854 C 366.338 -1.26258 -1.58319 0
M  V30 3855 C 366.666 0.168595 -1.93768 0
M  V30 3856 O 365.921 1.12877 -1.59866 0
M  V30 3857 C 366.22 -2.09464 -2.89585 0
M  V30 3858 C 365.886 -3.58521 -2.73448 0
M  V30 3859 C 364.548 -3.99155 -2.68754 0
M  V30 3860 C 366.9 -4.53189 -2.57428 0
M  V30 3861 C 364.228 -5.32656 -2.45957 0
M  V30 3862 C 366.58 -5.86864 -2.36163 0
M  V30 3863 C 365.244 -6.26667 -2.29879 0
M  V30 3864 H 364.514 -0.462013 -0.579332 0
M  V30 3865 H 367.161 -1.65845 -0.95748 0
M  V30 3866 H 365.466 -1.62692 -3.56425 0
M  V30 3867 H 367.163 -2.00712 -3.47154 0
M  V30 3868 H 363.753 -3.26264 -2.77939 0
M  V30 3869 H 367.937 -4.22696 -2.60081 0
M  V30 3870 H 363.193 -5.62519 -2.39546 0
M  V30 3871 H 367.367 -6.59813 -2.22754 0
M  V30 3872 H 364.994 -7.30049 -2.11975 0
M  V30 3873 N 366.569 1.04691 -1.17803 0
M  V30 3874 C 367.479 2.16057 -0.914151 0
M  V30 3875 C 368.495 1.73589 0.119503 0
M  V30 3876 O 369.671 2.01308 -0.0609468 0
M  V30 3877 C 366.736 3.4394 -0.436603 0
M  V30 3878 C 365.797 4.00825 -1.53746 0
M  V30 3879 C 365.03 5.22604 -1.0826 0
M  V30 3880 O 365.253 5.70367 0.0612244 0
M  V30 3881 O 364.187 5.7186 -1.87775 0
M  V30 3882 H 368.013 2.41169 -1.84584 0
M  V30 3883 H 365.598 1.1453 -0.959334 0
M  V30 3884 H 367.48 4.21024 -0.178057 0
M  V30 3885 H 366.155 3.20316 0.466869 0
M  V30 3886 H 365.062 3.25158 -1.84995 0
M  V30 3887 H 366.395 4.28778 -2.41683 0
M  V30 3888 N 368.047 0.979072 1.23499 0
M  V30 3889 C 369.272 0.664845 1.96455 0
M  V30 3890 C 369.697 -0.761287 1.72006 0
M  V30 3891 O 369.055 -1.51837 0.990713 0
M  V30 3892 C 369.103 0.959479 3.47601 0
M  V30 3893 O 368.207 0.0508168 4.12369 0
M  V30 3894 H 367.548 0.250185 0.615064 0
M  V30 3895 H 370.078 1.31231 1.5697 0
M  V30 3896 H 370.088 0.895642 3.98048 0
M  V30 3897 H 368.763 1.99876 3.64723 0
M  V30 3898 H 367.34 0.16895 3.72517 0
M  V30 3899 N 369.525 -1.3858 0.750561 0
M  V30 3900 C 370.455 -2.33102 0.136237 0
M  V30 3901 C 371.436 -1.54713 -0.706965 0
M  V30 3902 O 372.621 -1.83043 -0.648769 0
M  V30 3903 C 369.751 -3.38882 -0.760017 0
M  V30 3904 C 368.705 -4.27995 -0.0197785 0
M  V30 3905 C 368.031 -5.24605 -1.03408 0
M  V30 3906 C 369.331 -5.09554 1.14684 0
M  V30 3907 H 371.025 -2.84726 0.925822 0
M  V30 3908 H 368.571 -1.36898 0.446654 0
M  V30 3909 H 370.524 -4.0397 -1.19943 0
M  V30 3910 H 369.248 -2.85734 -1.58189 0
M  V30 3911 H 367.907 -3.64409 0.400184 0
M  V30 3912 H 367.555 -4.67746 -1.84994 0
M  V30 3913 H 367.255 -5.85081 -0.543464 0
M  V30 3914 H 368.779 -5.9257 -1.47288 0
M  V30 3915 H 370.193 -5.67899 0.785118 0
M  V30 3916 H 368.59 -5.7925 1.56812 0
M  V30 3917 H 369.66 -4.4347 1.96118 0
M  V30 3918 N 371.003 -0.499398 -1.49478 0
M  V30 3919 C 371.935 0.316575 -2.27003 0
M  V30 3920 C 372.948 0.932047 -1.33479 0
M  V30 3921 O 374.137 0.815658 -1.58774 0
M  V30 3922 C 371.237 1.46055 -3.05812 0
M  V30 3923 C 370.41 0.952679 -4.26899 0
M  V30 3924 C 369.469 1.97407 -4.87767 0
M  V30 3925 O 368.495 1.54326 -5.4788 0
M  V30 3926 N 369.697 3.30436 -4.77276 0
M  V30 3927 H 372.462 -0.348168 -2.97671 0
M  V30 3928 H 370.023 -0.33185 -1.58463 0
M  V30 3929 H 372.015 2.14135 -3.43407 0
M  V30 3930 H 370.585 2.02948 -2.37762 0
M  V30 3931 H 369.805 0.0968248 -3.94081 0
M  V30 3932 H 371.093 0.59174 -5.05347 0
M  V30 3933 H 370.491 3.68126 -4.29534 0
M  V30 3934 H 369.048 3.94235 -5.19059 0
M  V30 3935 N 372.481 1.55866 -0.233164 0
M  V30 3936 C 373.428 2.20796 0.67215 0
M  V30 3937 C 374.398 1.16731 1.18166 0
M  V30 3938 O 375.583 1.45129 1.23864 0
M  V30 3939 C 372.723 2.90072 1.86955 0
M  V30 3940 C 371.836 4.08759 1.39786 0
M  V30 3941 C 370.971 4.65787 2.55374 0
M  V30 3942 C 370.01 5.76752 2.04998 0
M  V30 3943 N 369.147 6.28021 3.13901 0
M  V30 3944 H 373.987 2.9779 0.111749 0
M  V30 3945 H 371.524 1.47036 0.0434007 0
M  V30 3946 H 373.482 3.28428 2.57276 0
M  V30 3947 H 372.112 2.15575 2.40265 0
M  V30 3948 H 371.164 3.7581 0.589173 0
M  V30 3949 H 372.476 4.88906 0.98856 0
M  V30 3950 H 371.63 5.06646 3.33758 0
M  V30 3951 H 370.369 3.84828 2.99598 0
M  V30 3952 H 369.374 5.35383 1.25079 0
M  V30 3953 H 370.599 6.59553 1.61759 0
M  V30 3954 H 368.545 5.49971 3.57586 0
M  V30 3955 H 368.462 7.03323 2.7726 0
M  V30 3956 H 369.73 6.73538 3.92386 0
M  V30 3957 N 373.959 -0.0401083 1.57549 0
M  V30 3958 C 374.891 -1.07149 2.02612 0
M  V30 3959 C 375.904 -1.33126 0.937085 0
M  V30 3960 O 377.093 -1.30808 1.21456 0
M  V30 3961 C 374.193 -2.41561 2.37701 0
M  V30 3962 C 373.366 -2.35096 3.68848 0
M  V30 3963 C 372.425 -3.51867 3.91249 0
M  V30 3964 O 371.451 -3.3186 4.62447 0
M  V30 3965 N 372.653 -4.73351 3.36035 0
M  V30 3966 H 375.418 -0.687485 2.91708 0
M  V30 3967 H 372.979 -0.228248 1.60283 0
M  V30 3968 H 374.971 -3.18379 2.49833 0
M  V30 3969 H 373.541 -2.71846 1.54332 0
M  V30 3970 H 372.761 -1.4345 3.67173 0
M  V30 3971 H 374.049 -2.27908 4.54901 0
M  V30 3972 H 373.447 -4.92507 2.78304 0
M  V30 3973 H 372.004 -5.47572 3.53565 0
M  V30 3974 N 375.437 -1.54477 -0.31217 0
M  V30 3975 C 376.347 -1.87695 -1.4074 0
M  V30 3976 C 377.363 -0.769975 -1.56036 0
M  V30 3977 O 378.539 -1.06537 -1.70915 0
M  V30 3978 C 375.604 -2.10755 -2.75287 0
M  V30 3979 C 374.665 -3.34514 -2.69071 0
M  V30 3980 C 373.898 -3.56465 -3.97201 0
M  V30 3981 O 374.121 -2.81637 -4.96021 0
M  V30 3982 O 373.055 -4.49964 -3.9977 0
M  V30 3983 H 376.881 -2.80849 -1.15574 0
M  V30 3984 H 374.466 -1.40526 -0.507228 0
M  V30 3985 H 376.348 -2.27188 -3.54913 0
M  V30 3986 H 375.023 -1.20788 -3.0032 0
M  V30 3987 H 373.93 -3.23456 -1.87955 0
M  V30 3988 H 375.263 -4.24575 -2.48992 0
M  V30 3989 N 376.915 0.57481 -1.46744 0
M  V30 3990 C 378.161 1.3347 -1.52688 0
M  V30 3991 C 378.494 1.93353 -0.181229 0
M  V30 3992 O 377.769 1.76912 0.808237 0
M  V30 3993 C 378.052 2.45811 -2.63152 0
M  V30 3994 C 377.905 1.90912 -4.07275 0
M  V30 3995 C 379.224 3.47822 -2.69644 0
M  V30 3996 H 376.343 0.483935 -0.555856 0
M  V30 3997 H 378.985 0.644968 -1.78718 0
M  V30 3998 H 377.135 3.04646 -2.41088 0
M  V30 3999 H 378.807 1.36473 -4.4065 0
M  V30 4000 H 377.05 1.21691 -4.16382 0
M  V30 4001 H 377.721 2.72042 -4.80309 0
M  V30 4002 H 380.197 2.9888 -2.895 0
M  V30 4003 H 379.073 4.23876 -3.48742 0
M  V30 4004 H 379.334 4.05555 -1.76005 0
M  V30 4005 N 378.394 1.34581 0.820102 0
M  V30 4006 C 379.341 1.2639 1.93117 0
M  V30 4007 C 380.311 0.138554 1.65521 0
M  V30 4008 O 381.496 0.320004 1.88097 0
M  V30 4009 C 378.636 1.02812 3.29429 0
M  V30 4010 C 377.749 2.24146 3.693 0
M  V30 4011 C 376.884 1.93829 4.94574 0
M  V30 4012 C 375.923 3.1129 5.27034 0
M  V30 4013 N 375.06 2.80838 6.43486 0
M  V30 4014 H 379.9 2.21408 1.99455 0
M  V30 4015 H 377.437 1.10077 0.975784 0
M  V30 4016 H 379.395 0.871788 4.0799 0
M  V30 4017 H 378.025 0.114612 3.22596 0
M  V30 4018 H 377.077 2.50691 2.86109 0
M  V30 4019 H 378.389 3.11899 3.89257 0
M  V30 4020 H 377.543 1.74948 5.80929 0
M  V30 4021 H 376.282 1.03341 4.76626 0
M  V30 4022 H 375.287 3.30764 4.39175 0
M  V30 4023 H 376.512 4.02561 5.4692 0
M  V30 4024 H 374.458 1.92929 6.26988 0
M  V30 4025 H 374.375 3.62123 6.63629 0
M  V30 4026 H 375.643 2.65467 7.32903 0
M  V30 4027 N 379.872 -1.04064 1.18357 0
M  V30 4028 C 380.82 -2.14187 0.907007 0
M  V30 4029 C 381.814 -1.68879 -0.132725 0
M  V30 4030 O 383.02 -1.79993 0.0154248 0
M  V30 4031 H 379.395 -0.699585 0.275835 0
M  V30 4032 H 381.366 -2.34711 1.84264 0
M  V30 4033 C 380.115 -3.44785 0.449254 0
M  V30 4034 H 379.438 -3.80058 1.24081 0
M  V30 4035 H 380.878 -4.22974 0.294737 0
M  V30 4036 C 379.337 -3.26391 -0.834909 0
M  V30 4037 O 379.867 -3.53973 -1.89911 0
M  V30 4038 N 378.073 -2.79726 -0.787523 0
M  V30 4039 H 377.62 -2.5748 0.0787347 0
M  V30 4040 H 377.578 -2.67798 -1.64716 0
M  V30 4041 N 381.35 -0.985608 -1.22978 0
M  V30 4042 C 382.28 -0.549649 -2.26939 0
M  V30 4043 C 383.261 0.419803 -1.64838 0
M  V30 4044 O 384.446 0.31203 -1.91677 0
M  V30 4045 C 381.576 0.143652 -3.47003 0
M  V30 4046 C 380.53 -0.743606 -4.21491 0
M  V30 4047 C 379.856 0.0822027 -5.34637 0
M  V30 4048 C 381.156 -2.03694 -4.80943 0
M  V30 4049 H 382.85 -1.41862 -2.63658 0
M  V30 4050 H 380.396 -0.683571 -1.26741 0
M  V30 4051 H 382.349 0.459985 -4.18882 0
M  V30 4052 H 381.073 1.04711 -3.09359 0
M  V30 4053 H 379.732 -1.04347 -3.51436 0
M  V30 4054 H 379.38 0.986359 -4.93234 0
M  V30 4055 H 379.08 -0.508377 -5.85397 0
M  V30 4056 H 380.604 0.392797 -6.09335 0
M  V30 4057 H 382.018 -1.78504 -5.44802 0
M  V30 4058 H 380.415 -2.57573 -5.42011 0
M  V30 4059 H 381.485 -2.72042 -4.01399 0
M  V30 4060 N 382.828 1.3818 -0.7579 0
M  V30 4061 C 383.778 2.27741 -0.108674 0
M  V30 4062 C 384.762 1.45415 0.688709 0
M  V30 4063 O 385.954 1.68108 0.553956 0
M  V30 4064 C 383.083 3.34313 0.780367 0
M  V30 4065 C 382.169 4.24093 -0.0240977 0
M  V30 4066 N 382.56 4.9451 -1.06271 0
M  V30 4067 C 380.858 4.45542 0.202049 0
M  V30 4068 C 381.559 5.60675 -1.54979 0
M  V30 4069 N 380.535 5.36684 -0.864348 0
M  V30 4070 H 384.337 2.79649 -0.904071 0
M  V30 4071 H 381.851 1.51133 -0.594346 0
M  V30 4072 H 383.848 3.97368 1.26114 0
M  V30 4073 H 382.508 2.83962 1.57467 0
M  V30 4074 H 383.519 4.97345 -1.44459 0
M  V30 4075 H 380.196 4.06091 0.96935 0
M  V30 4076 H 381.586 6.26992 -2.41517 0
M  V30 4077 N 384.306 0.507319 1.49211 0
M  V30 4078 C 385.238 -0.304532 2.27168 0
M  V30 4079 C 386.251 -0.924956 1.33972 0
M  V30 4080 O 387.44 -0.807227 1.59205 0
M  V30 4081 C 384.54 -1.44431 3.06583 0
M  V30 4082 C 383.713 -0.930026 4.27398 0
M  V30 4083 C 382.772 -1.94817 4.88807 0
M  V30 4084 O 381.798 -1.51418 5.4869 0
M  V30 4085 N 383 -3.279 4.79022 0
M  V30 4086 H 385.765 0.36395 2.97482 0
M  V30 4087 H 383.326 0.340249 1.58284 0
M  V30 4088 H 385.318 -2.12311 3.44537 0
M  V30 4089 H 383.888 -2.01684 2.38835 0
M  V30 4090 H 383.108 -0.0759244 3.94127 0
M  V30 4091 H 384.396 -0.564932 5.05654 0
M  V30 4092 H 383.794 -3.65843 4.3148 0
M  V30 4093 H 382.351 -3.91476 5.21142 0
M  V30 4094 N 385.784 -1.5574 0.241426 0
M  V30 4095 C 387.2 -1.59196 -0.113548 0
M  V30 4096 C 387.4 -1.25852 -1.57364 0
M  V30 4097 O 386.456 -1.00322 -2.31715 0
M  V30 4098 C 387.769 -2.99814 0.230695 0
M  V30 4099 C 389.317 -3.12513 0.174547 0
M  V30 4100 C 389.792 -4.55342 0.492744 0
M  V30 4101 N 391.283 -4.61076 0.443043 0
M  V30 4102 C 392.018 -5.6956 0.662484 0
M  V30 4103 N 391.514 -6.86328 0.944761 0
M  V30 4104 N 393.307 -5.58957 0.593564 0
M  V30 4105 H 385.458 -1.75685 1.19368 0
M  V30 4106 H 387.721 -0.81756 0.479896 0
M  V30 4107 H 387.427 -3.28932 1.24485 0
M  V30 4108 H 387.301 -3.74568 -0.444833 0
M  V30 4109 H 389.688 -2.83179 -0.830277 0
M  V30 4110 H 389.769 -2.40045 0.883845 0
M  V30 4111 H 389.413 -4.85396 1.4951 0
M  V30 4112 H 389.343 -5.26062 -0.23797 0
M  V30 4113 H 391.834 -3.77179 0.233374 0
M  V30 4114 H 392.147 -7.64935 1.09977 0
M  V30 4115 H 390.492 -6.88025 0.982175 0
M  V30 4116 H 393.683 -4.66611 0.373123 0
M  V30 4117 H 393.856 -6.43433 0.767981 0
M  V30 4118 N 387.262 0.0317525 -1.57568 0
M  V30 4119 C 388.192 1.03274 -2.0942 0
M  V30 4120 C 389.173 1.3788 -0.996143 0
M  V30 4121 O 390.358 1.46811 -1.27122 0
M  V30 4122 C 387.488 2.33448 -2.57137 0
M  V30 4123 C 386.442 2.13091 -3.71182 0
M  V30 4124 C 385.768 3.49001 -4.05095 0
M  V30 4125 C 387.068 1.51928 -4.99715 0
M  V30 4126 H 388.762 0.60112 -2.93303 0
M  V30 4127 H 386.308 0.287705 -1.41097 0
M  V30 4128 H 388.261 3.03802 -2.92032 0
M  V30 4129 H 386.985 2.78665 -1.70333 0
M  V30 4130 H 385.644 1.45171 -3.36632 0
M  V30 4131 H 385.292 3.91862 -3.15362 0
M  V30 4132 H 384.992 3.36207 -4.81911 0
M  V30 4133 H 386.516 4.20721 -4.42522 0
M  V30 4134 H 387.93 2.12196 -5.32584 0
M  V30 4135 H 386.327 1.49716 -5.81124 0
M  V30 4136 H 387.397 0.484811 -4.8247 0
M  V30 4137 N 388.74 1.54641 0.303973 0
M  V30 4138 C 389.65 1.88439 1.39743 0
M  V30 4139 C 390.666 0.778239 1.55626 0
M  V30 4140 O 391.842 1.07442 1.70347 0
M  V30 4141 C 388.907 2.12212 2.74166 0
M  V30 4142 C 387.968 3.35936 2.67293 0
M  V30 4143 C 387.201 3.58566 3.95305 0
M  V30 4144 O 387.424 2.84263 4.9452 0
M  V30 4145 O 386.358 4.52078 3.97378 0
M  V30 4146 H 390.184 2.81458 1.14083 0
M  V30 4147 H 387.769 1.40793 0.499768 0
M  V30 4148 H 389.651 2.29067 3.53704 0
M  V30 4149 H 388.326 1.22379 2.99675 0
M  V30 4150 H 387.233 3.24448 1.86237 0
M  V30 4151 H 388.566 4.2589 2.46736 0
M  V30 4152 N 390.218 -0.567019 1.47046 0
M  V30 4153 C 391.466 -1.322 1.52864 0
M  V30 4154 C 391.787 -1.94088 0.188388 0
M  V30 4155 O 391.057 -1.7941 -0.786693 0
M  V30 4156 H 389.637 -0.490894 0.563056 0
M  V30 4157 H 392.299 -0.662879 1.83281 0
M  V30 4158 H 391.395 -2.12062 2.2899 0
M  V30 4159 N 391.696 -1.35014 -0.812953 0
M  V30 4160 C 392.628 -1.23262 -1.93233 0
M  V30 4161 C 393.641 -0.157371 -1.62038 0
M  V30 4162 O 394.83 -0.410096 -1.73725 0
M  V30 4163 C 391.93 -0.87392 -3.27438 0
M  V30 4164 C 391.103 -2.04622 -3.86586 0
M  V30 4165 C 390.162 -1.66432 -4.99186 0
M  V30 4166 O 389.188 -2.38222 -5.16951 0
M  V30 4167 N 390.39 -0.584248 -5.77552 0
M  V30 4168 H 393.155 -2.19699 -2.03844 0
M  V30 4169 H 390.716 -1.281 -0.99005 0
M  V30 4170 H 392.708 -0.600039 -4.00227 0
M  V30 4171 H 391.278 0.00057392 -3.126 0
M  V30 4172 H 390.498 -2.48427 -3.06068 0
M  V30 4173 H 391.786 -2.82999 -4.22835 0
M  V30 4174 H 391.184 0.0123526 -5.65699 0
M  V30 4175 H 389.741 -0.37013 -6.50748 0
M  V30 4176 N 393.175 1.03435 -1.18907 0
M  V30 4177 C 394.591 1.28973 -0.940111 0
M  V30 4178 C 394.791 1.97676 0.390691 0
M  V30 4179 O 393.847 2.26127 1.12352 0
M  V30 4180 C 395.16 2.14221 -2.11021 0
M  V30 4181 C 396.708 2.27547 -2.14922 0
M  V30 4182 C 397.183 3.16164 -3.31367 0
M  V30 4183 N 398.674 3.23752 -3.31269 0
M  V30 4184 C 399.409 3.92495 -4.18014 0
M  V30 4185 N 398.905 4.63515 -5.14904 0
M  V30 4186 N 400.698 3.88838 -4.05908 0
M  V30 4187 H 392.849 0.57252 -2.04538 0
M  V30 4188 H 395.112 0.315184 -0.894071 0
M  V30 4189 H 394.818 1.71054 -3.073 0
M  V30 4190 H 394.692 3.14919 -2.0762 0
M  V30 4191 H 397.079 2.69947 -1.19217 0
M  V30 4192 H 397.16 1.26418 -2.22378 0
M  V30 4193 H 396.804 2.74474 -4.27348 0
M  V30 4194 H 396.734 4.17339 -3.21148 0
M  V30 4195 H 399.225 2.73167 -2.61129 0
M  V30 4196 H 399.538 5.13583 -5.77453 0
M  V30 4197 H 397.883 4.62398 -5.18857 0
M  V30 4198 H 401.074 3.32491 -3.29495 0
M  V30 4199 H 401.247 4.4214 -4.73726 0
M  V30 4200 N 394.653 0.992116 1.22453 0
M  V30 4201 C 396.064 0.702776 1.72968 0
M  V30 4202 C 396.415 -0.780399 1.80012 0
M  V30 4203 O 395.54 -1.61007 1.44589 0
M  V30 4204 C 396.135 1.26903 3.14135 0
M  V30 4205 C 394.694 1.02909 3.62059 0
M  V30 4206 C 393.841 1.38969 2.39964 0
M  V30 4207 H 396.792 1.16457 1.07812 0
M  V30 4208 H 396.813 0.647223 3.74955 0
M  V30 4209 H 396.325 2.34851 3.08977 0
M  V30 4210 H 394.426 -0.0337979 3.72585 0
M  V30 4211 H 394.539 1.69191 4.48231 0
M  V30 4212 H 392.903 0.808279 2.41535 0
M  V30 4213 H 393.686 2.4792 2.37467 0
M  V30 4214 N 396.131 -1.37776 0.765217 0
M  V30 4215 C 397.041 -2.34135 0.147666 0
M  V30 4216 C 398.057 -1.59854 -0.687215 0
M  V30 4217 O 399.233 -1.91983 -0.608659 0
M  V30 4218 C 396.298 -3.3901 -0.72617 0
M  V30 4219 C 395.359 -4.2912 0.124417 0
M  V30 4220 C 394.592 -5.28986 -0.707807 0
M  V30 4221 O 394.815 -5.36205 -1.94525 0
M  V30 4222 O 393.749 -6.01779 -0.12046 0
M  V30 4223 H 397.575 -2.88664 0.943758 0
M  V30 4224 H 395.16 -1.39824 0.526277 0
M  V30 4225 H 397.042 -4.03195 -1.22524 0
M  V30 4226 H 395.717 -2.86819 -1.50056 0
M  V30 4227 H 394.624 -3.68057 0.669696 0
M  V30 4228 H 395.957 -4.84598 0.861736 0
M  V30 4229 N 397.609 -0.515225 -1.4894 0
M  V30 4230 C 398.557 0.269115 -2.31038 0
M  V30 4231 C 399.551 0.949443 -1.40292 0
M  V30 4232 O 400.757 0.87551 -1.57273 0
M  V30 4233 H 397.132 0.10565 -0.744542 0
M  V30 4234 H 399.103 -0.443096 -2.95092 0
M  V30 4235 C 397.852 1.31213 -3.21991 0
M  V30 4236 H 397.175 0.798034 -3.91754 0
M  V30 4237 H 398.615 1.83263 -3.82349 0
M  V30 4238 C 397.074 2.33791 -2.42576 0
M  V30 4239 O 397.604 3.3995 -2.14003 0
M  V30 4240 N 395.81 2.06625 -2.0434 0
M  V30 4241 H 395.357 1.20314 -2.27777 0
M  V30 4242 H 395.315 2.75483 -1.51514 0
M  V30 4243 N 399.087 1.5561 -0.249682 0
M  V30 4244 C 400.034 2.21496 0.648694 0
M  V30 4245 C 401.004 1.17977 1.16921 0
M  V30 4246 O 402.189 1.46434 1.22318 0
M  V30 4247 C 399.329 2.92039 1.83868 0
M  V30 4248 C 398.442 4.10219 1.35442 0
M  V30 4249 C 397.577 4.6847 2.50419 0
M  V30 4250 C 396.616 5.78893 1.98869 0
M  V30 4251 N 395.753 6.31315 3.07223 0
M  V30 4252 H 400.593 2.97892 0.0801582 0
M  V30 4253 H 398.13 1.47074 0.0278031 0
M  V30 4254 H 400.088 3.31138 2.53778 0
M  V30 4255 H 398.718 2.18111 2.37965 0
M  V30 4256 H 397.77 3.76413 0.54928 0
M  V30 4257 H 399.082 4.89927 0.936649 0
M  V30 4258 H 398.236 5.10158 3.28366 0
M  V30 4259 H 396.975 3.87984 2.95499 0
M  V30 4260 H 395.98 5.3668 1.19393 0
M  V30 4261 H 397.205 6.61232 1.54755 0
M  V30 4262 H 395.151 5.53733 3.51732 0
M  V30 4263 H 395.068 7.06224 2.69784 0
M  V30 4264 H 396.336 6.77662 3.8522 0
M  V30 4265 N 400.565 -0.0233959 1.57583 0
M  V30 4266 C 401.813 -0.711654 1.89156 0
M  V30 4267 C 402.134 -1.75591 0.848096 0
M  V30 4268 O 401.404 -1.95547 -0.117566 0
M  V30 4269 H 399.984 -0.265835 0.698098 0
M  V30 4270 H 402.646 0.0119948 1.94896 0
M  V30 4271 H 401.742 -1.19766 2.88206 0
M  V30 4272 N 402.043 -1.548 -0.295768 0
M  V30 4273 C 402.99 -1.86113 -1.36494 0
M  V30 4274 C 403.96 -0.7105 -1.50137 0
M  V30 4275 O 405.145 -0.959626 -1.64912 0
M  V30 4276 C 402.285 -2.11861 -2.72413 0
M  V30 4277 C 401.398 -3.39471 -2.67177 0
M  V30 4278 C 400.533 -3.55035 -3.95125 0
M  V30 4279 C 399.572 -4.76418 -3.84308 0
M  V30 4280 N 398.709 -4.8876 -5.04042 0
M  V30 4281 H 403.549 -2.77314 -1.09091 0
M  V30 4282 H 401.086 -1.37315 -0.52753 0
M  V30 4283 H 403.044 -2.24786 -3.51464 0
M  V30 4284 H 401.674 -1.2392 -2.98066 0
M  V30 4285 H 400.726 -3.35139 -1.79962 0
M  V30 4286 H 402.038 -4.28646 -2.55076 0
M  V30 4287 H 401.192 -3.67653 -4.82614 0
M  V30 4288 H 399.931 -2.64002 -4.10066 0
M  V30 4289 H 398.936 -4.63827 -2.95202 0
M  V30 4290 H 400.161 -5.68863 -3.70906 0
M  V30 4291 H 398.107 -4.00652 -5.19436 0
M  V30 4292 H 398.024 -5.71945 -4.94384 0
M  V30 4293 H 399.292 -5.0574 -5.93167 0
M  V30 4294 N 403.521 0.559213 -1.47345 0
M  V30 4295 C 404.469 1.68747 -1.60085 0
M  V30 4296 C 405.463 1.628 -0.46825 0
M  V30 4297 O 406.669 1.68009 -0.645977 0
M  V30 4298 H 403.044 0.558329 -0.503759 0
M  V30 4299 H 405.015 1.55138 -2.54902 0
M  V30 4300 C 403.764 3.07103 -1.63042 0
M  V30 4301 H 403.087 3.12361 -2.49541 0
M  V30 4302 H 404.527 3.85743 -1.76006 0
M  V30 4303 C 402.986 3.34935 -0.363357 0
M  V30 4304 O 403.516 3.98102 0.536416 0
M  V30 4305 N 401.722 2.89574 -0.244 0
M  V30 4306 H 401.269 2.38348 -0.977133 0
M  V30 4307 H 401.227 3.08566 0.602836 0
M  V30 4308 N 404.999 1.35443 0.805782 0
M  V30 4309 C 406.415 1.15499 1.10146 0
M  V30 4310 C 406.615 -0.0319975 2.01475 0
M  V30 4311 O 405.671 -0.70236 2.42535 0
M  V30 4312 C 406.984 2.45833 1.73166 0
M  V30 4313 C 408.532 2.52047 1.85583 0
M  V30 4314 C 409.007 3.82427 2.52019 0
M  V30 4315 N 410.498 3.83682 2.59504 0
M  V30 4316 C 411.233 4.81294 3.11679 0
M  V30 4317 N 410.729 5.89294 3.64287 0
M  V30 4318 N 412.522 4.6873 3.1024 0
M  V30 4319 H 404.673 2.11469 0.198678 0
M  V30 4320 H 406.936 0.93594 0.150731 0
M  V30 4321 H 406.642 3.32874 1.13526 0
M  V30 4322 H 406.516 2.6044 2.72857 0
M  V30 4323 H 408.903 1.65435 2.44367 0
M  V30 4324 H 408.984 2.41354 0.847455 0
M  V30 4325 H 408.628 4.69437 1.93885 0
M  V30 4326 H 408.558 3.90409 3.53395 0
M  V30 4327 H 411.049 3.05648 2.22234 0
M  V30 4328 H 411.362 6.59768 4.02401 0
M  V30 4329 H 409.707 5.92985 3.62483 0
M  V30 4330 H 412.898 3.83496 2.68419 0
M  V30 4331 H 413.071 5.44965 3.50596 0
M  V30 4332 N 406.477 -1.02803 1.19454 0
M  V30 4333 C 407.707 -1.79581 1.02149 0
M  V30 4334 C 408.115 -1.84182 -0.432851 0
M  V30 4335 O 407.458 -1.28534 -1.31243 0
M  V30 4336 C 407.52 -3.25993 1.51554 0
M  V30 4337 C 407.184 -3.45025 2.99678 0
M  V30 4338 C 408.181 -3.35175 3.97434 0
M  V30 4339 C 405.866 -3.71212 3.38389 0
M  V30 4340 C 407.86 -3.51238 5.31893 0
M  V30 4341 C 405.547 -3.8692 4.73008 0
M  V30 4342 C 406.545 -3.76936 5.69569 0
M  V30 4343 O 406.233 -3.92179 7.01748 0
M  V30 4344 H 405.965 -0.571962 0.360327 0
M  V30 4345 H 408.519 -1.30367 1.58725 0
M  V30 4346 H 406.749 -3.76235 0.893543 0
M  V30 4347 H 408.438 -3.84368 1.30444 0
M  V30 4348 H 409.204 -3.14895 3.68872 0
M  V30 4349 H 405.083 -3.78075 2.6378 0
M  V30 4350 H 408.627 -3.43362 6.07247 0
M  V30 4351 H 404.524 -4.06699 5.01265 0
M  V30 4352 H 405.292 -4.09265 7.08833 0
M  V30 4353 N 407.956 -0.998596 -1.21925 0
M  V30 4354 C 408.903 -0.553621 -2.24062 0
M  V30 4355 C 409.873 0.416999 -1.6078 0
M  V30 4356 O 411.058 0.320482 -1.88089 0
M  V30 4357 C 408.198 0.119959 -3.44891 0
M  V30 4358 C 407.311 -0.893077 -4.22668 0
M  V30 4359 C 406.446 -0.192424 -5.30851 0
M  V30 4360 C 405.485 -1.19344 -6.00353 0
M  V30 4361 N 404.622 -0.520707 -7.00166 0
M  V30 4362 H 409.462 -1.4293 -2.61486 0
M  V30 4363 H 406.999 -0.715838 -1.28507 0
M  V30 4364 H 408.957 0.527459 -4.13852 0
M  V30 4365 H 407.587 0.959389 -3.08214 0
M  V30 4366 H 406.639 -1.41886 -3.52948 0
M  V30 4367 H 407.951 -1.65512 -4.70539 0
M  V30 4368 H 407.105 0.271515 -6.06092 0
M  V30 4369 H 405.844 0.602075 -4.83969 0
M  V30 4370 H 404.849 -1.66795 -5.23889 0
M  V30 4371 H 406.074 -1.98891 -6.49322 0
M  V30 4372 H 404.02 0.254252 -6.55507 0
M  V30 4373 H 403.937 -1.2211 -7.46073 0
M  V30 4374 H 405.205 -0.0797596 -7.79459 0
M  V30 4375 N 409.434 1.37368 -0.772513 0
M  V30 4376 C 410.382 2.32134 -0.147111 0
M  V30 4377 C 411.376 1.54972 0.684106 0
M  V30 4378 O 412.582 1.70363 0.581083 0
M  V30 4379 H 408.957 0.751449 -0.028786 0
M  V30 4380 H 410.928 2.82464 -0.962112 0
M  V30 4381 C 409.677 3.40226 0.71703 0
M  V30 4382 H 409 3.99706 0.0867951 0
M  V30 4383 H 410.44 4.08897 1.12159 0
M  V30 4384 C 408.899 2.80372 1.86797 0
M  V30 4385 O 409.429 2.71183 2.96349 0
M  V30 4386 N 407.635 2.37904 1.66883 0
M  V30 4387 H 407.182 2.45578 0.777759 0
M  V30 4388 H 407.14 1.98202 2.44056 0
M  V30 4389 N 410.912 0.523116 1.48665 0
M  V30 4390 C 412.161 -0.01544 2.01694 0
M  V30 4391 C 412.474 -1.35975 1.40606 0
M  V30 4392 O 413.68 -1.98627 1.85093 0
M  V30 4393 C 412.136 -0.0779303 3.59816 0
M  V30 4394 C 411.744 1.26107 4.29885 0
M  V30 4395 C 413.488 -0.565678 4.20714 0
M  V30 4396 C 411.395 1.15954 5.79921 0
M  V30 4397 H 410.325 -0.00954163 0.75394 0
M  V30 4398 H 412.976 0.665865 1.70993 0
M  V30 4399 H 411.358 -0.824165 3.87329 0
M  V30 4400 H 412.532 2.02233 4.14051 0
M  V30 4401 H 410.847 1.68401 3.80828 0
M  V30 4402 H 413.444 -0.6595 5.30617 0
M  V30 4403 H 413.787 -1.56984 3.85567 0
M  V30 4404 H 414.32 0.12467 3.97605 0
M  V30 4405 H 411.059 2.13864 6.19631 0
M  V30 4406 H 410.579 0.439529 5.98187 0
M  V30 4407 H 412.258 0.847361 6.41427 0
M  V30 4408 N 412.39 -1.55475 0.257931 0
M  V30 4409 C 413.32 -2.24815 -0.630912 0
M  V30 4410 C 414.301 -1.23224 -1.17259 0
M  V30 4411 O 415.486 -1.51904 -1.20991 0
M  V30 4412 C 412.616 -2.95609 -1.82298 0
M  V30 4413 C 411.57 -4.03982 -1.41359 0
M  V30 4414 C 410.896 -4.6226 -2.68738 0
M  V30 4415 C 412.196 -5.19109 -0.57648 0
M  V30 4416 H 413.89 -2.99354 -0.0526878 0
M  V30 4417 H 411.436 -1.4398 -0.023901 0
M  V30 4418 H 413.389 -3.42822 -2.45054 0
M  V30 4419 H 412.113 -2.18577 -2.42676 0
M  V30 4420 H 410.772 -3.57555 -0.809324 0
M  V30 4421 H 410.42 -3.81915 -3.27338 0
M  V30 4422 H 410.12 -5.35424 -2.42065 0
M  V30 4423 H 411.644 -5.12212 -3.32372 0
M  V30 4424 H 413.058 -5.62479 -1.10861 0
M  V30 4425 H 411.455 -5.98729 -0.405351 0
M  V30 4426 H 412.525 -4.83174 0.408776 0
M  V30 4427 N 413.868 0.0150385 -1.57593 0
M  V30 4428 C 415.279 0.559832 -1.78109 0
M  V30 4429 C 415.63 1.74814 -0.890756 0
M  V30 4430 O 414.755 2.16216 -0.0892482 0
M  V30 4431 C 415.35 1.02238 -3.23006 0
M  V30 4432 C 413.909 1.51258 -3.44671 0
M  V30 4433 C 413.056 0.456955 -2.73509 0
M  V30 4434 H 416.007 -0.211169 -1.57289 0
M  V30 4435 H 416.028 1.88912 -3.30292 0
M  V30 4436 H 415.54 0.157302 -3.87781 0
M  V30 4437 H 413.641 2.39905 -2.8509 0
M  V30 4438 H 413.754 1.55042 -4.5332 0
M  V30 4439 H 412.118 0.915196 -2.37689 0
M  V30 4440 H 412.901 -0.398896 -3.40975 0
M  V30 4441 N 415.346 1.54954 0.287554 0
M  V30 4442 C 416.593 1.74873 1.02106 0
M  V30 4443 C 416.921 0.541829 1.86801 0
M  V30 4444 O 416.176 -0.475992 1.89823 0
M  V30 4445 C 416.475 2.99833 1.94512 0
M  V30 4446 C 416.141 4.33029 1.25686 0
M  V30 4447 C 414.803 4.69233 1.06649 0
M  V30 4448 C 417.155 5.15542 0.765913 0
M  V30 4449 C 414.483 5.85518 0.372222 0
M  V30 4450 C 416.835 6.32542 0.0853101 0
M  V30 4451 C 415.499 6.67398 -0.1169 0
M  V30 4452 H 414.769 0.639906 0.373632 0
M  V30 4453 H 417.416 1.89219 0.294665 0
M  V30 4454 H 415.721 2.80325 2.73725 0
M  V30 4455 H 417.418 3.1244 2.51361 0
M  V30 4456 H 414.008 4.04564 1.41512 0
M  V30 4457 H 418.192 4.88059 0.90066 0
M  V30 4458 H 413.448 6.11057 0.204695 0
M  V30 4459 H 417.622 6.95741 -0.302936 0
M  V30 4460 H 415.249 7.57357 -0.656859 0
M  V30 4461 N 416.824 -0.551391 1.4764 0
M  V30 4462 C 418.101 -1.31229 1.45046 0
M  V30 4463 C 418.481 -2.10563 0.150527 0
M  V30 4464 O 417.829 -2.11374 -0.867956 0
M  V30 4465 C 418.039 -2.21189 2.69956 0
M  V30 4466 C 419.387 -2.82021 3.1741 0
M  V30 4467 O 420.411 -2.31488 2.70724 0
M  V30 4468 O 419.27 -3.73885 3.98588 0
M  V30 4469 H 416.364 -0.591193 0.578291 0
M  V30 4470 H 418.91 -0.569813 1.59847 0
M  V30 4471 H 417.682 -1.62207 3.56096 0
M  V30 4472 H 417.305 -3.02722 2.57769 0
M  V30 4473 N 418.302 -1.35869 -0.798587 0
M  V30 4474 C 419.252 -1.25982 -1.90033 0
M  V30 4475 C 420.236 -0.153303 -1.60168 0
M  V30 4476 O 421.428 -0.38527 -1.72756 0
M  V30 4477 C 418.557 -1.04211 -3.27101 0
M  V30 4478 C 417.643 -2.19289 -3.63006 0
M  V30 4479 N 418.034 -3.44559 -3.70287 0
M  V30 4480 C 416.332 -2.10852 -3.93011 0
M  V30 4481 C 417.033 -4.20283 -4.02166 0
M  V30 4482 N 416.009 -3.49124 -4.16669 0
M  V30 4483 H 419.811 -2.20883 -1.93876 0
M  V30 4484 H 417.325 -1.28457 -0.993614 0
M  V30 4485 H 419.322 -0.952155 -4.05881 0
M  V30 4486 H 417.982 -0.102013 -3.2454 0
M  V30 4487 H 418.993 -3.7881 -3.53162 0
M  V30 4488 H 415.67 -1.24744 -3.98428 0
M  V30 4489 H 417.06 -5.28575 -4.14799 0
M  V30 4490 N 419.78 1.02168 -1.19998 0
M  V30 4491 C 421.005 1.79833 -1.03319 0
M  V30 4492 C 421.43 1.83504 0.413281 0
M  V30 4493 O 420.788 1.26635 1.29743 0
M  V30 4494 C 420.836 3.22396 -1.61533 0
M  V30 4495 O 419.94 4.03555 -0.849519 0
M  V30 4496 H 419.281 0.554872 -0.364709 0
M  V30 4497 H 421.811 1.28542 -1.59179 0
M  V30 4498 H 421.821 3.73124 -1.65054 0
M  V30 4499 H 420.496 3.19039 -2.66809 0
M  V30 4500 H 419.073 3.62169 -0.888129 0
M  V30 4501 N 421.258 1.00505 1.21394 0
M  V30 4502 C 422.674 0.717873 1.42544 0
M  V30 4503 C 422.874 -0.706936 1.88692 0
M  V30 4504 O 421.93 -1.47627 2.04847 0
M  V30 4505 C 423.243 1.73377 2.45684 0
M  V30 4506 C 424.791 1.75059 2.59467 0
M  V30 4507 C 425.266 2.75545 3.6584 0
M  V30 4508 N 426.757 2.74213 3.73311 0
M  V30 4509 C 427.492 3.48626 4.55245 0
M  V30 4510 N 426.988 4.32678 5.41075 0
M  V30 4511 N 428.781 3.37276 4.49668 0
M  V30 4512 H 420.932 1.92506 0.897503 0
M  V30 4513 H 423.195 0.830919 0.456375 0
M  V30 4514 H 422.901 2.75395 2.18748 0
M  V30 4515 H 422.775 1.53647 3.44489 0
M  V30 4516 H 425.162 0.737337 2.8574 0
M  V30 4517 H 425.243 1.98861 1.60897 0
M  V30 4518 H 424.887 3.77028 3.40313 0
M  V30 4519 H 424.817 2.49009 4.64007 0
M  V30 4520 H 427.308 2.13234 3.11993 0
M  V30 4521 H 427.621 4.86253 6.00648 0
M  V30 4522 H 425.966 4.3676 5.40616 0
M  V30 4523 H 429.157 2.71043 3.81646 0
M  V30 4524 H 429.33 3.95524 5.13288 0
M  V30 4525 N 422.737 -1.36956 0.779787 0
M  V30 4526 C 423.983 -1.99787 0.348281 0
M  V30 4527 C 424.316 -1.61756 -1.07465 0
M  V30 4528 O 423.591 -0.867639 -1.74075 0
M  V30 4529 C 423.874 -3.56597 0.50104 0
M  V30 4530 C 423.727 -4.04513 1.96697 0
M  V30 4531 C 425.046 -4.40008 -0.0898097 0
M  V30 4532 H 422.165 -0.725796 0.128022 0
M  V30 4533 H 424.807 -1.62514 0.984331 0
M  V30 4534 H 422.957 -3.88479 -0.0404347 0
M  V30 4535 H 424.629 -3.83161 2.56876 0
M  V30 4536 H 422.872 -3.56408 2.47297 0
M  V30 4537 H 423.543 -5.1352 2.02486 0
M  V30 4538 H 426.019 -4.14431 0.372293 0
M  V30 4539 H 424.895 -5.4888 0.0471605 0
M  V30 4540 H 425.156 -4.26035 -1.18096 0
M  V30 4541 N 424.215 -0.530993 -1.48385 0
M  V30 4542 C 425.464 0.00474348 -2.01699 0
M  V30 4543 C 425.777 1.35227 -1.41325 0
M  V30 4544 O 426.983 1.97643 -1.86144 0
M  V30 4545 C 425.439 0.0588473 -3.59852 0
M  V30 4546 C 425.047 -1.28385 -4.2921 0
M  V30 4547 C 426.791 0.543358 -4.21008 0
M  V30 4548 C 424.698 -1.19028 -5.79298 0
M  V30 4549 H 423.628 0.00554317 -0.75398 0
M  V30 4550 H 426.279 -0.674924 -1.70637 0
M  V30 4551 H 424.661 0.803612 -3.8776 0
M  V30 4552 H 425.835 -2.04426 -4.12973 0
M  V30 4553 H 424.15 -1.70418 -3.7993 0
M  V30 4554 H 426.747 0.631351 -5.3096 0
M  V30 4555 H 427.09 1.54937 -3.86394 0
M  V30 4556 H 427.623 -0.145754 -3.97533 0
M  V30 4557 H 424.362 -2.17147 -6.18488 0
M  V30 4558 H 423.882 -0.471246 -5.97946 0
M  V30 4559 H 425.561 -0.881365 -6.40969 0
M  V30 4560 N 425.693 1.55336 -0.266172 0
M  V30 4561 C 426.623 2.25146 0.618981 0
M  V30 4562 C 427.604 1.23845 1.16604 0
M  V30 4563 O 428.789 1.52544 1.20183 0
M  V30 4564 C 425.919 2.96572 1.80728 0
M  V30 4565 C 424.873 4.04726 1.39215 0
M  V30 4566 C 424.199 4.63678 2.66283 0
M  V30 4567 C 425.499 5.19407 0.548942 0
M  V30 4568 H 427.193 2.99377 0.0368116 0
M  V30 4569 H 424.739 1.43991 0.0162651 0
M  V30 4570 H 426.692 3.44116 2.43232 0
M  V30 4571 H 425.416 2.19861 2.41514 0
M  V30 4572 H 424.075 3.57979 0.790351 0
M  V30 4573 H 423.723 3.83646 3.25308 0
M  V30 4574 H 423.423 5.367 2.39222 0
M  V30 4575 H 424.947 5.13967 3.29651 0
M  V30 4576 H 426.361 5.63059 1.07876 0
M  V30 4577 H 424.758 5.98936 0.373593 0
M  V30 4578 H 425.828 4.8295 -0.434394 0
M  V30 4579 N 427.171 -0.0066808 1.57599 0
M  V30 4580 C 428.103 -1.02827 2.04839 0
M  V30 4581 C 429.116 -1.31108 0.965113 0
M  V30 4582 O 430.305 -1.28202 1.24203 0
M  V30 4583 C 427.405 -2.36464 2.42771 0
M  V30 4584 C 426.578 -2.27219 3.73751 0
M  V30 4585 C 425.637 -3.43489 3.98625 0
M  V30 4586 O 424.663 -3.21976 4.69382 0
M  V30 4587 N 425.865 -4.66116 3.46 0
M  V30 4588 H 428.63 -0.625455 2.93101 0
M  V30 4589 H 426.191 -0.194198 1.60731 0
M  V30 4590 H 428.183 -3.13008 2.56531 0
M  V30 4591 H 426.753 -2.68512 1.60063 0
M  V30 4592 H 425.973 -1.35629 3.70133 0
M  V30 4593 H 427.261 -2.18208 4.59633 0
M  V30 4594 H 426.659 -4.86493 2.88688 0
M  V30 4595 H 425.216 -5.39949 3.65101 0
M  V30 4596 N 428.649 -1.55105 -0.279332 0
M  V30 4597 C 429.897 -1.75066 -1.00977 0
M  V30 4598 C 430.218 -0.551276 -1.87045 0
M  V30 4599 O 429.488 0.433984 -1.91032 0
M  V30 4600 H 428.068 -0.645578 -0.375816 0
M  V30 4601 H 430.73 -1.92497 -0.305089 0
M  V30 4602 H 429.826 -2.64894 -1.65038 0
M  V30 4603 N 430.127 0.543554 -1.4793 0
M  V30 4604 C 431.543 0.870806 -1.3375 0
M  V30 4605 C 431.743 1.9864 -0.338261 0
M  V30 4606 O 430.799 2.51305 0.245371 0
M  V30 4607 C 432.112 1.25114 -2.73435 0
M  V30 4608 C 433.66 1.3618 -2.81823 0
M  V30 4609 C 434.135 1.77563 -4.22179 0
M  V30 4610 N 435.626 1.8469 -4.24787 0
M  V30 4611 C 436.361 2.18067 -5.30315 0
M  V30 4612 N 435.857 2.49963 -6.46135 0
M  V30 4613 N 437.65 2.18958 -5.17701 0
M  V30 4614 H 429.801 -0.19275 -2.11524 0
M  V30 4615 H 432.064 -0.0235777 -0.947707 0
M  V30 4616 H 431.77 0.50514 -3.48053 0
M  V30 4617 H 431.644 2.20431 -3.06088 0
M  V30 4618 H 434.031 2.09859 -2.07468 0
M  V30 4619 H 434.112 0.390169 -2.52807 0
M  V30 4620 H 433.756 1.04449 -4.97044 0
M  V30 4621 H 433.686 2.75753 -4.48629 0
M  V30 4622 H 436.177 1.62372 -3.41239 0
M  V30 4623 H 436.49 2.74497 -7.22406 0
M  V30 4624 H 434.835 2.47513 -6.49432 0
M  V30 4625 H 438.026 1.93488 -4.2624 0
M  V30 4626 H 438.199 2.44639 -6.00047 0
M  V30 4627 N 431.605 1.3629 0.791371 0
M  V30 4628 C 432.882 1.20962 1.53712 0
M  V30 4629 C 433.262 -0.205021 2.10102 0
M  V30 4630 O 432.61 -1.21042 1.93807 0
M  V30 4631 C 432.82 2.29002 2.63361 0
M  V30 4632 C 434.168 2.65572 3.31295 0
M  V30 4633 O 435.192 2.2803 2.73643 0
M  V30 4634 O 434.051 3.3018 4.35481 0
M  V30 4635 H 431.145 0.47086 0.679867 0
M  V30 4636 H 433.691 1.48016 0.830021 0
M  V30 4637 H 432.463 3.2382 2.19674 0
M  V30 4638 H 432.086 2.03303 3.41692 0
M  V30 4639 N 433.083 -1.0153 1.20538 0
M  V30 4640 C 434.308 -1.79283 1.04271 0
M  V30 4641 C 434.733 -1.8372 -0.403544 0
M  V30 4642 O 434.091 -1.27321 -1.2907 0
M  V30 4643 C 434.139 -3.21535 1.63241 0
M  V30 4644 O 433.243 -4.03099 0.870908 0
M  V30 4645 H 432.584 -0.55293 0.367647 0
M  V30 4646 H 435.114 -1.27696 1.59859 0
M  V30 4647 H 435.124 -3.72243 1.6703 0
M  V30 4648 H 433.799 -3.1762 2.68497 0
M  V30 4649 H 432.376 -3.61693 0.907323 0
M  V30 4650 N 434.561 -1.01147 -1.20859 0
M  V30 4651 C 435.509 -0.57059 -2.25493 0
M  V30 4652 C 436.503 0.388109 -1.64894 0
M  V30 4653 O 437.709 0.258592 -1.78133 0
M  V30 4654 H 434.084 -0.166191 -0.733406 0
M  V30 4655 H 436.055 -1.46411 -2.60012 0
M  V30 4656 C 434.804 0.0805241 -3.47607 0
M  V30 4657 H 434.127 -0.648156 -3.94511 0
M  V30 4658 H 435.567 0.352197 -4.22535 0
M  V30 4659 C 434.026 1.32175 -3.09889 0
M  V30 4660 O 434.556 2.41553 -3.20959 0
M  V30 4661 N 432.762 1.20392 -2.64488 0
M  V30 4662 H 432.309 0.313905 -2.5568 0
M  V30 4663 H 432.267 2.03541 -2.39621 0
M  V30 4664 N 436.039 1.36541 -0.78704 0
M  V30 4665 C 437.288 1.98552 -0.35494 0
M  V30 4666 C 437.601 1.63171 1.07864 0
M  V30 4667 O 438.807 2.18399 1.61289 0
M  V30 4668 C 437.263 3.55136 -0.583671 0
M  V30 4669 C 436.871 3.99444 -2.02851 0
M  V30 4670 C 438.615 4.2395 -0.215957 0
M  V30 4671 C 436.522 5.48796 -2.20403 0
M  V30 4672 H 435.452 0.742888 -0.128972 0
M  V30 4673 H 438.103 1.5587 -0.968337 0
M  V30 4674 H 436.485 3.95875 0.0994046 0
M  V30 4675 H 437.659 3.6991 -2.74779 0
M  V30 4676 H 435.974 3.43459 -2.35425 0
M  V30 4677 H 438.571 5.33709 -0.325405 0
M  V30 4678 H 438.914 4.07827 0.835646 0
M  V30 4679 H 439.447 3.88565 -0.852175 0
M  V30 4680 H 436.186 5.69864 -3.23937 0
M  V30 4681 H 435.706 5.79964 -1.52977 0
M  V30 4682 H 437.385 6.14986 -2.01002 0
M  V30 4683 N 437.518 0.538854 1.48102 0
M  V30 4684 C 438.929 0.100679 1.86428 0
M  V30 4685 C 439.28 -1.32447 1.44749 0
M  V30 4686 O 438.405 -1.99339 0.842199 0
M  V30 4687 C 439 0.175933 3.38343 0
M  V30 4688 C 437.559 -0.207098 3.7583 0
M  V30 4689 C 436.706 0.531741 2.72154 0
M  V30 4690 H 439.657 0.749614 1.3988 0
M  V30 4691 H 439.678 -0.610144 3.75576 0
M  V30 4692 H 439.19 1.21328 3.68648 0
M  V30 4693 H 437.291 -1.24626 3.5114 0
M  V30 4694 H 437.404 0.138687 4.78899 0
M  V30 4695 H 435.768 -0.0230462 2.5469 0
M  V30 4696 H 436.551 1.56989 3.05302 0
M  V30 4697 N 438.996 -1.55193 0.274407 0
M  V30 4698 C 440.244 -1.99187 -0.341902 0
M  V30 4699 C 440.565 -1.16422 -1.56431 0
M  V30 4700 O 439.835 -0.253573 -1.94252 0
M  V30 4701 H 438.415 -0.735721 -0.129317 0
M  V30 4702 H 441.077 -1.91168 0.379578 0
M  V30 4703 H 440.173 -3.05629 -0.632253 0
M  V30 4704 N 440.474 -0.00167713 -1.576 0
M  V30 4705 C 441.699 0.69739 -1.95323 0
M  V30 4706 C 442.124 1.6642 -0.876706 0
M  V30 4707 O 441.482 1.80548 0.165007 0
M  V30 4708 C 441.53 1.40403 -3.32144 0
M  V30 4709 O 440.634 2.5185 -3.26566 0
M  V30 4710 H 439.975 0.185373 -0.637599 0
M  V30 4711 H 442.505 -0.0553665 -2.04525 0
M  V30 4712 H 442.515 1.76707 -3.67748 0
M  V30 4713 H 441.19 0.695167 -4.10049 0
M  V30 4714 H 439.767 2.17861 -3.0264 0
M  V30 4715 N 441.952 1.55251 0.271103 0
M  V30 4716 C 443.229 1.66664 1.02384 0
M  V30 4717 C 443.609 0.534363 2.04225 0
M  V30 4718 O 442.957 -0.465337 2.23712 0
M  V30 4719 C 443.167 3.05961 1.67895 0
M  V30 4720 C 444.515 3.63772 2.18986 0
M  V30 4721 O 445.539 3.08606 1.77878 0
M  V30 4722 O 444.398 4.60429 2.94393 0
M  V30 4723 H 441.492 0.676957 0.475035 0
M  V30 4724 H 444.038 1.67589 0.26681 0
M  V30 4725 H 442.81 3.79815 0.941071 0
M  V30 4726 H 442.433 3.08943 2.5028 0
M  V30 4727 N 443.43 -0.535701 1.48216 0
M  V30 4728 C 444.66 -1.3148 1.59363 0
M  V30 4729 C 445.068 -1.8753 0.250844 0
M  V30 4730 O 444.411 -1.66821 -0.769174 0
M  V30 4731 C 444.473 -2.50731 2.57632 0
M  V30 4732 C 444.137 -2.15811 4.02833 0
M  V30 4733 C 445.134 -1.71822 4.90686 0
M  V30 4734 C 442.819 -2.26509 4.48329 0
M  V30 4735 C 444.813 -1.3899 6.22062 0
M  V30 4736 C 442.5 -1.93289 5.79726 0
M  V30 4737 C 443.498 -1.49599 6.66415 0
M  V30 4738 O 443.186 -1.16812 7.95368 0
M  V30 4739 H 442.918 -0.406315 0.540263 0
M  V30 4740 H 445.472 -0.653569 1.94725 0
M  V30 4741 H 443.702 -3.19817 2.1738 0
M  V30 4742 H 445.391 -3.12797 2.58675 0
M  V30 4743 H 446.157 -1.63031 4.56778 0
M  V30 4744 H 442.036 -2.59471 3.81045 0
M  V30 4745 H 445.58 -1.04816 6.89681 0
M  V30 4746 H 441.477 -2.01718 6.13172 0
M  V30 4747 H 442.245 -1.30259 8.08069 0
M  V30 4748 N 444.908 -1.36708 -0.784132 0
M  V30 4749 C 446.157 -1.30559 -1.53744 0
M  V30 4750 C 446.47 0.111374 -1.95283 0
M  V30 4751 O 447.676 0.29527 -2.6989 0
M  V30 4752 C 446.132 -2.29098 -2.77565 0
M  V30 4753 C 445.74 -3.76258 -2.43174 0
M  V30 4754 C 447.484 -2.31936 -3.55536 0
M  V30 4755 C 445.391 -4.6656 -3.63422 0
M  V30 4756 H 444.321 -0.48518 -0.577162 0
M  V30 4757 H 446.972 -1.62101 -0.859981 0
M  V30 4758 H 445.354 -1.90557 -3.47137 0
M  V30 4759 H 446.528 -4.23565 -1.81465 0
M  V30 4760 H 444.843 -3.76246 -1.78403 0
M  V30 4761 H 447.44 -2.9661 -4.44889 0
M  V30 4762 H 447.783 -1.3294 -3.94503 0
M  V30 4763 H 448.316 -2.6912 -2.92949 0
M  V30 4764 H 445.055 -5.66638 -3.29547 0
M  V30 4765 H 444.575 -4.23966 -4.24279 0
M  V30 4766 H 446.254 -4.8309 -4.30387 0
M  V30 4767 N 446.386 1.0089 -1.21074 0
M  V30 4768 C 447.334 2.11707 -0.963476 0
M  V30 4769 C 448.328 1.69172 0.0879032 0
M  V30 4770 O 449.534 1.79889 -0.0631415 0
M  V30 4771 H 445.909 0.692026 -0.294287 0
M  V30 4772 H 447.88 2.29743 -1.90422 0
M  V30 4773 C 446.629 3.43473 -0.540509 0
M  V30 4774 H 445.952 3.76634 -1.34114 0
M  V30 4775 H 447.392 4.22044 -0.406777 0
M  V30 4776 C 445.851 3.2849 0.748079 0
M  V30 4777 O 446.381 3.58883 1.8046 0
M  V30 4778 N 444.587 2.81715 0.713081 0
M  V30 4779 H 444.134 2.5718 -0.146973 0
M  V30 4780 H 444.092 2.72071 1.57558 0
M  V30 4781 N 447.864 1.01787 1.20321 0
M  V30 4782 C 448.827 0.593972 2.2137 0
M  V30 4783 C 449.827 -0.336553 1.57239 0
M  V30 4784 O 451.017 -0.125069 1.7375 0
M  V30 4785 C 448.149 -0.132433 3.40643 0
M  V30 4786 H 449.342 1.48791 2.60387 0
M  V30 4787 H 446.895 0.807803 1.33807 0
M  V30 4788 H 447.63 -1.04123 3.0713 0
M  V30 4789 H 447.415 0.53605 3.88418 0
M  V30 4790 H 448.905 -0.416314 4.1552 0
M  V30 4791 N 449.342 -1.36122 0.79427 0
M  V30 4792 C 450.29 -2.31871 0.184023 0
M  V30 4793 C 451.284 -1.56041 -0.659365 0
M  V30 4794 O 452.49 -1.71266 -0.553906 0
M  V30 4795 H 448.865 -0.750896 0.0407373 0
M  V30 4796 H 450.836 -2.80898 1.00693 0
M  V30 4797 C 449.585 -3.41324 -0.662813 0
M  V30 4798 H 448.908 -3.99793 -0.0231944 0
M  V30 4799 H 450.348 -4.10629 -1.05639 0
M  V30 4800 C 448.807 -2.83308 -1.82313 0
M  V30 4801 O 449.337 -2.75863 -2.91997 0
M  V30 4802 N 447.543 -2.40529 -1.63077 0
M  V30 4803 H 447.09 -2.46785 -0.738591 0
M  V30 4804 H 447.048 -2.02059 -2.40872 0
M  V30 4805 N 450.82 -0.546701 -1.47814 0
M  V30 4806 C 452.05 -0.0232519 -2.06587 0
M  V30 4807 C 452.458 1.2712 -1.40133 0
M  V30 4808 O 451.801 1.77091 -0.488305 0
M  V30 4809 C 451.863 0.254117 -3.58601 0
M  V30 4810 C 451.527 -0.949331 -4.47031 0
M  V30 4811 C 452.524 -1.85216 -4.85789 0
M  V30 4812 C 450.209 -1.16104 -4.88697 0
M  V30 4813 C 452.203 -2.95047 -5.65001 0
M  V30 4814 C 449.89 -2.26247 -5.67676 0
M  V30 4815 C 450.888 -3.1555 -6.05737 0
M  V30 4816 O 450.576 -4.23784 -6.83127 0
M  V30 4817 H 450.308 -0.0380082 -0.674931 0
M  V30 4818 H 452.862 -0.756631 -1.90956 0
M  V30 4819 H 451.092 1.04168 -3.72406 0
M  V30 4820 H 452.781 0.72167 -3.99433 0
M  V30 4821 H 453.547 -1.70061 -4.54207 0
M  V30 4822 H 449.426 -0.475159 -4.58545 0
M  V30 4823 H 452.97 -3.64778 -5.94628 0
M  V30 4824 H 448.867 -2.41379 -5.98671 0
M  V30 4825 H 449.635 -4.21701 -7.01506 0
M  V30 4826 N 452.299 1.55045 -0.282633 0
M  V30 4827 C 453.548 1.98938 0.332667 0
M  V30 4828 C 453.861 1.17455 1.56409 0
M  V30 4829 O 455.067 1.51527 2.25282 0
M  V30 4830 C 453.523 3.54105 0.643226 0
M  V30 4831 C 453.131 4.44374 -0.568814 0
M  V30 4832 C 454.875 4.06569 1.22074 0
M  V30 4833 C 452.782 5.90943 -0.232426 0
M  V30 4834 H 451.712 0.743043 0.128075 0
M  V30 4835 H 454.363 1.79341 -0.388464 0
M  V30 4836 H 452.745 3.69532 1.42346 0
M  V30 4837 H 453.919 4.40718 -1.34551 0
M  V30 4838 H 452.234 4.02585 -1.06369 0
M  V30 4839 H 454.831 5.13626 1.48635 0
M  V30 4840 H 455.174 3.56057 2.15707 0
M  V30 4841 H 455.707 3.94612 0.502621 0
M  V30 4842 H 452.446 6.45567 -1.13683 0
M  V30 4843 H 451.966 5.9765 0.507357 0
M  V30 4844 H 453.645 6.4677 0.172657 0
M  V30 4845 N 453.777 0.010035 1.57597 0
M  V30 4846 C 454.724 -0.978122 2.09049 0
M  V30 4847 C 455.694 -1.33509 0.988159 0
M  V30 4848 O 456.879 -1.43172 1.26121 0
M  V30 4849 C 454.019 -2.26158 2.60666 0
M  V30 4850 C 453.132 -1.96275 3.84838 0
M  V30 4851 C 452.267 -3.18776 4.24918 0
M  V30 4852 C 451.306 -2.84625 5.41899 0
M  V30 4853 N 450.443 -3.99693 5.77226 0
M  V30 4854 H 455.283 -0.532431 2.93205 0
M  V30 4855 H 452.82 -0.251234 1.44939 0
M  V30 4856 H 454.778 -3.01202 2.88675 0
M  V30 4857 H 453.408 -2.68378 1.79369 0
M  V30 4858 H 452.46 -1.11555 3.63675 0
M  V30 4859 H 453.772 -1.67111 4.69974 0
M  V30 4860 H 452.926 -4.02157 4.54262 0
M  V30 4861 H 451.665 -3.51087 3.38511 0
M  V30 4862 H 450.67 -1.99653 5.12268 0
M  V30 4863 H 451.895 -2.53551 6.29991 0
M  V30 4864 H 449.841 -4.31882 4.93776 0
M  V30 4865 H 449.758 -3.74087 6.56959 0
M  V30 4866 H 451.026 -4.83834 6.11167 0
M  V30 4867 N 455.255 -1.55392 -0.262866 0
M  V30 4868 C 456.203 -1.8977 -1.345 0
M  V30 4869 C 457.197 -0.775063 -1.50629 0
M  V30 4870 O 458.403 -0.959519 -1.52293 0
M  V30 4871 H 454.778 -0.602467 -0.450041 0
M  V30 4872 H 456.749 -2.80147 -1.02762 0
M  V30 4873 C 455.498 -2.19501 -2.69657 0
M  V30 4874 H 454.821 -3.05378 -2.5804 0
M  V30 4875 H 456.261 -2.47469 -3.44289 0
M  V30 4876 C 454.72 -1.00597 -3.21531 0
M  V30 4877 O 455.25 -0.245768 -4.00947 0
M  V30 4878 N 453.456 -0.800911 -2.79345 0
M  V30 4879 H 453.003 -1.42079 -2.14875 0
M  V30 4880 H 452.961 -0.00697996 -3.14399 0
M  V30 4881 N 456.733 0.527833 -1.48498 0
M  V30 4882 C 457.665 1.6482 -1.5927 0
M  V30 4883 C 458.678 1.55659 -0.476869 0
M  V30 4884 O 459.867 1.62081 -0.747806 0
M  V30 4885 C 456.967 3.0348 -1.50842 0
M  V30 4886 C 456.14 3.381 -2.77502 0
M  V30 4887 C 455.199 4.5605 -2.62497 0
M  V30 4888 O 454.225 4.59165 -3.36387 0
M  V30 4889 N 455.427 5.54353 -1.72257 0
M  V30 4890 H 458.192 1.56015 -2.55889 0
M  V30 4891 H 455.753 0.715152 -1.45249 0
M  V30 4892 H 457.745 3.80264 -1.38496 0
M  V30 4893 H 456.315 3.06352 -0.621887 0
M  V30 4894 H 455.535 2.50473 -3.04396 0
M  V30 4895 H 456.823 3.58017 -3.61527 0
M  V30 4896 H 456.221 5.54617 -1.11431 0
M  V30 4897 H 454.778 6.30347 -1.65849 0
M  V30 4898 N 458.211 1.37122 0.776871 0
M  V30 4899 C 459.141 1.35164 1.90402 0
M  V30 4900 C 460.122 0.221069 1.68657 0
M  V30 4901 O 461.307 0.420642 1.8959 0
M  V30 4902 C 458.437 1.15274 3.27611 0
M  V30 4903 C 457.391 2.25289 3.63908 0
M  V30 4904 C 456.717 1.90527 4.99603 0
M  V30 4905 C 458.017 3.67446 3.71188 0
M  V30 4906 H 459.711 2.29482 1.92297 0
M  V30 4907 H 457.257 1.10465 0.923773 0
M  V30 4908 H 459.21 1.12536 4.06096 0
M  V30 4909 H 457.934 0.174102 3.26136 0
M  V30 4910 H 456.593 2.27174 2.87728 0
M  V30 4911 H 456.241 0.91206 4.94662 0
M  V30 4912 H 455.941 2.64193 5.24858 0
M  V30 4913 H 457.465 1.89367 5.80493 0
M  V30 4914 H 458.879 3.67719 4.39836 0
M  V30 4915 H 457.276 4.40123 4.07936 0
M  V30 4916 H 458.346 4.01443 2.71977 0
M  V30 4917 N 459.689 -1.00246 1.21608 0
M  V30 4918 C 460.619 -2.10921 1.00172 0
M  V30 4919 C 461.6 -1.69938 -0.0741587 0
M  V30 4920 O 462.785 -1.94009 0.0861753 0
M  V30 4921 C 459.915 -3.42618 0.568355 0
M  V30 4922 C 458.869 -3.97407 1.58909 0
M  V30 4923 C 458.195 -5.25038 1.01187 0
M  V30 4924 C 459.495 -4.2918 2.97661 0
M  V30 4925 H 461.189 -2.29112 1.92739 0
M  V30 4926 H 458.735 -1.10101 0.928102 0
M  V30 4927 H 460.688 -4.19444 0.405555 0
M  V30 4928 H 459.412 -3.24227 -0.392961 0
M  V30 4929 H 458.071 -3.22703 1.73949 0
M  V30 4930 H 457.719 -5.02982 0.0421965 0
M  V30 4931 H 457.419 -5.62661 1.6937 0
M  V30 4932 H 458.943 -6.04507 0.860448 0
M  V30 4933 H 460.357 -4.96839 2.86049 0
M  V30 4934 H 458.754 -4.77952 3.6288 0
M  V30 4935 H 459.824 -3.3735 3.48315 0
M  V30 4936 N 461.167 -1.02423 -1.1978 0
M  V30 4937 C 462.415 -0.716569 -1.8897 0
M  V30 4938 C 462.736 0.756769 -1.79716 0
M  V30 4939 O 462.006 1.5449 -1.20456 0
M  V30 4940 H 460.586 -0.262062 -0.699523 0
M  V30 4941 H 463.248 -1.29747 -1.45436 0
M  V30 4942 H 462.344 -1.00675 -2.95417 0
M  V30 4943 N 462.645 1.35699 -0.801477 0
M  V30 4944 C 464.056 1.81415 -0.441073 0
M  V30 4945 C 464.407 1.66595 1.03636 0
M  V30 4946 O 463.532 1.19369 1.80499 0
M  V30 4947 C 464.127 3.29369 -0.793819 0
M  V30 4948 C 462.686 3.73248 -0.486083 0
M  V30 4949 C 461.833 2.57775 -1.02213 0
M  V30 4950 H 464.784 1.23749 -0.993572 0
M  V30 4951 H 464.805 3.80395 -0.0894158 0
M  V30 4952 H 464.317 3.40123 -1.86917 0
M  V30 4953 H 462.418 3.68046 0.580735 0
M  V30 4954 H 462.531 4.68222 -1.01513 0
M  V30 4955 H 460.895 2.50788 -0.444712 0
M  V30 4956 H 461.678 2.71309 -2.10348 0
M  V30 4957 N 464.123 0.554532 1.47522 0
M  V30 4958 C 465.4 -0.0360704 1.95567 0
M  V30 4959 C 465.78 -1.48828 1.49711 0
M  V30 4960 O 465.128 -2.16366 0.734717 0
M  V30 4961 C 465.338 0.106631 3.48837 0
M  V30 4962 C 466.686 -0.0400899 4.24581 0
M  V30 4963 O 467.71 0.0340453 3.56184 0
M  V30 4964 O 466.569 -0.199111 5.46137 0
M  V30 4965 H 463.663 -0.0656294 0.824392 0
M  V30 4966 H 466.209 0.620867 1.57935 0
M  V30 4967 H 464.981 1.11727 3.7501 0
M  V30 4968 H 464.604 -0.58804 3.93227 0
M  V30 4969 N 465.601 -1.54893 0.290851 0
M  V30 4970 C 466.511 -2.26812 -0.59945 0
M  V30 4971 C 467.527 -1.29963 -1.15696 0
M  V30 4972 O 468.703 -1.62928 -1.18391 0
M  V30 4973 C 465.768 -2.98716 -1.75982 0
M  V30 4974 C 464.829 -4.1108 -1.2374 0
M  V30 4975 C 464.062 -4.79546 -2.34246 0
M  V30 4976 O 464.285 -4.47309 -3.53936 0
M  V30 4977 O 463.219 -5.67165 -2.01512 0
M  V30 4978 H 467.045 -3.03696 -0.0163561 0
M  V30 4979 H 464.63 -1.49289 0.0576755 0
M  V30 4980 H 466.512 -3.43851 -2.43607 0
M  V30 4981 H 465.187 -2.24737 -2.3297 0
M  V30 4982 H 464.094 -3.70367 -0.527163 0
M  V30 4983 H 465.427 -4.87007 -0.71307 0
M  V30 4984 N 467.08 -0.0183926 -1.57589 0
M  V30 4985 C 468.028 0.985111 -2.10709 0
M  V30 4986 C 469.022 1.34397 -1.0312 0
M  V30 4987 O 470.228 1.32746 -1.21567 0
M  V30 4988 H 466.603 0.335418 -0.673052 0
M  V30 4989 H 468.574 0.511689 -2.9398 0
M  V30 4990 C 467.323 2.26202 -2.64061 0
M  V30 4991 H 466.646 1.9946 -3.4649 0
M  V30 4992 H 468.086 2.94652 -3.04887 0
M  V30 4993 C 466.545 2.98444 -1.5631 0
M  V30 4994 O 467.075 3.90142 -0.956674 0
M  V30 4995 N 465.281 2.6059 -1.28612 0
M  V30 4996 H 464.828 1.86101 -1.78112 0
M  V30 4997 H 464.786 3.09238 -0.567406 0
M  V30 4998 N 468.558 1.5553 0.254621 0
M  V30 4999 C 469.521 1.88872 1.29846 0
M  V30 5000 C 470.521 0.764591 1.41459 0
M  V30 5001 O 471.711 1.03265 1.40293 0
M  V30 5002 C 468.843 2.11032 2.67728 0
M  V30 5003 H 470.036 2.82201 1.01502 0
M  V30 5004 H 467.589 1.48303 0.493556 0
M  V30 5005 H 468.324 1.20146 3.01223 0
M  V30 5006 H 468.109 2.92895 2.60682 0
M  V30 5007 H 469.599 2.38038 3.43115 0
M  V30 5008 N 470.036 -0.519951 1.48776 0
M  V30 5009 C 470.983 -1.62352 1.64044 0
M  V30 5010 C 471.953 -1.58945 0.482251 0
M  V30 5011 O 473.138 -1.77219 0.706971 0
M  V30 5012 C 470.278 -3.00579 1.69547 0
M  V30 5013 C 469.391 -3.14145 2.96541 0
M  V30 5014 C 468.526 -4.42991 2.93142 0
M  V30 5015 C 467.565 -4.50122 4.14797 0
M  V30 5016 N 466.702 -5.7037 4.09418 0
M  V30 5017 H 471.542 -1.48643 2.58281 0
M  V30 5018 H 469.079 -0.723516 1.28077 0
M  V30 5019 H 471.037 -3.80671 1.70719 0
M  V30 5020 H 469.667 -3.13036 0.787918 0
M  V30 5021 H 468.719 -2.27239 3.05068 0
M  V30 5022 H 470.031 -3.15275 3.86527 0
M  V30 5023 H 469.185 -5.31385 2.92772 0
M  V30 5024 H 467.924 -4.44398 2.00902 0
M  V30 5025 H 466.929 -3.60133 4.15433 0
M  V30 5026 H 468.154 -4.50445 5.08208 0
M  V30 5027 H 466.1 -5.72655 3.20004 0
M  V30 5028 H 466.017 -5.73036 4.93119 0
M  V30 5029 H 467.285 -6.61023 4.13121 0
M  V30 5030 N 471.514 -1.37532 -0.769588 0
M  V30 5031 C 472.742 -1.36059 -1.55871 0
M  V30 5032 C 473.157 0.053544 -1.88724 0
M  V30 5033 O 472.514 1.01591 -1.5161 0
M  V30 5034 C 472.565 -2.20107 -2.86767 0
M  V30 5035 O 472.286 -3.56009 -2.55321 0
M  V30 5036 C 473.787 -2.26636 -3.80987 0
M  V30 5037 H 471.007 -0.465967 -0.482821 0
M  V30 5038 H 473.551 -1.80901 -0.953686 0
M  V30 5039 H 471.706 -1.78768 -3.43687 0
M  V30 5040 H 472.12 -4.0009 -3.39158 0
M  V30 5041 H 473.594 -2.89763 -4.69831 0
M  V30 5042 H 474.071 -1.2754 -4.20274 0
M  V30 5043 H 474.677 -2.68296 -3.29996 0
M  V30 5044 N 472.992 0.995999 -1.22138 0
M  V30 5045 C 474.222 1.76809 -1.06874 0
M  V30 5046 C 474.63 1.85265 0.383866 0
M  V30 5047 O 473.973 1.31969 1.27789 0
M  V30 5048 C 474.035 3.2186 -1.60144 0
M  V30 5049 C 473.699 3.36958 -3.0872 0
M  V30 5050 C 474.696 3.2452 -4.0618 0
M  V30 5051 C 472.381 3.62109 -3.48112 0
M  V30 5052 C 474.375 3.37013 -5.41019 0
M  V30 5053 C 472.062 3.74243 -4.831 0
M  V30 5054 C 473.06 3.61702 -5.79362 0
M  V30 5055 O 472.748 3.73436 -7.119 0
M  V30 5056 H 472.48 0.562207 -0.375365 0
M  V30 5057 H 475.034 1.26113 -1.62125 0
M  V30 5058 H 473.264 3.73734 -0.992981 0
M  V30 5059 H 474.953 3.80775 -1.40589 0
M  V30 5060 H 475.719 3.05004 -3.77091 0
M  V30 5061 H 471.598 3.70949 -2.73712 0
M  V30 5062 H 475.142 3.27141 -6.16137 0
M  V30 5063 H 471.039 3.93266 -5.11872 0
M  V30 5064 H 471.807 3.90328 -7.19435 0
M  V30 5065 N 474.47 1.03057 1.19235 0
M  V30 5066 C 475.719 0.72326 1.88287 0
M  V30 5067 C 476.032 -0.751333 1.80594 0
M  V30 5068 O 477.238 -1.17176 2.44912 0
M  V30 5069 C 475.694 1.24338 3.3774 0
M  V30 5070 C 475.302 2.74587 3.53986 0
M  V30 5071 C 477.046 1.01213 4.12257 0
M  V30 5072 C 474.953 3.20009 4.97341 0
M  V30 5073 H 473.883 0.266848 0.705201 0
M  V30 5074 H 476.534 1.24509 1.34795 0
M  V30 5075 H 474.916 0.649457 3.90638 0
M  V30 5076 H 476.09 3.39649 3.11408 0
M  V30 5077 H 474.405 2.9601 2.9286 0
M  V30 5078 H 477.002 1.32675 5.17978 0
M  V30 5079 H 477.345 -0.051001 4.16269 0
M  V30 5080 H 477.878 1.57014 3.65501 0
M  V30 5081 H 474.617 4.25659 4.98493 0
M  V30 5082 H 474.137 2.59676 5.40674 0
M  V30 5083 H 475.816 3.13447 5.66003 0
M  V30 5084 N 475.948 -1.35272 0.808662 0
M  V30 5085 C 476.911 -2.28082 0.226093 0
M  V30 5086 C 477.911 -1.49673 -0.587762 0
M  V30 5087 O 479.101 -1.69404 -0.405943 0
M  V30 5088 C 476.233 -3.33955 -0.684596 0
M  V30 5089 H 477.426 -2.81116 1.04469 0
M  V30 5090 H 474.979 -1.45162 0.579466 0
M  V30 5091 H 475.714 -2.86111 -1.5268 0
M  V30 5092 H 475.499 -3.91965 -0.102699 0
M  V30 5093 H 476.989 -4.03219 -1.08646 0
M  V30 5094 N 477.426 -0.562348 -1.47226 0
M  V30 5095 C 478.651 -0.0432632 -2.07355 0
M  V30 5096 C 479.076 1.24332 -1.41149 0
M  V30 5097 O 478.434 1.74603 -0.488226 0
M  V30 5098 C 478.482 0.130288 -3.60365 0
M  V30 5099 O 477.586 1.19166 -3.94808 0
M  V30 5100 H 476.927 -0.0536334 -0.66183 0
M  V30 5101 H 479.457 -0.779495 -1.89169 0
M  V30 5102 H 479.467 0.342881 -4.06557 0
M  V30 5103 H 478.142 -0.809389 -4.07948 0
M  V30 5104 H 476.719 0.959153 -3.60354 0
M  V30 5105 N 478.904 1.54736 -0.299062 0
M  V30 5106 C 479.836 2.20891 0.61153 0
M  V30 5107 C 480.849 1.20104 1.09904 0
M  V30 5108 O 482.038 1.46707 1.01683 0
M  V30 5109 C 479.138 2.84018 1.84897 0
M  V30 5110 C 478.311 4.10719 1.50428 0
M  V30 5111 C 477.37 4.57667 2.59667 0
M  V30 5112 O 476.396 5.2291 2.24842 0
M  V30 5113 N 477.598 4.29821 3.90172 0
M  V30 5114 H 480.363 2.99666 0.0452001 0
M  V30 5115 H 477.924 1.61446 -0.121178 0
M  V30 5116 H 479.916 3.1236 2.5732 0
M  V30 5117 H 478.486 2.09095 2.32375 0
M  V30 5118 H 477.706 3.89408 0.612781 0
M  V30 5119 H 478.994 4.93223 1.24934 0
M  V30 5120 H 478.392 3.77549 4.21276 0
M  V30 5121 H 476.949 4.62877 4.58899 0
M  V30 5122 N 480.382 0.0267497 1.57577 0
M  V30 5123 C 481.63 -0.651116 1.91324 0
M  V30 5124 C 481.951 -1.72804 0.90353 0
M  V30 5125 O 481.221 -1.95822 -0.0552946 0
M  V30 5126 H 479.801 -0.243491 0.706202 0
M  V30 5127 H 482.463 0.0739935 1.94759 0
M  V30 5128 H 481.559 -1.10536 2.9187 0
M  V30 5129 N 481.861 -1.55662 -0.24637 0
M  V30 5130 C 483.101 -1.79283 -0.981685 0
M  V30 5131 C 483.465 -0.596356 -1.82504 0
M  V30 5132 O 484.666 -0.711342 -2.59217 0
M  V30 5133 C 482.937 -3.07648 -1.819 0
M  V30 5134 S 484.496 -3.52491 -2.61334 0
M  V30 5135 H 481.314 -0.629676 -0.330196 0
M  V30 5136 H 483.916 -1.93901 -0.249498 0
M  V30 5137 H 482.62 -3.92794 -1.18915 0
M  V30 5138 H 482.151 -2.95768 -2.59393 0
M  V30 5139 H 484.166 -3.13866 -3.84321 0
M  V30 5140 N 483.339 0.512053 -1.4905 0
M  V30 5141 C 484.269 1.62365 -1.67809 0
M  V30 5142 C 485.25 1.61737 -0.526809 0
M  V30 5143 O 486.435 1.78651 -0.761404 0
M  V30 5144 C 483.565 3.00895 -1.73435 0
M  V30 5145 C 482.519 3.16387 -2.88242 0
M  V30 5146 C 481.845 4.56157 -2.78971 0
M  V30 5147 C 483.145 2.97457 -4.29321 0
M  V30 5148 H 484.839 1.46921 -2.60873 0
M  V30 5149 H 482.385 0.705379 -1.2554 0
M  V30 5150 H 484.338 3.78549 -1.85145 0
M  V30 5151 H 483.062 3.17403 -0.769619 0
M  V30 5152 H 481.721 2.41155 -2.76116 0
M  V30 5153 H 481.369 4.69525 -1.8043 0
M  V30 5154 H 481.069 4.67465 -3.5602 0
M  V30 5155 H 482.593 5.35886 -2.92675 0
M  V30 5156 H 484.007 3.64888 -4.42187 0
M  V30 5157 H 482.404 3.20245 -5.07507 0
M  V30 5158 H 483.474 1.93692 -4.44535 0
M  V30 5159 N 484.817 1.37938 0.762283 0
M  V30 5160 C 485.727 1.36681 1.90671 0
M  V30 5161 C 486.743 0.265078 1.71969 0
M  V30 5162 O 487.919 0.502055 1.95042 0
M  V30 5163 C 484.984 1.18211 3.25925 0
M  V30 5164 C 484.045 2.3811 3.57214 0
M  V30 5165 C 483.278 2.20512 4.86014 0
M  V30 5166 O 483.501 1.19429 5.57757 0
M  V30 5167 O 482.435 3.08911 5.16583 0
M  V30 5168 H 486.261 2.33091 1.94685 0
M  V30 5169 H 483.846 1.18767 0.906356 0
M  V30 5170 H 485.728 1.09937 4.06807 0
M  V30 5171 H 484.403 0.248807 3.22742 0
M  V30 5172 H 483.31 2.51958 2.76529 0
M  V30 5173 H 484.643 3.30041 3.65149 0
M  V30 5174 N 486.295 -0.989507 1.22664 0
M  V30 5175 C 487.258 -2.06183 1.00106 0
M  V30 5176 C 488.258 -1.60765 -0.0337726 0
M  V30 5177 O 489.448 -1.72989 0.205072 0
M  V30 5178 C 486.58 -3.37021 0.51279 0
M  V30 5179 H 487.773 -2.27629 1.95256 0
M  V30 5180 H 485.326 -1.16158 1.0458 0
M  V30 5181 H 486.061 -3.21261 -0.442917 0
M  V30 5182 H 485.846 -3.71323 1.25942 0
M  V30 5183 H 487.336 -4.1591 0.375315 0
M  V30 5184 N 487.773 -1.03688 -1.18687 0
M  V30 5185 C 489.001 -0.757918 -1.92518 0
M  V30 5186 C 489.416 0.684398 -1.75959 0
M  V30 5187 O 488.773 1.46617 -1.08673 0
M  V30 5188 C 488.824 -1.10985 -3.44042 0
M  V30 5189 O 488.545 -2.49554 -3.60076 0
M  V30 5190 C 490.046 -0.854844 -4.3498 0
M  V30 5191 H 487.266 -0.276699 -0.611293 0
M  V30 5192 H 489.81 -1.38352 -1.50595 0
M  V30 5193 H 487.965 -0.529279 -3.83767 0
M  V30 5194 H 488.379 -2.6291 -4.53849 0
M  V30 5195 H 489.853 -1.15098 -5.39867 0
M  V30 5196 H 490.33 0.210507 -4.38695 0
M  V30 5197 H 490.936 -1.41853 -4.00946 0
M  V30 5198 N 489.251 1.34841 -0.815825 0
M  V30 5199 C 490.497 1.98793 -0.401129 0
M  V30 5200 C 490.83 1.64548 1.03139 0
M  V30 5201 O 490.105 0.913487 1.71714 0
M  V30 5202 C 490.388 3.55143 -0.595409 0
M  V30 5203 C 490.241 3.99155 -2.07352 0
M  V30 5204 C 491.56 4.40092 -0.0268823 0
M  V30 5205 H 488.679 0.722146 -0.14722 0
M  V30 5206 H 491.321 1.59847 -1.02707 0
M  V30 5207 H 489.471 3.8845 -0.0625779 0
M  V30 5208 H 491.143 3.76216 -2.66945 0
M  V30 5209 H 489.386 3.49726 -2.56659 0
M  V30 5210 H 490.057 5.07971 -2.1603 0
M  V30 5211 H 492.533 4.13298 -0.482042 0
M  V30 5212 H 491.409 5.48562 -0.19267 0
M  V30 5213 H 491.67 4.29016 1.06759 0
M  V30 5214 N 490.729 0.570148 1.46925 0
M  V30 5215 C 491.677 -0.183181 2.31878 0
M  V30 5216 C 492.671 -0.896721 1.43719 0
M  V30 5217 O 493.877 -0.816536 1.60414 0
M  V30 5218 H 490.252 -0.077944 0.74795 0
M  V30 5219 H 492.223 0.552312 2.93244 0
M  V30 5220 C 490.972 -1.19172 3.2664 0
M  V30 5221 H 490.295 -0.652088 3.94446 0
M  V30 5222 H 491.735 -1.68946 3.88887 0
M  V30 5223 C 490.194 -2.24627 2.51086 0
M  V30 5224 O 490.724 -3.31773 2.26472 0
M  V30 5225 N 488.93 -1.98898 2.11867 0
M  V30 5226 H 488.477 -1.11777 2.32086 0
M  V30 5227 H 488.435 -2.6967 1.61634 0
M  V30 5228 N 492.207 -1.54576 0.307264 0
M  V30 5229 C 493.484 -1.92377 -0.353605 0
M  V30 5230 C 493.864 -1.23517 -1.71192 0
M  V30 5231 O 493.212 -0.373101 -2.25433 0
M  V30 5232 C 493.422 -3.45928 -0.462039 0
M  V30 5233 C 494.77 -4.18278 -0.729975 0
M  V30 5234 O 495.794 -3.51997 -0.545605 0
M  V30 5235 O 494.653 -5.3563 -1.08454 0
M  V30 5236 H 491.747 -0.802747 -0.198812 0
M  V30 5237 H 494.293 -1.65929 0.355783 0
M  V30 5238 H 493.065 -3.88187 0.492592 0
M  V30 5239 H 492.688 -3.78431 -1.21965 0
M  V30 5240 N 493.685 -0.035106 -1.57561 0
M  V30 5241 C 494.932 0.642229 -1.92046 0
M  V30 5242 C 495.26 1.7179 -0.91206 0
M  V30 5243 O 494.515 1.95544 0.0781153 0
M  V30 5244 C 494.814 1.29149 -3.3325 0
M  V30 5245 C 494.48 0.345604 -4.49574 0
M  V30 5246 C 493.142 0.0852775 -4.81124 0
M  V30 5247 C 495.494 -0.303569 -5.20315 0
M  V30 5248 C 492.822 -0.831927 -5.80772 0
M  V30 5249 C 495.174 -1.20886 -6.20942 0
M  V30 5250 C 493.838 -1.47802 -6.50931 0
M  V30 5251 H 493.108 0.235008 -0.702746 0
M  V30 5252 H 495.755 -0.0981529 -1.91248 0
M  V30 5253 H 494.06 2.10676 -3.30337 0
M  V30 5254 H 495.757 1.82223 -3.57205 0
M  V30 5255 H 492.347 0.558683 -4.24943 0
M  V30 5256 H 496.531 -0.115515 -4.96166 0
M  V30 5257 H 491.787 -1.0481 -6.02349 0
M  V30 5258 H 495.961 -1.71804 -6.74875 0
M  V30 5259 H 493.588 -2.19039 -7.2796 0
M  V30 5260 N 495.163 1.55791 0.238111 0
M  V30 5261 C 496.409 1.79211 0.962035 0
M  V30 5262 C 496.764 0.605463 1.82625 0
M  V30 5263 O 496.057 -0.40104 1.87356 0
M  V30 5264 C 496.251 3.05869 1.84875 0
M  V30 5265 C 496.08 4.36739 1.07186 0
M  V30 5266 C 494.85 4.99346 0.773424 0
M  V30 5267 C 497.048 5.1237 0.445168 0
M  V30 5268 N 495.03 6.13894 -0.0266037 0
M  V30 5269 C 496.401 6.19613 -0.219023 0
M  V30 5270 C 498.456 4.96622 0.356522 0
M  V30 5271 C 497.159 7.1282 -0.963358 0
M  V30 5272 C 499.185 5.90214 -0.374304 0
M  V30 5273 C 498.547 6.96872 -1.0271 0
M  V30 5274 H 494.646 0.707627 0.332849 0
M  V30 5275 H 497.23 1.93284 0.234368 0
M  V30 5276 H 495.401 2.93108 2.54837 0
M  V30 5277 H 497.133 3.17547 2.5089 0
M  V30 5278 H 493.888 4.60948 1.08738 0
M  V30 5279 H 494.312 6.75727 -0.414968 0
M  V30 5280 H 498.954 4.14232 0.846878 0
M  V30 5281 H 496.672 7.94704 -1.46529 0
M  V30 5282 H 500.258 5.80106 -0.443678 0
M  V30 5283 H 499.138 7.68045 -1.58358 0
M  V30 5284 N 496.642 -0.504142 1.49319 0
M  V30 5285 C 497.574 -1.62265 1.61872 0
M  V30 5286 C 498.587 -1.54881 0.501573 0
M  V30 5287 O 499.776 -1.6087 0.773497 0
M  V30 5288 C 496.876 -3.01042 1.55651 0
M  V30 5289 C 496.049 -3.33642 2.82845 0
M  V30 5290 C 495.108 -4.51816 2.69719 0
M  V30 5291 O 494.134 -4.53755 3.4365 0
M  V30 5292 N 495.336 -5.51543 1.81055 0
M  V30 5293 H 498.101 -1.51924 2.58339 0
M  V30 5294 H 495.662 -0.691954 1.46368 0
M  V30 5295 H 497.654 -3.78013 1.44528 0
M  V30 5296 H 496.224 -3.05323 0.670546 0
M  V30 5297 H 495.444 -2.45598 3.08343 0
M  V30 5298 H 496.732 -3.5222 3.67177 0
M  V30 5299 H 496.13 -5.52774 1.20241 0
M  V30 5300 H 494.687 -6.27629 1.75856 0
M  V30 5301 N 498.12 -1.38341 -0.754957 0
M  V30 5302 C 499.053 -1.29837 -1.87663 0
M  V30 5303 C 500.031 -0.175659 -1.61648 0
M  V30 5304 O 501.215 -0.352745 -1.8517 0
M  V30 5305 C 498.342 -1.01141 -3.23246 0
M  V30 5306 C 497.388 -2.15331 -3.6815 0
M  V30 5307 S 498.221 -3.77459 -3.79849 0
M  V30 5308 C 499.377 -3.50948 -5.18253 0
M  V30 5309 H 499.61 -2.24771 -1.9459 0
M  V30 5310 H 497.143 -1.24161 -0.917796 0
M  V30 5311 H 499.101 -0.852687 -4.01546 0
M  V30 5312 H 497.762 -0.0792784 -3.14 0
M  V30 5313 H 496.955 -1.90795 -4.6649 0
M  V30 5314 H 496.557 -2.27304 -2.97 0
M  V30 5315 H 498.849 -3.06977 -6.03963 0
M  V30 5316 H 499.792 -4.48677 -5.47809 0
M  V30 5317 H 500.2 -2.85492 -4.86985 0
M  V30 5318 N 499.598 0.982988 -1.23187 0
M  V30 5319 C 500.561 2.05649 -1.01198 0
M  V30 5320 C 501.561 1.6078 0.0252464 0
M  V30 5321 O 502.751 1.72878 -0.214243 0
M  V30 5322 C 499.883 3.36744 -0.530656 0
M  V30 5323 H 501.076 2.2659 -1.96461 0
M  V30 5324 H 498.629 1.15602 -1.05195 0
M  V30 5325 H 499.364 3.21492 0.425873 0
M  V30 5326 H 499.149 3.7065 -1.2791 0
M  V30 5327 H 500.639 4.15705 -0.397366 0
M  V30 5328 N 501.076 1.04316 1.18135 0
M  V30 5329 C 502.322 0.758899 1.88712 0
M  V30 5330 C 502.677 -0.705863 1.78984 0
M  V30 5331 O 501.97 -1.50874 1.18101 0
M  V30 5332 C 502.164 1.16271 3.37958 0
M  V30 5333 C 501.993 2.66518 3.62213 0
M  V30 5334 C 500.763 3.33702 3.79436 0
M  V30 5335 C 502.961 3.64739 3.62588 0
M  V30 5336 N 500.943 4.72904 3.91452 0
M  V30 5337 C 502.314 4.89627 3.80348 0
M  V30 5338 C 504.369 3.58333 3.4569 0
M  V30 5339 C 503.072 6.08879 3.8296 0
M  V30 5340 C 505.098 4.77016 3.49586 0
M  V30 5341 C 504.46 6.00724 3.67845 0
M  V30 5342 H 500.559 0.329795 0.709055 0
M  V30 5343 H 503.143 1.33334 1.4188 0
M  V30 5344 H 501.314 0.616319 3.83479 0
M  V30 5345 H 503.046 0.829205 3.96114 0
M  V30 5346 H 499.801 2.84105 3.78921 0
M  V30 5347 H 500.225 5.45258 4.01277 0
M  V30 5348 H 504.867 2.63663 3.30517 0
M  V30 5349 H 502.585 7.03903 3.96921 0
M  V30 5350 H 506.171 4.73703 3.37782 0
M  V30 5351 H 505.051 6.91022 3.70753 0
M  V30 5352 N 502.554 -1.34406 0.822964 0
M  V30 5353 C 503.486 -2.28305 0.202375 0
M  V30 5354 C 504.499 -1.5103 -0.60777 0
M  V30 5355 O 505.688 -1.73057 -0.437444 0
M  V30 5356 C 502.788 -3.30836 -0.734911 0
M  V30 5357 C 501.961 -4.37388 0.0324177 0
M  V30 5358 C 501.02 -5.1968 -0.825803 0
M  V30 5359 O 500.046 -5.68556 -0.270771 0
M  V30 5360 N 501.248 -5.39393 -2.14558 0
M  V30 5361 H 504.013 -2.82201 1.00909 0
M  V30 5362 H 501.574 -1.4693 0.67993 0
M  V30 5363 H 503.566 -3.82786 -1.31365 0
M  V30 5364 H 502.136 -2.77334 -1.44238 0
M  V30 5365 H 501.356 -3.86152 0.792469 0
M  V30 5366 H 502.644 -5.05702 0.560633 0
M  V30 5367 H 502.042 -5.01357 -2.62025 0
M  V30 5368 H 500.599 -5.94461 -2.67318 0
M  V30 5369 N 504.032 -0.577932 -1.46621 0
M  V30 5370 C 504.942 0.160651 -2.34049 0
M  V30 5371 C 505.958 0.890911 -1.49462 0
M  V30 5372 O 507.134 0.855166 -1.82343 0
M  V30 5373 C 504.199 1.16447 -3.26559 0
M  V30 5374 C 503.26 0.4394 -4.27045 0
M  V30 5375 C 502.493 1.3954 -5.15135 0
M  V30 5376 O 502.716 2.63162 -5.06065 0
M  V30 5377 O 501.65 0.908585 -5.95003 0
M  V30 5378 H 505.476 -0.557057 -2.98547 0
M  V30 5379 H 503.061 -0.338369 -1.45518 0
M  V30 5380 H 504.943 1.7434 -3.83645 0
M  V30 5381 H 503.618 1.86373 -2.64663 0
M  V30 5382 H 502.525 -0.181247 -3.73661 0
M  V30 5383 H 503.858 -0.218799 -4.91713 0
M  V30 5384 N 505.51 1.54411 -0.315457 0
M  V30 5385 C 506.458 2.25514 0.569771 0
M  V30 5386 C 507.452 1.2663 1.12522 0
M  V30 5387 O 508.658 1.44434 1.07419 0
M  V30 5388 H 505.033 0.724257 0.202376 0
M  V30 5389 H 507.004 2.98354 -0.0522895 0
M  V30 5390 C 505.753 3.02004 1.72305 0
M  V30 5391 H 505.076 3.77906 1.30488 0
M  V30 5392 H 506.516 3.55014 2.31821 0
M  V30 5393 C 504.975 2.09822 2.63583 0
M  V30 5394 O 505.505 1.67574 3.65078 0
M  V30 5395 N 503.711 1.75478 2.31637 0
M  V30 5396 H 503.258 2.10032 1.49145 0
M  V30 5397 H 503.216 1.14079 2.92973 0
M  V30 5398 N 506.988 0.0434614 1.5754 0
M  V30 5399 C 508.213 -0.645358 1.97104 0
M  V30 5400 C 508.638 -1.64037 0.920521 0
M  V30 5401 O 507.996 -1.80922 -0.11708 0
M  V30 5402 C 508.044 -1.31547 3.35749 0
M  V30 5403 O 507.148 -2.43103 3.33129 0
M  V30 5404 H 506.489 -0.168403 0.64229 0
M  V30 5405 H 509.019 0.109573 2.04306 0
M  V30 5406 H 509.029 -1.66895 3.72304 0
M  V30 5407 H 507.704 -0.586205 4.11748 0
M  V30 5408 H 506.281 -2.0976 3.0831 0
M  V30 5409 N 508.466 -1.55915 -0.229846 0
M  V30 5410 C 509.882 -1.48721 -0.579166 0
M  V30 5411 C 510.082 -0.736976 -1.87539 0
M  V30 5412 O 509.138 -0.273258 -2.51017 0
M  V30 5413 C 510.451 -2.9323 -0.666082 0
M  V30 5414 C 511.999 -3.03701 -0.757267 0
M  V30 5415 C 512.474 -4.49552 -0.8756 0
M  V30 5416 N 513.965 -4.53561 -0.940035 0
M  V30 5417 C 514.7 -5.63683 -1.05116 0
M  V30 5418 N 514.196 -6.83576 -1.12675 0
M  V30 5419 N 515.989 -5.51516 -1.08565 0
M  V30 5420 H 508.14 -2.03123 0.620857 0
M  V30 5421 H 510.403 -0.922898 0.21671 0
M  V30 5422 H 510.109 -3.51032 0.21664 0
M  V30 5423 H 509.983 -3.44668 -1.53243 0
M  V30 5424 H 512.37 -2.45969 -1.63043 0
M  V30 5425 H 512.451 -2.55446 0.134583 0
M  V30 5426 H 512.095 -5.079 -0.00692351 0
M  V30 5427 H 512.025 -4.95506 -1.78274 0
M  V30 5428 H 514.516 -3.67215 -0.892269 0
M  V30 5429 H 514.829 -7.63251 -1.21109 0
M  V30 5430 H 513.174 -6.86303 -1.09603 0
M  V30 5431 H 516.365 -4.5678 -1.02319 0
M  V30 5432 H 516.538 -6.37372 -1.1688 0
M  V30 5433 N 509.944 0.496216 -1.49584 0
M  V30 5434 C 511.19 1.25189 -1.59548 0
M  V30 5435 C 511.523 1.9212 -0.283466 0
M  V30 5436 O 510.798 1.80947 0.713324 0
M  V30 5437 C 511.081 2.31516 -2.75812 0
M  V30 5438 C 510.934 1.69054 -4.16822 0
M  V30 5439 C 512.253 3.3304 -2.87702 0
M  V30 5440 H 509.372 0.45379 -0.580727 0
M  V30 5441 H 512.014 0.549327 -1.81886 0
M  V30 5442 H 510.164 2.91438 -2.56897 0
M  V30 5443 H 511.836 1.12923 -4.47265 0
M  V30 5444 H 510.079 0.994485 -4.22247 0
M  V30 5445 H 510.75 2.462 -4.94054 0
M  V30 5446 H 513.226 2.83114 -3.04936 0
M  V30 5447 H 512.102 4.04794 -3.7072 0
M  V30 5448 H 512.363 3.95655 -1.97255 0
M  V30 5449 N 511.423 1.38739 0.74761 0
M  V30 5450 C 512.672 1.3459 1.50228 0
M  V30 5451 C 512.985 -0.0595592 1.95509 0
M  V30 5452 O 514.191 -0.22361 2.70578 0
M  V30 5453 C 512.647 2.36377 2.71393 0
M  V30 5454 C 512.255 3.82573 2.33113 0
M  V30 5455 C 513.999 2.41281 3.49262 0
M  V30 5456 C 511.906 4.76032 3.50924 0
M  V30 5457 H 510.836 0.500312 0.564096 0
M  V30 5458 H 513.487 1.64324 0.8167 0
M  V30 5459 H 511.869 1.99694 3.41962 0
M  V30 5460 H 513.043 4.28227 1.70171 0
M  V30 5461 H 511.358 3.80844 1.68365 0
M  V30 5462 H 513.955 3.08301 4.36869 0
M  V30 5463 H 514.298 1.43353 3.9084 0
M  V30 5464 H 514.831 2.76793 2.85711 0
M  V30 5465 H 511.57 5.75177 3.14408 0
M  V30 5466 H 511.09 4.35066 4.12889 0
M  V30 5467 H 512.769 4.94331 4.17427 0
M  V30 5468 N 512.901 -0.976442 1.23707 0
M  V30 5469 C 514.147 -1.72081 1.07312 0
M  V30 5470 C 514.48 -1.90275 -0.388476 0
M  V30 5471 O 513.755 -1.4579 -1.28746 0
M  V30 5472 C 514.038 -3.11675 1.80363 0
M  V30 5473 C 513.891 -3.01027 3.3422 0
M  V30 5474 C 515.21 -4.1117 1.5693 0
M  V30 5475 H 512.329 -0.624583 0.391236 0
M  V30 5476 H 514.971 -1.13649 1.52263 0
M  V30 5477 H 513.121 -3.61559 1.42153 0
M  V30 5478 H 514.793 -2.58637 3.81975 0
M  V30 5479 H 513.036 -2.3744 3.63049 0
M  V30 5480 H 513.707 -3.9988 3.80525 0
M  V30 5481 H 516.183 -3.7011 1.90151 0
M  V30 5482 H 515.059 -5.06928 2.10513 0
M  V30 5483 H 515.32 -4.392 0.505548 0
M  V30 5484 N 514.379 -1.04941 -1.1758 0
M  V30 5485 C 515.312 -0.592518 -2.20373 0
M  V30 5486 C 516.29 0.377561 -1.58156 0
M  V30 5487 O 517.474 0.28978 -1.86259 0
M  V30 5488 C 514.601 0.133215 -3.38438 0
M  V30 5489 C 513.647 -0.791484 -4.19092 0
M  V30 5490 S 514.48 -2.27925 -4.84572 0
M  V30 5491 C 515.636 -1.56462 -6.06028 0
M  V30 5492 H 515.869 -1.46342 -2.58788 0
M  V30 5493 H 513.402 -0.861148 -1.28155 0
M  V30 5494 H 515.36 0.545746 -4.06856 0
M  V30 5495 H 514.021 0.980124 -2.98416 0
M  V30 5496 H 513.214 -0.230039 -5.03475 0
M  V30 5497 H 512.816 -1.14326 -3.56098 0
M  V30 5498 H 515.108 -0.862539 -6.71987 0
M  V30 5499 H 516.051 -2.38583 -6.66696 0
M  V30 5500 H 516.459 -1.05313 -5.5459 0
M  V30 5501 N 515.857 1.33968 -0.830081 0
M  V30 5502 C 517.085 2.0228 -0.434773 0
M  V30 5503 C 517.5 1.62487 0.961419 0
M  V30 5504 O 516.857 0.833849 1.62337 0
M  V30 5505 C 516.908 3.5751 -0.535625 0
M  V30 5506 O 516.629 3.95864 -1.87679 0
M  V30 5507 C 518.13 4.43091 -0.136137 0
M  V30 5508 H 515.35 0.648151 -0.173613 0
M  V30 5509 H 517.894 1.71089 -1.12022 0
M  V30 5510 H 516.049 3.87266 0.101817 0
M  V30 5511 H 516.463 4.9056 -1.85609 0
M  V30 5512 H 517.937 5.51398 -0.257772 0
M  V30 5513 H 518.414 4.29433 0.921076 0
M  V30 5514 H 519.02 4.18677 -0.747662 0
M  V30 5515 N 517.335 0.585699 1.46312 0
M  V30 5516 C 518.563 0.0781299 2.06752 0
M  V30 5517 C 518.978 -1.22812 1.43396 0
M  V30 5518 O 518.335 -1.74318 0.540314 0
M  V30 5519 C 518.386 -0.0911927 3.61385 0
M  V30 5520 O 518.107 1.16336 4.22371 0
M  V30 5521 C 519.608 -0.632765 4.38761 0
M  V30 5522 H 516.828 0.0588188 0.668417 0
M  V30 5523 H 519.372 0.807218 1.87894 0
M  V30 5524 H 517.527 -0.770514 3.7966 0
M  V30 5525 H 517.941 0.979082 5.15281 0
M  V30 5526 H 519.415 -0.70041 5.47538 0
M  V30 5527 H 519.892 -1.65039 4.07012 0
M  V30 5528 H 520.498 0.0117856 4.25298 0
M  V30 5529 N 518.813 -1.54241 0.323641 0
M  V30 5530 C 520.229 -1.59574 -0.0290018 0
M  V30 5531 C 520.429 -1.34017 -1.50472 0
M  V30 5532 O 519.485 -1.12464 -2.26071 0
M  V30 5533 C 520.798 -2.98169 0.389295 0
M  V30 5534 C 522.346 -3.11148 0.339958 0
M  V30 5535 C 522.821 -4.5209 0.733418 0
M  V30 5536 N 524.312 -4.5808 0.686827 0
M  V30 5537 C 525.047 -5.65248 0.963464 0
M  V30 5538 N 524.543 -6.80355 1.30724 0
M  V30 5539 N 526.336 -5.55025 0.88902 0
M  V30 5540 H 518.487 -1.6911 1.28512 0
M  V30 5541 H 520.75 -0.790972 0.522558 0
M  V30 5542 H 520.456 -3.21871 1.41746 0
M  V30 5543 H 520.33 -3.76399 -0.245657 0
M  V30 5544 H 522.717 -2.87182 -0.679002 0
M  V30 5545 H 522.798 -2.35023 1.00985 0
M  V30 5546 H 522.442 -4.76788 1.75029 0
M  V30 5547 H 522.372 -5.26584 0.0412189 0
M  V30 5548 H 524.863 -3.75411 0.43298 0
M  V30 5549 H 525.176 -7.58029 1.5037 0
M  V30 5550 H 523.521 -6.81851 1.3455 0
M  V30 5551 H 526.712 -4.63977 0.619939 0
M  V30 5552 H 526.885 -6.38458 1.10797 0
M  V30 5553 N 520.291 -0.0518155 -1.57515 0
M  V30 5554 C 521.201 0.937539 -2.15052 0
M  V30 5555 C 522.217 1.34121 -1.10849 0
M  V30 5556 O 523.393 1.418 -1.4302 0
M  V30 5557 C 520.458 2.19379 -2.68466 0
M  V30 5558 C 519.519 1.84841 -3.87469 0
M  V30 5559 C 518.752 3.04477 -4.38326 0
M  V30 5560 O 518.975 4.17868 -3.88256 0
M  V30 5561 O 517.909 2.85453 -5.29906 0
M  V30 5562 H 521.735 0.478201 -2.99912 0
M  V30 5563 H 519.32 0.17012 -1.48428 0
M  V30 5564 H 521.202 2.93084 -3.02787 0
M  V30 5565 H 519.877 2.64449 -1.86677 0
M  V30 5566 H 518.784 1.08449 -3.58036 0
M  V30 5567 H 520.117 1.44569 -4.7049 0
M  V30 5568 N 521.769 1.56035 0.221574 0
M  V30 5569 C 523.015 1.79312 0.947372 0
M  V30 5570 C 523.348 0.621453 1.83988 0
M  V30 5571 O 522.623 -0.379287 1.90766 0
M  V30 5572 C 522.906 3.1267 1.78633 0
M  V30 5573 C 522.759 4.40284 0.920312 0
M  V30 5574 C 524.078 3.4247 2.7641 0
M  V30 5575 H 521.197 0.652328 0.342982 0
M  V30 5576 H 523.839 1.88765 0.216244 0
M  V30 5577 H 521.989 3.04741 2.40967 0
M  V30 5578 H 523.661 4.60232 0.313718 0
M  V30 5579 H 521.904 4.33212 0.225734 0
M  V30 5580 H 522.575 5.30033 1.54171 0
M  V30 5581 H 525.051 3.50526 2.24211 0
M  V30 5582 H 523.927 4.3695 3.32213 0
M  V30 5583 H 524.188 2.64635 3.54148 0
M  V30 5584 N 523.247 -0.488276 1.49845 0
M  V30 5585 C 524.157 -1.61451 1.70207 0
M  V30 5586 C 525.173 -1.63877 0.584846 0
M  V30 5587 O 526.349 -1.82063 0.861107 0
M  V30 5588 C 523.414 -2.9776 1.77594 0
M  V30 5589 C 522.475 -3.05861 3.01243 0
M  V30 5590 C 521.708 -4.35668 3.08268 0
M  V30 5591 O 521.931 -5.25197 2.22541 0
M  V30 5592 O 520.865 -4.49005 4.00847 0
M  V30 5593 H 524.691 -1.47199 2.65643 0
M  V30 5594 H 522.276 -0.665939 1.33737 0
M  V30 5595 H 524.158 -3.7875 1.84732 0
M  V30 5596 H 522.833 -3.12248 0.8534 0
M  V30 5597 H 521.74 -2.24012 2.99616 0
M  V30 5598 H 523.073 -2.96304 3.9302 0
M  V30 5599 N 524.725 -1.39134 -0.740242 0
M  V30 5600 C 525.672 -1.37434 -1.8542 0
M  V30 5601 C 526.642 -0.234822 -1.64432 0
M  V30 5602 O 527.827 -0.429125 -1.85912 0
M  V30 5603 C 524.967 -1.21844 -3.22875 0
M  V30 5604 C 524.08 -2.45296 -3.55603 0
M  V30 5605 C 523.215 -2.22334 -4.82432 0
M  V30 5606 C 522.254 -3.41488 -5.07988 0
M  V30 5607 N 521.391 -3.17877 -6.26018 0
M  V30 5608 H 526.231 -2.3266 -1.86207 0
M  V30 5609 H 523.768 -1.15578 -0.909946 0
M  V30 5610 H 525.726 -1.10818 -4.02213 0
M  V30 5611 H 524.356 -0.3025 -3.21379 0
M  V30 5612 H 523.408 -2.66945 -2.71006 0
M  V30 5613 H 524.72 -3.34063 -3.7041 0
M  V30 5614 H 523.874 -2.0852 -5.69741 0
M  V30 5615 H 522.613 -1.30954 -4.6979 0
M  V30 5616 H 521.618 -3.55807 -4.19144 0
M  V30 5617 H 522.843 -4.33763 -5.22519 0
M  V30 5618 H 520.789 -2.29156 -6.14673 0
M  V30 5619 H 520.706 -4.00198 -6.41387 0
M  V30 5620 H 521.974 -3.07746 -7.16179 0
M  V30 5621 N 526.204 0.969867 -1.24223 0
M  V30 5622 C 527.452 1.70918 -1.0785 0
M  V30 5623 C 527.773 1.91186 0.383763 0
M  V30 5624 O 527.043 1.48806 1.27411 0
M  V30 5625 H 525.623 0.633334 -0.396103 0
M  V30 5626 H 528.285 1.16689 -1.56108 0
M  V30 5627 H 527.381 2.69455 -1.57482 0
M  V30 5628 N 527.682 1.05563 1.17022 0
M  V30 5629 C 529.098 0.777684 1.39371 0
M  V30 5630 C 529.298 -0.626269 1.91521 0
M  V30 5631 O 528.354 -1.38806 2.10924 0
M  V30 5632 C 529.667 1.83642 2.3811 0
M  V30 5633 C 531.215 1.85907 2.51809 0
M  V30 5634 C 531.69 2.90813 3.53824 0
M  V30 5635 N 533.181 2.898 3.61345 0
M  V30 5636 C 533.916 3.6762 4.40049 0
M  V30 5637 N 533.412 4.55237 5.22237 0
M  V30 5638 N 535.205 3.56044 4.34959 0
M  V30 5639 H 527.356 1.9614 0.815047 0
M  V30 5640 H 529.619 0.849527 0.420722 0
M  V30 5641 H 529.325 2.84425 2.06871 0
M  V30 5642 H 529.199 1.6812 3.37662 0
M  V30 5643 H 531.586 0.857865 2.82356 0
M  V30 5644 H 531.667 2.05506 1.52318 0
M  V30 5645 H 531.311 3.91122 3.24015 0
M  V30 5646 H 531.241 2.68465 4.53028 0
M  V30 5647 H 533.732 2.26274 3.02669 0
M  V30 5648 H 534.045 5.11291 5.79484 0
M  V30 5649 H 532.39 4.59296 5.21605 0
M  V30 5650 H 535.581 2.86986 3.69806 0
M  V30 5651 H 535.754 4.16938 4.96051 0
M  V30 5652 N 529.16 -1.33526 0.837174 0
M  V30 5653 C 530.108 -2.31168 0.257698 0
M  V30 5654 C 531.102 -1.5806 -0.609388 0
M  V30 5655 O 532.308 -1.72941 -0.499139 0
M  V30 5656 H 528.683 -0.74922 0.0646058 0
M  V30 5657 H 530.654 -2.77552 1.09578 0
M  V30 5658 C 529.403 -3.4326 -0.553887 0
M  V30 5659 H 528.726 -3.99665 0.104008 0
M  V30 5660 H 530.166 -4.13782 -0.925219 0
M  V30 5661 C 528.625 -2.88965 -1.73207 0
M  V30 5662 O 529.155 -2.85013 -2.83073 0
M  V30 5663 N 527.361 -2.45596 -1.55342 0
M  V30 5664 H 526.908 -2.49009 -0.659705 0
M  V30 5665 H 526.866 -2.0962 -2.34322 0
M  V30 5666 N 530.638 -0.59345 -1.46 0
M  V30 5667 C 531.585 0.133618 -2.30413 0
M  V30 5668 C 532.555 0.873736 -1.41262 0
M  V30 5669 O 533.74 0.862279 -1.70204 0
M  V30 5670 C 530.88 1.13434 -3.25924 0
M  V30 5671 C 529.993 0.39656 -4.30176 0
M  V30 5672 C 529.128 1.38575 -5.12806 0
M  V30 5673 C 528.167 0.634984 -6.08797 0
M  V30 5674 N 527.304 1.57276 -6.84258 0
M  V30 5675 H 532.144 -0.592252 -2.92055 0
M  V30 5676 H 529.681 -0.303874 -1.43927 0
M  V30 5677 H 531.639 1.72752 -3.79753 0
M  V30 5678 H 530.269 1.82779 -2.66067 0
M  V30 5679 H 529.321 -0.311861 -3.79119 0
M  V30 5680 H 530.633 -0.189869 -4.98438 0
M  V30 5681 H 529.787 2.05141 -5.70966 0
M  V30 5682 H 528.526 2.00611 -4.44529 0
M  V30 5683 H 527.531 -0.0443925 -5.49782 0
M  V30 5684 H 528.756 0.0198678 -6.79097 0
M  V30 5685 H 526.702 2.18103 -6.18682 0
M  V30 5686 H 526.619 1.03941 -7.48821 0
M  V30 5687 H 527.887 2.22844 -7.46968 0
M  V30 5688 N 532.116 1.54067 -0.331816 0
M  V30 5689 C 533.356 2.02625 0.26876 0
M  V30 5690 C 533.72 1.21462 1.48697 0
M  V30 5691 O 534.921 1.59863 2.16096 0
M  V30 5692 C 533.192 3.52554 0.586577 0
M  V30 5693 S 534.751 4.23035 1.16563 0
M  V30 5694 H 531.569 0.706395 0.0807862 0
M  V30 5695 H 534.171 1.89844 -0.466856 0
M  V30 5696 H 532.875 4.09242 -0.308046 0
M  V30 5697 H 532.406 3.69432 1.35217 0
M  V30 5698 H 534.421 4.31382 2.45203 0
M  V30 5699 N 533.594 0.0601682 1.57485 0
M  V30 5700 C 534.84 -0.612501 1.93329 0
M  V30 5701 C 535.173 -1.6996 0.939526 0
M  V30 5702 O 534.448 -1.94472 -0.0330957 0
M  V30 5703 C 534.731 -1.20025 3.39508 0
M  V30 5704 C 534.584 -0.12059 4.49638 0
M  V30 5705 C 535.903 -2.10923 3.86264 0
M  V30 5706 H 533.022 -0.221185 0.703027 0
M  V30 5707 H 535.664 0.123768 1.89596 0
M  V30 5708 H 533.814 -1.82774 3.42821 0
M  V30 5709 H 535.486 0.51185 4.58452 0
M  V30 5710 H 533.729 0.550251 4.30296 0
M  V30 5711 H 534.4 -0.572019 5.49028 0
M  V30 5712 H 536.876 -1.58124 3.84884 0
M  V30 5713 H 535.752 -2.48987 4.8918 0
M  V30 5714 H 536.013 -3.01292 3.23536 0
M  V30 5715 N 535.072 -1.5615 -0.213296 0
M  V30 5716 C 536.483 -1.69645 -0.779582 0
M  V30 5717 C 536.834 -0.663615 -1.84636 0
M  V30 5718 O 535.959 0.183633 -2.15619 0
M  V30 5719 C 536.554 -3.07567 -1.42084 0
M  V30 5720 C 535.113 -3.22889 -1.93442 0
M  V30 5721 C 534.26 -2.65581 -0.797612 0
M  V30 5722 H 537.211 -1.58696 0.0114951 0
M  V30 5723 H 537.232 -3.03884 -2.28986 0
M  V30 5724 H 536.744 -3.82716 -0.644187 0
M  V30 5725 H 534.845 -2.52623 -2.73884 0
M  V30 5726 H 534.958 -4.30197 -2.10872 0
M  V30 5727 H 533.322 -2.24278 -1.20712 0
M  V30 5728 H 534.105 -3.43284 -0.033494 0
M  V30 5729 N 536.55 0.480323 -1.50102 0
M  V30 5730 C 537.78 1.25475 -1.64133 0
M  V30 5731 C 538.188 1.8647 -0.320272 0
M  V30 5732 O 537.531 1.69561 0.70673 0
M  V30 5733 C 537.593 2.40996 -2.6676 0
M  V30 5734 C 537.257 2.00711 -4.10565 0
M  V30 5735 C 538.254 1.53492 -4.96725 0
M  V30 5736 C 535.939 2.09714 -4.56427 0
M  V30 5737 C 537.933 1.15806 -6.26792 0
M  V30 5738 C 535.62 1.7164 -5.86501 0
M  V30 5739 C 536.618 1.24763 -6.71508 0
M  V30 5740 O 536.306 0.872122 -7.99155 0
M  V30 5741 H 536.038 0.385983 -0.554971 0
M  V30 5742 H 538.592 0.580848 -1.97016 0
M  V30 5743 H 536.822 3.11528 -2.291 0
M  V30 5744 H 538.511 3.02981 -2.70106 0
M  V30 5745 H 539.277 1.45966 -4.62514 0
M  V30 5746 H 535.156 2.4515 -3.90413 0
M  V30 5747 H 538.7 0.791465 -6.93096 0
M  V30 5748 H 534.597 1.78822 -6.20236 0
M  V30 5749 H 535.365 1.00178 -8.12346 0
M  V30 5750 N 538.028 1.39524 0.732853 0
M  V30 5751 C 539.274 1.38072 1.49358 0
M  V30 5752 C 539.629 -0.0227943 1.92386 0
M  V30 5753 O 538.922 -0.98976 1.64056 0
M  V30 5754 C 539.116 2.28916 2.74468 0
M  V30 5755 C 538.945 3.7796 2.43673 0
M  V30 5756 C 537.715 4.46874 2.35863 0
M  V30 5757 C 539.913 4.69886 2.09074 0
M  V30 5758 N 537.895 5.81242 1.97561 0
M  V30 5759 C 539.266 5.9292 1.81234 0
M  V30 5760 C 541.321 4.57887 1.95561 0
M  V30 5761 C 540.024 7.05297 1.41242 0
M  V30 5762 C 542.05 5.70187 1.56972 0
M  V30 5763 C 541.412 6.92297 1.30018 0
M  V30 5764 H 537.511 0.56051 0.5453 0
M  V30 5765 H 540.095 1.75093 0.85151 0
M  V30 5766 H 538.266 1.9405 3.36451 0
M  V30 5767 H 539.998 2.18441 3.40684 0
M  V30 5768 H 536.753 4.00341 2.5303 0
M  V30 5769 H 537.177 6.52356 1.80997 0
M  V30 5770 H 541.819 3.64014 2.15067 0
M  V30 5771 H 539.537 7.99069 1.20476 0
M  V30 5772 H 543.123 5.62892 1.47119 0
M  V30 5773 H 542.003 7.7772 1.00605 0
M  V30 5774 N 539.506 -0.963266 1.24736 0
M  V30 5775 C 540.917 -1.52145 1.08207 0
M  V30 5776 C 541.268 -1.93142 -0.345061 0
M  V30 5777 O 540.393 -1.77769 -1.23399 0
M  V30 5778 C 540.988 -2.76486 1.95808 0
M  V30 5779 C 539.547 -3.28646 1.8349 0
M  V30 5780 C 538.694 -2.01529 1.90476 0
M  V30 5781 H 541.645 -0.781083 1.38148 0
M  V30 5782 H 541.666 -3.49986 1.49297 0
M  V30 5783 H 541.178 -2.46617 2.99669 0
M  V30 5784 H 539.279 -3.63357 0.824787 0
M  V30 5785 H 539.392 -3.97246 2.67829 0
M  V30 5786 H 537.756 -2.16442 1.34258 0
M  V30 5787 H 538.539 -1.7402 2.95926 0
M  V30 5788 N 540.985 -1.06182 -1.16461 0
M  V30 5789 C 541.895 -0.682671 -2.24448 0
M  V30 5790 C 542.911 0.30078 -1.71381 0
M  V30 5791 O 544.087 0.150376 -2.00838 0
M  V30 5792 C 541.152 -0.0737202 -3.46622 0
M  V30 5793 C 540.213 -1.10889 -4.14731 0
M  V30 5794 C 539.446 -0.528908 -5.31073 0
M  V30 5795 O 539.669 0.65868 -5.66584 0
M  V30 5796 O 538.603 -1.26805 -5.88391 0
M  V30 5797 H 542.429 -1.58291 -2.59187 0
M  V30 5798 H 540.014 -0.834013 -1.23954 0
M  V30 5799 H 541.896 0.264192 -4.20571 0
M  V30 5800 H 540.571 0.800015 -3.13658 0
M  V30 5801 H 539.478 -1.49896 -3.42756 0
M  V30 5802 H 540.811 -1.95412 -4.51747 0
M  V30 5803 N 542.463 1.3308 -0.844243 0
M  V30 5804 C 543.709 1.97898 -0.443206 0
M  V30 5805 C 544.042 1.66699 0.99625 0
M  V30 5806 O 543.317 0.949704 1.69738 0
M  V30 5807 C 543.6 3.53801 -0.670606 0
M  V30 5808 C 543.453 3.94667 -2.15772 0
M  V30 5809 C 544.772 4.39936 -0.120226 0
M  V30 5810 H 541.891 0.718861 -0.162504 0
M  V30 5811 H 544.533 1.57633 -1.06075 0
M  V30 5812 H 542.683 3.88229 -0.14496 0
M  V30 5813 H 544.355 3.70469 -2.74865 0
M  V30 5814 H 542.598 3.44203 -2.6402 0
M  V30 5815 H 543.269 5.03275 -2.26757 0
M  V30 5816 H 545.745 4.12183 -0.5696 0
M  V30 5817 H 544.621 5.4803 -0.308984 0
M  V30 5818 H 544.882 4.31184 0.976347 0
M  V30 5819 N 543.941 0.601185 1.45683 0
M  V30 5820 C 545.189 0.0936957 2.01883 0
M  V30 5821 C 545.51 -1.2779 1.47291 0
M  V30 5822 O 544.78 -1.84279 0.664691 0
M  V30 5823 H 543.36 0.0316466 0.746329 0
M  V30 5824 H 546.022 0.781137 1.78562 0
M  V30 5825 H 545.118 0.0386297 3.12076 0
M  V30 5826 N 545.419 -1.53889 0.339982 0
M  V30 5827 C 546.352 -2.21187 -0.561405 0
M  V30 5828 C 547.33 -1.19463 -1.10306 0
M  V30 5829 O 548.514 -1.48268 -1.164 0
M  V30 5830 C 545.641 -2.8865 -1.77198 0
M  V30 5831 C 544.687 -4.04232 -1.3601 0
M  V30 5832 S 545.52 -5.34129 -0.382909 0
M  V30 5833 C 546.676 -6.05094 -1.60039 0
M  V30 5834 H 546.909 -2.97298 0.0102092 0
M  V30 5835 H 544.442 -1.53901 0.124056 0
M  V30 5836 H 546.4 -3.28138 -2.4665 0
M  V30 5837 H 545.061 -2.12311 -2.3148 0
M  V30 5838 H 544.254 -4.50358 -2.2626 0
M  V30 5839 H 543.856 -3.66503 -0.745098 0
M  V30 5840 H 546.148 -6.2827 -2.53541 0
M  V30 5841 H 547.091 -6.98182 -1.18099 0
M  V30 5842 H 547.499 -5.35207 -1.79483 0
M  V30 5843 N 546.897 -0.0685191 -1.57451 0
M  V30 5844 C 547.829 0.929372 -2.09512 0
M  V30 5845 C 548.842 1.26354 -1.02657 0
M  V30 5846 O 550.031 1.2213 -1.30179 0
M  V30 5847 C 547.131 2.24612 -2.53777 0
M  V30 5848 C 546.304 2.09128 -3.84167 0
M  V30 5849 C 545.363 3.24079 -4.14559 0
M  V30 5850 O 544.389 2.99215 -4.8421 0
M  V30 5851 N 545.591 4.49077 -3.67845 0
M  V30 5852 H 548.356 0.484901 -2.95751 0
M  V30 5853 H 545.917 0.11729 -1.61475 0
M  V30 5854 H 547.909 3.00412 -2.71172 0
M  V30 5855 H 546.479 2.60569 -1.72692 0
M  V30 5856 H 545.699 1.17815 -3.76182 0
M  V30 5857 H 546.987 1.9603 -4.69521 0
M  V30 5858 H 546.385 4.72165 -3.11571 0
M  V30 5859 H 544.942 5.21915 -3.90446 0
M  V30 5860 N 548.375 1.56261 0.205012 0
M  V30 5861 C 549.791 1.49623 0.555433 0
M  V30 5862 C 549.991 0.766719 1.86343 0
M  V30 5863 O 549.047 0.313158 2.50551 0
M  V30 5864 C 550.36 2.94253 0.619347 0
M  V30 5865 C 551.908 3.04868 0.708855 0
M  V30 5866 C 552.383 4.50888 0.803969 0
M  V30 5867 N 553.874 4.54999 0.867758 0
M  V30 5868 C 554.609 5.65284 0.96135 0
M  V30 5869 N 554.105 6.85282 1.01786 0
M  V30 5870 N 555.898 5.53174 0.997771 0
M  V30 5871 H 548.049 2.0211 -0.653094 0
M  V30 5872 H 550.312 0.919333 -0.231366 0
M  V30 5873 H 550.018 3.50643 -0.272458 0
M  V30 5874 H 549.892 3.47063 1.47741 0
M  V30 5875 H 552.279 2.48532 1.5911 0
M  V30 5876 H 552.36 2.55199 -0.175205 0
M  V30 5877 H 552.004 5.07846 -0.0738798 0
M  V30 5878 H 551.934 4.98279 1.70369 0
M  V30 5879 H 554.425 3.68588 0.833735 0
M  V30 5880 H 554.738 7.65081 1.08951 0
M  V30 5881 H 553.083 6.8796 0.986706 0
M  V30 5882 H 556.274 4.5835 0.950392 0
M  V30 5883 H 556.447 6.39151 1.06725 0
M  V30 5884 N 549.853 -0.472356 1.50355 0
M  V30 5885 C 550.816 -1.5529 1.68576 0
M  V30 5886 C 551.816 -1.50863 0.556511 0
M  V30 5887 O 553.006 -1.53505 0.823516 0
M  V30 5888 C 550.138 -2.94921 1.70981 0
M  V30 5889 H 551.331 -1.40451 2.64978 0
M  V30 5890 H 548.884 -0.698645 1.39816 0
M  V30 5891 H 549.619 -3.15204 0.762675 0
M  V30 5892 H 549.404 -2.99541 2.53017 0
M  V30 5893 H 550.894 -3.73372 1.87037 0
M  V30 5894 N 551.331 -1.39911 -0.725443 0
M  V30 5895 C 552.561 -1.40744 -1.51244 0
M  V30 5896 C 552.969 -0.00275403 -1.892 0
M  V30 5897 O 552.312 0.981299 -1.55294 0
M  V30 5898 C 552.374 -2.22527 -2.82351 0
M  V30 5899 C 552.038 -3.71053 -2.66774 0
M  V30 5900 C 553.035 -4.63916 -2.34686 0
M  V30 5901 C 550.72 -4.14753 -2.83347 0
M  V30 5902 C 552.714 -5.98463 -2.19366 0
M  V30 5903 C 550.401 -5.49372 -2.67644 0
M  V30 5904 C 551.399 -6.41042 -2.357 0
M  V30 5905 O 551.087 -7.73181 -2.20107 0
M  V30 5906 H 550.819 -0.482314 -0.473655 0
M  V30 5907 H 553.373 -1.84472 -0.903284 0
M  V30 5908 H 551.603 -1.73563 -3.45562 0
M  V30 5909 H 553.292 -2.15421 -3.44018 0
M  V30 5910 H 554.058 -4.31453 -2.21525 0
M  V30 5911 H 549.937 -3.43728 -3.072 0
M  V30 5912 H 553.481 -6.69979 -1.94354 0
M  V30 5913 H 549.378 -5.81424 -2.80387 0
M  V30 5914 H 550.146 -7.84008 -2.35103 0
M  V30 5915 N 552.809 0.956637 -1.25245 0
M  V30 5916 C 554.057 1.69764 -1.09657 0
M  V30 5917 C 554.378 1.91583 0.363464 0
M  V30 5918 O 553.648 1.50149 1.25825 0
M  V30 5919 H 552.228 0.629097 -0.402798 0
M  V30 5920 H 554.89 1.15026 -1.57337 0
M  V30 5921 H 553.986 2.67769 -1.60331 0
M  V30 5922 N 554.287 1.06798 1.15896 0
M  V30 5923 C 555.698 0.811355 1.68149 0
M  V30 5924 C 556.049 -0.664339 1.8461 0
M  V30 5925 O 555.174 -1.51485 1.54535 0
M  V30 5926 C 555.769 1.46624 3.05429 0
M  V30 5927 C 554.328 1.25726 3.54781 0
M  V30 5928 C 553.475 1.53949 2.3064 0
M  V30 5929 H 556.426 1.23078 1.00187 0
M  V30 5930 H 556.447 0.88437 3.7008 0
M  V30 5931 H 555.959 2.54025 2.93416 0
M  V30 5932 H 554.06 0.20322 3.72045 0
M  V30 5933 H 554.173 1.97354 4.36564 0
M  V30 5934 H 552.537 0.96025 2.35905 0
M  V30 5935 H 553.32 2.6252 2.2122 0
M  V30 5936 N 555.766 -1.3263 0.851289 0
M  V30 5937 C 556.996 -2.01271 0.466222 0
M  V30 5938 C 557.404 -1.64156 -0.940714 0
M  V30 5939 O 556.747 -0.857109 -1.62479 0
M  V30 5940 C 556.809 -3.55695 0.521672 0
M  V30 5941 C 556.473 -4.16227 1.88691 0
M  V30 5942 C 557.47 -4.34699 2.85189 0
M  V30 5943 C 555.155 -4.52377 2.18313 0
M  V30 5944 C 557.149 -4.88484 4.09465 0
M  V30 5945 C 554.836 -5.05868 3.42843 0
M  V30 5946 C 555.834 -5.23869 4.38235 0
M  V30 5947 O 555.522 -5.76218 5.6056 0
M  V30 5948 H 555.254 -0.651034 0.18202 0
M  V30 5949 H 557.808 -1.7026 1.14894 0
M  V30 5950 H 556.038 -3.86086 -0.217888 0
M  V30 5951 H 557.727 -4.05613 0.152682 0
M  V30 5952 H 558.493 -4.07107 2.63607 0
M  V30 5953 H 554.372 -4.37652 1.44851 0
M  V30 5954 H 557.916 -5.02451 4.83931 0
M  V30 5955 H 553.813 -5.32891 3.64277 0
M  V30 5956 H 554.581 -5.94616 5.62471 0
M  V30 5957 N 557.244 -0.608902 -1.45362 0
M  V30 5958 C 558.469 -0.10921 -2.07112 0
M  V30 5959 C 558.894 1.19779 -1.45033 0
M  V30 5960 O 558.252 1.72961 -0.543527 0
M  V30 5961 C 558.3 0.0155745 -3.60597 0
M  V30 5962 O 557.404 1.06546 -3.98399 0
M  V30 5963 H 556.745 -0.0746619 -0.659789 0
M  V30 5964 H 559.275 -0.839283 -1.86594 0
M  V30 5965 H 559.285 0.213364 -4.07442 0
M  V30 5966 H 557.96 -0.938765 -4.05167 0
M  V30 5967 H 556.537 0.844024 -3.63223 0
M  V30 5968 N 558.722 1.53707 -0.348139 0
M  V30 5969 C 559.968 2.01286 0.247332 0
M  V30 5970 C 560.301 1.23546 1.49834 0
M  V30 5971 O 559.576 0.324331 1.91777 0
M  V30 5972 C 559.859 3.55768 0.556858 0
M  V30 5973 C 559.712 4.44216 -0.706564 0
M  V30 5974 C 561.031 4.1841 1.3646 0
M  V30 5975 H 558.15 0.731677 0.0884201 0
M  V30 5976 H 560.792 1.84106 -0.469584 0
M  V30 5977 H 558.942 3.70539 1.16761 0
M  V30 5978 H 560.614 4.41274 -1.34444 0
M  V30 5979 H 558.857 4.12892 -1.33052 0
M  V30 5980 H 559.528 5.50202 -0.445186 0
M  V30 5981 H 562.004 4.07365 0.848113 0
M  V30 5982 H 560.88 5.26563 1.54992 0
M  V30 5983 H 561.141 3.7333 2.36805 0
M  V30 5984 N 560.2 0.0768682 1.57412 0
M  V30 5985 C 561.428 -0.59997 1.9801 0
M  V30 5986 C 561.843 -1.62842 0.955408 0
M  V30 5987 O 561.2 -1.8241 -0.057314 0
M  V30 5988 C 561.251 -1.26401 3.38681 0
M  V30 5989 O 560.972 -0.276723 4.37225 0
M  V30 5990 C 562.473 -2.0282 3.94182 0
M  V30 5991 H 559.693 -0.162239 0.651091 0
M  V30 5992 H 562.237 0.150771 2.03943 0
M  V30 5993 H 560.392 -1.96581 3.33819 0
M  V30 5994 H 560.806 -0.753744 5.19056 0
M  V30 5995 H 562.28 -2.44667 4.94815 0
M  V30 5996 H 562.757 -2.88678 3.31001 0
M  V30 5997 H 563.363 -1.37496 4.02461 0
M  V30 5998 N 561.678 -1.56367 -0.196722 0
M  V30 5999 C 562.626 -1.95304 -1.2633 0
M  V30 6000 C 563.62 -0.838252 -1.47206 0
M  V30 6001 O 564.826 -1.02325 -1.48087 0
M  V30 6002 H 561.201 -0.621013 -0.424083 0
M  V30 6003 H 563.172 -2.84254 -0.907879 0
M  V30 6004 C 561.921 -2.3074 -2.60104 0
M  V30 6005 H 561.244 -3.16047 -2.44856 0
M  V30 6006 H 562.684 -2.61849 -3.33484 0
M  V30 6007 C 561.143 -1.14143 -3.16975 0
M  V30 6008 O 561.673 -0.415602 -3.99544 0
M  V30 6009 N 559.879 -0.91867 -2.75697 0
M  V30 6010 H 559.426 -1.51065 -2.08656 0
M  V30 6011 H 559.384 -0.140321 -3.14087 0
M  V30 6012 N 563.156 0.464375 -1.50603 0
M  V30 6013 C 564.396 1.22573 -1.6357 0
M  V30 6014 C 564.76 1.89111 -0.331834 0
M  V30 6015 O 565.961 2.66679 -0.336999 0
M  V30 6016 C 564.232 2.23643 -2.7878 0
M  V30 6017 S 565.791 3.08628 -3.1192 0
M  V30 6018 H 562.609 0.416058 -0.576556 0
M  V30 6019 H 565.211 0.521637 -1.88412 0
M  V30 6020 H 563.915 1.73354 -3.7199 0
M  V30 6021 H 563.446 2.98672 -2.56044 0
M  V30 6022 H 565.461 4.24904 -2.56264 0
M  V30 6023 N 564.634 1.40294 0.718013 0
M  V30 6024 C 565.882 1.38167 1.47494 0
M  V30 6025 C 566.203 -0.01607 1.94993 0
M  V30 6026 O 565.473 -0.970396 1.70177 0
M  V30 6027 H 564.053 0.508505 0.547203 0
M  V30 6028 H 566.715 1.75324 0.851322 0
M  V30 6029 H 565.811 2.05503 2.34894 0
M  V30 6030 N 566.112 -0.949982 1.2575 0
M  V30 6031 C 567.022 -2.08109 1.08295 0
M  V30 6032 C 568.038 -1.7399 0.0188181 0
M  V30 6033 O 569.214 -2.00187 0.220724 0
M  V30 6034 C 566.279 -3.39383 0.708534 0
M  V30 6035 C 565.34 -3.8734 1.85111 0
M  V30 6036 C 564.573 -5.12349 1.49447 0
M  V30 6037 O 564.796 -5.6905 0.392212 0
M  V30 6038 O 563.73 -5.5513 2.32624 0
M  V30 6039 H 567.556 -2.25738 2.03165 0
M  V30 6040 H 565.141 -1.06545 1.04731 0
M  V30 6041 H 567.023 -4.18277 0.512061 0
M  V30 6042 H 565.698 -3.23013 -0.210854 0
M  V30 6043 H 564.605 -3.09429 2.10248 0
M  V30 6044 H 565.938 -4.08216 2.74991 0
M  V30 6045 N 567.59 -1.07411 -1.15328 0
M  V30 6046 C 568.54 -0.664788 -2.18093 0
M  V30 6047 C 569.524 0.310395 -1.57878 0
M  V30 6048 O 570.716 0.124026 -1.76565 0
M  V30 6049 C 567.845 -0.0647822 -3.43239 0
M  V30 6050 C 566.931 -1.06514 -4.10506 0
M  V30 6051 N 567.322 -2.24491 -4.53252 0
M  V30 6052 C 565.62 -0.898613 -4.36853 0
M  V30 6053 C 566.321 -2.8796 -5.05424 0
M  V30 6054 N 565.297 -2.15622 -4.99007 0
M  V30 6055 H 569.099 -1.56333 -2.48872 0
M  V30 6056 H 566.613 -0.947393 -1.31902 0
M  V30 6057 H 568.61 0.246363 -4.16171 0
M  V30 6058 H 567.27 0.828866 -3.13943 0
M  V30 6059 H 568.281 -2.62205 -4.46619 0
M  V30 6060 H 564.958 -0.0579118 -4.1746 0
M  V30 6061 H 566.348 -3.88137 -5.48452 0
M  V30 6062 N 569.068 1.32177 -0.85831 0
M  V30 6063 C 570.345 1.91781 -0.384624 0
M  V30 6064 C 570.725 1.78171 1.13217 0
M  V30 6065 O 570.073 1.18209 1.95548 0
M  V30 6066 C 570.283 3.38414 -0.853047 0
M  V30 6067 C 571.631 4.15542 -0.872359 0
M  V30 6068 O 572.655 3.47148 -0.797926 0
M  V30 6069 O 571.514 5.37678 -0.978009 0
M  V30 6070 H 568.608 0.819259 -0.112886 0
M  V30 6071 H 571.154 1.40923 -0.945453 0
M  V30 6072 H 569.926 3.4228 -1.89632 0
M  V30 6073 H 569.549 3.96683 -0.269874 0
M  V30 6074 N 570.547 0.616602 1.45037 0
M  V30 6075 C 571.775 0.121968 2.0654 0
M  V30 6076 C 572.19 -1.19743 1.45969 0
M  V30 6077 O 571.547 -1.73133 0.577168 0
M  V30 6078 C 571.598 -0.0145171 3.61497 0
M  V30 6079 O 571.319 1.25269 4.19809 0
M  V30 6080 C 572.82 -0.539555 4.40004 0
M  V30 6081 H 570.04 0.0729837 0.667019 0
M  V30 6082 H 572.584 0.846891 1.8614 0
M  V30 6083 H 570.739 -0.689809 3.81209 0
M  V30 6084 H 571.153 1.08816 5.13088 0
M  V30 6085 H 572.627 -0.584112 5.48901 0
M  V30 6086 H 573.104 -1.56368 4.10421 0
M  V30 6087 H 573.71 0.101995 4.25178 0
M  V30 6088 N 572.025 -1.5352 0.356285 0
M  V30 6089 C 573.253 -2.05534 -0.237328 0
M  V30 6090 C 573.668 -1.23043 -1.43199 0
M  V30 6091 O 573.025 -0.268821 -1.80509 0
M  V30 6092 C 573.076 -3.55791 -0.639933 0
M  V30 6093 O 572.797 -4.35154 0.507233 0
M  V30 6094 C 574.298 -4.24027 -1.29292 0
M  V30 6095 H 571.518 -0.669585 -0.0435572 0
M  V30 6096 H 574.062 -1.97988 0.511963 0
M  V30 6097 H 572.217 -3.63518 -1.33915 0
M  V30 6098 H 572.631 -5.24178 0.18375 0
M  V30 6099 H 574.105 -5.30509 -1.52527 0
M  V30 6100 H 574.582 -3.77166 -2.25039 0
M  V30 6101 H 575.188 -4.20527 -0.63539 0
M  V30 6102 N 573.503 -0.0852151 -1.57369 0
M  V30 6103 C 574.413 0.891712 -2.16992 0
M  V30 6104 C 575.429 1.3174 -1.13669 0
M  V30 6105 O 576.605 1.38735 -1.45995 0
M  V30 6106 C 573.67 2.13635 -2.73059 0
M  V30 6107 C 572.731 1.7658 -3.91303 0
M  V30 6108 C 571.964 2.95111 -4.44686 0
M  V30 6109 O 572.187 4.09539 -3.97032 0
M  V30 6110 O 571.121 2.74149 -5.35841 0
M  V30 6111 H 574.947 0.414477 -3.00858 0
M  V30 6112 H 572.532 0.138598 -1.48756 0
M  V30 6113 H 574.414 2.86595 -3.08935 0
M  V30 6114 H 573.089 2.6043 -1.92244 0
M  V30 6115 H 571.996 1.00831 -3.60255 0
M  V30 6116 H 573.329 1.34557 -4.7345 0
M  V30 6117 N 574.981 1.5647 0.188427 0
M  V30 6118 C 576.211 1.84863 0.922463 0
M  V30 6119 C 576.619 0.666413 1.77075 0
M  V30 6120 O 575.962 -0.374044 1.79852 0
M  V30 6121 C 576.024 3.07447 1.86324 0
M  V30 6122 C 575.688 4.41066 1.19625 0
M  V30 6123 C 576.685 5.16767 0.569946 0
M  V30 6124 C 574.37 4.87802 1.19811 0
M  V30 6125 C 576.364 6.37384 -0.045594 0
M  V30 6126 C 574.051 6.08353 0.57874 0
M  V30 6127 C 575.049 6.82987 -0.0420259 0
M  V30 6128 O 574.737 8.01254 -0.651675 0
M  V30 6129 H 574.469 0.61784 0.274316 0
M  V30 6130 H 577.023 2.04437 0.198613 0
M  V30 6131 H 575.253 2.83774 2.62696 0
M  V30 6132 H 576.942 3.2243 2.46564 0
M  V30 6133 H 577.708 4.81749 0.560601 0
M  V30 6134 H 573.587 4.29662 1.67069 0
M  V30 6135 H 577.131 6.95578 -0.530731 0
M  V30 6136 H 573.028 6.42838 0.58561 0
M  V30 6137 H 573.796 8.16655 -0.549236 0
M  V30 6138 N 576.459 -0.456382 1.50847 0
M  V30 6139 C 577.406 -1.55249 1.70782 0
M  V30 6140 C 578.376 -1.56757 0.549231 0
M  V30 6141 O 579.561 -1.74061 0.7815 0
M  V30 6142 C 576.701 -2.93118 1.82143 0
M  V30 6143 C 575.814 -3.01285 3.09598 0
M  V30 6144 C 574.949 -4.30159 3.11667 0
M  V30 6145 C 573.988 -4.32124 4.33515 0
M  V30 6146 N 573.125 -5.52492 4.3324 0
M  V30 6147 H 577.965 -1.37555 2.64353 0
M  V30 6148 H 575.502 -0.668543 1.3103 0
M  V30 6149 H 577.46 -3.73088 1.86711 0
M  V30 6150 H 576.09 -3.09413 0.919978 0
M  V30 6151 H 575.142 -2.14096 3.14431 0
M  V30 6152 H 576.454 -2.98597 3.99551 0
M  V30 6153 H 575.608 -5.18489 3.15046 0
M  V30 6154 H 574.347 -4.35477 2.1957 0
M  V30 6155 H 573.352 -3.42189 4.30333 0
M  V30 6156 H 574.577 -4.28485 5.26856 0
M  V30 6157 H 572.523 -5.58567 3.44004 0
M  V30 6158 H 572.44 -5.51605 5.16979 0
M  V30 6159 H 573.708 -6.42906 4.40786 0
M  V30 6160 N 577.937 -1.40673 -0.710563 0
M  V30 6161 C 578.867 -1.44095 -1.83736 0
M  V30 6162 C 579.848 -0.301286 -1.67411 0
M  V30 6163 O 581.033 -0.510618 -1.87367 0
M  V30 6164 C 578.163 -1.30773 -3.21738 0
M  V30 6165 C 577.117 -2.42395 -3.52745 0
M  V30 6166 C 576.443 -2.14147 -4.89944 0
M  V30 6167 C 577.743 -3.84738 -3.53234 0
M  V30 6168 H 579.437 -2.38396 -1.81129 0
M  V30 6169 H 576.983 -1.14746 -0.870017 0
M  V30 6170 H 578.936 -1.31783 -4.00264 0
M  V30 6171 H 577.66 -0.329507 -3.24934 0
M  V30 6172 H 576.319 -2.40643 -2.76562 0
M  V30 6173 H 575.967 -1.14703 -4.89747 0
M  V30 6174 H 575.667 -2.88934 -5.11655 0
M  V30 6175 H 577.191 -2.16848 -5.70797 0
M  V30 6176 H 578.605 -3.88286 -4.2179 0
M  V30 6177 H 577.002 -4.59085 -3.86473 0
M  V30 6178 H 578.072 -4.13962 -2.52514 0
M  V30 6179 N 579.415 0.9433 -1.26252 0
M  V30 6180 C 580.831 1.21644 -1.03319 0
M  V30 6181 C 581.031 2.0003 0.242983 0
M  V30 6182 O 580.087 2.33838 0.952688 0
M  V30 6183 C 581.4 1.97978 -2.2633 0
M  V30 6184 C 582.948 2.10978 -2.31209 0
M  V30 6185 C 583.423 2.90713 -3.53907 0
M  V30 6186 N 584.914 2.98287 -3.54371 0
M  V30 6187 C 585.649 3.60406 -4.45976 0
M  V30 6188 N 585.145 4.24043 -5.47868 0
M  V30 6189 N 586.938 3.57658 -4.33633 0
M  V30 6190 H 579.089 0.419221 -2.08222 0
M  V30 6191 H 581.352 0.247995 -0.914988 0
M  V30 6192 H 581.058 1.47788 -3.19142 0
M  V30 6193 H 580.932 2.9865 -2.30408 0
M  V30 6194 H 583.319 2.6036 -1.38913 0
M  V30 6195 H 583.4 1.09575 -2.31143 0
M  V30 6196 H 583.044 2.42018 -4.46531 0
M  V30 6197 H 582.974 3.92367 -3.5122 0
M  V30 6198 H 585.465 2.53044 -2.80673 0
M  V30 6199 H 585.778 4.69334 -6.13959 0
M  V30 6200 H 584.123 4.22637 -5.51728 0
M  V30 6201 H 587.314 3.07134 -3.53251 0
M  V30 6202 H 587.487 4.05782 -5.05218 0
M  V30 6203 N 580.893 1.08022 1.14757 0
M  V30 6204 C 582.121 0.828847 1.89572 0
M  V30 6205 C 582.536 -0.618621 1.78377 0
M  V30 6206 O 581.893 -1.42482 1.1404 0
M  V30 6207 C 581.944 1.23677 3.39685 0
M  V30 6208 O 581.665 2.62746 3.50566 0
M  V30 6209 C 583.166 1.01569 4.31507 0
M  V30 6210 H 580.386 0.299196 0.600602 0
M  V30 6211 H 582.93 1.43846 1.45357 0
M  V30 6212 H 581.085 0.671347 3.81539 0
M  V30 6213 H 581.499 2.79573 4.43778 0
M  V30 6214 H 582.973 1.35055 5.35223 0
M  V30 6215 H 583.45 -0.0475433 4.39174 0
M  V30 6216 H 584.056 1.56636 3.95405 0
M  V30 6217 N 582.371 -1.3172 0.865308 0
M  V30 6218 C 583.301 -2.31109 0.333302 0
M  V30 6219 C 584.282 -1.60148 -0.573301 0
M  V30 6220 O 585.467 -1.87882 -0.491305 0
M  V30 6221 C 582.597 -3.44104 -0.470078 0
M  V30 6222 C 581.551 -4.26623 0.343021 0
M  V30 6223 C 580.877 -5.31482 -0.585756 0
M  V30 6224 C 582.177 -4.98001 1.57456 0
M  V30 6225 H 583.871 -2.75855 1.1638 0
M  V30 6226 H 581.417 -1.3262 0.561069 0
M  V30 6227 H 583.37 -4.12682 -0.852752 0
M  V30 6228 H 582.094 -2.98112 -1.33404 0
M  V30 6229 H 580.753 -3.59707 0.707583 0
M  V30 6230 H 580.401 -4.81741 -1.44686 0
M  V30 6231 H 580.101 -5.87582 -0.0456494 0
M  V30 6232 H 581.625 -6.0292 -0.965375 0
M  V30 6233 H 583.039 -5.59201 1.26359 0
M  V30 6234 H 581.436 -5.63876 2.05339 0
M  V30 6235 H 582.506 -4.25253 2.32997 0
M  V30 6236 N 583.85 -0.624285 -1.44708 0
M  V30 6237 C 584.782 0.12305 -2.28869 0
M  V30 6238 C 585.795 0.81557 -1.40898 0
M  V30 6239 O 586.984 0.678162 -1.65116 0
M  V30 6240 C 584.084 1.19612 -3.1709 0
M  V30 6241 C 583.257 0.587452 -4.33437 0
M  V30 6242 C 582.316 1.55358 -5.02743 0
M  V30 6243 O 581.341 1.07338 -5.58988 0
M  V30 6244 N 582.543 2.88798 -5.03563 0
M  V30 6245 H 585.308 -0.599193 -2.93649 0
M  V30 6246 H 582.87 -0.464954 -1.5508 0
M  V30 6247 H 584.861 1.84261 -3.60319 0
M  V30 6248 H 583.432 1.82067 -2.54107 0
M  V30 6249 H 582.652 -0.237509 -3.93484 0
M  V30 6250 H 583.94 0.161326 -5.08544 0
M  V30 6251 H 583.338 3.30399 -4.59188 0
M  V30 6252 H 581.894 3.48826 -5.50603 0
M  V30 6253 N 585.328 1.53329 -0.364422 0
M  V30 6254 C 586.574 2.01537 0.225969 0
M  V30 6255 C 586.907 1.25128 1.48515 0
M  V30 6256 O 586.182 0.344653 1.91422 0
M  V30 6257 C 586.465 3.56339 0.519092 0
M  V30 6258 C 586.318 4.43441 -0.753639 0
M  V30 6259 C 587.637 4.19833 1.32015 0
M  V30 6260 H 584.756 0.732573 0.0806548 0
M  V30 6261 H 587.398 1.83597 -0.489084 0
M  V30 6262 H 585.548 3.71756 1.12825 0
M  V30 6263 H 587.22 4.39823 -1.39116 0
M  V30 6264 H 585.463 4.11457 -1.37424 0
M  V30 6265 H 586.134 5.49699 -0.503517 0
M  V30 6266 H 588.61 4.08242 0.804859 0
M  V30 6267 H 587.486 5.28177 1.49399 0
M  V30 6268 H 587.747 3.75821 2.32832 0
M  V30 6269 N 586.806 0.0935595 1.57322 0
M  V30 6270 C 588.031 -0.582324 1.99057 0
M  V30 6271 C 588.456 -1.61025 0.972242 0
M  V30 6272 O 587.814 -1.81202 -0.0594622 0
M  V30 6273 C 587.862 -1.20799 3.39765 0
M  V30 6274 O 586.966 -2.32382 3.40694 0
M  V30 6275 H 586.307 -0.147884 0.647323 0
M  V30 6276 H 588.837 0.174516 2.03854 0
M  V30 6277 H 588.847 -1.54966 3.77425 0
M  V30 6278 H 587.522 -0.454914 4.13405 0
M  V30 6279 H 586.099 -1.99845 3.14827 0
M  V30 6280 N 588.284 -1.56567 -0.180126 0
M  V30 6281 C 589.695 -1.7126 -0.743422 0
M  V30 6282 C 590.046 -0.70263 -1.83187 0
M  V30 6283 O 589.171 0.137856 -2.1596 0
M  V30 6284 C 589.766 -3.10512 -1.35528 0
M  V30 6285 C 588.325 -3.26919 -1.8655 0
M  V30 6286 C 587.472 -2.67213 -0.741099 0
M  V30 6287 H 590.423 -1.58636 0.0451543 0
M  V30 6288 H 590.444 -3.08673 -2.22489 0
M  V30 6289 H 589.956 -3.83997 -0.562862 0
M  V30 6290 H 588.057 -2.58376 -2.68464 0
M  V30 6291 H 588.17 -4.34574 -2.01699 0
M  V30 6292 H 586.534 -2.26788 -1.15927 0
M  V30 6293 H 587.317 -3.43277 0.0393291 0
M  V30 6294 N 589.762 0.448376 -1.51087 0
M  V30 6295 C 590.692 1.55102 -1.74544 0
M  V30 6296 C 591.673 1.59357 -0.594932 0
M  V30 6297 O 592.858 1.75261 -0.836491 0
M  V30 6298 C 589.988 2.93268 -1.86041 0
M  V30 6299 C 588.942 3.03877 -3.01402 0
M  V30 6300 C 588.268 4.43914 -2.98068 0
M  V30 6301 C 589.568 2.7898 -4.41551 0
M  V30 6302 H 591.262 1.35724 -2.66869 0
M  V30 6303 H 588.808 0.651498 -1.28419 0
M  V30 6304 H 590.761 3.70356 -2.01034 0
M  V30 6305 H 589.485 3.13853 -0.903548 0
M  V30 6306 H 588.144 2.29227 -2.86096 0
M  V30 6307 H 587.792 4.6145 -2.00182 0
M  V30 6308 H 587.492 4.51944 -3.75527 0
M  V30 6309 H 589.016 5.22991 -3.1514 0
M  V30 6310 H 590.43 3.45805 -4.57265 0
M  V30 6311 H 588.827 2.98431 -5.20633 0
M  V30 6312 H 589.897 1.74663 -4.5235 0
M  V30 6313 N 591.24 1.41047 0.703093 0
M  V30 6314 C 592.517 1.30493 1.45708 0
M  V30 6315 C 592.897 -0.0709892 2.10981 0
M  V30 6316 O 592.245 -1.08471 2.01113 0
M  V30 6317 C 592.455 2.45287 2.48265 0
M  V30 6318 C 593.803 2.86104 3.13735 0
M  V30 6319 O 594.827 2.44971 2.58587 0
M  V30 6320 O 593.686 3.57206 4.13601 0
M  V30 6321 H 590.78 0.513144 0.648546 0
M  V30 6322 H 593.326 1.52995 0.734208 0
M  V30 6323 H 592.098 3.37135 1.98635 0
M  V30 6324 H 591.721 2.24622 3.28071 0
M  V30 6325 N 592.718 -0.936591 1.26751 0
M  V30 6326 C 593.666 -2.0573 1.08527 0
M  V30 6327 C 594.66 -1.69397 0.0108784 0
M  V30 6328 O 595.866 -1.79215 0.167915 0
M  V30 6329 H 592.241 -0.673691 0.334133 0
M  V30 6330 H 594.212 -2.1825 2.03493 0
M  V30 6331 C 592.961 -3.39738 0.739845 0
M  V30 6332 H 592.284 -3.68174 1.55845 0
M  V30 6333 H 593.724 -4.18955 0.652149 0
M  V30 6334 C 592.183 -3.32292 -0.555288 0
M  V30 6335 O 592.713 -3.68794 -1.59229 0
M  V30 6336 N 590.919 -2.85394 -0.54762 0
M  V30 6337 H 590.466 -2.55886 0.296667 0
M  V30 6338 H 590.424 -2.80795 -1.41427 0
M  V30 6339 N 594.196 -1.08629 -1.14182 0
M  V30 6340 C 595.444 -0.815731 -1.84906 0
M  V30 6341 C 595.765 0.660441 -1.83475 0
M  V30 6342 O 595.035 1.47888 -1.28476 0
M  V30 6343 H 593.615 -0.298773 -0.684648 0
M  V30 6344 H 596.277 -1.37274 -1.38354 0
M  V30 6345 H 595.373 -1.16193 -2.89665 0
M  V30 6346 N 595.674 1.31259 -0.872281 0
M  V30 6347 C 596.951 1.91362 -0.404943 0
M  V30 6348 C 597.331 1.79362 1.11321 0
M  V30 6349 O 596.679 1.20277 1.94283 0
M  V30 6350 C 596.889 3.3749 -0.888893 0
M  V30 6351 C 598.237 4.14593 -0.916384 0
M  V30 6352 O 599.261 3.46282 -0.834701 0
M  V30 6353 O 598.12 5.3661 -1.03498 0
M  V30 6354 H 595.214 0.818016 -0.121569 0
M  V30 6355 H 597.76 1.39912 -0.960346 0
M  V30 6356 H 596.532 3.40249 -1.93251 0
M  V30 6357 H 596.155 3.96375 -0.311932 0
M  V30 6358 N 597.152 0.631951 1.44375 0
M  V30 6359 C 598.082 -0.0593243 2.33425 0
M  V30 6360 C 599.063 -0.833964 1.48253 0
M  V30 6361 O 600.248 -0.799682 1.76971 0
M  V30 6362 C 597.378 -1.04096 3.31333 0
M  V30 6363 C 596.332 -0.377899 4.26328 0
M  V30 6364 C 595.658 -1.4695 5.14111 0
M  V30 6365 C 596.958 0.716371 5.17364 0
M  V30 6366 H 598.652 0.684287 2.91475 0
M  V30 6367 H 596.198 0.330518 1.40156 0
M  V30 6368 H 598.151 -1.53331 3.92514 0
M  V30 6369 H 596.875 -1.81547 2.71493 0
M  V30 6370 H 595.534 0.0938054 3.6648 0
M  V30 6371 H 595.182 -2.2349 4.50623 0
M  V30 6372 H 594.882 -1.03121 5.78481 0
M  V30 6373 H 596.406 -1.96363 5.78164 0
M  V30 6374 H 597.82 0.307089 5.72477 0
M  V30 6375 H 596.217 1.07784 5.90341 0
M  V30 6376 H 597.287 1.58316 4.58327 0
M  V30 6377 N 598.631 -1.53133 0.372548 0
M  V30 6378 C 599.88 -2.00539 -0.216115 0
M  V30 6379 C 600.193 -1.26374 -1.49295 0
M  V30 6380 O 601.399 -1.64404 -2.16064 0
M  V30 6381 C 599.855 -3.57253 -0.435678 0
M  V30 6382 C 599.463 -4.40302 0.82693 0
M  V30 6383 C 601.207 -4.12995 -0.981618 0
M  V30 6384 C 599.114 -5.88583 0.576567 0
M  V30 6385 H 598.044 -0.749246 -0.084536 0
M  V30 6386 H 600.695 -1.76771 0.492364 0
M  V30 6387 H 599.077 -3.77202 -1.20559 0
M  V30 6388 H 600.251 -4.32124 1.60017 0
M  V30 6389 H 598.566 -3.95699 1.29659 0
M  V30 6390 H 601.163 -5.21418 -1.18436 0
M  V30 6391 H 601.506 -3.68027 -1.94581 0
M  V30 6392 H 602.039 -3.96871 -0.271696 0
M  V30 6393 H 598.778 -6.37841 1.51128 0
M  V30 6394 H 598.298 -5.99592 -0.158047 0
M  V30 6395 H 599.977 -6.46676 0.204722 0
M  V30 6396 N 600.109 -0.101901 -1.5727 0
M  V30 6397 C 601.525 0.254739 -1.57554 0
M  V30 6398 C 601.725 1.67937 -1.11352 0
M  V30 6399 O 600.781 2.39722 -0.793081 0
M  V30 6400 C 602.094 0.036975 -3.00677 0
M  V30 6401 C 603.642 0.104199 -3.12827 0
M  V30 6402 C 604.117 -0.0856565 -4.5792 0
M  V30 6403 N 605.608 -0.0310498 -4.6319 0
M  V30 6404 C 606.343 -0.153099 -5.73196 0
M  V30 6405 N 605.839 -0.330364 -6.92012 0
M  V30 6406 N 607.632 -0.0938854 -5.62022 0
M  V30 6407 H 599.783 -1.03263 -1.85609 0
M  V30 6408 H 602.046 -0.405251 -0.857016 0
M  V30 6409 H 601.752 -0.947254 -3.38703 0
M  V30 6410 H 601.626 0.776335 -3.69124 0
M  V30 6411 H 604.013 1.07894 -2.74669 0
M  V30 6412 H 604.094 -0.666762 -2.46957 0
M  V30 6413 H 603.738 -1.05729 -4.96773 0
M  V30 6414 H 603.668 0.705082 -5.21858 0
M  V30 6415 H 606.159 0.103141 -3.77759 0
M  V30 6416 H 606.472 -0.41482 -7.71686 0
M  V30 6417 H 604.817 -0.366119 -6.94035 0
M  V30 6418 H 608.008 0.0435168 -4.6808 0
M  V30 6419 H 608.181 -0.19245 -6.47714 0
M  V30 6420 N 601.587 1.56661 0.17182 0
M  V30 6421 C 602.497 1.99604 1.2327 0
M  V30 6422 C 603.513 0.907333 1.4847 0
M  V30 6423 O 604.689 1.21492 1.60629 0
M  V30 6424 C 601.754 2.34685 2.55194 0
M  V30 6425 C 600.815 3.57381 2.3786 0
M  V30 6426 C 600.048 3.90779 3.63494 0
M  V30 6427 O 600.271 3.25152 4.6865 0
M  V30 6428 O 599.205 4.84129 3.57634 0
M  V30 6429 H 603.031 2.90114 0.898192 0
M  V30 6430 H 600.616 1.44522 0.378647 0
M  V30 6431 H 602.498 2.5822 3.33017 0
M  V30 6432 H 601.173 1.47336 2.88225 0
M  V30 6433 H 600.08 3.39064 1.5807 0
M  V30 6434 H 601.413 4.45268 2.09754 0
M  V30 6435 N 603.065 -0.440357 1.51323 0
M  V30 6436 C 604.314 -1.18697 1.63076 0
M  V30 6437 C 604.627 -1.92418 0.35136 0
M  V30 6438 O 605.833 -2.69258 0.348221 0
M  V30 6439 C 604.289 -2.15849 2.87988 0
M  V30 6440 C 603.897 -1.47789 4.22921 0
M  V30 6441 C 605.641 -2.90962 3.09098 0
M  V30 6442 C 603.548 -2.43407 5.38987 0
M  V30 6443 H 602.478 -0.44676 0.607389 0
M  V30 6444 H 605.129 -0.454313 1.77787 0
M  V30 6445 H 603.511 -2.92537 2.66905 0
M  V30 6446 H 604.685 -0.7668 4.54375 0
M  V30 6447 H 603 -0.848404 4.07665 0
M  V30 6448 H 605.597 -3.62584 3.92985 0
M  V30 6449 H 605.94 -3.52133 2.22053 0
M  V30 6450 H 606.473 -2.21381 3.30507 0
M  V30 6451 H 603.212 -1.86929 6.28282 0
M  V30 6452 H 602.732 -3.12579 5.11913 0
M  V30 6453 H 604.411 -3.046 5.70813 0
M  V30 6454 N 604.543 -1.41418 -0.695603 0
M  V30 6455 C 605.789 -1.41983 -1.45645 0
M  V30 6456 C 606.144 -0.0282216 -1.92379 0
M  V30 6457 O 605.437 0.945916 -1.66622 0
M  V30 6458 C 605.631 -2.36112 -2.68302 0
M  V30 6459 C 605.46 -3.84288 -2.33566 0
M  V30 6460 C 604.23 -4.52971 -2.23932 0
M  V30 6461 C 606.428 -4.75264 -1.96543 0
M  V30 6462 N 604.41 -5.86276 -1.82081 0
M  V30 6463 C 605.781 -5.97517 -1.6545 0
M  V30 6464 C 607.836 -4.62911 -1.83352 0
M  V30 6465 C 606.539 -7.08793 -1.22492 0
M  V30 6466 C 608.565 -5.74149 -1.41799 0
M  V30 6467 C 607.927 -6.95501 -1.11617 0
M  V30 6468 H 604.026 -0.574771 -0.530247 0
M  V30 6469 H 606.61 -1.77289 -0.804788 0
M  V30 6470 H 604.781 -2.02902 -3.31188 0
M  V30 6471 H 606.513 -2.27397 -3.34773 0
M  V30 6472 H 603.268 -4.06909 -2.42327 0
M  V30 6473 H 603.692 -6.56926 -1.63638 0
M  V30 6474 H 608.334 -3.69588 -2.05341 0
M  V30 6475 H 606.052 -8.01982 -0.992482 0
M  V30 6476 H 609.638 -5.66595 -1.32143 0
M  V30 6477 H 608.518 -7.80114 -0.799493 0
M  V30 6478 N 606.021 0.929856 -1.27246 0
M  V30 6479 C 606.971 2.01629 -1.06442 0
M  V30 6480 C 607.955 1.60899 0.00687842 0
M  V30 6481 O 609.147 1.75733 -0.211407 0
M  V30 6482 C 606.276 3.35849 -0.711361 0
M  V30 6483 C 605.362 3.8303 -1.82069 0
M  V30 6484 N 605.753 4.02743 -3.05993 0
M  V30 6485 C 604.051 4.12046 -1.70687 0
M  V30 6486 C 604.752 4.42001 -3.78167 0
M  V30 6487 N 603.728 4.4935 -3.05918 0
M  V30 6488 H 607.53 2.14898 -2.00489 0
M  V30 6489 H 605.044 1.11654 -1.17929 0
M  V30 6490 H 607.041 4.13343 -0.543442 0
M  V30 6491 H 605.701 3.23944 0.221517 0
M  V30 6492 H 606.712 3.89112 -3.41778 0
M  V30 6493 H 603.389 4.08866 -0.844681 0
M  V30 6494 H 604.779 4.6535 -4.84664 0
M  V30 6495 N 607.499 1.09233 1.13605 0
M  V30 6496 C 608.729 0.847677 1.88409 0
M  V30 6497 C 609.137 -0.604524 1.79282 0
M  V30 6498 O 608.48 -1.42773 1.15592 0
M  V30 6499 C 608.542 1.20153 3.38827 0
M  V30 6500 C 608.206 2.65824 3.71735 0
M  V30 6501 C 609.203 3.64072 3.71143 0
M  V30 6502 C 606.888 3.01894 4.01454 0
M  V30 6503 C 608.882 4.96419 3.99808 0
M  V30 6504 C 606.569 4.34433 4.29781 0
M  V30 6505 C 607.567 5.31505 4.28942 0
M  V30 6506 O 607.255 6.61659 4.56576 0
M  V30 6507 H 606.987 0.304813 0.603378 0
M  V30 6508 H 609.541 1.4573 1.44748 0
M  V30 6509 H 607.771 0.534946 3.82982 0
M  V30 6510 H 609.46 0.936349 3.94952 0
M  V30 6511 H 610.226 3.37549 3.4826 0
M  V30 6512 H 606.105 2.26971 4.01255 0
M  V30 6513 H 609.649 5.7218 3.99069 0
M  V30 6514 H 605.546 4.607 4.52135 0
M  V30 6515 H 606.314 6.67102 4.74254 0
M  V30 6516 N 608.977 -1.30795 0.87923 0
M  V30 6517 C 609.909 -2.27241 0.299025 0
M  V30 6518 C 610.922 -1.53472 -0.543166 0
M  V30 6519 O 612.111 -1.74756 -0.363651 0
M  V30 6520 C 609.211 -3.33655 -0.593931 0
M  V30 6521 C 608.384 -4.36857 0.2179 0
M  V30 6522 C 607.443 -5.22715 -0.604646 0
M  V30 6523 O 606.469 -5.69192 -0.0293838 0
M  V30 6524 N 607.671 -5.48008 -1.91488 0
M  V30 6525 H 610.436 -2.77667 1.12788 0
M  V30 6526 H 607.997 -1.43914 0.741637 0
M  V30 6527 H 609.989 -3.88013 -1.15012 0
M  V30 6528 H 608.559 -2.83202 -1.32346 0
M  V30 6529 H 607.779 -3.82444 0.955536 0
M  V30 6530 H 609.067 -5.02869 0.774614 0
M  V30 6531 H 608.465 -5.1202 -2.40525 0
M  V30 6532 H 607.022 -6.05264 -2.41864 0
M  V30 6533 N 610.455 -0.639598 -1.44038 0
M  V30 6534 C 611.685 -0.154586 -2.06021 0
M  V30 6535 C 612.093 1.17951 -1.47933 0
M  V30 6536 O 611.436 1.73627 -0.59994 0
M  V30 6537 C 611.498 0.0255459 -3.59491 0
M  V30 6538 C 611.162 -1.2317 -4.40089 0
M  V30 6539 C 612.159 -2.15735 -4.73027 0
M  V30 6540 C 609.844 -1.46949 -4.80324 0
M  V30 6541 C 611.838 -3.30382 -5.45093 0
M  V30 6542 C 609.525 -2.61891 -5.52138 0
M  V30 6543 C 610.523 -3.53433 -5.84443 0
M  V30 6544 O 610.211 -4.6637 -6.54793 0
M  V30 6545 H 609.943 -0.0808543 -0.671147 0
M  V30 6546 H 612.497 -0.876541 -1.85758 0
M  V30 6547 H 610.727 0.802733 -3.78276 0
M  V30 6548 H 612.416 0.466184 -4.03214 0
M  V30 6549 H 613.182 -1.98602 -4.42473 0
M  V30 6550 H 609.061 -0.765815 -4.54595 0
M  V30 6551 H 612.605 -4.01856 -5.70226 0
M  V30 6552 H 608.502 -2.78964 -5.82108 0
M  V30 6553 H 609.27 -4.6546 -6.73267 0
M  V30 6554 N 611.933 1.52934 -0.380664 0
M  V30 6555 C 612.863 2.29118 0.450268 0
M  V30 6556 C 613.844 1.32153 1.07096 0
M  V30 6557 O 615.029 1.61038 1.08537 0
M  V30 6558 C 612.159 3.09161 1.58231 0
M  V30 6559 C 611.113 4.13938 1.0881 0
M  V30 6560 C 610.439 4.82153 2.31155 0
M  V30 6561 C 611.739 5.22048 0.162146 0
M  V30 6562 H 613.433 2.98826 -0.185361 0
M  V30 6563 H 610.979 1.43715 -0.0905886 0
M  V30 6564 H 612.932 3.61211 2.17036 0
M  V30 6565 H 611.656 2.3717 2.2454 0
M  V30 6566 H 610.315 3.62855 0.522633 0
M  V30 6567 H 609.963 4.06719 2.95953 0
M  V30 6568 H 609.663 5.52966 1.98752 0
M  V30 6569 H 611.187 5.37004 2.90618 0
M  V30 6570 H 612.601 5.6951 0.658126 0
M  V30 6571 H 610.998 6.00057 -0.0717122 0
M  V30 6572 H 612.068 4.78398 -0.791438 0
M  V30 6573 N 613.412 0.11024 1.57214 0
M  V30 6574 C 614.637 -0.561179 1.99664 0
M  V30 6575 C 615.062 -1.59985 0.989266 0
M  V30 6576 O 614.42 -1.81255 -0.0402399 0
M  V30 6577 C 614.468 -1.17189 3.41027 0
M  V30 6578 O 613.572 -2.28755 3.4314 0
M  V30 6579 H 612.913 -0.14101 0.648855 0
M  V30 6580 H 615.443 0.196128 2.03658 0
M  V30 6581 H 615.453 -1.50954 3.79047 0
M  V30 6582 H 614.128 -0.411041 4.13864 0
M  V30 6583 H 612.705 -1.96495 3.16929 0
M  V30 6584 N 614.89 -1.56749 -0.16351 0
M  V30 6585 C 616.136 -1.83597 -0.875436 0
M  V30 6586 C 616.491 -0.691907 -1.79528 0
M  V30 6587 O 615.784 0.311193 -1.89056 0
M  V30 6588 C 615.978 -3.14342 -1.70071 0
M  V30 6589 C 615.807 -4.41356 -0.862265 0
M  V30 6590 C 614.577 -5.02467 -0.534299 0
M  V30 6591 C 616.775 -5.1391 -0.200203 0
M  V30 6592 N 614.757 -6.13068 0.31947 0
M  V30 6593 C 616.128 -6.17862 0.514398 0
M  V30 6594 C 618.183 -4.97757 -0.119171 0
M  V30 6595 C 616.886 -7.07412 1.30236 0
M  V30 6596 C 618.912 -5.87756 0.655477 0
M  V30 6597 C 618.274 -6.91178 1.35842 0
M  V30 6598 H 614.373 -0.722702 -0.298708 0
M  V30 6599 H 616.957 -1.94182 -0.141883 0
M  V30 6600 H 615.128 -3.04933 -2.40562 0
M  V30 6601 H 616.86 -3.29156 -2.35453 0
M  V30 6602 H 613.615 -4.65611 -0.866222 0
M  V30 6603 H 614.039 -6.72978 0.736893 0
M  V30 6604 H 618.681 -4.178 -0.648278 0
M  V30 6605 H 616.399 -7.86808 1.84278 0
M  V30 6606 H 619.985 -5.77328 0.719948 0
M  V30 6607 H 618.865 -7.59614 1.94822 0
M  V30 6608 N 616.368 0.432326 -1.51554 0
M  V30 6609 C 617.779 1.01202 -1.56892 0
M  V30 6610 C 618.13 1.92175 -0.395394 0
M  V30 6611 O 617.255 2.10844 0.487198 0
M  V30 6612 C 617.85 1.84217 -2.8434 0
M  V30 6613 C 616.409 2.37228 -2.92233 0
M  V30 6614 C 615.556 1.16576 -2.51606 0
M  V30 6615 H 618.507 0.213407 -1.57259 0
M  V30 6616 H 618.528 2.69721 -2.68385 0
M  V30 6617 H 618.04 1.17979 -3.69733 0
M  V30 6618 H 616.141 3.06905 -2.11282 0
M  V30 6619 H 616.254 2.69682 -3.95991 0
M  V30 6620 H 614.618 1.51263 -2.04919 0
M  V30 6621 H 615.401 0.519404 -3.39348 0
M  V30 6622 N 617.846 1.41785 0.688094 0
M  V30 6623 C 619.123 1.32031 1.44316 0
M  V30 6624 C 619.503 -0.0486079 2.11044 0
M  V30 6625 O 618.851 -1.06332 2.02252 0
M  V30 6626 C 619.061 2.47906 2.45649 0
M  V30 6627 C 620.409 2.89415 3.10683 0
M  V30 6628 O 621.433 2.477 2.55975 0
M  V30 6629 O 620.292 3.61573 4.09789 0
M  V30 6630 H 617.386 0.519994 0.643067 0
M  V30 6631 H 619.932 1.53765 0.71794 0
M  V30 6632 H 618.704 3.39222 1.95048 0
M  V30 6633 H 618.327 2.28089 3.25671 0
M  V30 6634 N 619.324 -0.923095 1.27737 0
M  V30 6635 C 620.274 -2.01061 1.0751 0
M  V30 6636 C 621.258 -1.609 0.00165451 0
M  V30 6637 O 622.45 -1.75618 0.220724 0
M  V30 6638 C 619.579 -3.35467 0.729162 0
M  V30 6639 C 618.665 -3.82059 1.84098 0
M  V30 6640 N 619.056 -4.01115 3.08124 0
M  V30 6641 C 617.354 -4.11135 1.7287 0
M  V30 6642 C 618.055 -4.39989 3.80506 0
M  V30 6643 N 617.031 -4.47721 3.08297 0
M  V30 6644 H 620.833 -2.13832 2.01626 0
M  V30 6645 H 618.347 -1.11027 1.18519 0
M  V30 6646 H 620.344 -4.13049 0.565355 0
M  V30 6647 H 619.004 -3.24056 -0.204334 0
M  V30 6648 H 620.015 -3.87294 3.43836 0
M  V30 6649 H 616.692 -4.08412 0.866352 0
M  V30 6650 H 618.082 -4.62773 4.87125 0
M  V30 6651 N 620.802 -1.09834 -1.13024 0
M  V30 6652 C 622.05 -0.835297 -1.8403 0
M  V30 6653 C 622.371 0.640944 -1.84165 0
M  V30 6654 O 621.641 1.46517 -1.30037 0
M  V30 6655 H 620.221 -0.306018 -0.681441 0
M  V30 6656 H 622.883 -1.38734 -1.36891 0
M  V30 6657 H 621.979 -1.19258 -2.88416 0
M  V30 6658 N 622.28 1.30327 -0.886154 0
M  V30 6659 C 623.526 1.96388 -0.505941 0
M  V30 6660 C 623.859 1.69784 0.942712 0
M  V30 6661 O 623.134 1.00322 1.6663 0
M  V30 6662 C 623.417 3.51488 -0.782826 0
M  V30 6663 C 623.27 3.87603 -2.28219 0
M  V30 6664 C 624.589 4.39331 -0.260128 0
M  V30 6665 H 621.708 0.713327 -0.185292 0
M  V30 6666 H 624.35 1.54178 -1.11036 0
M  V30 6667 H 622.5 3.87572 -0.268399 0
M  V30 6668 H 624.172 3.61537 -2.86512 0
M  V30 6669 H 622.415 3.3563 -2.74837 0
M  V30 6670 H 623.086 4.95806 -2.42653 0
M  V30 6671 H 625.562 4.10162 -0.700444 0
M  V30 6672 H 624.438 5.46769 -0.483179 0
M  V30 6673 H 624.699 4.34072 0.838674 0
M  V30 6674 N 623.758 0.647228 1.43697 0
M  V30 6675 C 625.169 0.238689 1.85168 0
M  V30 6676 C 625.52 -1.21345 1.54175 0
M  V30 6677 O 624.645 -1.92542 0.987743 0
M  V30 6678 C 625.24 0.426422 3.36106 0
M  V30 6679 C 623.799 0.0722541 3.76331 0
M  V30 6680 C 622.946 0.732153 2.6746 0
M  V30 6681 H 625.897 0.851309 1.33934 0
M  V30 6682 H 625.918 -0.32987 3.79067 0
M  V30 6683 H 625.43 1.48339 3.58632 0
M  V30 6684 H 623.531 -0.982355 3.59417 0
M  V30 6685 H 623.644 0.493541 4.76551 0
M  V30 6686 H 622.008 0.16594 2.54159 0
M  V30 6687 H 622.791 1.79204 2.92816 0
M  V30 6688 N 625.236 -1.5273 0.388769 0
M  V30 6689 C 626.461 -2.0647 -0.19621 0
M  V30 6690 C 626.886 -1.25865 -1.39784 0
M  V30 6691 O 626.244 -0.283562 -1.79069 0
M  V30 6692 C 626.292 -3.56456 -0.5451 0
M  V30 6693 O 625.396 -3.78426 -1.63912 0
M  V30 6694 H 624.737 -0.663599 -0.023067 0
M  V30 6695 H 627.267 -1.96898 0.556084 0
M  V30 6696 H 627.277 -3.99888 -0.809557 0
M  V30 6697 H 625.952 -4.14561 0.333417 0
M  V30 6698 H 624.529 -3.46884 -1.36842 0
M  V30 6699 N 626.714 -0.118576 -1.57153 0
M  V30 6700 C 627.624 0.845484 -2.18835 0
M  V30 6701 C 628.64 1.29299 -1.16438 0
M  V30 6702 O 629.816 1.35607 -1.48905 0
M  V30 6703 C 626.881 2.07795 -2.77529 0
M  V30 6704 C 625.942 1.6824 -3.9496 0
M  V30 6705 C 625.175 2.85612 -4.50845 0
M  V30 6706 O 625.398 4.01025 -4.05629 0
M  V30 6707 O 624.332 2.62721 -5.41536 0
M  V30 6708 H 628.158 0.350568 -3.0167 0
M  V30 6709 H 625.743 0.107013 -1.49016 0
M  V30 6710 H 627.625 2.79978 -3.14945 0
M  V30 6711 H 626.3 2.56294 -1.97725 0
M  V30 6712 H 625.207 0.931663 -3.62313 0
M  V30 6713 H 626.54 1.24484 -4.76198 0
M  V30 6714 N 628.193 1.56834 0.155195 0
M  V30 6715 C 629.604 1.72421 0.716082 0
M  V30 6716 C 629.955 0.731685 1.82046 0
M  V30 6717 O 629.08 -0.103481 2.16152 0
M  V30 6718 C 629.675 3.12629 1.30571 0
M  V30 6719 C 628.234 3.29846 1.81325 0
M  V30 6720 C 627.381 2.68359 0.698494 0
M  V30 6721 H 630.332 1.58544 -0.0703861 0
M  V30 6722 H 630.353 3.12174 2.1755 0
M  V30 6723 H 629.865 3.84844 0.501701 0
M  V30 6724 H 627.966 2.62614 2.64319 0
M  V30 6725 H 628.079 4.37727 1.9476 0
M  V30 6726 H 626.443 2.28604 1.12305 0
M  V30 6727 H 627.226 3.43171 -0.0939366 0
M  V30 6728 N 629.671 -0.424282 1.51781 0
M  V30 6729 C 630.919 -1.17028 1.64769 0
M  V30 6730 C 631.24 -1.91409 0.372523 0
M  V30 6731 O 630.51 -1.86091 -0.612108 0
M  V30 6732 H 629.09 -0.434992 0.607282 0
M  V30 6733 H 631.752 -0.485169 1.88765 0
M  V30 6734 H 630.848 -1.8927 2.4816 0
M  V30 6735 N 631.149 -1.42148 -0.680565 0
M  V30 6736 C 632.397 -1.42029 -1.43779 0
M  V30 6737 C 632.718 -0.0356347 -1.94967 0
M  V30 6738 O 631.988 0.924936 -1.7269 0
M  V30 6739 H 630.568 -0.522835 -0.533529 0
M  V30 6740 H 633.23 -1.7752 -0.804538 0
M  V30 6741 H 632.326 -2.11658 -2.29363 0
M  V30 6742 N 632.627 0.916307 -1.28225 0
M  V30 6743 C 633.873 1.66765 -1.154 0
M  V30 6744 C 634.206 1.91912 0.297251 0
M  V30 6745 O 633.481 1.51766 1.21644 0
M  V30 6746 C 633.764 3.02715 -1.95028 0
M  V30 6747 C 633.617 2.84738 -3.48201 0
M  V30 6748 C 634.936 4.03215 -1.76369 0
M  V30 6749 H 632.055 0.605205 -0.42059 0
M  V30 6750 H 634.697 1.06255 -1.57512 0
M  V30 6751 H 632.847 3.54365 -1.59242 0
M  V30 6752 H 634.519 2.40118 -3.9388 0
M  V30 6753 H 632.762 2.19848 -3.73964 0
M  V30 6754 H 633.433 3.8127 -3.99171 0
M  V30 6755 H 635.909 3.60617 -2.07593 0
M  V30 6756 H 634.785 4.96306 -2.34459 0
M  V30 6757 H 635.046 4.36288 -0.71452 0
M  V30 6758 N 634.105 1.10431 1.1244 0
M  V30 6759 C 635.035 0.775143 2.20258 0
M  V30 6760 C 636.016 -0.25186 1.68225 0
M  V30 6761 O 637.201 -0.117637 1.93843 0
M  V30 6762 C 634.331 0.206133 3.46688 0
M  V30 6763 C 633.285 1.16382 4.11873 0
M  V30 6764 C 632.611 0.456014 5.32752 0
M  V30 6765 C 633.911 2.5104 4.58013 0
M  V30 6766 H 635.605 1.67665 2.4805 0
M  V30 6767 H 633.151 0.807595 1.19222 0
M  V30 6768 H 635.104 -0.036291 4.21384 0
M  V30 6769 H 633.828 -0.730614 3.18323 0
M  V30 6770 H 632.487 1.39169 3.39157 0
M  V30 6771 H 632.135 -0.485203 5.00654 0
M  V30 6772 H 631.835 1.09466 5.77314 0
M  V30 6773 H 633.359 0.222135 6.10196 0
M  V30 6774 H 634.773 2.32401 5.24083 0
M  V30 6775 H 633.17 3.10789 5.13352 0
M  V30 6776 H 634.24 3.11039 3.71998 0
M  V30 6777 N 635.583 -1.29855 0.893053 0
M  V30 6778 C 636.808 -2.00512 0.530066 0
M  V30 6779 C 637.233 -1.66446 -0.876199 0
M  V30 6780 O 636.591 -0.885446 -1.58207 0
M  V30 6781 C 636.639 -3.53308 0.721505 0
M  V30 6782 O 635.743 -4.11764 -0.228994 0
M  V30 6783 H 635.084 -0.630617 0.207891 0
M  V30 6784 H 637.614 -1.6551 1.20282 0
M  V30 6785 H 637.624 -4.03206 0.623599 0
M  V30 6786 H 636.299 -3.77439 1.74678 0
M  V30 6787 H 634.876 -3.72805 -0.0841034 0
M  V30 6788 N 637.061 -0.65484 -1.43351 0
M  V30 6789 C 638.308 -0.168892 -2.01794 0
M  V30 6790 C 638.636 1.2177 -1.51665 0
M  V30 6791 O 637.891 1.82717 -0.70092 0
M  V30 6792 C 638.19 -0.130424 -3.57162 0
M  V30 6793 C 637.856 -1.45898 -4.26643 0
M  V30 6794 C 636.518 -1.82279 -4.4534 0
M  V30 6795 C 638.87 -2.33485 -4.65976 0
M  V30 6796 C 636.198 -3.0591 -5.00635 0
M  V30 6797 C 638.55 -3.5641 -5.22642 0
M  V30 6798 C 637.214 -3.92985 -5.39555 0
M  V30 6799 H 636.484 -0.061802 -0.738418 0
M  V30 6800 H 639.131 -0.845869 -1.71806 0
M  V30 6801 H 637.436 0.630008 -3.86702 0
M  V30 6802 H 639.133 0.262465 -4.0014 0
M  V30 6803 H 635.723 -1.16591 -4.12437 0
M  V30 6804 H 639.907 -2.06668 -4.51223 0
M  V30 6805 H 635.163 -3.34295 -5.11915 0
M  V30 6806 H 639.337 -4.24495 -5.52066 0
M  V30 6807 H 636.964 -4.88862 -5.82167 0
M  V30 6808 N 638.539 1.52521 -0.396863 0
M  V30 6809 C 639.469 2.29582 0.425941 0
M  V30 6810 C 640.45 1.33281 1.05689 0
M  V30 6811 O 641.635 1.62181 1.06823 0
M  V30 6812 C 638.765 3.10821 1.54943 0
M  V30 6813 C 637.719 4.15069 1.04413 0
M  V30 6814 C 637.045 4.84578 2.26028 0
M  V30 6815 C 638.345 5.22191 0.106767 0
M  V30 6816 H 640.039 2.98612 -0.217045 0
M  V30 6817 H 637.585 1.43611 -0.105826 0
M  V30 6818 H 639.538 3.63492 2.13193 0
M  V30 6819 H 638.262 2.39538 2.22011 0
M  V30 6820 H 636.921 3.63389 0.484118 0
M  V30 6821 H 636.569 4.09835 2.91623 0
M  V30 6822 H 636.269 5.55043 1.92876 0
M  V30 6823 H 637.793 5.40056 2.84906 0
M  V30 6824 H 639.207 5.70176 0.597685 0
M  V30 6825 H 637.604 5.99947 -0.135352 0
M  V30 6826 H 638.674 4.77531 -0.842134 0
M  V30 6827 N 640.017 0.126909 1.57088 0
M  V30 6828 C 641.294 -0.573152 1.87014 0
M  V30 6829 C 641.674 -1.84297 1.02945 0
M  V30 6830 O 641.022 -2.28232 0.110573 0
M  V30 6831 C 641.232 -0.857984 3.38289 0
M  V30 6832 C 642.58 -1.20759 4.07066 0
M  V30 6833 O 643.604 -0.947992 3.43353 0
M  V30 6834 O 642.463 -1.69516 5.19545 0
M  V30 6835 H 639.557 -0.290082 0.774456 0
M  V30 6836 H 642.103 0.162008 1.68925 0
M  V30 6837 H 640.875 0.0415286 3.91278 0
M  V30 6838 H 640.498 -1.64803 3.61837 0
M  V30 6839 N 641.495 -1.56914 -0.146875 0
M  V30 6840 C 642.427 -1.94878 -1.20645 0
M  V30 6841 C 643.44 -0.844633 -1.39175 0
M  V30 6842 O 644.629 -1.12304 -1.38744 0
M  V30 6843 C 641.729 -2.20769 -2.57127 0
M  V30 6844 C 640.902 -3.52053 -2.59572 0
M  V30 6845 C 639.961 -3.66482 -3.77594 0
M  V30 6846 O 638.987 -4.38873 -3.62462 0
M  V30 6847 N 640.189 -3.03156 -4.95052 0
M  V30 6848 H 642.954 -2.86374 -0.883757 0
M  V30 6849 H 640.515 -1.58366 -0.336436 0
M  V30 6850 H 642.507 -2.27664 -3.34591 0
M  V30 6851 H 641.077 -1.35538 -2.81688 0
M  V30 6852 H 640.297 -3.56598 -1.68023 0
M  V30 6853 H 641.585 -4.38396 -2.58238 0
M  V30 6854 H 640.983 -2.44258 -5.10249 0
M  V30 6855 H 639.54 -3.15611 -5.70292 0
M  V30 6856 N 642.974 0.416227 -1.52004 0
M  V30 6857 C 644.223 1.16088 -1.64944 0
M  V30 6858 C 644.536 1.91835 -0.381928 0
M  V30 6859 O 645.742 2.6867 -0.391013 0
M  V30 6860 C 644.198 2.1124 -2.91386 0
M  V30 6861 C 643.806 1.41042 -4.25219 0
M  V30 6862 C 645.55 2.86008 -3.13688 0
M  V30 6863 C 643.457 2.34801 -5.42791 0
M  V30 6864 H 642.387 0.437041 -0.61442 0
M  V30 6865 H 645.038 0.425971 -1.78487 0
M  V30 6866 H 643.42 2.88254 -2.71525 0
M  V30 6867 H 644.594 0.694416 -4.55538 0
M  V30 6868 H 642.909 0.78344 -4.08964 0
M  V30 6869 H 645.506 3.56286 -3.98703 0
M  V30 6870 H 645.849 3.48556 -2.27628 0
M  V30 6871 H 646.382 2.16095 -3.33988 0
M  V30 6872 H 643.121 1.7691 -6.31176 0
M  V30 6873 H 642.641 3.04395 -5.16821 0
M  V30 6874 H 644.32 2.9548 -5.75587 0
M  V30 6875 N 644.452 1.42507 0.673017 0
M  V30 6876 C 645.4 1.46362 1.80779 0
M  V30 6877 C 646.394 0.339166 1.6597 0
M  V30 6878 O 647.6 0.512262 1.72557 0
M  V30 6879 H 643.975 0.458433 0.596107 0
M  V30 6880 H 645.946 2.41953 1.74646 0
M  V30 6881 C 644.695 1.38462 3.18941 0
M  V30 6882 H 644.018 2.24283 3.30964 0
M  V30 6883 H 645.458 1.45221 3.98355 0
M  V30 6884 C 643.917 0.0996354 3.36753 0
M  V30 6885 O 644.447 -0.846894 3.92671 0
M  V30 6886 N 642.653 0.016211 2.90595 0
M  V30 6887 H 642.2 0.78725 2.45276 0
M  V30 6888 H 642.158 -0.84291 3.0289 0
M  V30 6889 N 645.93 -0.909495 1.28709 0
M  V30 6890 C 646.862 -2.01729 1.08804 0
M  V30 6891 C 647.875 -1.62755 0.0384739 0
M  V30 6892 O 649.064 -1.76259 0.281977 0
M  V30 6893 C 646.164 -3.32952 0.63217 0
M  V30 6894 C 645.337 -4.00512 1.75809 0
M  V30 6895 C 644.396 -5.10019 1.29488 0
M  V30 6896 O 643.422 -5.32986 1.99787 0
M  V30 6897 N 644.624 -5.80278 0.1604 0
M  V30 6898 H 647.389 -2.19362 2.04207 0
M  V30 6899 H 644.95 -1.08106 1.20518 0
M  V30 6900 H 646.942 -4.03543 0.305802 0
M  V30 6901 H 645.512 -3.11759 -0.229134 0
M  V30 6902 H 644.732 -3.23413 2.25383 0
M  V30 6903 H 646.02 -4.42395 2.51325 0
M  V30 6904 H 645.418 -5.64094 -0.425937 0
M  V30 6905 H 643.975 -6.51713 -0.106663 0
M  V30 6906 N 647.408 -1.11026 -1.11852 0
M  V30 6907 C 648.824 -0.843294 -1.35502 0
M  V30 6908 C 649.024 0.534179 -1.9429 0
M  V30 6909 O 648.08 1.28585 -2.17307 0
M  V30 6910 C 649.393 -1.94793 -2.29077 0
M  V30 6911 C 650.941 -1.97709 -2.42652 0
M  V30 6912 C 651.416 -3.07364 -3.39546 0
M  V30 6913 N 652.907 -3.0671 -3.47107 0
M  V30 6914 C 653.642 -3.88197 -4.22008 0
M  V30 6915 N 653.138 -4.79635 -4.99922 0
M  V30 6916 N 654.931 -3.76391 -4.17476 0
M  V30 6917 H 647.082 -1.99805 -0.720538 0
M  V30 6918 H 649.345 -0.868633 -0.379711 0
M  V30 6919 H 649.051 -2.93971 -1.93065 0
M  V30 6920 H 648.925 -1.84039 -3.29256 0
M  V30 6921 H 651.312 -0.991604 -2.77941 0
M  V30 6922 H 651.393 -2.1254 -1.4234 0
M  V30 6923 H 651.037 -4.06136 -3.04985 0
M  V30 6924 H 650.967 -2.89774 -4.39703 0
M  V30 6925 H 653.458 -2.40457 -2.91528 0
M  V30 6926 H 653.771 -5.38357 -5.54429 0
M  V30 6927 H 652.116 -4.8366 -4.99097 0
M  V30 6928 H 655.307 -3.04303 -3.55693 0
M  V30 6929 H 655.48 -4.40131 -4.75593 0
M  V30 6930 N 648.886 1.2938 -0.899927 0
M  V30 6931 C 649.818 2.26737 -0.335139 0
M  V30 6932 C 650.831 1.54316 0.518681 0
M  V30 6933 O 652.02 1.75313 0.335803 0
M  V30 6934 C 649.12 3.34558 0.540774 0
M  V30 6935 C 648.293 4.36455 -0.287372 0
M  V30 6936 C 647.352 5.2361 0.52141 0
M  V30 6937 O 646.378 5.69167 -0.0611735 0
M  V30 6938 N 647.58 5.50985 1.82745 0
M  V30 6939 H 650.345 2.75838 -1.17191 0
M  V30 6940 H 647.906 1.42716 -0.764438 0
M  V30 6941 H 649.898 3.89794 1.08825 0
M  V30 6942 H 648.468 2.85272 1.27823 0
M  V30 6943 H 647.688 3.80875 -1.01626 0
M  V30 6944 H 648.976 5.01573 -0.854518 0
M  V30 6945 H 648.374 5.15781 2.32349 0
M  V30 6946 H 646.931 6.09036 2.32204 0
M  V30 6947 N 650.364 0.662433 1.43002 0
M  V30 6948 C 651.274 -0.0239199 2.34588 0
M  V30 6949 C 652.29 -0.802255 1.54402 0
M  V30 6950 O 653.466 -0.747401 1.87018 0
M  V30 6951 C 650.531 -0.972098 3.32793 0
M  V30 6952 C 649.592 -0.189673 4.28881 0
M  V30 6953 C 648.825 -1.09269 5.22395 0
M  V30 6954 O 649.048 -2.33209 5.20547 0
M  V30 6955 O 647.982 -0.560136 5.99288 0
M  V30 6956 H 651.808 0.730171 2.94792 0
M  V30 6957 H 649.393 0.422635 1.43297 0
M  V30 6958 H 651.275 -1.51676 3.93157 0
M  V30 6959 H 649.95 -1.70626 2.75079 0
M  V30 6960 H 648.857 0.398794 3.71968 0
M  V30 6961 H 650.19 0.50511 4.89601 0
M  V30 6962 N 651.842 -1.52309 0.404946 0
M  V30 6963 C 653.067 -2.06666 -0.1743 0
M  V30 6964 C 653.492 -1.27341 -1.38441 0
M  V30 6965 O 652.85 -0.302539 -1.78758 0
M  V30 6966 C 652.898 -3.57014 -0.507262 0
M  V30 6967 O 652.002 -3.80144 -1.59889 0
M  V30 6968 H 651.343 -0.663807 -0.0160273 0
M  V30 6969 H 653.873 -1.96297 0.576937 0
M  V30 6970 H 653.883 -4.00724 -0.767098 0
M  V30 6971 H 652.558 -4.14184 0.377368 0
M  V30 6972 H 651.135 -3.48316 -1.33155 0
M  V30 6973 N 653.32 -0.135238 -1.57019 0
M  V30 6974 C 654.25 0.805235 -2.19176 0
M  V30 6975 C 655.231 1.2656 -1.13651 0
M  V30 6976 O 656.416 1.32528 -1.4195 0
M  V30 6977 C 653.546 2.04914 -2.80406 0
M  V30 6978 C 652.5 1.72598 -3.91655 0
M  V30 6979 C 651.826 3.04154 -4.39766 0
M  V30 6980 C 653.126 0.981709 -5.12991 0
M  V30 6981 H 654.82 0.287232 -2.98019 0
M  V30 6982 H 652.366 0.136714 -1.4335 0
M  V30 6983 H 654.319 2.71178 -3.22553 0
M  V30 6984 H 653.043 2.59067 -1.98877 0
M  V30 6985 H 651.702 1.08717 -3.50109 0
M  V30 6986 H 651.35 3.56274 -3.55075 0
M  V30 6987 H 651.05 2.83299 -5.14796 0
M  V30 6988 H 652.574 3.71509 -4.84576 0
M  V30 6989 H 653.988 1.5462 -5.52056 0
M  V30 6990 H 652.385 0.873533 -5.93708 0
M  V30 6991 H 653.455 -0.0286887 -4.84892 0
M  V30 6992 N 654.798 1.5699 0.138552 0
M  V30 6993 C 656.209 1.73171 0.697754 0
M  V30 6994 C 656.56 0.750952 1.8126 0
M  V30 6995 O 655.685 -0.080549 2.1625 0
M  V30 6996 C 656.28 3.13996 1.27248 0
M  V30 6997 C 654.839 3.3175 1.77816 0
M  V30 6998 C 653.986 2.69084 0.669991 0
M  V30 6999 H 656.937 1.5846 -0.0871979 0
M  V30 7000 H 656.958 3.14463 2.14227 0
M  V30 7001 H 656.47 3.85354 0.460855 0
M  V30 7002 H 654.571 2.65403 2.61519 0
M  V30 7003 H 654.684 4.39768 1.90107 0
M  V30 7004 H 653.048 2.29782 1.09874 0
M  V30 7005 H 653.831 3.43053 -0.130329 0
M  V30 7006 N 656.276 -0.40816 1.52223 0
M  V30 7007 C 657.226 -1.49648 1.72016 0
M  V30 7008 C 658.21 -1.50311 0.574069 0
M  V30 7009 O 659.402 -1.56271 0.831173 0
M  V30 7010 C 656.531 -2.87566 1.87512 0
M  V30 7011 C 655.617 -2.91547 3.07995 0
M  V30 7012 N 656.008 -2.65225 4.30685 0
M  V30 7013 C 654.306 -3.22715 3.07849 0
M  V30 7014 C 655.007 -2.75799 5.12162 0
M  V30 7015 N 653.983 -3.08719 4.4743 0
M  V30 7016 H 657.785 -1.28093 2.64517 0
M  V30 7017 H 655.299 -0.61588 1.50269 0
M  V30 7018 H 657.296 -3.65899 1.99809 0
M  V30 7019 H 655.956 -3.10118 0.962114 0
M  V30 7020 H 656.967 -2.39601 4.59142 0
M  V30 7021 H 653.644 -3.50856 2.26289 0
M  V30 7022 H 655.034 -2.59155 6.1991 0
M  V30 7023 N 657.755 -1.42862 -0.66545 0
M  V30 7024 C 658.718 -1.46756 -1.76055 0
M  V30 7025 C 659.718 -0.353866 -1.56858 0
M  V30 7026 O 660.908 -0.615099 -1.62979 0
M  V30 7027 C 658.04 -1.30829 -3.14796 0
M  V30 7028 H 659.233 -2.44271 -1.73987 0
M  V30 7029 H 656.786 -1.29447 -0.875965 0
M  V30 7030 H 657.521 -0.342733 -3.22484 0
M  V30 7031 H 657.306 -2.11551 -3.30134 0
M  V30 7032 H 658.796 -1.36458 -3.94676 0
M  V30 7033 N 659.233 0.902656 -1.29189 0
M  V30 7034 C 660.481 1.6496 -1.16758 0
M  V30 7035 C 660.802 1.92952 0.28188 0
M  V30 7036 O 660.072 1.55351 1.19344 0
M  V30 7037 H 658.652 0.611447 -0.429118 0
M  V30 7038 H 661.314 1.0825 -1.62074 0
M  V30 7039 H 660.41 2.60728 -1.71544 0
M  V30 7040 N 660.711 1.11618 1.11262 0
M  V30 7041 C 662.122 0.881942 1.64556 0
M  V30 7042 C 662.473 -0.585442 1.87262 0
M  V30 7043 O 661.598 -1.44795 1.60821 0
M  V30 7044 C 662.193 1.59446 2.98935 0
M  V30 7045 C 660.752 1.40661 3.4913 0
M  V30 7046 C 659.899 1.63593 2.23903 0
M  V30 7047 H 662.85 1.27217 0.94877 0
M  V30 7048 H 662.871 1.04054 3.65996 0
M  V30 7049 H 662.383 2.66241 2.82378 0
M  V30 7050 H 660.484 0.360835 3.70849 0
M  V30 7051 H 660.597 2.15693 4.27801 0
M  V30 7052 H 658.961 1.05944 2.3162 0
M  V30 7053 H 659.744 2.71666 2.09886 0
M  V30 7054 N 662.189 -1.289 0.906776 0
M  V30 7055 C 663.438 -1.9455 0.532262 0
M  V30 7056 C 663.751 -1.72219 -0.927353 0
M  V30 7057 O 664.957 -2.32033 -1.40971 0
M  V30 7058 C 663.413 -3.48438 0.901041 0
M  V30 7059 C 663.021 -3.79558 2.37991 0
M  V30 7060 C 664.765 -4.20284 0.596777 0
M  V30 7061 C 662.672 -5.26723 2.68918 0
M  V30 7062 H 661.602 -0.728259 0.195333 0
M  V30 7063 H 664.253 -1.46519 1.10474 0
M  V30 7064 H 662.635 -3.95162 0.257419 0
M  V30 7065 H 663.809 -3.43668 3.06967 0
M  V30 7066 H 662.124 -3.20868 2.65391 0
M  V30 7067 H 664.721 -5.28612 0.8046 0
M  V30 7068 H 665.064 -4.13694 -0.465072 0
M  V30 7069 H 665.597 -3.79315 1.19855 0
M  V30 7070 H 662.336 -5.38384 3.73928 0
M  V30 7071 H 661.856 -5.63836 2.04571 0
M  V30 7072 H 663.535 -5.94391 2.55555 0
M  V30 7073 N 663.667 -0.670007 -1.42649 0
M  V30 7074 C 664.916 -0.187526 -2.00826 0
M  V30 7075 C 665.229 1.21142 -1.53571 0
M  V30 7076 O 666.435 1.79001 -2.04134 0
M  V30 7077 C 664.891 -0.284409 -3.58774 0
M  V30 7078 C 664.499 -1.6871 -4.15019 0
M  V30 7079 C 666.243 0.139605 -4.2427 0
M  V30 7080 C 664.15 -1.73701 -5.65316 0
M  V30 7081 H 663.08 -0.0663468 -0.751075 0
M  V30 7082 H 665.731 -0.834492 -1.63427 0
M  V30 7083 H 664.113 0.430364 -3.93655 0
M  V30 7084 H 665.287 -2.42857 -3.91608 0
M  V30 7085 H 663.602 -2.05855 -3.61957 0
M  V30 7086 H 666.199 0.122398 -5.3456 0
M  V30 7087 H 666.542 1.17403 -3.99402 0
M  V30 7088 H 667.075 -0.523995 -3.94334 0
M  V30 7089 H 663.814 -2.75109 -5.94975 0
M  V30 7090 H 663.334 -1.03903 -5.90732 0
M  V30 7091 H 665.013 -1.48829 -6.2965 0
M  V30 7092 N 665.145 1.52092 -0.413018 0
M  V30 7093 C 666.391 2.02154 0.161737 0
M  V30 7094 C 666.724 1.29789 1.44459 0
M  V30 7095 O 665.999 0.405378 1.90229 0
M  V30 7096 C 666.282 3.5781 0.405463 0
M  V30 7097 C 666.135 4.40819 -0.894335 0
M  V30 7098 C 667.454 4.23821 1.18591 0
M  V30 7099 H 664.573 0.734769 0.0573077 0
M  V30 7100 H 667.215 1.81948 -0.547247 0
M  V30 7101 H 665.365 3.75158 1.0094 0
M  V30 7102 H 667.037 4.35175 -1.53039 0
M  V30 7103 H 665.28 4.06877 -1.50444 0
M  V30 7104 H 665.951 5.47819 -0.678144 0
M  V30 7105 H 668.427 4.10596 0.674573 0
M  V30 7106 H 667.303 5.32663 1.3252 0
M  V30 7107 H 667.564 3.83038 2.20758 0
M  V30 7108 N 666.623 0.143563 1.56945 0
M  V30 7109 C 667.573 -0.809115 2.1316 0
M  V30 7110 C 668.557 -1.21176 1.05855 0
M  V30 7111 O 669.749 -1.17875 1.3204 0
M  V30 7112 C 666.878 -2.04957 2.75405 0
M  V30 7113 C 665.964 -1.67018 3.89828 0
M  V30 7114 N 666.355 -0.998822 4.9584 0
M  V30 7115 C 664.653 -1.96313 4.00471 0
M  V30 7116 C 665.354 -0.816217 5.75945 0
M  V30 7117 N 664.33 -1.349 5.26596 0
M  V30 7118 H 668.132 -0.286919 2.92496 0
M  V30 7119 H 665.646 -0.0580948 1.62296 0
M  V30 7120 H 667.643 -2.74201 3.14037 0
M  V30 7121 H 666.303 -2.57697 1.97541 0
M  V30 7122 H 667.314 -0.659975 5.13678 0
M  V30 7123 H 663.991 -2.50927 3.33679 0
M  V30 7124 H 665.381 -0.287353 6.71285 0
M  V30 7125 N 668.101 -1.57061 -0.130224 0
M  V30 7126 C 669.341 -1.86071 -0.845993 0
M  V30 7127 C 669.705 -0.73009 -1.77577 0
M  V30 7128 O 670.906 -0.901663 -2.53226 0
M  V30 7129 C 669.177 -3.20293 -1.58579 0
M  V30 7130 S 670.736 -3.70905 -2.34467 0
M  V30 7131 H 667.554 -0.652434 -0.282579 0
M  V30 7132 H 670.156 -1.95218 -0.10498 0
M  V30 7133 H 668.86 -4.00533 -0.894509 0
M  V30 7134 H 668.391 -3.14195 -2.36739 0
M  V30 7135 H 670.406 -3.41509 -3.59981 0
M  V30 7136 N 669.579 0.400081 -1.52437 0
M  V30 7137 C 670.804 1.17221 -1.71096 0
M  V30 7138 C 671.229 1.83269 -0.423565 0
M  V30 7139 O 670.587 1.70378 0.619751 0
M  V30 7140 C 670.635 2.20425 -2.85386 0
M  V30 7141 O 669.739 3.26769 -2.51586 0
M  V30 7142 H 669.08 0.341766 -0.569291 0
M  V30 7143 H 671.61 0.467772 -1.99181 0
M  V30 7144 H 671.62 2.64605 -3.10561 0
M  V30 7145 H 670.295 1.71737 -3.78786 0
M  V30 7146 H 668.872 2.87804 -2.37114 0
M  V30 7147 N 671.057 1.43213 0.657864 0
M  V30 7148 C 672.02 1.47687 1.75275 0
M  V30 7149 C 673.02 0.362179 1.56668 0
M  V30 7150 O 674.21 0.623734 1.62651 0
M  V30 7151 C 671.342 1.32497 3.14098 0
M  V30 7152 H 672.535 2.4519 1.7269 0
M  V30 7153 H 670.088 1.2991 0.869087 0
M  V30 7154 H 670.823 0.359831 3.22298 0
M  V30 7155 H 670.608 2.13299 3.29008 0
M  V30 7156 H 672.098 1.38549 3.93946 0
M  V30 7157 N 672.536 -0.895792 1.29666 0
M  V30 7158 C 673.784 -1.64339 1.17631 0
M  V30 7159 C 674.105 -1.93099 -0.271643 0
M  V30 7160 O 673.375 -1.55981 -1.18518 0
M  V30 7161 H 671.955 -0.609162 0.432354 0
M  V30 7162 H 674.617 -1.07389 1.62646 0
M  V30 7163 H 673.713 -2.59815 1.72924 0
M  V30 7164 N 674.014 -1.12206 -1.10668 0
M  V30 7165 C 675.263 -0.870595 -1.81944 0
M  V30 7166 C 675.576 0.605447 -1.85994 0
M  V30 7167 O 676.782 0.973433 -2.53449 0
M  V30 7168 C 675.238 -1.50783 -3.26791 0
M  V30 7169 C 674.846 -3.01849 -3.31046 0
M  V30 7170 C 676.59 -1.33653 -4.02911 0
M  V30 7171 C 674.497 -3.58518 -4.70339 0
M  V30 7172 H 673.427 -0.322043 -0.681765 0
M  V30 7173 H 676.078 -1.34827 -1.24475 0
M  V30 7174 H 674.46 -0.957825 -3.84242 0
M  V30 7175 H 675.634 -3.63321 -2.83433 0
M  V30 7176 H 673.949 -3.18346 -2.68411 0
M  V30 7177 H 676.546 -1.73416 -5.05797 0
M  V30 7178 H 676.889 -0.279949 -4.15358 0
M  V30 7179 H 677.422 -1.85562 -3.51868 0
M  V30 7180 H 674.161 -4.63925 -4.63091 0
M  V30 7181 H 673.681 -3.01819 -5.18329 0
M  V30 7182 H 675.36 -3.57434 -5.39305 0
M  V30 7183 N 675.492 1.28418 -0.913599 0
M  V30 7184 C 676.74 1.94596 -0.545594 0
M  V30 7185 C 677.061 1.7227 0.913668 0
M  V30 7186 O 676.331 1.06233 1.64595 0
M  V30 7187 H 674.911 0.720065 -0.198783 0
M  V30 7188 H 677.573 1.56404 -1.16292 0
M  V30 7189 H 676.669 3.03202 -0.739911 0
M  V30 7190 N 676.97 0.677563 1.42291 0
M  V30 7191 C 678.386 0.347376 1.55774 0
M  V30 7192 C 678.586 -1.14703 1.65667 0
M  V30 7193 O 677.642 -1.93252 1.62512 0
M  V30 7194 C 678.955 1.08011 2.80631 0
M  V30 7195 C 680.503 1.06271 2.94407 0
M  V30 7196 C 680.978 1.77683 4.22129 0
M  V30 7197 N 682.469 1.74564 4.29047 0
M  V30 7198 C 683.204 2.26673 5.26694 0
M  V30 7199 N 682.7 2.87176 6.30477 0
M  V30 7200 N 684.493 2.17032 5.18511 0
M  V30 7201 H 676.644 1.64703 1.34114 0
M  V30 7202 H 678.907 0.694038 0.645768 0
M  V30 7203 H 678.613 2.13518 2.79469 0
M  V30 7204 H 678.487 0.647115 3.71608 0
M  V30 7205 H 680.874 0.0159658 2.95096 0
M  V30 7206 H 680.955 1.53461 2.04654 0
M  V30 7207 H 680.599 2.82327 4.22201 0
M  V30 7208 H 680.529 1.2794 5.10822 0
M  V30 7209 H 683.02 1.30436 3.54676 0
M  V30 7210 H 683.333 3.24551 7.01346 0
M  V30 7211 H 681.678 2.91247 6.31031 0
M  V30 7212 H 684.869 1.69451 4.36353 0
M  V30 7213 H 685.042 2.57948 5.94446 0
M  V30 7214 N 678.448 -1.51871 0.421078 0
M  V30 7215 C 679.676 -2.06356 -0.14994 0
M  V30 7216 C 680.091 -1.29006 -1.37851 0
M  V30 7217 O 679.448 -0.345139 -1.79207 0
M  V30 7218 C 679.499 -3.58185 -0.488454 0
M  V30 7219 O 679.22 -4.32611 0.691341 0
M  V30 7220 C 680.721 -4.29129 -1.11191 0
M  V30 7221 H 677.941 -0.67083 -0.0151186 0
M  V30 7222 H 680.485 -1.95638 0.595476 0
M  V30 7223 H 678.64 -3.68871 -1.18376 0
M  V30 7224 H 679.054 -5.22927 0.405906 0
M  V30 7225 H 680.528 -5.36501 -1.29889 0
M  V30 7226 H 681.005 -3.86371 -2.0884 0
M  V30 7227 H 681.611 -4.22843 -0.456458 0
M  V30 7228 N 679.926 -0.151884 -1.56866 0
M  V30 7229 C 681.174 0.497021 -1.95893 0
M  V30 7230 C 681.495 1.65078 -1.03799 0
M  V30 7231 O 680.765 1.95642 -0.10049 0
M  V30 7232 H 679.345 0.186603 -0.723318 0
M  V30 7233 H 682.007 -0.228525 -1.93556 0
M  V30 7234 H 681.103 0.869933 -2.99731 0
M  V30 7235 N 681.404 1.57128 0.121893 0
M  V30 7236 C 682.632 1.88883 0.844451 0
M  V30 7237 C 683.047 0.742824 1.73573 0
M  V30 7238 O 682.404 -0.286475 1.80238 0
M  V30 7239 C 682.455 3.20076 1.68029 0
M  V30 7240 O 682.176 4.30264 0.824898 0
M  V30 7241 C 683.677 3.65515 2.50826 0
M  V30 7242 H 680.897 0.62549 0.242907 0
M  V30 7243 H 683.441 2.04219 0.107151 0
M  V30 7244 H 681.596 3.06418 2.37038 0
M  V30 7245 H 682.01 5.05439 1.40113 0
M  V30 7246 H 683.484 4.60081 3.05008 0
M  V30 7247 H 683.961 2.92029 3.28048 0
M  V30 7248 H 684.567 3.81952 1.87064 0
M  V30 7249 N 682.882 -0.391992 1.52647 0
M  V30 7250 C 684.131 -1.13449 1.6677 0
M  V30 7251 C 684.444 -1.91203 0.412399 0
M  V30 7252 O 685.65 -2.68013 0.433707 0
M  V30 7253 C 684.106 -2.06577 2.9471 0
M  V30 7254 C 683.714 -1.3426 4.27409 0
M  V30 7255 C 685.458 -2.80981 3.18198 0
M  V30 7256 C 683.365 -2.26136 5.46458 0
M  V30 7257 H 682.295 -0.427211 0.621295 0
M  V30 7258 H 684.946 -0.397522 1.79142 0
M  V30 7259 H 683.328 -2.83898 2.76076 0
M  V30 7260 H 684.502 -0.621856 4.56585 0
M  V30 7261 H 682.817 -0.718279 4.10158 0
M  V30 7262 H 685.414 -3.49898 4.04321 0
M  V30 7263 H 685.757 -3.44891 2.33144 0
M  V30 7264 H 686.29 -2.10754 3.37383 0
M  V30 7265 H 683.029 -1.66846 6.33911 0
M  V30 7266 H 682.549 -2.96134 5.21598 0
M  V30 7267 H 684.228 -2.86286 5.80215 0
M  V30 7268 N 684.36 -1.4356 -0.65026 0
M  V30 7269 C 685.609 -1.44619 -1.406 0
M  V30 7270 C 685.922 -0.0752645 -1.95455 0
M  V30 7271 O 687.128 0.0366832 -2.71475 0
M  V30 7272 C 685.584 -2.54511 -2.54465 0
M  V30 7273 C 685.192 -3.97723 -2.06204 0
M  V30 7274 C 686.936 -2.64768 -3.31811 0
M  V30 7275 C 684.843 -4.99075 -3.17298 0
M  V30 7276 H 683.773 -0.537983 -0.52829 0
M  V30 7277 H 686.424 -1.69559 -0.701561 0
M  V30 7278 H 684.806 -2.22777 -3.27393 0
M  V30 7279 H 685.98 -4.38932 -1.40267 0
M  V30 7280 H 684.295 -3.91538 -1.41729 0
M  V30 7281 H 686.892 -3.37664 -4.14593 0
M  V30 7282 H 687.235 -1.69936 -3.80036 0
M  V30 7283 H 687.768 -2.95817 -2.65964 0
M  V30 7284 H 684.507 -5.95469 -2.74038 0
M  V30 7285 H 684.027 -4.62476 -3.81937 0
M  V30 7286 H 685.706 -5.21913 -3.82382 0
M  V30 7287 N 685.838 0.888903 -1.30139 0
M  V30 7288 C 687.084 1.6428 -1.18912 0
M  V30 7289 C 687.417 1.92499 0.256477 0
M  V30 7290 O 686.692 1.54312 1.18397 0
M  V30 7291 C 686.975 2.9851 -2.01405 0
M  V30 7292 C 686.828 2.77288 -3.54163 0
M  V30 7293 C 688.147 3.99383 -1.84882 0
M  V30 7294 H 685.266 0.596148 -0.433333 0
M  V30 7295 H 687.908 1.0289 -1.5973 0
M  V30 7296 H 686.058 3.50907 -1.66722 0
M  V30 7297 H 687.73 2.31709 -3.98884 0
M  V30 7298 H 685.973 2.11867 -3.78543 0
M  V30 7299 H 686.644 3.72717 -4.07168 0
M  V30 7300 H 689.12 3.56132 -2.15196 0
M  V30 7301 H 687.996 4.91222 -2.44934 0
M  V30 7302 H 688.257 4.34674 -0.806902 0
M  V30 7303 N 687.317 1.12792 1.10072 0
M  V30 7304 C 688.566 0.880232 1.81479 0
M  V30 7305 C 688.879 -0.595575 1.86312 0
M  V30 7306 O 690.085 -0.959979 2.53962 0
M  V30 7307 C 688.541 1.52514 3.25987 0
M  V30 7308 C 688.149 3.036 3.29441 0
M  V30 7309 C 689.893 1.35788 4.02196 0
M  V30 7310 C 687.8 3.61007 4.68431 0
M  V30 7311 H 686.73 0.325654 0.680048 0
M  V30 7312 H 689.381 1.35485 1.23758 0
M  V30 7313 H 687.763 0.978188 3.83728 0
M  V30 7314 H 688.937 3.64819 2.81502 0
M  V30 7315 H 687.252 3.19765 2.66719 0
M  V30 7316 H 689.849 1.76096 5.0487 0
M  V30 7317 H 690.192 0.301972 4.15203 0
M  V30 7318 H 690.725 1.87426 3.50879 0
M  V30 7319 H 687.464 4.66375 4.60625 0
M  V30 7320 H 686.984 3.04564 5.16721 0
M  V30 7321 H 688.663 3.60289 5.37402 0
M  V30 7322 N 688.795 -1.27931 0.920396 0
M  V30 7323 C 690.072 -1.89728 0.475687 0
M  V30 7324 C 690.452 -1.8337 -1.04588 0
M  V30 7325 O 689.8 -1.27404 -1.89685 0
M  V30 7326 C 690.01 -3.33959 1.01354 0
M  V30 7327 C 691.358 -4.10907 1.06963 0
M  V30 7328 O 692.382 -3.42945 0.962646 0
M  V30 7329 O 691.241 -5.32399 1.23343 0
M  V30 7330 H 688.335 -0.81294 0.151845 0
M  V30 7331 H 690.881 -1.36252 1.01161 0
M  V30 7332 H 689.653 -3.32843 2.05746 0
M  V30 7333 H 689.276 -3.94944 0.458829 0
M  V30 7334 N 690.273 -0.685099 -1.4193 0
M  V30 7335 C 691.206 0.0371639 -2.2817 0
M  V30 7336 C 692.184 0.798436 -1.41647 0
M  V30 7337 O 693.368 0.791428 -1.71081 0
M  V30 7338 C 690.495 1.05993 -3.21688 0
M  V30 7339 C 689.541 0.393043 -4.24685 0
M  V30 7340 S 690.374 -0.856921 -5.28599 0
M  V30 7341 C 691.53 0.164508 -6.25684 0
M  V30 7342 H 691.763 -0.694305 -2.89079 0
M  V30 7343 H 689.296 -0.474999 -1.46912 0
M  V30 7344 H 691.254 1.64489 -3.76103 0
M  V30 7345 H 689.915 1.7639 -2.59895 0
M  V30 7346 H 689.108 1.16513 -4.90348 0
M  V30 7347 H 688.71 -0.118589 -3.73812 0
M  V30 7348 H 691.002 1.02106 -6.69762 0
M  V30 7349 H 691.945 -0.457917 -7.06618 0
M  V30 7350 H 692.353 0.514596 -5.6215 0
M  V30 7351 N 691.751 1.51645 -0.429126 0
M  V30 7352 C 692.681 2.30434 0.377148 0
M  V30 7353 C 693.662 1.35493 1.02838 0
M  V30 7354 O 694.847 1.6441 1.03359 0
M  V30 7355 C 691.977 3.14038 1.48315 0
M  V30 7356 C 690.931 4.1719 0.955855 0
M  V30 7357 C 690.257 4.89263 2.15698 0
M  V30 7358 C 691.557 5.223 -0.00402136 0
M  V30 7359 H 693.251 2.98085 -0.280336 0
M  V30 7360 H 690.797 1.43354 -0.136265 0
M  V30 7361 H 692.75 3.67933 2.05435 0
M  V30 7362 H 691.474 2.44193 2.16881 0
M  V30 7363 H 690.133 3.64335 0.406929 0
M  V30 7364 H 689.781 4.15929 2.82864 0
M  V30 7365 H 689.481 5.59009 1.81059 0
M  V30 7366 H 691.005 5.45978 2.73387 0
M  V30 7367 H 692.419 5.71315 0.476607 0
M  V30 7368 H 690.816 5.99525 -0.26258 0
M  V30 7369 H 691.886 4.75638 -0.943236 0
M  V30 7370 N 693.229 0.160201 1.56784 0
M  V30 7371 C 694.162 -0.812797 2.13234 0
M  V30 7372 C 695.14 -1.2335 1.05942 0
M  V30 7373 O 696.324 -1.32725 1.33852 0
M  V30 7374 C 693.451 -2.09311 2.66283 0
M  V30 7375 C 692.497 -1.8173 3.85845 0
M  V30 7376 S 693.33 -0.996473 5.26147 0
M  V30 7377 C 694.486 -2.28769 5.82594 0
M  V30 7378 H 694.719 -0.332794 2.95432 0
M  V30 7379 H 692.252 -0.0542971 1.54304 0
M  V30 7380 H 694.21 -2.82854 2.97496 0
M  V30 7381 H 692.871 -2.54425 1.84192 0
M  V30 7382 H 692.064 -2.76699 4.21253 0
M  V30 7383 H 691.666 -1.16289 3.55462 0
M  V30 7384 H 693.958 -3.24319 5.9483 0
M  V30 7385 H 694.901 -1.97846 6.79899 0
M  V30 7386 H 695.309 -2.40021 5.10931 0
M  V30 7387 N 694.707 -1.5719 -0.113559 0
M  V30 7388 C 695.617 -2.04041 -1.15777 0
M  V30 7389 C 696.633 -0.961812 -1.45001 0
M  V30 7390 O 697.809 -1.2737 -1.56009 0
M  V30 7391 C 694.874 -2.43994 -2.46308 0
M  V30 7392 C 693.935 -3.65962 -2.24433 0
M  V30 7393 C 693.168 -4.04 -3.4874 0
M  V30 7394 O 693.391 -3.42321 -4.56259 0
M  V30 7395 O 692.325 -4.97069 -3.3942 0
M  V30 7396 H 696.151 -2.93248 -0.789899 0
M  V30 7397 H 693.736 -1.45828 -0.324748 0
M  V30 7398 H 695.618 -2.70401 -3.23204 0
M  V30 7399 H 694.293 -1.57932 -2.82558 0
M  V30 7400 H 693.2 -3.44697 -1.45377 0
M  V30 7401 H 694.533 -4.52746 -1.93084 0
M  V30 7402 N 696.185 0.383891 -1.52853 0
M  V30 7403 C 697.133 1.48965 -1.7864 0
M  V30 7404 C 698.127 1.56242 -0.654577 0
M  V30 7405 O 699.333 1.59347 -0.83716 0
M  V30 7406 H 695.708 0.495892 -0.565328 0
M  V30 7407 H 697.679 1.24411 -2.71228 0
M  V30 7408 C 696.428 2.86036 -1.97683 0
M  V30 7409 H 695.751 2.81188 -2.84206 0
M  V30 7410 H 697.191 3.62632 -2.19713 0
M  V30 7411 C 695.65 3.28428 -0.750776 0
M  V30 7412 O 696.18 4.0164 0.0693491 0
M  V30 7413 N 694.386 2.84765 -0.579427 0
M  V30 7414 H 693.933 2.25353 -1.24795 0
M  V30 7415 H 693.891 3.13486 0.239544 0
M  V30 7416 N 697.663 1.43903 0.642637 0
M  V30 7417 C 698.912 1.45362 1.39831 0
M  V30 7418 C 699.225 0.0856289 1.95412 0
M  V30 7419 O 700.431 -0.0222856 2.71491 0
M  V30 7420 C 698.887 2.55857 2.53111 0
M  V30 7421 C 698.495 3.98811 2.04092 0
M  V30 7422 C 700.239 2.66524 3.30402 0
M  V30 7423 C 698.146 5.00751 3.14647 0
M  V30 7424 H 697.076 0.540777 0.52543 0
M  V30 7425 H 699.727 1.69929 0.692559 0
M  V30 7426 H 698.109 2.2451 3.26207 0
M  V30 7427 H 699.283 4.3967 1.37938 0
M  V30 7428 H 697.598 3.92284 1.39651 0
M  V30 7429 H 700.195 3.39858 4.12796 0
M  V30 7430 H 700.538 1.71949 3.79129 0
M  V30 7431 H 701.071 2.97224 2.64392 0
M  V30 7432 H 697.81 5.96914 2.70876 0
M  V30 7433 H 697.33 4.64495 3.79479 0
M  V30 7434 H 699.009 5.23933 3.79609 0
M  V30 7435 N 699.141 -0.881989 1.30609 0
M  V30 7436 C 700.366 -1.67236 1.22665 0
M  V30 7437 C 700.791 -1.8696 -0.206777 0
M  V30 7438 O 700.149 -1.4027 -1.14865 0
M  V30 7439 C 700.197 -3.02446 1.96363 0
M  V30 7440 O 699.301 -3.91614 1.29276 0
M  V30 7441 H 698.642 -0.510902 0.424117 0
M  V30 7442 H 701.172 -1.10055 1.72479 0
M  V30 7443 H 701.182 -3.52468 2.055 0
M  V30 7444 H 699.857 -2.8741 3.00613 0
M  V30 7445 H 698.434 -3.50055 1.28514 0
M  V30 7446 N 700.619 -1.13374 -1.09472 0
M  V30 7447 C 701.847 -0.918351 -1.85402 0
M  V30 7448 C 702.262 0.53281 -1.81126 0
M  V30 7449 O 701.619 1.36879 -1.20708 0
M  V30 7450 C 701.67 -1.39743 -3.33398 0
M  V30 7451 O 701.391 -2.79172 -3.37631 0
M  V30 7452 C 702.892 -1.22042 -4.2617 0
M  V30 7453 H 700.112 -0.327511 -0.585643 0
M  V30 7454 H 702.656 -1.50617 -1.38328 0
M  V30 7455 H 700.811 -0.852619 -3.77901 0
M  V30 7456 H 701.225 -3.00428 -4.29934 0
M  V30 7457 H 702.699 -1.60438 -5.2817 0
M  V30 7458 H 703.176 -0.162047 -4.38901 0
M  V30 7459 H 703.782 -1.75323 -3.87482 0
M  V30 7460 N 702.098 1.27442 -0.927168 0
M  V30 7461 C 703.045 2.26863 -0.424459 0
M  V30 7462 C 704.015 1.5813 0.508346 0
M  V30 7463 O 705.2 1.85946 0.42762 0
M  V30 7464 C 702.34 3.43639 0.31718 0
M  V30 7465 C 701.453 4.27087 -0.649675 0
M  V30 7466 C 700.588 5.31082 0.111753 0
M  V30 7467 C 699.627 6.062 -0.847843 0
M  V30 7468 N 698.764 7.01999 -0.119074 0
M  V30 7469 H 703.604 2.69239 -1.27728 0
M  V30 7470 H 701.141 1.32394 -0.641106 0
M  V30 7471 H 703.099 4.10155 0.763486 0
M  V30 7472 H 701.729 3.02217 1.13424 0
M  V30 7473 H 700.781 3.60491 -1.21451 0
M  V30 7474 H 702.093 4.79242 -1.38307 0
M  V30 7475 H 701.247 6.03544 0.618 0
M  V30 7476 H 699.986 4.7973 0.878114 0
M  V30 7477 H 698.991 5.32577 -1.36534 0
M  V30 7478 H 700.216 6.59642 -1.61398 0
M  V30 7479 H 698.162 6.52977 0.629051 0
M  V30 7480 H 698.079 7.5184 -0.792046 0
M  V30 7481 H 699.347 7.78638 0.366537 0
M  V30 7482 N 703.576 0.692616 1.41565 0
M  V30 7483 C 704.824 0.221896 2.00878 0
M  V30 7484 C 705.145 -1.18164 1.5512 0
M  V30 7485 O 704.415 -1.79679 0.78054 0
M  V30 7486 H 702.995 0.0790463 0.742806 0
M  V30 7487 H 705.657 0.893115 1.73232 0
M  V30 7488 H 704.753 0.23702 3.11199 0
M  V30 7489 N 705.054 -1.51416 0.437162 0
M  V30 7490 C 705.984 -2.30631 -0.364922 0
M  V30 7491 C 706.965 -1.36037 -1.02118 0
M  V30 7492 O 708.15 -1.64956 -1.02485 0
M  V30 7493 C 705.28 -3.1482 -1.46648 0
M  V30 7494 C 704.234 -4.17691 -0.933717 0
M  V30 7495 C 703.56 -4.904 -2.13101 0
M  V30 7496 C 704.86 -5.2229 0.0317201 0
M  V30 7497 H 706.554 -2.97932 0.29614 0
M  V30 7498 H 704.1 -1.4328 0.143865 0
M  V30 7499 H 706.053 -3.69017 -2.03481 0
M  V30 7500 H 704.777 -2.4534 -2.15583 0
M  V30 7501 H 703.436 -3.64545 -0.387602 0
M  V30 7502 H 703.084 -4.17423 -2.80654 0
M  V30 7503 H 702.784 -5.59962 -1.78092 0
M  V30 7504 H 704.308 -5.4742 -2.70487 0
M  V30 7505 H 705.722 -5.7156 -0.446302 0
M  V30 7506 H 704.119 -5.99378 0.29437 0
M  V30 7507 H 705.189 -4.75131 0.968447 0
M  V30 7508 N 706.532 -0.168513 -1.56696 0
M  V30 7509 C 707.809 0.523367 -1.88468 0
M  V30 7510 C 708.189 1.81503 -1.07796 0
M  V30 7511 O 707.537 2.27859 -0.171045 0
M  V30 7512 C 707.747 0.767991 -3.40445 0
M  V30 7513 C 709.095 1.09924 -4.10124 0
M  V30 7514 O 710.119 0.856625 -3.45746 0
M  V30 7515 O 708.978 1.55681 -5.23856 0
M  V30 7516 H 706.072 0.269447 -0.781874 0
M  V30 7517 H 708.618 -0.206739 -1.68436 0
M  V30 7518 H 707.39 -0.145254 -3.9103 0
M  V30 7519 H 707.013 1.55151 -3.66079 0
M  V30 7520 N 708.01 1.57248 0.105221 0
M  V30 7521 C 709.25 1.87393 0.816283 0
M  V30 7522 C 709.614 0.758249 1.76393 0
M  V30 7523 O 710.815 0.941835 2.5176 0
M  V30 7524 C 709.086 3.22775 1.53463 0
M  V30 7525 S 710.645 3.74588 2.28537 0
M  V30 7526 H 707.463 0.656847 0.272164 0
M  V30 7527 H 710.065 1.9536 0.073909 0
M  V30 7528 H 708.769 4.01905 0.830674 0
M  V30 7529 H 708.3 3.17921 2.3171 0
M  V30 7530 H 710.315 3.47193 3.54502 0
M  V30 7531 N 709.488 -0.375779 1.53054 0
M  V30 7532 C 710.765 -1.13453 1.59336 0
M  V30 7533 C 711.145 -2.07379 0.394614 0
M  V30 7534 O 710.493 -2.2004 -0.616 0
M  V30 7535 C 710.703 -1.8826 2.93869 0
M  V30 7536 C 712.051 -2.43155 3.48081 0
M  V30 7537 O 713.075 -1.984 2.95831 0
M  V30 7538 O 711.934 -3.24944 4.39401 0
M  V30 7539 H 709.028 -0.519856 0.643179 0
M  V30 7540 H 711.574 -0.379865 1.65394 0
M  V30 7541 H 710.346 -1.19652 3.72558 0
M  V30 7542 H 709.969 -2.70658 2.91256 0
M  V30 7543 N 710.966 -1.44241 -0.634997 0
M  V30 7544 C 712.215 -1.46102 -1.39058 0
M  V30 7545 C 712.528 -0.0959909 -1.95364 0
M  V30 7546 O 713.734 0.00788751 -2.71499 0
M  V30 7547 C 712.19 -2.57195 -2.51751 0
M  V30 7548 C 711.798 -3.99888 -2.01974 0
M  V30 7549 C 713.542 -2.68272 -3.28984 0
M  V30 7550 C 711.449 -5.02412 -3.11987 0
M  V30 7551 H 710.379 -0.543556 -0.522554 0
M  V30 7552 H 713.03 -1.70294 -0.683538 0
M  V30 7553 H 711.412 -2.26237 -3.25012 0
M  V30 7554 H 712.586 -4.40396 -1.35604 0
M  V30 7555 H 710.901 -3.93019 -1.37568 0
M  V30 7556 H 713.498 -3.42042 -4.10988 0
M  V30 7557 H 713.841 -1.73957 -3.78212 0
M  V30 7558 H 714.374 -2.98622 -2.62812 0
M  V30 7559 H 711.113 -5.98342 -2.67707 0
M  V30 7560 H 710.633 -4.66501 -3.77011 0
M  V30 7561 H 712.312 -5.25939 -3.76825 0
M  V30 7562 N 712.444 0.87505 -1.31075 0
M  V30 7563 C 713.721 1.60976 -1.11113 0
M  V30 7564 C 714.101 2.08409 0.336006 0
M  V30 7565 O 713.449 1.85858 1.32924 0
M  V30 7566 C 713.659 2.77166 -2.12085 0
M  V30 7567 C 715.007 3.47254 -2.44335 0
M  V30 7568 O 716.031 2.87367 -2.10472 0
M  V30 7569 O 714.89 4.55276 -3.02301 0
M  V30 7570 H 711.984 0.707982 -0.427424 0
M  V30 7571 H 714.53 0.920957 -1.42536 0
M  V30 7572 H 713.302 2.39494 -3.09449 0
M  V30 7573 H 712.925 3.53737 -1.81538 0
M  V30 7574 N 713.922 1.13953 1.08869 0
M  V30 7575 C 715.171 0.899431 1.80536 0
M  V30 7576 C 715.484 -0.575781 1.86933 0
M  V30 7577 O 716.69 -0.932988 2.54966 0
M  V30 7578 C 715.146 1.55963 3.24351 0
M  V30 7579 C 714.754 3.07077 3.26202 0
M  V30 7580 C 716.498 1.40046 4.00733 0
M  V30 7581 C 714.405 3.65955 4.64576 0
M  V30 7582 H 713.335 0.332849 0.676556 0
M  V30 7583 H 715.986 1.3679 1.22314 0
M  V30 7584 H 714.368 1.01883 3.82669 0
M  V30 7585 H 715.542 3.67785 2.77617 0
M  V30 7586 H 713.857 3.22576 2.63312 0
M  V30 7587 H 716.454 1.81441 5.02974 0
M  V30 7588 H 716.797 0.345993 4.1486 0
M  V30 7589 H 717.33 1.91137 3.48872 0
M  V30 7590 H 714.069 4.71234 4.55652 0
M  V30 7591 H 713.589 3.10027 5.13462 0
M  V30 7592 H 715.268 3.65968 5.33551 0
M  V30 7593 N 715.4 -1.26948 0.933913 0
M  V30 7594 C 716.332 -2.25768 0.395137 0
M  V30 7595 C 717.345 -1.55637 -0.477585 0
M  V30 7596 O 718.534 -1.76142 -0.289204 0
M  V30 7597 C 715.634 -3.35874 -0.451882 0
M  V30 7598 C 714.807 -4.3554 0.40299 0
M  V30 7599 C 713.866 -5.24809 -0.3824 0
M  V30 7600 O 712.892 -5.68805 0.212057 0
M  V30 7601 N 714.094 -5.55636 -1.68072 0
M  V30 7602 H 716.859 -2.72634 1.24463 0
M  V30 7603 H 714.42 -1.40639 0.802008 0
M  V30 7604 H 716.412 -3.92542 -0.984516 0
M  V30 7605 H 714.982 -2.8856 -1.20215 0
M  V30 7606 H 714.202 -3.78047 1.11688 0
M  V30 7607 H 715.49 -4.99131 0.987201 0
M  V30 7608 H 714.888 -5.2176 -2.18592 0
M  V30 7609 H 713.445 -6.14978 -2.15975 0
M  V30 7610 N 716.879 -0.700114 -1.41195 0
M  V30 7611 C 717.826 -0.0376652 -2.30769 0
M  V30 7612 C 718.796 0.766544 -1.47354 0
M  V30 7613 O 719.981 0.73365 -1.76131 0
M  V30 7614 C 717.121 0.889452 -3.33441 0
M  V30 7615 C 716.234 0.076373 -4.31932 0
M  V30 7616 C 715.369 1.00155 -5.21673 0
M  V30 7617 C 714.408 0.181644 -6.1183 0
M  V30 7618 N 713.545 1.06087 -6.94039 0
M  V30 7619 H 718.385 -0.80726 -2.86858 0
M  V30 7620 H 715.922 -0.409798 -1.41277 0
M  V30 7621 H 717.88 1.44107 -3.91522 0
M  V30 7622 H 716.51 1.6254 -2.78892 0
M  V30 7623 H 715.562 -0.592223 -3.75762 0
M  V30 7624 H 716.874 -0.559076 -4.95657 0
M  V30 7625 H 716.028 1.62223 -5.8461 0
M  V30 7626 H 714.767 1.67085 -4.58186 0
M  V30 7627 H 713.772 -0.452085 -5.47938 0
M  V30 7628 H 714.997 -0.483925 -6.77374 0
M  V30 7629 H 712.943 1.7161 -6.33156 0
M  V30 7630 H 712.86 0.481094 -7.54468 0
M  V30 7631 H 714.128 1.66822 -7.6144 0
M  V30 7632 N 718.357 1.51182 -0.445186 0
M  V30 7633 C 719.585 2.06568 0.117091 0
M  V30 7634 C 720 1.31182 1.35781 0
M  V30 7635 O 719.357 0.373605 1.78635 0
M  V30 7636 C 719.408 3.58917 0.431408 0
M  V30 7637 O 719.129 4.31456 -0.760078 0
M  V30 7638 C 720.63 4.30843 1.0435 0
M  V30 7639 H 717.85 0.670985 0.00444436 0
M  V30 7640 H 720.394 1.94666 -0.626525 0
M  V30 7641 H 718.549 3.70708 1.12493 0
M  V30 7642 H 718.963 5.22215 -0.489048 0
M  V30 7643 H 720.437 5.38499 1.21337 0
M  V30 7644 H 720.914 3.89644 2.02667 0
M  V30 7645 H 721.52 4.23516 0.38913 0
M  V30 7646 N 719.835 0.176821 1.56605 0
M  V30 7647 C 721.084 -0.466833 1.96223 0
M  V30 7648 C 721.397 -1.64015 1.06576 0
M  V30 7649 O 722.603 -2.3504 1.35898 0
M  V30 7650 C 721.059 -0.881921 3.48927 0
M  V30 7651 C 720.667 0.266102 4.47209 0
M  V30 7652 C 722.411 -1.49368 3.97353 0
M  V30 7653 C 720.318 -0.168923 5.91159 0
M  V30 7654 H 719.248 -0.178178 0.732645 0
M  V30 7655 H 721.899 0.265929 1.81563 0
M  V30 7656 H 720.281 -1.67082 3.59026 0
M  V30 7657 H 721.455 1.04349 4.4883 0
M  V30 7658 H 719.77 0.788178 4.08872 0
M  V30 7659 H 722.367 -1.8313 5.02362 0
M  V30 7660 H 722.71 -2.3936 3.40606 0
M  V30 7661 H 723.243 -0.769114 3.90294 0
M  V30 7662 H 719.982 0.696351 6.51791 0
M  V30 7663 H 719.502 -0.911552 5.92833 0
M  V30 7664 H 721.181 -0.610938 6.44109 0
M  V30 7665 N 721.313 -1.57302 -0.09688 0
M  V30 7666 C 722.245 -1.98618 -1.14384 0
M  V30 7667 C 723.258 -0.888483 -1.36418 0
M  V30 7668 O 724.447 -1.16661 -1.35101 0
M  V30 7669 C 721.547 -2.28838 -2.49973 0
M  V30 7670 C 720.72 -3.60132 -2.48241 0
M  V30 7671 C 719.779 -3.7831 -3.65743 0
M  V30 7672 O 718.805 -4.50183 -3.48316 0
M  V30 7673 N 720.007 -3.18752 -4.85157 0
M  V30 7674 H 722.772 -2.8904 -0.792202 0
M  V30 7675 H 720.333 -1.59356 -0.285883 0
M  V30 7676 H 722.325 -2.38193 -3.27179 0
M  V30 7677 H 720.895 -1.44431 -2.77233 0
M  V30 7678 H 720.115 -3.61763 -1.56593 0
M  V30 7679 H 721.403 -4.46389 -2.4416 0
M  V30 7680 H 720.801 -2.60368 -5.0222 0
M  V30 7681 H 719.358 -3.33595 -5.59962 0
M  V30 7682 N 722.791 0.367657 -1.53252 0
M  V30 7683 C 723.724 1.47264 -1.74323 0
M  V30 7684 C 724.702 1.51458 -0.591535 0
M  V30 7685 O 725.886 1.69542 -0.823883 0
M  V30 7686 C 723.013 2.85637 -1.82015 0
M  V30 7687 C 722.059 2.99176 -3.03967 0
M  V30 7688 S 722.892 2.68147 -4.63527 0
M  V30 7689 C 724.048 4.08673 -4.74065 0
M  V30 7690 H 724.281 1.29169 -2.67773 0
M  V30 7691 H 721.814 0.561866 -1.43814 0
M  V30 7692 H 723.772 3.65365 -1.87132 0
M  V30 7693 H 722.433 3.01043 -0.896195 0
M  V30 7694 H 721.626 4.00511 -3.05953 0
M  V30 7695 H 721.228 2.27367 -2.96952 0
M  V30 7696 H 723.52 5.02889 -4.53992 0
M  V30 7697 H 724.463 4.11693 -5.7612 0
M  V30 7698 H 724.871 3.95576 -4.02716 0
M  V30 7699 N 724.269 1.44576 0.627338 0
M  V30 7700 C 725.515 1.47777 1.38888 0
M  V30 7701 C 725.848 0.111406 1.9388 0
M  V30 7702 O 725.123 -0.87149 1.73883 0
M  V30 7703 C 725.406 2.54119 2.55138 0
M  V30 7704 C 725.259 4.00128 2.0547 0
M  V30 7705 C 726.578 2.56929 3.57317 0
M  V30 7706 H 723.697 0.538048 0.50366 0
M  V30 7707 H 726.339 1.76277 0.708978 0
M  V30 7708 H 724.489 2.29948 3.13139 0
M  V30 7709 H 726.161 4.35444 1.5227 0
M  V30 7710 H 724.404 4.11724 1.36623 0
M  V30 7711 H 725.075 4.7019 2.89181 0
M  V30 7712 H 727.551 2.78536 3.09122 0
M  V30 7713 H 726.427 3.33234 4.36173 0
M  V30 7714 H 726.688 1.6127 4.11636 0
M  V30 7715 N 725.747 -0.868086 1.31537 0
M  V30 7716 C 727.163 -1.15414 1.10235 0
M  V30 7717 C 727.363 -2.01106 -0.125947 0
M  V30 7718 O 726.419 -2.38994 -0.814734 0
M  V30 7719 C 727.732 -1.84445 2.37488 0
M  V30 7720 C 729.28 -1.97139 2.43116 0
M  V30 7721 C 729.755 -2.69585 3.70254 0
M  V30 7722 N 731.246 -2.77119 3.71159 0
M  V30 7723 C 731.981 -3.33791 4.6623 0
M  V30 7724 N 731.477 -3.9138 5.71659 0
M  V30 7725 N 733.27 -3.31767 4.53747 0
M  V30 7726 H 725.421 -0.297109 2.10312 0
M  V30 7727 H 727.684 -0.194227 0.92789 0
M  V30 7728 H 727.39 -1.2893 3.27215 0
M  V30 7729 H 727.264 -2.84709 2.47428 0
M  V30 7730 H 729.651 -2.51818 1.53856 0
M  V30 7731 H 729.732 -0.95912 2.37138 0
M  V30 7732 H 729.376 -2.15572 4.59881 0
M  V30 7733 H 729.306 -3.71223 3.73499 0
M  V30 7734 H 731.797 -2.3625 2.94948 0
M  V30 7735 H 732.11 -4.3274 6.40278 0
M  V30 7736 H 730.455 -3.8975 5.7543 0
M  V30 7737 H 733.646 -2.86016 3.70557 0
M  V30 7738 H 733.819 -3.75636 5.28017 0
M  V30 7739 N 727.225 -1.14528 -1.08264 0
M  V30 7740 C 728.188 -0.83632 -2.13397 0
M  V30 7741 C 729.188 0.159715 -1.60005 0
M  V30 7742 O 730.378 -0.0688098 -1.74064 0
M  V30 7743 C 727.51 -0.246973 -3.40004 0
M  V30 7744 H 728.703 -1.76808 -2.42237 0
M  V30 7745 H 726.256 -0.951509 -1.24 0
M  V30 7746 H 726.991 0.693436 -3.168 0
M  V30 7747 H 726.776 -0.964412 -3.80055 0
M  V30 7748 H 728.266 -0.0480679 -4.17572 0
M  V30 7749 N 728.703 1.26451 -0.940633 0
M  V30 7750 C 729.635 2.25556 -0.407104 0
M  V30 7751 C 730.648 1.55888 0.469324 0
M  V30 7752 O 731.837 1.76292 0.279858 0
M  V30 7753 C 728.937 3.36109 0.434064 0
M  V30 7754 C 728.11 4.3532 -0.426082 0
M  V30 7755 C 727.169 5.25004 0.354563 0
M  V30 7756 O 726.195 5.68684 -0.242219 0
M  V30 7757 N 727.397 5.5652 1.65123 0
M  V30 7758 H 730.162 2.7197 -1.25907 0
M  V30 7759 H 727.723 1.40212 -0.809456 0
M  V30 7760 H 729.715 3.93059 0.963684 0
M  V30 7761 H 728.285 2.89194 1.18683 0
M  V30 7762 H 727.505 3.77449 -1.13692 0
M  V30 7763 H 728.793 4.986 -1.01366 0
M  V30 7764 H 728.191 5.22912 2.15822 0
M  V30 7765 H 726.748 6.16115 2.12711 0
M  V30 7766 N 730.181 0.707592 1.40822 0
M  V30 7767 C 731.597 0.38034 1.55002 0
M  V30 7768 C 731.797 -1.11163 1.68062 0
M  V30 7769 O 730.853 -1.89761 1.66574 0
M  V30 7770 C 732.166 1.1394 2.78277 0
M  V30 7771 C 733.714 1.12492 2.92087 0
M  V30 7772 C 734.189 1.86597 4.18265 0
M  V30 7773 N 735.68 1.83626 4.25248 0
M  V30 7774 C 736.415 2.37794 5.21768 0
M  V30 7775 N 735.911 3.00485 6.24244 0
M  V30 7776 N 737.704 2.27982 5.13791 0
M  V30 7777 H 729.855 1.67511 1.3059 0
M  V30 7778 H 732.118 0.707579 0.630901 0
M  V30 7779 H 731.824 2.19398 2.74877 0
M  V30 7780 H 731.698 0.725793 3.70151 0
M  V30 7781 H 734.085 0.0785564 2.94995 0
M  V30 7782 H 734.166 1.57768 2.01353 0
M  V30 7783 H 733.81 2.91219 4.16118 0
M  V30 7784 H 733.74 1.38746 5.07993 0
M  V30 7785 H 736.231 1.3793 3.51829 0
M  V30 7786 H 736.544 3.39355 6.94304 0
M  V30 7787 H 734.889 3.04567 6.24711 0
M  V30 7788 H 738.08 1.78669 4.3266 0
M  V30 7789 H 738.253 2.70499 5.88841 0
M  V30 7790 N 731.66 -1.50943 0.453197 0
M  V30 7791 C 732.885 -2.07116 -0.108463 0
M  V30 7792 C 733.31 -1.31681 -1.3432 0
M  V30 7793 O 732.668 -0.359256 -1.77705 0
M  V30 7794 C 732.716 -3.58447 -0.393424 0
M  V30 7795 O 731.82 -3.85038 -1.47714 0
M  V30 7796 H 731.161 -0.66398 0.0050993 0
M  V30 7797 H 733.691 -1.94362 0.639095 0
M  V30 7798 H 733.701 -4.02961 -0.639222 0
M  V30 7799 H 732.376 -4.12774 0.508946 0
M  V30 7800 H 730.953 -3.52376 -1.22006 0
M  V30 7801 N 733.138 -0.185124 -1.56509 0
M  V30 7802 C 734.386 0.455357 -1.96903 0
M  V30 7803 C 734.707 1.62839 -1.07277 0
M  V30 7804 O 733.977 1.95385 -0.141966 0
M  V30 7805 H 732.557 0.171218 -0.727113 0
M  V30 7806 H 735.219 -0.26953 -1.93027 0
M  V30 7807 H 734.315 0.80616 -3.01509 0
M  V30 7808 N 734.616 1.57351 0.0885366 0
M  V30 7809 C 735.549 1.97786 1.13825 0
M  V30 7810 C 736.527 0.852091 1.38485 0
M  V30 7811 O 737.711 1.11296 1.52137 0
M  V30 7812 C 734.838 2.30024 2.48609 0
M  V30 7813 C 733.884 3.52437 2.40189 0
M  V30 7814 S 734.717 5.03908 1.81209 0
M  V30 7815 C 735.873 5.39331 3.17605 0
M  V30 7816 H 736.106 2.86513 0.793587 0
M  V30 7817 H 733.639 1.51527 0.29646 0
M  V30 7818 H 735.597 2.49274 3.26148 0
M  V30 7819 H 734.258 1.41856 2.80242 0
M  V30 7820 H 733.451 3.72457 3.39546 0
M  V30 7821 H 733.053 3.32731 1.70781 0
M  V30 7822 H 735.345 5.36378 4.13891 0
M  V30 7823 H 736.288 6.4029 3.02381 0
M  V30 7824 H 736.696 4.6679 3.17438 0
M  V30 7825 N 736.094 -0.359525 1.53444 0
M  V30 7826 C 737.34 -1.10315 1.70172 0
M  V30 7827 C 737.673 -1.88788 0.455287 0
M  V30 7828 O 736.948 -1.86635 -0.547514 0
M  V30 7829 C 737.231 -2.05744 2.95536 0
M  V30 7830 C 737.084 -1.3084 4.3035 0
M  V30 7831 C 738.403 -3.05784 3.16518 0
M  V30 7832 H 735.522 -0.399662 0.619225 0
M  V30 7833 H 738.164 -0.383338 1.86093 0
M  V30 7834 H 736.314 -2.67125 2.82093 0
M  V30 7835 H 737.986 -0.721959 4.55615 0
M  V30 7836 H 736.229 -0.610283 4.29486 0
M  V30 7837 H 736.9 -2.00718 5.14214 0
M  V30 7838 H 739.376 -2.5451 3.29187 0
M  V30 7839 H 738.252 -3.69772 4.05659 0
M  V30 7840 H 738.513 -3.76289 2.32076 0
M  V30 7841 N 737.572 -1.44907 -0.619662 0
M  V30 7842 C 738.504 -1.48652 -1.74457 0
M  V30 7843 C 739.517 -0.378596 -1.58337 0
M  V30 7844 O 740.706 -0.644987 -1.6644 0
M  V30 7845 C 737.806 -1.31568 -3.12319 0
M  V30 7846 C 736.979 -2.55816 -3.54792 0
M  V30 7847 C 736.038 -2.33465 -4.71573 0
M  V30 7848 O 735.064 -3.07015 -4.79302 0
M  V30 7849 N 736.266 -1.37254 -5.6404 0
M  V30 7850 H 739.031 -2.45632 -1.71712 0
M  V30 7851 H 736.592 -1.40492 -0.804582 0
M  V30 7852 H 738.584 -1.14445 -3.88181 0
M  V30 7853 H 737.154 -0.429095 -3.09641 0
M  V30 7854 H 736.374 -2.88137 -2.69018 0
M  V30 7855 H 737.662 -3.38431 -3.79924 0
M  V30 7856 H 737.06 -0.765309 -5.60499 0
M  V30 7857 H 735.617 -1.26106 -6.39485 0
M  V30 7858 N 739.05 0.861098 -1.31996 0
M  V30 7859 C 740.278 1.6474 -1.25173 0
M  V30 7860 C 740.693 1.87926 0.181425 0
M  V30 7861 O 740.05 1.4437 1.1164 0
M  V30 7862 C 740.101 3.01036 -2.0015 0
M  V30 7863 O 739.822 2.7888 -3.37872 0
M  V30 7864 C 741.323 3.95481 -2.00273 0
M  V30 7865 H 738.543 0.513314 -0.432146 0
M  V30 7866 H 741.087 1.07419 -1.74016 0
M  V30 7867 H 739.242 3.55021 -1.55046 0
M  V30 7868 H 739.656 3.65514 -3.76165 0
M  V30 7869 H 741.13 4.88403 -2.57229 0
M  V30 7870 H 741.607 4.27957 -0.987407 0
M  V30 7871 H 742.213 3.47433 -2.45296 0
M  V30 7872 N 740.528 1.15101 1.07655 0
M  V30 7873 C 741.438 0.858869 2.18313 0
M  V30 7874 C 742.454 -0.163641 1.73229 0
M  V30 7875 O 743.63 0.00969541 2.01398 0
M  V30 7876 C 740.695 0.34893 3.4494 0
M  V30 7877 C 739.756 1.43495 4.04608 0
M  V30 7878 C 738.989 0.949253 5.2519 0
M  V30 7879 O 739.212 -0.20636 5.70027 0
M  V30 7880 O 738.146 1.73161 5.76454 0
M  V30 7881 H 741.972 1.78386 2.45788 0
M  V30 7882 H 739.557 0.929876 1.16934 0
M  V30 7883 H 741.439 0.070851 4.2134 0
M  V30 7884 H 740.114 -0.548237 3.19024 0
M  V30 7885 H 739.021 1.7666 3.29761 0
M  V30 7886 H 740.354 2.30692 4.3479 0
M  V30 7887 N 742.006 -1.2595 0.947325 0
M  V30 7888 C 742.969 -2.24407 0.466285 0
M  V30 7889 C 743.969 -1.55054 -0.426005 0
M  V30 7890 O 745.159 -1.7275 -0.224319 0
M  V30 7891 C 742.291 -3.39326 -0.327201 0
M  V30 7892 H 743.484 -2.68477 1.33642 0
M  V30 7893 H 741.037 -1.38211 0.729887 0
M  V30 7894 H 741.772 -3.00667 -1.21532 0
M  V30 7895 H 741.557 -3.9085 0.312839 0
M  V30 7896 H 743.047 -4.12455 -0.653477 0
M  V30 7897 N 743.484 -0.715051 -1.40445 0
M  V30 7898 C 744.416 -0.0227516 -2.29189 0
M  V30 7899 C 745.429 0.724313 -1.458 0
M  V30 7900 O 746.618 0.571781 -1.69094 0
M  V30 7901 C 743.718 0.992038 -3.24055 0
M  V30 7902 C 742.891 0.310613 -4.36296 0
M  V30 7903 C 741.95 1.23071 -5.11605 0
M  V30 7904 O 740.976 0.71571 -5.64682 0
M  V30 7905 N 742.178 2.56188 -5.2091 0
M  V30 7906 H 744.943 -0.78473 -2.89244 0
M  V30 7907 H 742.504 -0.562637 -1.51809 0
M  V30 7908 H 744.496 1.60973 -3.71308 0
M  V30 7909 H 743.066 1.65538 -2.65171 0
M  V30 7910 H 742.286 -0.487269 -3.91177 0
M  V30 7911 H 743.574 -0.162415 -5.08541 0
M  V30 7912 H 742.972 3.00527 -4.7927 0
M  V30 7913 H 741.529 3.13103 -5.71673 0
M  V30 7914 N 744.962 1.50701 -0.461195 0
M  V30 7915 C 746.192 2.06381 0.0950376 0
M  V30 7916 C 746.6 1.32627 1.34933 0
M  V30 7917 O 745.943 0.386137 1.79596 0
M  V30 7918 C 746.005 3.56558 0.458965 0
M  V30 7919 C 745.669 4.51732 -0.691891 0
M  V30 7920 C 746.666 4.95594 -1.57105 0
M  V30 7921 C 744.351 4.94542 -0.879407 0
M  V30 7922 C 746.345 5.80963 -2.62223 0
M  V30 7923 C 744.032 5.79695 -1.93382 0
M  V30 7924 C 745.03 6.22806 -2.80359 0
M  V30 7925 O 744.718 7.06265 -3.83986 0
M  V30 7926 H 744.45 0.676 0.000687488 0
M  V30 7927 H 747.004 1.94974 -0.646087 0
M  V30 7928 H 745.234 3.65832 1.25314 0
M  V30 7929 H 746.923 3.94647 0.949124 0
M  V30 7930 H 747.689 4.63197 -1.43783 0
M  V30 7931 H 743.568 4.60513 -0.211907 0
M  V30 7932 H 747.112 6.14533 -3.30143 0
M  V30 7933 H 743.009 6.11506 -2.06715 0
M  V30 7934 H 743.777 7.24494 -3.80855 0
M  V30 7935 N 746.441 0.193421 1.56409 0
M  V30 7936 C 747.388 -0.728124 2.19014 0
M  V30 7937 C 748.358 -1.21098 1.13686 0
M  V30 7938 O 749.543 -1.27517 1.4193 0
M  V30 7939 C 746.683 -1.94277 2.8522 0
M  V30 7940 C 745.796 -1.50143 4.05069 0
M  V30 7941 C 744.931 -2.67145 4.59137 0
M  V30 7942 C 743.97 -2.19609 5.71348 0
M  V30 7943 N 743.107 -3.29782 6.19829 0
M  V30 7944 H 747.947 -0.187499 2.9741 0
M  V30 7945 H 745.484 -0.0808064 1.46878 0
M  V30 7946 H 747.442 -2.65551 3.21774 0
M  V30 7947 H 746.072 -2.45673 2.09391 0
M  V30 7948 H 745.124 -0.684624 3.74189 0
M  V30 7949 H 746.436 -1.11266 4.86232 0
M  V30 7950 H 745.59 -3.46544 4.97988 0
M  V30 7951 H 744.329 -3.09295 3.77078 0
M  V30 7952 H 743.334 -1.38664 5.32027 0
M  V30 7953 H 744.559 -1.78492 6.55223 0
M  V30 7954 H 742.505 -3.71466 5.40693 0
M  V30 7955 H 742.422 -2.95069 6.96039 0
M  V30 7956 H 743.69 -4.094 6.63334 0
M  V30 7957 N 747.919 -1.57396 -0.0801906 0
M  V30 7958 C 749.166 -1.86836 -0.780927 0
M  V30 7959 C 749.494 -0.784012 -1.77999 0
M  V30 7960 O 748.749 0.220881 -1.94449 0
M  V30 7961 C 749.048 -3.22915 -1.53169 0
M  V30 7962 C 748.714 -4.45843 -0.67339 0
M  V30 7963 C 747.376 -4.79213 -0.436829 0
M  V30 7964 C 749.728 -5.21142 -0.0776786 0
M  V30 7965 C 747.056 -5.853 0.405062 0
M  V30 7966 C 749.408 -6.28119 0.751619 0
M  V30 7967 C 748.072 -6.59995 0.998131 0
M  V30 7968 H 747.342 -0.683682 -0.285761 0
M  V30 7969 H 749.989 -1.91454 -0.0419435 0
M  V30 7970 H 748.294 -3.14049 -2.34265 0
M  V30 7971 H 749.991 -3.42926 -2.07853 0
M  V30 7972 H 746.581 -4.19721 -0.867891 0
M  V30 7973 H 750.765 -4.95682 -0.247572 0
M  V30 7974 H 746.021 -6.084 0.60488 0
M  V30 7975 H 750.195 -6.8563 1.22 0
M  V30 7976 H 747.822 -7.42027 1.65227 0
M  V30 7977 N 749.397 0.351382 -1.53633 0
M  V30 7978 C 750.646 1.08988 -1.69719 0
M  V30 7979 C 750.959 1.90043 -0.462948 0
M  V30 7980 O 752.165 2.66769 -0.504613 0
M  V30 7981 C 750.621 1.98691 -3.00083 0
M  V30 7982 C 750.229 1.22881 -4.30818 0
M  V30 7983 C 751.973 2.72446 -3.25536 0
M  V30 7984 C 749.88 2.11568 -5.52262 0
M  V30 7985 H 748.81 0.410588 -0.632403 0
M  V30 7986 H 751.461 0.349886 -1.80133 0
M  V30 7987 H 749.843 2.76478 -2.83506 0
M  V30 7988 H 751.017 0.500582 -4.58073 0
M  V30 7989 H 749.332 0.60928 -4.11918 0
M  V30 7990 H 751.929 3.39055 -4.13456 0
M  V30 7991 H 752.272 3.38588 -2.42206 0
M  V30 7992 H 752.805 2.01735 -3.42852 0
M  V30 7993 H 749.544 1.4998 -6.38111 0
M  V30 7994 H 749.064 2.82201 -5.29266 0
M  V30 7995 H 750.743 2.70802 -5.87601 0
M  V30 7996 N 750.875 1.45233 0.611969 0
M  V30 7997 C 752.105 1.52318 1.39581 0
M  V30 7998 C 752.513 0.153093 1.8858 0
M  V30 7999 O 751.856 -0.854792 1.62601 0
M  V30 8000 C 751.918 2.4426 2.63775 0
M  V30 8001 C 751.582 3.91079 2.36445 0
M  V30 8002 C 752.579 4.81099 1.97079 0
M  V30 8003 C 750.264 4.35958 2.49492 0
M  V30 8004 C 752.258 6.14002 1.71115 0
M  V30 8005 C 749.945 5.68903 2.23142 0
M  V30 8006 C 750.943 6.57744 1.84015 0
M  V30 8007 O 750.631 7.88226 1.5797 0
M  V30 8008 H 750.363 0.518428 0.43383 0
M  V30 8009 H 752.917 1.91067 0.753837 0
M  V30 8010 H 751.147 2.00474 3.30677 0
M  V30 8011 H 752.836 2.42077 3.25812 0
M  V30 8012 H 753.602 4.47692 1.86539 0
M  V30 8013 H 749.481 3.67053 2.78914 0
M  V30 8014 H 753.025 6.83305 1.405 0
M  V30 8015 H 748.922 6.01866 2.33297 0
M  V30 8016 H 749.69 8.00211 1.72058 0
M  V30 8017 N 752.353 -0.854086 1.3245 0
M  V30 8018 C 753.599 -1.61069 1.23225 0
M  V30 8019 C 753.932 -1.93111 -0.205349 0
M  V30 8020 O 753.207 -1.57397 -1.14265 0
M  V30 8021 C 753.49 -2.93065 2.09249 0
M  V30 8022 C 753.343 -2.67801 3.6139 0
M  V30 8023 C 754.662 -3.94341 1.95406 0
M  V30 8024 H 751.781 -0.584449 0.448986 0
M  V30 8025 H 754.423 -0.986189 1.62402 0
M  V30 8026 H 752.573 -3.46364 1.75967 0
M  V30 8027 H 754.245 -2.21052 4.04887 0
M  V30 8028 H 752.488 -2.01756 3.84027 0
M  V30 8029 H 753.159 -3.6179 4.16907 0
M  V30 8030 H 755.635 -3.50301 2.24562 0
M  V30 8031 H 754.511 -4.84555 2.57872 0
M  V30 8032 H 754.772 -4.32382 0.921865 0
M  V30 8033 N 753.831 -1.1567 -1.07043 0
M  V30 8034 C 754.794 -0.858906 -2.12498 0
M  V30 8035 C 755.794 0.142735 -1.60165 0
M  V30 8036 O 756.984 -0.0872678 -1.73981 0
M  V30 8037 C 754.116 -0.283021 -3.39723 0
M  V30 8038 H 755.309 -1.79368 -2.40348 0
M  V30 8039 H 752.862 -0.964608 -1.22984 0
M  V30 8040 H 753.597 0.659796 -3.17517 0
M  V30 8041 H 753.382 -1.00467 -3.7901 0
M  V30 8042 H 754.872 -0.0923543 -4.17498 0
M  V30 8043 N 755.309 1.25446 -0.953992 0
M  V30 8044 C 756.558 1.92441 -0.604101 0
M  V30 8045 C 756.871 1.75543 0.862796 0
M  V30 8046 O 758.077 2.37106 1.32262 0
M  V30 8047 C 756.533 3.44854 -1.02974 0
M  V30 8048 C 756.141 3.70464 -2.51914 0
M  V30 8049 C 757.885 4.1778 -0.752352 0
M  V30 8050 C 755.792 5.1638 -2.88281 0
M  V30 8051 H 754.722 0.720508 -0.222227 0
M  V30 8052 H 757.373 1.42318 -1.15836 0
M  V30 8053 H 755.755 3.93935 -0.403904 0
M  V30 8054 H 756.929 3.32038 -3.19511 0
M  V30 8055 H 755.244 3.10797 -2.77117 0
M  V30 8056 H 757.841 5.25261 -1.00024 0
M  V30 8057 H 758.184 4.15135 0.311212 0
M  V30 8058 H 758.717 3.74605 -1.33851 0
M  V30 8059 H 755.456 5.24135 -3.93653 0
M  V30 8060 H 754.976 5.55855 -2.25357 0
M  V30 8061 H 756.655 5.84497 -2.77439 0
M  V30 8062 N 756.787 0.722489 1.40064 0
M  V30 8063 C 757.75 0.0830209 2.2905 0
M  V30 8064 C 758.75 -0.680208 1.45705 0
M  V30 8065 O 759.94 -0.511084 1.66534 0
M  V30 8066 C 757.072 -0.892092 3.29021 0
M  V30 8067 H 758.265 0.866848 2.87099 0
M  V30 8068 H 755.818 0.487556 1.48501 0
M  V30 8069 H 756.553 -1.70273 2.76003 0
M  V30 8070 H 756.338 -0.34761 3.90556 0
M  V30 8071 H 757.828 -1.33648 3.95636 0
M  V30 8072 N 758.265 -1.50454 0.469181 0
M  V30 8073 C 759.197 -2.26319 -0.362247 0
M  V30 8074 C 760.21 -1.31574 -0.958751 0
M  V30 8075 O 761.399 -1.57099 -0.847482 0
M  V30 8076 C 758.499 -3.02808 -1.52187 0
M  V30 8077 C 757.672 -4.24893 -1.03849 0
M  V30 8078 C 756.731 -4.83691 -2.07194 0
M  V30 8079 O 755.757 -5.44659 -1.65333 0
M  V30 8080 N 756.959 -4.70522 -3.39985 0
M  V30 8081 H 759.724 -2.98312 0.288124 0
M  V30 8082 H 757.285 -1.59099 0.299856 0
M  V30 8083 H 759.277 -3.39023 -2.21011 0
M  V30 8084 H 757.847 -2.33625 -2.07697 0
M  V30 8085 H 757.067 -3.93806 -0.176203 0
M  V30 8086 H 758.355 -5.04053 -0.693435 0
M  V30 8087 H 757.753 -4.2203 -3.76706 0
M  V30 8088 H 756.31 -5.11011 -4.04612 0
M  V30 8089 N 759.743 -0.201713 -1.56304 0
M  V30 8090 C 760.99 0.435307 -1.97766 0
M  V30 8091 C 761.318 1.61169 -1.0888 0
M  V30 8092 O 760.573 1.95272 -0.12934 0
M  V30 8093 C 760.872 0.931432 -3.45049 0
M  V30 8094 C 760.538 -0.132287 -4.50706 0
M  V30 8095 C 759.2 -0.424552 -4.79323 0
M  V30 8096 C 761.552 -0.852703 -5.14177 0
M  V30 8097 C 758.88 -1.4421 -5.68701 0
M  V30 8098 C 761.232 -1.85944 -6.04655 0
M  V30 8099 C 759.896 -2.15884 -6.31625 0
M  V30 8100 H 759.166 0.15929 -0.723676 0
M  V30 8101 H 761.813 -0.300069 -1.89134 0
M  V30 8102 H 760.118 1.7452 -3.50785 0
M  V30 8103 H 761.815 1.43383 -3.74489 0
M  V30 8104 H 758.405 0.105671 -4.2847 0
M  V30 8105 H 762.589 -0.640139 -4.92154 0
M  V30 8106 H 757.845 -1.6799 -5.87869 0
M  V30 8107 H 762.019 -2.42286 -6.52894 0
M  V30 8108 H 759.646 -2.94875 -7.0068 0
M  V30 8109 N 761.222 1.57436 0.0718424 0
M  V30 8110 C 762.471 1.86431 0.769826 0
M  V30 8111 C 762.784 0.794355 1.78744 0
M  V30 8112 O 763.99 0.972148 2.53499 0
M  V30 8113 C 762.446 3.307 1.42006 0
M  V30 8114 C 762.054 4.45824 0.441017 0
M  V30 8115 C 763.798 3.68894 2.10041 0
M  V30 8116 C 761.705 5.81134 1.09717 0
M  V30 8117 H 760.635 0.695474 0.291259 0
M  V30 8118 H 763.286 1.83485 0.0231224 0
M  V30 8119 H 761.668 3.28257 2.21502 0
M  V30 8120 H 762.842 4.59659 -0.32413 0
M  V30 8121 H 761.157 4.16181 -0.134886 0
M  V30 8122 H 763.754 4.67281 2.59908 0
M  V30 8123 H 764.097 2.98692 2.89981 0
M  V30 8124 H 764.63 3.73326 1.37376 0
M  V30 8125 H 761.369 6.54628 0.338095 0
M  V30 8126 H 760.889 5.711 1.83317 0
M  V30 8127 H 762.568 6.26468 1.617 0
M  V30 8128 N 762.7 -0.34323 1.53817 0
M  V30 8129 C 763.61 -1.44493 1.84821 0
M  V30 8130 C 764.626 -1.57556 0.738381 0
M  V30 8131 O 765.802 -1.73026 1.03072 0
M  V30 8132 C 762.867 -2.79478 2.05166 0
M  V30 8133 C 761.928 -2.75756 3.29025 0
M  V30 8134 C 761.161 -4.04302 3.4839 0
M  V30 8135 O 761.384 -5.01595 2.71586 0
M  V30 8136 O 760.318 -4.08754 4.41819 0
M  V30 8137 H 764.144 -1.21209 2.78464 0
M  V30 8138 H 761.729 -0.535437 1.39476 0
M  V30 8139 H 763.611 -3.59419 2.19991 0
M  V30 8140 H 762.286 -3.02692 1.14713 0
M  V30 8141 H 761.193 -1.94434 3.19603 0
M  V30 8142 H 762.526 -2.57495 4.19472 0
M  V30 8143 N 764.178 -1.45556 -0.604258 0
M  V30 8144 C 765.406 -1.53278 -1.38973 0
M  V30 8145 C 765.821 -0.166509 -1.88064 0
M  V30 8146 O 765.178 0.832519 -1.62405 0
M  V30 8147 C 765.229 -2.51992 -2.59195 0
M  V30 8148 O 764.95 -3.8331 -2.12143 0
M  V30 8149 C 766.451 -2.69445 -3.52015 0
M  V30 8150 H 763.671 -0.519003 -0.425297 0
M  V30 8151 H 766.215 -1.90773 -0.736621 0
M  V30 8152 H 764.37 -2.17561 -3.2054 0
M  V30 8153 H 764.784 -4.3685 -2.90279 0
M  V30 8154 H 766.258 -3.42485 -4.32907 0
M  V30 8155 H 766.735 -1.75596 -4.0257 0
M  V30 8156 H 767.341 -3.04886 -2.9652 0
M  V30 8157 N 765.656 0.84705 -1.32902 0
M  V30 8158 C 766.884 1.63403 -1.26913 0
M  V30 8159 C 767.299 1.88108 0.161483 0
M  V30 8160 O 766.656 1.45546 1.10103 0
M  V30 8161 C 766.707 2.98896 -2.03331 0
M  V30 8162 O 766.428 2.75281 -3.40811 0
M  V30 8163 C 767.929 3.93335 -2.04457 0
M  V30 8164 H 765.149 0.508701 -0.437566 0
M  V30 8165 H 767.693 1.05567 -1.75145 0
M  V30 8166 H 765.848 3.53356 -1.58802 0
M  V30 8167 H 766.262 3.61504 -3.8002 0
M  V30 8168 H 767.736 4.85647 -2.62394 0
M  V30 8169 H 768.213 4.26885 -1.03274 0
M  V30 8170 H 768.819 3.44812 -2.48967 0
M  V30 8171 N 767.134 1.16236 1.06428 0
M  V30 8172 C 768.081 0.86769 2.13869 0
M  V30 8173 C 769.051 -0.183298 1.65086 0
M  V30 8174 O 770.236 -0.0488002 1.90738 0
M  V30 8175 C 767.376 0.373427 3.43074 0
M  V30 8176 C 766.489 1.48708 4.05598 0
M  V30 8177 C 765.624 0.947977 5.22673 0
M  V30 8178 C 764.663 2.03793 5.77178 0
M  V30 8179 N 763.8 1.51451 6.85571 0
M  V30 8180 H 768.64 1.78781 2.38414 0
M  V30 8181 H 766.177 0.891892 1.16977 0
M  V30 8182 H 768.135 0.0685035 4.17144 0
M  V30 8183 H 766.765 -0.509752 3.1875 0
M  V30 8184 H 765.817 1.908 3.29089 0
M  V30 8185 H 767.129 2.30964 4.42105 0
M  V30 8186 H 766.283 0.596154 6.03764 0
M  V30 8187 H 765.022 0.0947081 4.87608 0
M  V30 8188 H 764.027 2.39847 4.94726 0
M  V30 8189 H 765.252 2.89514 6.14295 0
M  V30 8190 H 763.198 0.683755 6.52427 0
M  V30 8191 H 763.115 2.27325 7.21013 0
M  V30 8192 H 764.383 1.19123 7.70344 0
M  V30 8193 N 768.612 -1.24939 0.960631 0
M  V30 8194 C 769.559 -2.25658 0.484459 0
M  V30 8195 C 770.529 -1.59422 -0.466242 0
M  V30 8196 O 771.714 -1.87015 -0.378169 0
M  V30 8197 C 768.854 -3.44359 -0.225958 0
M  V30 8198 C 767.967 -4.25214 0.762682 0
M  V30 8199 C 767.102 -5.31192 0.0290931 0
M  V30 8200 C 766.141 -6.03739 1.00827 0
M  V30 8201 N 765.278 -7.01437 0.305155 0
M  V30 8202 H 770.118 -2.65758 1.34821 0
M  V30 8203 H 767.655 -1.30648 0.675983 0
M  V30 8204 H 769.613 -4.12035 -0.654472 0
M  V30 8205 H 768.243 -3.05118 -1.05371 0
M  V30 8206 H 767.295 -3.57144 1.30966 0
M  V30 8207 H 768.607 -4.75406 1.50964 0
M  V30 8208 H 767.761 -6.04971 -0.457763 0
M  V30 8209 H 766.5 -4.81889 -0.750614 0
M  V30 8210 H 765.505 -5.2877 1.50607 0
M  V30 8211 H 766.73 -6.55131 1.7883 0
M  V30 8212 H 764.676 -6.54415 -0.455704 0
M  V30 8213 H 764.593 -7.49475 0.991104 0
M  V30 8214 H 765.861 -7.79336 -0.159966 0
M  V30 8215 N 770.09 -0.729906 -1.39679 0
M  V30 8216 C 771.037 -0.0866063 -2.30637 0
M  V30 8217 C 772.007 0.735115 -1.48947 0
M  V30 8218 O 773.192 0.696125 -1.77648 0
M  V30 8219 C 770.332 0.818524 -3.35252 0
M  V30 8220 C 769.445 -0.0152635 -4.31997 0
M  V30 8221 C 768.58 0.890669 -5.2368 0
M  V30 8222 C 767.619 0.0518246 -6.12078 0
M  V30 8223 N 766.756 0.913411 -6.96133 0
M  V30 8224 H 771.596 -0.867925 -2.85081 0
M  V30 8225 H 769.133 -0.439673 -1.40376 0
M  V30 8226 H 771.091 1.3577 -3.9449 0
M  V30 8227 H 769.721 1.56587 -2.82277 0
M  V30 8228 H 768.773 -0.671794 -3.74421 0
M  V30 8229 H 770.085 -0.664086 -4.9436 0
M  V30 8230 H 769.239 1.49787 -5.87919 0
M  V30 8231 H 767.978 1.57328 -4.61627 0
M  V30 8232 H 766.983 -0.568209 -5.46856 0
M  V30 8233 H 768.208 -0.627497 -6.76195 0
M  V30 8234 H 766.154 1.58141 -6.36653 0
M  V30 8235 H 766.071 0.320952 -7.55318 0
M  V30 8236 H 767.339 1.50633 -7.64807 0
M  V30 8237 N 771.568 1.50203 -0.477153 0
M  V30 8238 C 772.498 2.31517 0.303646 0
M  V30 8239 C 773.479 1.38696 0.984753 0
M  V30 8240 O 774.664 1.67615 0.980758 0
M  V30 8241 C 771.794 3.18598 1.38249 0
M  V30 8242 C 770.748 4.2002 0.822645 0
M  V30 8243 C 770.074 4.95878 2.00024 0
M  V30 8244 C 771.374 5.22023 -0.170185 0
M  V30 8245 H 773.068 2.97042 -0.375027 0
M  V30 8246 H 770.614 1.42848 -0.181802 0
M  V30 8247 H 772.567 3.74282 1.93625 0
M  V30 8248 H 771.291 2.5097 2.09002 0
M  V30 8249 H 769.95 3.65445 0.290813 0
M  V30 8250 H 769.598 4.24717 2.69489 0
M  V30 8251 H 769.298 5.64487 1.63183 0
M  V30 8252 H 770.822 5.54399 2.55878 0
M  V30 8253 H 772.236 5.72543 0.294606 0
M  V30 8254 H 770.633 5.98386 -0.453181 0
M  V30 8255 H 771.703 4.72396 -1.09408 0
M  V30 8256 N 773.046 0.209999 1.56195 0
M  V30 8257 C 773.956 -0.716459 2.23392 0
M  V30 8258 C 774.972 -1.22291 1.23778 0
M  V30 8259 O 776.148 -1.26694 1.56558 0
M  V30 8260 C 773.213 -1.91261 2.89172 0
M  V30 8261 C 772.274 -1.44927 4.04097 0
M  V30 8262 C 771.507 -2.5884 4.66731 0
M  V30 8263 O 771.73 -3.76693 4.2832 0
M  V30 8264 O 770.664 -2.30701 5.55932 0
M  V30 8265 H 774.49 -0.174089 3.03201 0
M  V30 8266 H 772.075 -0.0199505 1.49387 0
M  V30 8267 H 773.957 -2.6114 3.30733 0
M  V30 8268 H 772.632 -2.4433 2.12331 0
M  V30 8269 H 771.539 -0.718839 3.67129 0
M  V30 8270 H 772.872 -0.965084 4.82646 0
M  V30 8271 N 774.524 -1.57472 -0.0634922 0
M  V30 8272 C 775.77 -1.87932 -0.762194 0
M  V30 8273 C 776.103 -0.803377 -1.76804 0
M  V30 8274 O 775.378 0.185468 -1.93614 0
M  V30 8275 C 775.661 -3.29053 -1.46275 0
M  V30 8276 C 775.514 -4.47309 -0.472755 0
M  V30 8277 C 776.833 -3.68537 -2.40558 0
M  V30 8278 H 773.952 -0.683521 -0.275624 0
M  V30 8279 H 776.594 -1.89983 -0.0252651 0
M  V30 8280 H 774.744 -3.27435 -2.0909 0
M  V30 8281 H 776.416 -4.61053 0.150828 0
M  V30 8282 H 774.659 -4.33286 0.211187 0
M  V30 8283 H 775.33 -5.42853 -1.00072 0
M  V30 8284 H 777.806 -3.71302 -1.87814 0
M  V30 8285 H 776.682 -4.68152 -2.86574 0
M  V30 8286 H 776.943 -2.98917 -3.25731 0
M  V30 8287 N 776.003 0.335068 -1.53997 0
M  V30 8288 C 776.933 1.41727 -1.85568 0
M  V30 8289 C 777.914 1.54505 -0.7115 0
M  V30 8290 O 779.099 1.68573 -0.964191 0
M  V30 8291 C 776.229 2.7866 -2.07282 0
M  V30 8292 C 775.183 2.80682 -3.23112 0
M  V30 8293 C 774.509 4.20581 -3.30175 0
M  V30 8294 C 775.809 2.45458 -4.61029 0
M  V30 8295 H 777.503 1.15555 -2.76202 0
M  V30 8296 H 775.049 0.554445 -1.32898 0
M  V30 8297 H 777.002 3.54423 -2.27952 0
M  V30 8298 H 775.726 3.06286 -1.13387 0
M  V30 8299 H 774.385 2.07373 -3.02311 0
M  V30 8300 H 774.033 4.4533 -2.33859 0
M  V30 8301 H 773.733 4.22843 -4.08016 0
M  V30 8302 H 775.257 4.98174 -3.53066 0
M  V30 8303 H 776.671 3.10934 -4.81656 0
M  V30 8304 H 775.068 2.5899 -5.41336 0
M  V30 8305 H 776.138 1.40628 -4.6406 0
M  V30 8306 N 777.481 1.45874 0.596531 0
M  V30 8307 C 778.413 1.51408 1.7207 0
M  V30 8308 C 779.426 0.403738 1.57714 0
M  V30 8309 O 780.615 0.671384 1.65393 0
M  V30 8310 C 777.715 1.3652 3.10186 0
M  V30 8311 C 776.888 2.61428 3.50677 0
M  V30 8312 C 775.947 2.40937 4.67799 0
M  V30 8313 O 774.973 3.14602 4.74357 0
M  V30 8314 N 776.175 1.4621 5.61785 0
M  V30 8315 H 778.94 2.48333 1.67782 0
M  V30 8316 H 776.501 1.41755 0.782129 0
M  V30 8317 H 778.493 1.20606 3.86311 0
M  V30 8318 H 777.063 0.478302 3.08919 0
M  V30 8319 H 776.283 2.92381 2.644 0
M  V30 8320 H 777.571 3.44432 3.74491 0
M  V30 8321 H 776.969 0.854382 5.59211 0
M  V30 8322 H 775.526 1.36264 6.37397 0
M  V30 8323 N 778.959 -0.83999 1.33349 0
M  V30 8324 C 780.184 -1.63249 1.27924 0
M  V30 8325 C 780.609 -1.87523 -0.147193 0
M  V30 8326 O 779.967 -1.43853 -1.10345 0
M  V30 8327 C 780.015 -2.96046 2.05886 0
M  V30 8328 O 779.119 -3.87303 1.4167 0
M  V30 8329 H 778.46 -0.49715 0.440157 0
M  V30 8330 H 780.99 -1.04512 1.75893 0
M  V30 8331 H 781 -3.45752 2.16609 0
M  V30 8332 H 779.675 -2.77701 3.09605 0
M  V30 8333 H 778.252 -3.45789 1.39585 0
M  V30 8334 N 780.437 -1.16799 -1.0581 0
M  V30 8335 C 781.369 -0.836774 -2.13379 0
M  V30 8336 C 782.382 0.158116 -1.6203 0
M  V30 8337 O 783.571 -0.0673211 -1.78373 0
M  V30 8338 C 780.671 -0.225959 -3.38146 0
M  V30 8339 C 779.844 -1.26217 -4.18794 0
M  V30 8340 C 778.903 -0.670257 -5.21914 0
M  V30 8341 O 777.929 -1.34042 -5.53192 0
M  V30 8342 N 779.131 0.540683 -5.77977 0
M  V30 8343 H 781.896 -1.76257 -2.42391 0
M  V30 8344 H 779.457 -1.06599 -1.21853 0
M  V30 8345 H 781.449 0.18317 -4.04285 0
M  V30 8346 H 780.019 0.603494 -3.06719 0
M  V30 8347 H 779.239 -1.84729 -3.48237 0
M  V30 8348 H 780.527 -1.9613 -4.69479 0
M  V30 8349 H 779.925 1.10322 -5.54838 0
M  V30 8350 H 778.482 0.891958 -6.45668 0
M  V30 8351 N 781.915 1.24427 -0.967243 0
M  V30 8352 C 782.862 2.25398 -0.496419 0
M  V30 8353 C 783.832 1.59667 0.457781 0
M  V30 8354 O 785.017 1.87213 0.368246 0
M  V30 8355 C 782.157 3.44474 0.207693 0
M  V30 8356 C 781.27 4.24804 -0.785221 0
M  V30 8357 C 780.405 5.31169 -0.0572631 0
M  V30 8358 C 779.444 6.03195 -1.04027 0
M  V30 8359 N 778.581 7.01265 -0.34235 0
M  V30 8360 H 783.421 2.65039 -1.36229 0
M  V30 8361 H 780.958 1.30288 -0.682902 0
M  V30 8362 H 782.916 4.12376 0.632612 0
M  V30 8363 H 781.546 3.05672 1.03752 0
M  V30 8364 H 780.598 3.56445 -1.32858 0
M  V30 8365 H 781.91 4.74599 -1.53483 0
M  V30 8366 H 781.064 6.05205 0.425674 0
M  V30 8367 H 779.803 4.8228 0.725047 0
M  V30 8368 H 778.808 5.27964 -1.53409 0
M  V30 8369 H 780.033 6.54173 -1.82302 0
M  V30 8370 H 777.979 6.54648 0.420993 0
M  V30 8371 H 777.896 7.48939 -1.03084 0
M  V30 8372 H 779.164 7.7941 0.118634 0
M  V30 8373 N 783.393 0.737304 1.3929 0
M  V30 8374 C 784.641 0.285691 2.00071 0
M  V30 8375 C 784.962 -1.13169 1.58801 0
M  V30 8376 O 784.232 -1.77104 0.837308 0
M  V30 8377 H 782.812 0.102638 0.739915 0
M  V30 8378 H 785.474 0.947775 1.70303 0
M  V30 8379 H 784.57 0.335906 3.10287 0
M  V30 8380 N 784.871 -1.49948 0.485112 0
M  V30 8381 C 785.803 -2.26691 -0.338222 0
M  V30 8382 C 786.816 -1.32584 -0.944742 0
M  V30 8383 O 788.005 -1.57989 -0.830772 0
M  V30 8384 C 785.105 -3.04405 -1.48966 0
M  V30 8385 C 784.278 -4.25971 -0.993371 0
M  V30 8386 C 783.337 -4.85861 -2.02052 0
M  V30 8387 O 782.363 -5.46382 -1.59547 0
M  V30 8388 N 783.565 -4.74101 -3.34975 0
M  V30 8389 H 786.33 -2.97989 0.319748 0
M  V30 8390 H 783.891 -1.58772 0.316714 0
M  V30 8391 H 785.883 -3.41348 -2.17403 0
M  V30 8392 H 784.453 -2.35815 -2.05207 0
M  V30 8393 H 783.673 -3.93971 -0.134424 0
M  V30 8394 H 784.961 -5.0476 -0.639934 0
M  V30 8395 H 784.359 -4.26002 -3.72208 0
M  V30 8396 H 782.916 -5.15274 -3.9917 0
M  V30 8397 N 786.349 -0.21828 -1.56081 0
M  V30 8398 C 787.259 0.704602 -2.23769 0
M  V30 8399 C 788.275 1.21633 -1.24425 0
M  V30 8400 O 789.451 1.25862 -1.57228 0
M  V30 8401 C 786.516 1.89725 -2.90182 0
M  V30 8402 C 785.577 1.42782 -4.0486 0
M  V30 8403 C 784.81 2.56361 -4.68097 0
M  V30 8404 O 785.033 3.74417 -4.30312 0
M  V30 8405 O 783.967 2.2775 -5.57148 0
M  V30 8406 H 787.793 0.158007 -3.03289 0
M  V30 8407 H 785.378 0.0120279 -1.49395 0
M  V30 8408 H 787.26 2.59382 -3.32113 0
M  V30 8409 H 785.935 2.432 -2.13624 0
M  V30 8410 H 784.842 0.699359 -3.67505 0
M  V30 8411 H 786.175 0.939474 -4.83151 0
M  V30 8412 N 787.827 1.57504 0.0551401 0
M  V30 8413 C 789.052 1.92682 0.767352 0
M  V30 8414 C 789.477 0.81614 1.69472 0
M  V30 8415 O 788.835 -0.229989 1.79835 0
M  V30 8416 C 788.883 3.26866 1.52286 0
M  V30 8417 O 787.987 3.17274 2.63459 0
M  V30 8418 H 787.328 0.630502 0.208238 0
M  V30 8419 H 789.858 2.04592 0.0184026 0
M  V30 8420 H 789.868 3.61138 1.8985 0
M  V30 8421 H 788.543 4.07276 0.842541 0
M  V30 8422 H 787.12 2.94589 2.2863 0
M  V30 8423 N 789.305 -0.326896 1.54172 0
M  V30 8424 C 790.215 -1.42525 1.86343 0
M  V30 8425 C 791.231 -1.56764 0.75505 0
M  V30 8426 O 792.407 -1.71924 1.04901 0
M  V30 8427 C 789.472 -2.77286 2.08119 0
M  V30 8428 C 788.533 -2.7225 3.31931 0
M  V30 8429 C 787.766 -4.00584 3.52659 0
M  V30 8430 O 787.989 -4.98686 2.76891 0
M  V30 8431 O 786.923 -4.04045 4.46129 0
M  V30 8432 H 790.749 -1.18249 2.79734 0
M  V30 8433 H 788.334 -0.520614 1.40036 0
M  V30 8434 H 790.216 -3.57065 2.23791 0
M  V30 8435 H 788.891 -3.01459 1.17917 0
M  V30 8436 H 787.798 -1.91033 3.21647 0
M  V30 8437 H 789.131 -2.53032 4.2218 0
M  V30 8438 N 790.784 -1.46188 -0.588786 0
M  V30 8439 C 792.014 -1.54519 -1.3714 0
M  V30 8440 C 792.422 -0.183075 -1.88312 0
M  V30 8441 O 791.765 0.828815 -1.6394 0
M  V30 8442 C 791.827 -2.48426 -2.59856 0
M  V30 8443 C 791.491 -3.94791 -2.30193 0
M  V30 8444 C 792.488 -4.84173 -1.894 0
M  V30 8445 C 790.173 -4.39872 -2.42525 0
M  V30 8446 C 792.167 -6.16647 -1.61325 0
M  V30 8447 C 789.854 -5.72381 -2.14063 0
M  V30 8448 C 790.852 -6.60589 -1.73527 0
M  V30 8449 O 790.54 -7.9064 -1.4541 0
M  V30 8450 H 790.272 -0.525264 -0.425527 0
M  V30 8451 H 792.826 -1.92242 -0.723344 0
M  V30 8452 H 791.056 -2.05709 -3.27446 0
M  V30 8453 H 792.745 -2.4723 -3.21919 0
M  V30 8454 H 793.511 -4.50603 -1.79393 0
M  V30 8455 H 789.39 -3.71444 -2.7304 0
M  V30 8456 H 792.934 -6.85454 -1.29611 0
M  V30 8457 H 788.831 -6.05501 -2.23693 0
M  V30 8458 H 789.599 -8.02847 -1.59306 0
M  V30 8459 N 792.262 0.832906 -1.33792 0
M  V30 8460 C 793.51 1.58539 -1.25338 0
M  V30 8461 C 793.831 1.94175 0.179204 0
M  V30 8462 O 793.101 1.61458 1.10941 0
M  V30 8463 H 791.681 0.58784 -0.460926 0
M  V30 8464 H 794.343 0.995064 -1.67584 0
M  V30 8465 H 793.439 2.51268 -1.85123 0
M  V30 8466 N 793.74 1.17359 1.05189 0
M  V30 8467 C 794.688 0.886527 2.15043 0
M  V30 8468 C 795.682 -0.148834 1.68745 0
M  V30 8469 O 796.888 -0.00175123 1.8 0
M  V30 8470 H 793.263 0.269147 0.702185 0
M  V30 8471 H 795.234 1.82016 2.36459 0
M  V30 8472 C 793.983 0.416333 3.45198 0
M  V30 8473 H 793.306 1.20449 3.81225 0
M  V30 8474 H 794.746 0.254362 4.23236 0
M  V30 8475 C 793.205 -0.866016 3.25579 0
M  V30 8476 O 793.735 -1.9328 3.52144 0
M  V30 8477 N 791.941 -0.814179 2.78961 0
M  V30 8478 H 791.488 0.0541618 2.57543 0
M  V30 8479 H 791.446 -1.67264 2.66214 0
M  V30 8480 N 795.218 -1.23913 0.973828 0
M  V30 8481 C 796.467 -1.91455 0.63464 0
M  V30 8482 C 796.78 -1.76893 -0.834759 0
M  V30 8483 O 797.986 -2.3918 -1.28473 0
M  V30 8484 C 796.442 -3.43172 1.08447 0
M  V30 8485 C 796.05 -3.66409 2.57776 0
M  V30 8486 C 797.794 -4.1653 0.818721 0
M  V30 8487 C 795.701 -5.11728 2.9646 0
M  V30 8488 H 794.631 -0.716881 0.233661 0
M  V30 8489 H 797.282 -1.40457 1.18085 0
M  V30 8490 H 795.664 -3.93242 0.466524 0
M  V30 8491 H 796.838 -3.26913 3.24753 0
M  V30 8492 H 795.153 -3.06349 2.82027 0
M  V30 8493 H 797.75 -5.23603 1.08367 0
M  V30 8494 H 798.093 -4.15578 -0.245128 0
M  V30 8495 H 798.626 -3.72428 1.39793 0
M  V30 8496 H 795.365 -5.17806 4.01941 0
M  V30 8497 H 794.885 -5.52199 2.34172 0
M  V30 8498 H 796.564 -5.80009 2.86703 0
M  V30 8499 N 796.696 -0.74468 -1.38897 0
M  V30 8500 C 797.924 -0.307428 -2.04603 0
M  V30 8501 C 798.339 1.06115 -1.56157 0
M  V30 8502 O 797.696 1.67233 -0.730701 0
M  V30 8503 C 797.747 -0.31101 -3.6016 0
M  V30 8504 O 797.468 -1.62557 -4.06825 0
M  V30 8505 C 798.969 0.141213 -4.43075 0
M  V30 8506 H 796.189 -0.132741 -0.657739 0
M  V30 8507 H 798.733 -1.01104 -1.77759 0
M  V30 8508 H 796.888 0.343792 -3.85872 0
M  V30 8509 H 797.302 -1.54569 -5.01207 0
M  V30 8510 H 798.776 0.0875449 -5.51931 0
M  V30 8511 H 799.253 1.18782 -4.22833 0
M  V30 8512 H 799.859 -0.484383 -4.22533 0
M  V30 8513 N 798.174 1.49689 -0.493057 0
M  V30 8514 C 799.404 2.06536 0.0512397 0
M  V30 8515 C 799.812 1.35459 1.32089 0
M  V30 8516 O 799.155 0.424145 1.78736 0
M  V30 8517 C 799.217 3.57452 0.383231 0
M  V30 8518 C 798.881 4.50163 -0.787555 0
M  V30 8519 C 799.878 4.92151 -1.67582 0
M  V30 8520 C 797.563 4.92565 -0.984109 0
M  V30 8521 C 799.557 5.7527 -2.74487 0
M  V30 8522 C 797.244 5.75463 -2.05634 0
M  V30 8523 C 798.242 6.16719 -2.93507 0
M  V30 8524 O 797.93 6.97961 -3.98881 0
M  V30 8525 H 797.662 0.675862 -0.0136516 0
M  V30 8526 H 800.216 1.9356 -0.687298 0
M  V30 8527 H 798.446 3.68408 1.17526 0
M  V30 8528 H 800.135 3.96572 0.8652 0
M  V30 8529 H 800.901 4.60043 -1.53575 0
M  V30 8530 H 796.78 4.5996 -0.309541 0
M  V30 8531 H 800.324 6.07392 -3.43104 0
M  V30 8532 H 796.221 6.06983 -2.19639 0
M  V30 8533 H 796.989 7.16253 -3.96137 0
M  V30 8534 N 799.652 0.226554 1.55963 0
M  V30 8535 C 801.063 -0.280381 1.84583 0
M  V30 8536 C 801.414 -1.59105 1.14804 0
M  V30 8537 O 800.539 -2.12297 0.419414 0
M  V30 8538 C 801.134 -0.515499 3.34855 0
M  V30 8539 C 799.693 -0.966733 3.63774 0
M  V30 8540 C 798.84 -0.0325753 2.77281 0
M  V30 8541 H 801.791 0.449626 1.52197 0
M  V30 8542 H 801.812 -1.36085 3.55332 0
M  V30 8543 H 801.324 0.438594 3.85614 0
M  V30 8544 H 799.425 -1.93401 3.18476 0
M  V30 8545 H 799.538 -0.837679 4.7172 0
M  V30 8546 H 797.902 -0.540279 2.48904 0
M  V30 8547 H 798.685 0.916524 3.30839 0
M  V30 8548 N 801.13 -1.57531 -0.0467866 0
M  V30 8549 C 802.541 -1.76945 -0.595603 0
M  V30 8550 C 802.892 -0.855354 -1.76573 0
M  V30 8551 O 802.017 -0.045668 -2.16352 0
M  V30 8552 C 802.612 -3.20881 -1.08725 0
M  V30 8553 C 801.171 -3.41553 -1.58172 0
M  V30 8554 C 800.318 -2.72533 -0.511968 0
M  V30 8555 H 803.269 -1.57682 0.179436 0
M  V30 8556 H 803.29 -3.26419 -1.95528 0
M  V30 8557 H 802.802 -3.87385 -0.235398 0
M  V30 8558 H 800.903 -2.80199 -2.456 0
M  V30 8559 H 801.016 -4.50104 -1.64143 0
M  V30 8560 H 799.38 -2.35797 -0.962899 0
M  V30 8561 H 800.163 -3.41709 0.330117 0
M  V30 8562 N 802.608 0.318715 -1.54344 0
M  V30 8563 C 803.571 1.37545 -1.83342 0
M  V30 8564 C 804.571 1.445 -0.705444 0
M  V30 8565 O 805.761 1.44443 -0.973752 0
M  V30 8566 C 802.893 2.76225 -1.99781 0
M  V30 8567 H 804.086 1.13084 -2.77762 0
M  V30 8568 H 801.639 0.554457 -1.46135 0
M  V30 8569 H 802.374 3.05934 -1.07588 0
M  V30 8570 H 802.159 2.7257 -2.81865 0
M  V30 8571 H 803.649 3.52664 -2.23647 0
M  V30 8572 N 804.086 1.46499 0.581025 0
M  V30 8573 C 805.019 1.51706 1.70472 0
M  V30 8574 C 805.997 0.371036 1.5831 0
M  V30 8575 O 807.181 0.575426 1.79502 0
M  V30 8576 C 804.308 1.3972 3.08538 0
M  V30 8577 C 803.354 2.58525 3.39215 0
M  V30 8578 S 804.187 4.20872 3.311 0
M  V30 8579 C 805.343 4.11398 4.71702 0
M  V30 8580 H 805.576 2.46777 1.65796 0
M  V30 8581 H 803.109 1.34405 0.759908 0
M  V30 8582 H 805.067 1.33492 3.88188 0
M  V30 8583 H 803.728 0.460742 3.10702 0
M  V30 8584 H 802.921 2.46137 4.3981 0
M  V30 8585 H 802.523 2.61752 2.67136 0
M  V30 8586 H 804.815 3.78182 5.62125 0
M  V30 8587 H 805.758 5.11997 4.89147 0
M  V30 8588 H 806.166 3.42624 4.48631 0
M  V30 8589 N 805.565 -0.825799 1.34232 0
M  V30 8590 C 806.512 -1.93651 1.2557 0
M  V30 8591 C 807.482 -1.65578 0.131536 0
M  V30 8592 O 808.667 -1.88231 0.312027 0
M  V30 8593 C 805.807 -3.29862 1.01415 0
M  V30 8594 C 804.92 -3.70247 2.22579 0
M  V30 8595 C 804.055 -4.95392 1.91731 0
M  V30 8596 C 803.094 -5.28349 3.09053 0
M  V30 8597 N 802.231 -6.44671 2.78107 0
M  V30 8598 H 807.071 -2.00392 2.20561 0
M  V30 8599 H 804.608 -0.980441 1.09662 0
M  V30 8600 H 806.566 -4.08356 0.854485 0
M  V30 8601 H 805.196 -3.22642 0.100936 0
M  V30 8602 H 804.248 -2.87169 2.49476 0
M  V30 8603 H 805.56 -3.90575 3.10246 0
M  V30 8604 H 804.714 -5.81665 1.72484 0
M  V30 8605 H 803.453 -4.77059 1.0132 0
M  V30 8606 H 802.458 -4.40574 3.289 0
M  V30 8607 H 803.683 -5.48622 4.00239 0
M  V30 8608 H 801.629 -6.278 1.9027 0
M  V30 8609 H 801.546 -6.65158 3.59306 0
M  V30 8610 H 802.814 -7.34022 2.62358 0
M  V30 8611 N 807.043 -1.17915 -1.04565 0
M  V30 8612 C 807.991 -0.897919 -2.1457 0
M  V30 8613 C 808.985 0.139883 -1.68821 0
M  V30 8614 O 810.191 -0.00779463 -1.79998 0
M  V30 8615 H 806.566 -0.272867 -0.700748 0
M  V30 8616 H 808.537 -1.83268 -2.3549 0
M  V30 8617 C 807.286 -0.434634 -3.44973 0
M  V30 8618 H 806.609 -1.22469 -3.8058 0
M  V30 8619 H 808.049 -0.276804 -4.23095 0
M  V30 8620 C 806.508 0.848738 -3.26034 0
M  V30 8621 O 807.038 1.9141 -3.53164 0
M  V30 8622 N 805.244 0.799373 -2.79389 0
M  V30 8623 H 804.791 -0.0678192 -2.57511 0
M  V30 8624 H 804.749 1.6585 -2.67098 0
M  V30 8625 N 808.521 1.23394 -0.980386 0
M  V30 8626 C 809.484 2.23092 -0.525619 0
M  V30 8627 C 810.484 1.56129 0.384745 0
M  V30 8628 O 811.674 1.73284 0.178439 0
M  V30 8629 C 808.806 3.40074 0.23712 0
M  V30 8630 H 809.999 2.64839 -1.40714 0
M  V30 8631 H 807.552 1.36227 -0.766275 0
M  V30 8632 H 808.287 3.03783 1.13518 0
M  V30 8633 H 808.072 3.89883 -0.416356 0
M  V30 8634 H 809.562 4.14043 0.543892 0
M  V30 8635 N 809.999 0.752036 1.385 0
M  V30 8636 C 810.949 0.0990189 2.27785 0
M  V30 8637 C 811.933 -0.694867 1.45122 0
M  V30 8638 O 813.125 -0.561077 1.67872 0
M  V30 8639 C 810.254 -0.794531 3.33979 0
M  V30 8640 C 809.34 0.00611984 4.241 0
M  V30 8641 N 809.731 1.04174 4.94956 0
M  V30 8642 C 808.029 -0.220934 4.45452 0
M  V30 8643 C 808.73 1.52601 5.61327 0
M  V30 8644 N 807.706 0.84159 5.37046 0
M  V30 8645 H 811.508 0.892208 2.8003 0
M  V30 8646 H 809.022 0.587934 1.51384 0
M  V30 8647 H 811.019 -1.27797 3.96829 0
M  V30 8648 H 809.679 -1.58669 2.83292 0
M  V30 8649 H 810.69 1.42349 4.97953 0
M  V30 8650 H 807.367 -0.986556 4.05676 0
M  V30 8651 H 808.757 2.38857 6.2801 0
M  V30 8652 N 811.477 -1.49425 0.500989 0
M  V30 8653 C 812.44 -2.27646 -0.266416 0
M  V30 8654 C 813.44 -1.3366 -0.893961 0
M  V30 8655 O 814.63 -1.5682 -0.758495 0
M  V30 8656 C 811.762 -3.11618 -1.38227 0
M  V30 8657 H 812.955 -2.96945 0.419973 0
M  V30 8658 H 810.508 -1.5419 0.255954 0
M  V30 8659 H 811.243 -2.46885 -2.10281 0
M  V30 8660 H 811.028 -3.80721 -0.937746 0
M  V30 8661 H 812.518 -3.70698 -1.92283 0
M  V30 8662 N 812.955 -0.234822 -1.55841 0
M  V30 8663 C 813.902 0.6698 -2.20867 0
M  V30 8664 C 814.872 1.18042 -1.16856 0
M  V30 8665 O 816.057 1.23709 -1.45261 0
M  V30 8666 C 813.197 1.86646 -2.90271 0
M  V30 8667 C 812.31 1.39351 -4.08908 0
M  V30 8668 C 811.445 2.54878 -4.66059 0
M  V30 8669 C 810.484 2.04384 -5.76969 0
M  V30 8670 N 809.621 3.13233 -6.28355 0
M  V30 8671 H 814.461 0.10858 -2.97802 0
M  V30 8672 H 811.998 0.041836 -1.4704 0
M  V30 8673 H 813.956 2.56926 -3.28702 0
M  V30 8674 H 812.586 2.40035 -2.15831 0
M  V30 8675 H 811.638 0.585173 -3.75872 0
M  V30 8676 H 812.95 0.983356 -4.89011 0
M  V30 8677 H 812.104 3.33219 -5.07001 0
M  V30 8678 H 810.843 2.99188 -3.85146 0
M  V30 8679 H 809.848 1.24509 -5.35516 0
M  V30 8680 H 811.073 1.61057 -6.59725 0
M  V30 8681 H 809.019 3.57 -5.50352 0
M  V30 8682 H 808.936 2.76511 -7.03618 0
M  V30 8683 H 810.204 3.91669 -6.73955 0
M  V30 8684 N 814.433 1.57553 0.0384317 0
M  V30 8685 C 815.396 2.04927 1.02653 0
M  V30 8686 C 816.396 0.951768 1.29607 0
M  V30 8687 O 817.586 1.21568 1.24768 0
M  V30 8688 C 814.718 2.45828 2.36181 0
M  V30 8689 H 815.911 2.93474 0.617508 0
M  V30 8690 H 813.464 1.53679 0.285031 0
M  V30 8691 H 814.199 1.60408 2.8185 0
M  V30 8692 H 813.984 3.25945 2.1795 0
M  V30 8693 H 815.474 2.82939 3.0714 0
M  V30 8694 N 815.911 -0.310526 1.54511 0
M  V30 8695 C 817.136 -1.07046 1.7764 0
M  V30 8696 C 817.561 -1.80488 0.529696 0
M  V30 8697 O 816.919 -1.73702 -0.519361 0
M  V30 8698 C 816.967 -2.03411 2.97752 0
M  V30 8699 O 816.071 -3.11545 2.7021 0
M  V30 8700 H 815.412 -0.307994 0.588248 0
M  V30 8701 H 817.942 -0.350848 2.01569 0
M  V30 8702 H 817.952 -2.46048 3.2546 0
M  V30 8703 H 816.627 -1.49361 3.88155 0
M  V30 8704 H 815.204 -2.7349 2.53491 0
M  V30 8705 N 817.389 -1.46805 -0.573248 0
M  V30 8706 C 818.805 -1.31969 -0.897577 0
M  V30 8707 C 819.005 -0.298171 -1.99282 0
M  V30 8708 O 818.061 0.295953 -2.5076 0
M  V30 8709 C 819.374 -2.70859 -1.30598 0
M  V30 8710 C 820.922 -2.79022 -1.4183 0
M  V30 8711 C 821.397 -4.18516 -1.86033 0
M  V30 8712 N 822.888 -4.2098 -1.9321 0
M  V30 8713 C 823.623 -5.25814 -2.28707 0
M  V30 8714 N 823.119 -6.40968 -2.6293 0
M  V30 8715 N 824.912 -5.13184 -2.29343 0
M  V30 8716 H 817.063 -2.11869 0.150094 0
M  V30 8717 H 819.326 -0.947989 0.00447895 0
M  V30 8718 H 819.032 -3.46965 -0.575161 0
M  V30 8719 H 818.906 -3.01585 -2.26554 0
M  V30 8720 H 821.293 -2.03198 -2.13996 0
M  V30 8721 H 821.374 -2.51969 -0.441024 0
M  V30 8722 H 821.018 -4.94839 -1.14442 0
M  V30 8723 H 820.948 -4.42982 -2.84735 0
M  V30 8724 H 823.439 -3.37898 -1.69214 0
M  V30 8725 H 823.752 -7.16729 -2.88996 0
M  V30 8726 H 822.097 -6.44314 -2.60547 0
M  V30 8727 H 825.288 -4.22255 -2.02036 0
M  V30 8728 H 825.461 -5.94996 -2.56679 0
M  V30 8729 N 818.867 0.818669 -1.34668 0
M  V30 8730 C 820.095 1.60674 -1.30351 0
M  V30 8731 C 820.51 1.88408 0.121546 0
M  V30 8732 O 819.867 1.47849 1.06991 0
M  V30 8733 C 819.918 2.94516 -2.09625 0
M  V30 8734 O 819.639 2.6799 -3.46573 0
M  V30 8735 C 821.14 3.8891 -2.12754 0
M  V30 8736 H 818.36 0.499306 -0.448258 0
M  V30 8737 H 820.904 1.01828 -1.77345 0
M  V30 8738 H 819.059 3.49908 -1.66262 0
M  V30 8739 H 819.473 3.53361 -3.87603 0
M  V30 8740 H 820.947 4.79972 -2.72637 0
M  V30 8741 H 821.424 4.24599 -1.12306 0
M  V30 8742 H 822.03 3.39453 -2.56225 0
M  V30 8743 N 820.346 1.18468 1.03938 0
M  V30 8744 C 821.571 1.00638 1.81347 0
M  V30 8745 C 821.996 -0.440477 1.8287 0
M  V30 8746 O 821.354 -1.31609 1.24695 0
M  V30 8747 C 821.402 1.5673 3.24759 0
M  V30 8748 O 820.506 0.789517 4.04772 0
M  V30 8749 H 819.847 0.356432 0.560225 0
M  V30 8750 H 822.377 1.57253 1.30891 0
M  V30 8751 H 822.387 1.59496 3.75533 0
M  V30 8752 H 821.062 2.62043 3.22965 0
M  V30 8753 H 819.639 0.834267 3.63448 0
M  V30 8754 N 821.824 -1.22873 0.986916 0
M  V30 8755 C 823.049 -1.96028 0.677341 0
M  V30 8756 C 823.474 -1.72487 -0.750319 0
M  V30 8757 O 822.832 -1.00036 -1.51203 0
M  V30 8758 C 822.88 -3.46983 0.981593 0
M  V30 8759 O 821.984 -4.12328 0.0770729 0
M  V30 8760 H 821.325 -0.613458 0.254096 0
M  V30 8761 H 823.855 -1.56132 1.32227 0
M  V30 8762 H 823.865 -3.9747 0.920969 0
M  V30 8763 H 822.54 -3.63442 2.02194 0
M  V30 8764 H 821.117 -3.72402 0.192666 0
M  V30 8765 N 823.302 -0.75937 -1.38099 0
M  V30 8766 C 824.249 -0.135508 -2.30402 0
M  V30 8767 C 825.219 0.703356 -1.50473 0
M  V30 8768 O 826.404 0.658287 -1.79084 0
M  V30 8769 C 823.544 0.747228 -3.36913 0
M  V30 8770 C 822.657 -0.106893 -4.31868 0
M  V30 8771 C 821.792 0.779388 -5.25451 0
M  V30 8772 C 820.831 -0.0780179 -6.1205 0
M  V30 8773 N 819.968 0.765545 -6.97914 0
M  V30 8774 H 824.808 -0.9282 -2.83176 0
M  V30 8775 H 822.345 -0.46935 -1.39411 0
M  V30 8776 H 824.303 1.27371 -3.97281 0
M  V30 8777 H 822.933 1.50565 -2.85535 0
M  V30 8778 H 821.985 -0.751063 -3.72912 0
M  V30 8779 H 823.297 -0.768798 -4.9284 0
M  V30 8780 H 822.451 1.37282 -5.90964 0
M  V30 8781 H 821.19 1.47501 -4.6486 0
M  V30 8782 H 820.195 -0.684078 -5.45528 0
M  V30 8783 H 821.42 -0.770786 -6.74712 0
M  V30 8784 H 819.366 1.44601 -6.39864 0
M  V30 8785 H 819.283 0.160666 -7.55829 0
M  V30 8786 H 820.551 1.34377 -7.6783 0
M  V30 8787 N 824.78 1.49157 -0.508906 0
M  V30 8788 C 825.73 2.26215 0.284705 0
M  V30 8789 C 826.714 1.31401 0.928586 0
M  V30 8790 O 827.906 1.56073 0.834877 0
M  V30 8791 C 825.035 3.15906 1.34382 0
M  V30 8792 C 824.121 4.18186 0.705785 0
M  V30 8793 N 824.512 5.05419 -0.196214 0
M  V30 8794 C 822.81 4.35425 0.965457 0
M  V30 8795 C 823.511 5.78977 -0.562222 0
M  V30 8796 N 822.487 5.43553 0.0717389 0
M  V30 8797 H 826.289 2.91033 -0.409543 0
M  V30 8798 H 823.803 1.59104 -0.325508 0
M  V30 8799 H 825.8 3.6975 1.92589 0
M  V30 8800 H 824.46 2.52642 2.03966 0
M  V30 8801 H 825.471 5.14781 -0.567526 0
M  V30 8802 H 822.148 3.83363 1.65346 0
M  V30 8803 H 823.538 6.59192 -1.30062 0
M  V30 8804 N 826.258 0.243083 1.55714 0
M  V30 8805 C 827.205 -0.658078 2.21219 0
M  V30 8806 C 828.175 -1.1742 1.17481 0
M  V30 8807 O 829.36 -1.22937 1.45915 0
M  V30 8808 C 826.5 -1.85104 2.91257 0
M  V30 8809 C 825.613 -1.3718 4.09641 0
M  V30 8810 C 824.748 -2.52403 4.67404 0
M  V30 8811 C 823.787 -2.01321 5.78045 0
M  V30 8812 N 822.924 -3.09896 6.30007 0
M  V30 8813 H 827.764 -0.0927854 2.97856 0
M  V30 8814 H 825.301 -0.0340375 1.47061 0
M  V30 8815 H 827.259 -2.55179 3.3006 0
M  V30 8816 H 825.889 -2.38887 2.17101 0
M  V30 8817 H 824.941 -0.565232 3.76177 0
M  V30 8818 H 826.253 -0.957409 4.89525 0
M  V30 8819 H 825.407 -3.30525 5.08761 0
M  V30 8820 H 824.146 -2.97142 3.86728 0
M  V30 8821 H 823.151 -1.21667 5.36169 0
M  V30 8822 H 824.376 -1.57556 6.6057 0
M  V30 8823 H 822.322 -3.54077 5.52237 0
M  V30 8824 H 822.239 -2.72776 7.05074 0
M  V30 8825 H 823.507 -3.8809 6.76023 0
M  V30 8826 N 827.736 -1.57571 -0.0300757 0
M  V30 8827 C 828.646 -2.09892 -1.04798 0
M  V30 8828 C 829.662 -1.03732 -1.39698 0
M  V30 8829 O 830.838 -1.35461 -1.49038 0
M  V30 8830 C 827.903 -2.56707 -2.33028 0
M  V30 8831 C 826.964 -3.77345 -2.04718 0
M  V30 8832 C 826.197 -4.21918 -3.26834 0
M  V30 8833 O 826.42 -3.66025 -4.37472 0
M  V30 8834 O 825.354 -5.14362 -3.12594 0
M  V30 8835 H 829.18 -2.97023 -0.633344 0
M  V30 8836 H 826.765 -1.47344 -0.246991 0
M  V30 8837 H 828.647 -2.87154 -3.08417 0
M  V30 8838 H 827.322 -1.72688 -2.73789 0
M  V30 8839 H 826.229 -3.51919 -1.26901 0
M  V30 8840 H 827.562 -4.62345 -1.68813 0
M  V30 8841 N 829.214 0.302327 -1.54673 0
M  V30 8842 C 830.491 1.05721 -1.64567 0
M  V30 8843 C 830.871 2.0526 -0.493108 0
M  V30 8844 O 830.219 2.22729 0.510315 0
M  V30 8845 C 830.429 1.74025 -3.02517 0
M  V30 8846 C 831.777 2.26271 -3.59286 0
M  V30 8847 O 832.801 1.8406 -3.0496 0
M  V30 8848 O 831.66 3.0361 -4.54404 0
M  V30 8849 H 828.754 0.488577 -0.667249 0
M  V30 8850 H 831.3 0.300521 -1.67018 0
M  V30 8851 H 830.072 1.0174 -3.77842 0
M  V30 8852 H 829.695 2.56454 -3.03838 0
M  V30 8853 N 830.692 1.47107 0.565454 0
M  V30 8854 C 831.938 1.53535 1.32495 0
M  V30 8855 C 832.271 0.193537 1.93233 0
M  V30 8856 O 831.546 -0.796956 1.77423 0
M  V30 8857 C 831.829 2.64712 2.4413 0
M  V30 8858 C 831.682 4.08482 1.88314 0
M  V30 8859 C 833.001 2.71853 3.46098 0
M  V30 8860 H 830.12 0.558926 0.480386 0
M  V30 8861 H 832.762 1.79125 0.633575 0
M  V30 8862 H 830.912 2.43023 3.03104 0
M  V30 8863 H 832.584 4.4151 1.33665 0
M  V30 8864 H 830.827 4.17148 1.19037 0
M  V30 8865 H 831.498 4.82032 2.68978 0
M  V30 8866 H 833.974 2.91397 2.97031 0
M  V30 8867 H 832.85 3.51433 4.21646 0
M  V30 8868 H 833.111 1.78584 4.04426 0
M  V30 8869 N 832.17 -0.811516 1.35101 0
M  V30 8870 C 833.4 -1.59749 1.31011 0
M  V30 8871 C 833.808 -1.88847 -0.115566 0
M  V30 8872 O 833.151 -1.48854 -1.07649 0
M  V30 8873 C 833.213 -2.95714 2.04435 0
M  V30 8874 C 832.877 -2.89456 3.53645 0
M  V30 8875 C 833.874 -2.63237 4.48333 0
M  V30 8876 C 831.559 -3.08728 3.96222 0
M  V30 8877 C 833.553 -2.56361 5.83573 0
M  V30 8878 C 831.24 -3.01475 5.3156 0
M  V30 8879 C 832.238 -2.75326 6.25048 0
M  V30 8880 O 831.926 -2.68026 7.57903 0
M  V30 8881 H 831.658 -0.502889 0.45175 0
M  V30 8882 H 834.212 -1.01687 1.78462 0
M  V30 8883 H 832.442 -3.55739 1.51613 0
M  V30 8884 H 834.131 -3.56816 1.93487 0
M  V30 8885 H 834.897 -2.48072 4.16756 0
M  V30 8886 H 830.776 -3.28094 3.23845 0
M  V30 8887 H 834.32 -2.35871 6.56514 0
M  V30 8888 H 830.217 -3.16197 5.62752 0
M  V30 8889 H 830.985 -2.8367 7.67772 0
M  V30 8890 N 833.648 -1.19017 -1.03309 0
M  V30 8891 C 834.558 -0.939303 -2.14975 0
M  V30 8892 C 835.574 0.0992359 -1.73717 0
M  V30 8893 O 836.75 -0.0844362 -2.01223 0
M  V30 8894 C 833.815 -0.476712 -3.43407 0
M  V30 8895 C 832.876 -1.58413 -3.99003 0
M  V30 8896 C 832.109 -1.14352 -5.21305 0
M  V30 8897 O 832.332 -0.00534408 -5.704 0
M  V30 8898 O 831.266 -1.94436 -5.6963 0
M  V30 8899 H 835.092 -1.87386 -2.38998 0
M  V30 8900 H 832.677 -0.972635 -1.13403 0
M  V30 8901 H 834.559 -0.22718 -4.20787 0
M  V30 8902 H 833.234 0.429455 -3.20839 0
M  V30 8903 H 832.141 -1.88777 -3.22977 0
M  V30 8904 H 833.474 -2.4667 -4.25928 0
M  V30 8905 N 835.127 1.22348 -0.993418 0
M  V30 8906 C 836.075 2.26315 -0.537052 0
M  V30 8907 C 837.069 1.643 0.412545 0
M  V30 8908 O 838.275 1.77729 0.285008 0
M  V30 8909 H 834.65 0.735792 -0.155286 0
M  V30 8910 H 836.621 2.62157 -1.42535 0
M  V30 8911 C 835.37 3.47449 0.132118 0
M  V30 8912 H 834.693 3.9543 -0.589519 0
M  V30 8913 H 836.133 4.21965 0.414884 0
M  V30 8914 C 834.592 3.07893 1.36761 0
M  V30 8915 O 835.122 3.17338 2.46291 0
M  V30 8916 N 833.328 2.62672 1.24305 0
M  V30 8917 H 832.875 2.55186 0.351826 0
M  V30 8918 H 832.833 2.36574 2.07076 0
M  V30 8919 N 836.605 0.766683 1.37694 0
M  V30 8920 C 837.535 0.163432 2.32927 0
M  V30 8921 C 838.516 -0.688861 1.55527 0
M  V30 8922 O 839.701 -0.627363 1.83787 0
M  V30 8923 C 836.831 -0.720416 3.39746 0
M  V30 8924 C 835.785 0.0301718 4.27989 0
M  V30 8925 C 835.111 -0.972788 5.25776 0
M  V30 8926 C 836.411 1.20623 5.0818 0
M  V30 8927 H 838.105 0.958988 2.83626 0
M  V30 8928 H 835.651 0.462601 1.36367 0
M  V30 8929 H 837.604 -1.15221 4.05342 0
M  V30 8930 H 836.328 -1.54844 2.8756 0
M  V30 8931 H 834.987 0.442685 3.63917 0
M  V30 8932 H 834.635 -1.79522 4.69873 0
M  V30 8933 H 834.335 -0.475145 5.85676 0
M  V30 8934 H 835.859 -1.40362 5.94248 0
M  V30 8935 H 837.273 0.851341 5.66944 0
M  V30 8936 H 835.67 1.63561 5.7738 0
M  V30 8937 H 836.74 2.01281 4.41151 0
M  V30 8938 N 838.083 -1.48885 0.516809 0
M  V30 8939 C 839.033 -2.26363 -0.272704 0
M  V30 8940 C 840.017 -1.31891 -0.921604 0
M  V30 8941 O 841.209 -1.56514 -0.826589 0
M  V30 8942 C 838.338 -3.16614 -1.32705 0
M  V30 8943 C 837.424 -4.18554 -0.683598 0
M  V30 8944 N 837.815 -5.05308 0.223015 0
M  V30 8945 C 836.113 -4.35931 -0.942351 0
M  V30 8946 C 836.814 -5.7867 0.592918 0
M  V30 8947 N 835.79 -5.43583 -0.042912 0
M  V30 8948 H 839.592 -2.90811 0.424971 0
M  V30 8949 H 837.106 -1.5893 0.333941 0
M  V30 8950 H 839.103 -3.70766 -1.90625 0
M  V30 8951 H 837.763 -2.5372 -2.02624 0
M  V30 8952 H 838.774 -5.14473 0.594818 0
M  V30 8953 H 835.451 -3.84234 -1.6331 0
M  V30 8954 H 836.841 -6.58493 1.33556 0
M  V30 8955 N 839.561 -0.251338 -1.55583 0
M  V30 8956 C 840.789 0.376187 -2.03451 0
M  V30 8957 C 841.204 1.51215 -1.13047 0
M  V30 8958 O 840.561 1.81917 -0.145769 0
M  V30 8959 C 840.612 0.879779 -3.50631 0
M  V30 8960 O 840.333 -0.210917 -4.37592 0
M  V30 8961 C 841.834 1.57754 -4.14281 0
M  V30 8962 H 839.054 0.0888722 -0.665089 0
M  V30 8963 H 841.598 -0.376497 -2.01004 0
M  V30 8964 H 839.753 1.58263 -3.53598 0
M  V30 8965 H 840.167 0.172203 -5.24217 0
M  V30 8966 H 841.641 1.88158 -5.18942 0
M  V30 8967 H 842.118 2.50103 -3.61034 0
M  V30 8968 H 842.724 0.919154 -4.15249 0
M  V30 8969 N 841.039 1.57585 0.0217189 0
M  V30 8970 C 841.986 2.07036 1.02004 0
M  V30 8971 C 842.956 0.96106 1.35473 0
M  V30 8972 O 844.141 1.23211 1.45684 0
M  V30 8973 C 841.281 2.56056 2.31364 0
M  V30 8974 C 840.394 3.80805 2.03989 0
M  V30 8975 C 839.529 4.18409 3.27272 0
M  V30 8976 C 838.568 5.36055 2.95486 0
M  V30 8977 N 837.705 5.69056 4.11242 0
M  V30 8978 H 842.545 2.92073 0.591396 0
M  V30 8979 H 840.082 1.44403 0.280384 0
M  V30 8980 H 842.04 2.82548 3.06957 0
M  V30 8981 H 840.67 1.73925 2.71937 0
M  V30 8982 H 839.722 3.61354 1.1886 0
M  V30 8983 H 841.034 4.66512 1.76546 0
M  V30 8984 H 840.188 4.46068 4.11228 0
M  V30 8985 H 838.927 3.31369 3.57835 0
M  V30 8986 H 837.932 5.08142 2.09933 0
M  V30 8987 H 839.157 6.24755 2.66193 0
M  V30 8988 H 837.103 4.84974 4.41742 0
M  V30 8989 H 837.02 6.49288 3.87247 0
M  V30 8990 H 838.288 6.01295 4.96049 0
M  V30 8991 N 842.517 -0.29412 1.54831 0
M  V30 8992 C 843.465 -1.38296 1.87021 0
M  V30 8993 C 844.459 -1.5216 0.744557 0
M  V30 8994 O 845.665 -1.54196 0.92864 0
M  V30 8995 H 842.04 -0.462088 0.593278 0
M  V30 8996 H 844.011 -1.08386 2.7802 0
M  V30 8997 C 842.76 -2.74024 2.14023 0
M  V30 8998 H 842.083 -2.6414 3.00117 0
M  V30 8999 H 843.523 -3.49205 2.40482 0
M  V30 9000 C 841.982 -3.23492 0.940982 0
M  V30 9001 O 842.512 -4.01361 0.164937 0
M  V30 9002 N 840.718 -2.80902 0.744467 0
M  V30 9003 H 840.265 -2.17694 1.37721 0
M  V30 9004 H 840.223 -3.14349 -0.0563652 0
M  V30 9005 N 843.995 -1.47404 -0.557645 0
M  V30 9006 C 844.942 -1.59859 -1.66475 0
M  V30 9007 C 845.912 -0.441644 -1.60121 0
M  V30 9008 O 847.097 -0.661641 -1.78961 0
M  V30 9009 C 844.237 -1.61843 -3.04797 0
M  V30 9010 C 843.35 -2.8845 -3.2159 0
M  V30 9011 C 842.485 -2.81773 -4.50308 0
M  V30 9012 C 841.524 -4.03208 -4.60532 0
M  V30 9013 N 840.661 -3.94769 -5.80604 0
M  V30 9014 H 845.501 -2.54415 -1.55168 0
M  V30 9015 H 843.038 -1.26194 -0.755876 0
M  V30 9016 H 844.996 -1.60976 -3.84893 0
M  V30 9017 H 843.626 -0.707997 -3.1494 0
M  V30 9018 H 842.678 -2.99186 -2.34929 0
M  V30 9019 H 843.99 -3.78379 -3.25009 0
M  V30 9020 H 843.144 -2.79153 -5.38663 0
M  V30 9021 H 841.883 -1.89527 -4.49367 0
M  V30 9022 H 840.888 -4.06133 -3.70589 0
M  V30 9023 H 842.113 -4.9658 -4.63233 0
M  V30 9024 H 840.059 -3.05326 -5.80613 0
M  V30 9025 H 839.976 -4.78375 -5.854 0
M  V30 9026 H 841.244 -3.96165 -6.71322 0
M  V30 9027 N 845.473 0.80434 -1.35529 0
M  V30 9028 C 846.889 1.10023 -1.15616 0
M  V30 9029 C 847.089 2.01478 0.0298535 0
M  V30 9030 O 846.145 2.42609 0.699778 0
M  V30 9031 C 847.458 1.72905 -2.46017 0
M  V30 9032 C 849.006 1.85315 -2.52245 0
M  V30 9033 C 849.481 2.51612 -3.82695 0
M  V30 9034 N 850.972 2.59095 -3.83958 0
M  V30 9035 C 851.707 3.11167 -4.81625 0
M  V30 9036 N 851.203 3.63659 -5.89681 0
M  V30 9037 N 852.996 3.09741 -4.6906 0
M  V30 9038 H 845.147 0.196428 -2.1149 0
M  V30 9039 H 847.41 0.149735 -0.9361 0
M  V30 9040 H 847.116 1.13171 -3.32994 0
M  V30 9041 H 846.99 2.72579 -2.6073 0
M  V30 9042 H 849.377 2.44191 -1.65695 0
M  V30 9043 H 849.458 0.844886 -2.41444 0
M  V30 9044 H 849.102 1.93385 -4.69643 0
M  V30 9045 H 849.032 3.5298 -3.90785 0
M  V30 9046 H 851.523 2.21908 -3.05884 0
M  V30 9047 H 851.836 4.01699 -6.60195 0
M  V30 9048 H 850.181 3.61852 -5.9337 0
M  V30 9049 H 853.372 2.68011 -3.83781 0
M  V30 9050 H 853.545 3.50016 -5.45338 0
M  V30 9051 N 846.951 1.19563 1.02676 0
M  V30 9052 C 847.861 0.950691 2.14474 0
M  V30 9053 C 848.877 -0.0900219 1.73767 0
M  V30 9054 O 850.053 0.0951063 2.01175 0
M  V30 9055 C 847.118 0.494917 3.43149 0
M  V30 9056 C 846.179 1.60527 3.98158 0
M  V30 9057 C 845.412 1.17115 5.20692 0
M  V30 9058 O 845.635 0.0355937 5.70389 0
M  V30 9059 O 844.569 1.97454 5.68591 0
M  V30 9060 H 848.395 1.88651 2.38001 0
M  V30 9061 H 845.98 0.978635 1.12885 0
M  V30 9062 H 847.862 0.249492 4.20661 0
M  V30 9063 H 846.537 -0.412434 3.21062 0
M  V30 9064 H 845.444 1.90487 3.21971 0
M  V30 9065 H 846.777 2.48925 4.24614 0
M  V30 9066 N 848.429 -1.21819 0.999893 0
M  V30 9067 C 849.339 -2.27691 0.565159 0
M  V30 9068 C 850.355 -1.69587 -0.389398 0
M  V30 9069 O 851.531 -1.99786 -0.254499 0
M  V30 9070 C 848.596 -3.46537 -0.106432 0
M  V30 9071 C 847.657 -4.19932 0.891964 0
M  V30 9072 C 846.89 -5.33103 0.252327 0
M  V30 9073 O 847.113 -5.62398 -0.952103 0
M  V30 9074 O 846.047 -5.94184 0.960698 0
M  V30 9075 H 849.873 -2.67059 1.44613 0
M  V30 9076 H 847.458 -1.28119 0.768499 0
M  V30 9077 H 849.34 -4.18631 -0.482301 0
M  V30 9078 H 848.015 -3.09079 -0.961865 0
M  V30 9079 H 846.922 -3.5008 1.3189 0
M  V30 9080 H 848.255 -4.61287 1.71682 0
M  V30 9081 N 849.908 -0.773975 -1.37286 0
M  V30 9082 C 850.855 -0.159938 -2.30245 0
M  V30 9083 C 851.825 0.687356 -1.51211 0
M  V30 9084 O 853.01 0.639255 -1.79773 0
M  V30 9085 C 850.15 0.711452 -3.37687 0
M  V30 9086 C 849.263 -0.152692 -4.3173 0
M  V30 9087 C 848.398 0.723613 -5.26248 0
M  V30 9088 C 847.437 -0.14293 -6.11933 0
M  V30 9089 N 846.574 0.691479 -6.98687 0
M  V30 9090 H 851.414 -0.958182 -2.82175 0
M  V30 9091 H 848.951 -0.48411 -1.38906 0
M  V30 9092 H 850.909 1.2315 -3.9861 0
M  V30 9093 H 849.539 1.47528 -2.87116 0
M  V30 9094 H 848.591 -0.790574 -3.72094 0
M  V30 9095 H 849.903 -0.821027 -4.91997 0
M  V30 9096 H 849.057 1.31006 -5.92387 0
M  V30 9097 H 847.796 1.42562 -4.66398 0
M  V30 9098 H 846.801 -0.7419 -5.44771 0
M  V30 9099 H 848.026 -0.842305 -6.73856 0
M  V30 9100 H 845.972 1.37806 -6.41362 0
M  V30 9101 H 845.889 0.0804911 -7.55957 0
M  V30 9102 H 847.157 1.26225 -7.69212 0
M  V30 9103 N 851.386 1.48609 -0.524698 0
M  V30 9104 C 852.632 2.02797 0.0113382 0
M  V30 9105 C 852.965 1.40147 1.34433 0
M  V30 9106 O 852.24 0.545368 1.86698 0
M  V30 9107 C 852.523 3.59832 0.138931 0
M  V30 9108 C 852.376 4.32971 -1.21886 0
M  V30 9109 C 853.695 4.3145 0.868265 0
M  V30 9110 H 850.814 0.736995 0.00264645 0
M  V30 9111 H 853.456 1.77388 -0.680704 0
M  V30 9112 H 851.606 3.81612 0.72834 0
M  V30 9113 H 853.278 4.22624 -1.84897 0
M  V30 9114 H 851.521 3.94597 -1.80211 0
M  V30 9115 H 852.192 5.41279 -1.08263 0
M  V30 9116 H 854.668 4.14468 0.368145 0
M  V30 9117 H 853.544 5.41025 0.926428 0
M  V30 9118 H 853.805 3.98358 1.91737 0
M  V30 9119 N 852.864 0.259585 1.55447 0
M  V30 9120 C 853.811 -0.634578 2.21905 0
M  V30 9121 C 854.781 -1.16168 1.18719 0
M  V30 9122 O 855.966 -1.21383 1.4721 0
M  V30 9123 C 853.106 -1.82005 2.93203 0
M  V30 9124 C 852.219 -1.32828 4.11073 0
M  V30 9125 C 851.354 -2.47431 4.70055 0
M  V30 9126 C 850.393 -1.95179 5.80148 0
M  V30 9127 N 849.53 -3.03197 6.33258 0
M  V30 9128 H 854.37 -0.0611886 2.97937 0
M  V30 9129 H 851.907 -0.0184378 1.47088 0
M  V30 9130 H 853.865 -2.51664 3.32748 0
M  V30 9131 H 852.495 -2.36571 2.19622 0
M  V30 9132 H 851.547 -0.525301 3.76756 0
M  V30 9133 H 852.859 -0.905435 4.90513 0
M  V30 9134 H 852.013 -3.25111 5.12238 0
M  V30 9135 H 850.752 -2.93023 3.89857 0
M  V30 9136 H 849.757 -1.15974 5.37429 0
M  V30 9137 H 850.982 -1.50541 6.62204 0
M  V30 9138 H 848.928 -3.48199 5.55961 0
M  V30 9139 H 848.845 -2.65282 7.07928 0
M  V30 9140 H 850.113 -3.80898 6.80101 0
M  V30 9141 N 854.342 -1.57594 -0.0133615 0
M  V30 9142 C 855.289 -2.07574 -1.00905 0
M  V30 9143 C 856.259 -0.968231 -1.34961 0
M  V30 9144 O 857.444 -1.23981 -1.45028 0
M  V30 9145 C 854.584 -2.5728 -2.30002 0
M  V30 9146 C 853.697 -3.81881 -2.01967 0
M  V30 9147 C 852.832 -4.20139 -3.25049 0
M  V30 9148 C 851.871 -5.37614 -2.92639 0
M  V30 9149 N 851.008 -5.71229 -4.08218 0
M  V30 9150 H 855.848 -2.92382 -0.575899 0
M  V30 9151 H 853.385 -1.4455 -0.272722 0
M  V30 9152 H 855.343 -2.84171 -3.05454 0
M  V30 9153 H 853.973 -1.75365 -2.71011 0
M  V30 9154 H 853.025 -3.61979 -1.16942 0
M  V30 9155 H 854.337 -4.67441 -1.74069 0
M  V30 9156 H 853.491 -4.48242 -4.08857 0
M  V30 9157 H 852.23 -3.33262 -3.56073 0
M  V30 9158 H 851.235 -5.09248 -2.07235 0
M  V30 9159 H 852.46 -6.26157 -2.62876 0
M  V30 9160 H 850.406 -4.8731 -4.39164 0
M  V30 9161 H 850.323 -6.51333 -3.83799 0
M  V30 9162 H 851.591 -6.03917 -4.92854 0
M  V30 9163 N 855.82 0.285905 -1.54985 0
M  V30 9164 C 856.752 1.37505 -1.83371 0
M  V30 9165 C 857.765 1.46138 -0.717454 0
M  V30 9166 O 858.954 1.48186 -0.995142 0
M  V30 9167 C 856.054 2.7575 -1.97016 0
M  V30 9168 C 855.227 2.89866 -3.27561 0
M  V30 9169 C 854.286 4.08704 -3.31433 0
M  V30 9170 O 853.312 4.00073 -4.04883 0
M  V30 9171 N 854.514 5.20062 -2.57907 0
M  V30 9172 H 857.279 1.13505 -2.77375 0
M  V30 9173 H 854.84 0.476006 -1.54744 0
M  V30 9174 H 856.832 3.5352 -1.96991 0
M  V30 9175 H 855.402 2.9263 -1.09938 0
M  V30 9176 H 854.622 1.99085 -3.40234 0
M  V30 9177 H 855.91 2.96219 -4.13681 0
M  V30 9178 H 855.308 5.29958 -1.97891 0
M  V30 9179 H 853.865 5.96111 -2.63619 0
M  V30 9180 N 857.298 1.47698 0.54982 0
M  V30 9181 C 858.714 1.3338 0.876468 0
M  V30 9182 C 858.914 0.329837 1.98782 0
M  V30 9183 O 857.97 -0.256022 2.51199 0
M  V30 9184 C 859.283 2.72903 1.26272 0
M  V30 9185 C 860.831 2.81243 1.37373 0
M  V30 9186 C 861.306 4.21423 1.79351 0
M  V30 9187 N 862.797 4.24 1.86489 0
M  V30 9188 C 863.532 5.29386 2.20313 0
M  V30 9189 N 863.028 6.4507 2.527 0
M  V30 9190 N 864.821 5.16768 2.2115 0
M  V30 9191 H 856.972 2.11603 -0.183781 0
M  V30 9192 H 859.235 0.947798 -0.0195601 0
M  V30 9193 H 858.941 3.47836 0.519889 0
M  V30 9194 H 858.815 3.05151 2.21727 0
M  V30 9195 H 861.202 2.06577 2.10737 0
M  V30 9196 H 861.283 2.52639 0.400882 0
M  V30 9197 H 860.927 4.96597 1.06555 0
M  V30 9198 H 860.857 4.47456 2.77652 0
M  V30 9199 H 863.348 3.40547 1.63817 0
M  V30 9200 H 863.661 7.21236 2.77557 0
M  V30 9201 H 862.006 6.48377 2.50263 0
M  V30 9202 H 865.197 4.25416 1.95293 0
M  V30 9203 H 865.37 5.99004 2.4718 0
M  V30 9204 N 858.776 -0.797141 1.35954 0
M  V30 9205 C 860.001 -1.59097 1.33053 0
M  V30 9206 C 860.426 -1.87897 -0.0874592 0
M  V30 9207 O 859.784 -1.47291 -1.05712 0
M  V30 9208 C 859.832 -2.89346 2.152 0
M  V30 9209 O 858.936 -3.826 1.5392 0
M  V30 9210 H 858.277 -0.482895 0.45575 0
M  V30 9211 H 860.807 -0.988633 1.79129 0
M  V30 9212 H 860.817 -3.38686 2.27499 0
M  V30 9213 H 859.492 -2.6771 3.18283 0
M  V30 9214 H 858.069 -3.41174 1.50516 0
M  V30 9215 N 860.254 -1.20106 -1.0204 0
M  V30 9216 C 861.217 -0.948261 -2.08664 0
M  V30 9217 C 862.217 0.0746753 -1.60627 0
M  V30 9218 O 863.407 -0.160981 -1.73455 0
M  V30 9219 C 860.539 -0.426854 -3.38217 0
M  V30 9220 H 861.732 -1.894 -2.32524 0
M  V30 9221 H 859.285 -1.0159 -1.18782 0
M  V30 9222 H 860.02 0.524532 -3.2003 0
M  V30 9223 H 859.805 -1.16451 -3.74408 0
M  V30 9224 H 861.295 -0.269346 -4.1673 0
M  V30 9225 N 861.732 1.21287 -1.00634 0
M  V30 9226 C 863.009 1.86 -0.605257 0
M  V30 9227 C 863.389 1.90139 0.917072 0
M  V30 9228 O 862.737 1.40169 1.80458 0
M  V30 9229 C 862.947 3.26183 -1.24119 0
M  V30 9230 C 864.295 4.02562 -1.35015 0
M  V30 9231 O 865.319 3.35499 -1.19661 0
M  V30 9232 O 864.178 5.22638 -1.59726 0
M  V30 9233 H 861.272 0.800549 -0.207486 0
M  V30 9234 H 863.818 1.28959 -1.10307 0
M  V30 9235 H 862.59 3.17878 -2.28186 0
M  V30 9236 H 862.213 3.90845 -0.729807 0
M  V30 9237 N 863.21 0.781244 1.36873 0
M  V30 9238 C 864.157 0.172146 2.30157 0
M  V30 9239 C 865.127 -0.679328 1.51573 0
M  V30 9240 O 866.312 -0.629713 1.80109 0
M  V30 9241 C 863.452 -0.693534 3.38059 0
M  V30 9242 C 862.565 0.175586 4.31643 0
M  V30 9243 C 861.7 -0.695695 5.26625 0
M  V30 9244 C 860.739 0.17538 6.11849 0
M  V30 9245 N 859.876 -0.654416 6.99043 0
M  V30 9246 H 864.716 0.973133 2.81663 0
M  V30 9247 H 862.253 0.491469 1.38647 0
M  V30 9248 H 864.211 -1.21035 3.99257 0
M  V30 9249 H 862.841 -1.46003 2.87894 0
M  V30 9250 H 861.893 0.810295 3.7167 0
M  V30 9251 H 863.205 0.847107 4.91554 0
M  V30 9252 H 862.359 -1.27863 5.93073 0
M  V30 9253 H 861.098 -1.40087 4.67148 0
M  V30 9254 H 860.103 0.77078 5.4437 0
M  V30 9255 H 861.328 0.87803 6.734 0
M  V30 9256 H 859.274 -1.34403 6.42084 0
M  V30 9257 H 859.191 -0.0403998 7.55989 0
M  V30 9258 H 860.459 -1.22144 7.69871 0
M  V30 9259 N 864.689 -1.48329 0.532571 0
M  V30 9260 C 865.599 -2.33445 -0.232546 0
M  V30 9261 C 866.615 -1.46651 -0.93645 0
M  V30 9262 O 867.791 -1.79627 -0.910834 0
M  V30 9263 C 864.856 -3.22824 -1.26434 0
M  V30 9264 C 863.917 -4.25492 -0.570511 0
M  V30 9265 C 863.15 -5.10601 -1.55315 0
M  V30 9266 O 863.373 -4.97733 -2.78599 0
M  V30 9267 O 862.307 -5.91927 -1.09112 0
M  V30 9268 H 866.133 -3.00119 0.464988 0
M  V30 9269 H 863.718 -1.46489 0.293462 0
M  V30 9270 H 865.6 -3.78103 -1.86055 0
M  V30 9271 H 864.275 -2.58807 -1.94424 0
M  V30 9272 H 863.182 -3.74041 0.0662587 0
M  V30 9273 H 864.515 -4.92154 0.0674904 0
M  V30 9274 N 866.167 -0.267825 -1.55308 0
M  V30 9275 C 867.114 0.6228 -2.22238 0
M  V30 9276 C 868.084 1.15536 -1.19334 0
M  V30 9277 O 869.269 1.206 -1.47852 0
M  V30 9278 C 866.409 1.80447 -2.94164 0
M  V30 9279 C 865.522 1.30646 -4.11771 0
M  V30 9280 C 864.657 2.44935 -4.7136 0
M  V30 9281 C 863.696 1.92099 -5.81175 0
M  V30 9282 N 862.833 2.99834 -6.34857 0
M  V30 9283 H 867.673 0.0453874 -2.97965 0
M  V30 9284 H 865.21 0.0106371 -1.47096 0
M  V30 9285 H 867.168 2.49896 -3.34078 0
M  V30 9286 H 865.798 2.35403 -2.20874 0
M  V30 9287 H 864.85 0.505314 -3.77029 0
M  V30 9288 H 866.162 0.879409 -4.90987 0
M  V30 9289 H 865.316 3.2239 -5.13955 0
M  V30 9290 H 864.055 2.90951 -3.91406 0
M  V30 9291 H 863.06 1.13122 -5.38037 0
M  V30 9292 H 864.285 1.47027 -6.62993 0
M  V30 9293 H 862.231 3.45246 -5.578 0
M  V30 9294 H 862.148 2.61524 -7.09324 0
M  V30 9295 H 863.416 3.77286 -6.82111 0
M  V30 9296 N 867.645 1.57599 0.00500368 0
M  V30 9297 C 868.87 1.95026 0.705663 0
M  V30 9298 C 869.295 0.869643 1.6679 0
M  V30 9299 O 868.653 -0.172659 1.80476 0
M  V30 9300 C 868.701 3.31545 1.4181 0
M  V30 9301 O 867.805 3.25495 2.53232 0
M  V30 9302 H 867.146 0.636808 0.188074 0
M  V30 9303 H 869.676 2.04547 -0.046696 0
M  V30 9304 H 869.686 3.66996 1.78265 0
M  V30 9305 H 868.361 4.09751 0.712543 0
M  V30 9306 H 866.938 3.01714 2.19142 0
M  V30 9307 N 869.123 -0.277682 1.55134 0
M  V30 9308 C 870.07 -1.34313 1.87693 0
M  V30 9309 C 871.04 -1.49298 0.727973 0
M  V30 9310 O 872.225 -1.6378 0.978807 0
M  V30 9311 C 869.365 -2.69922 2.15026 0
M  V30 9312 C 868.478 -2.63197 3.42565 0
M  V30 9313 C 867.613 -3.90955 3.59622 0
M  V30 9314 C 866.652 -3.78722 4.8087 0
M  V30 9315 N 865.789 -4.98303 4.94609 0
M  V30 9316 H 870.629 -1.05847 2.78569 0
M  V30 9317 H 868.166 -0.511469 1.37922 0
M  V30 9318 H 870.124 -3.48817 2.28872 0
M  V30 9319 H 868.754 -2.966 1.2739 0
M  V30 9320 H 867.806 -1.76038 3.37216 0
M  V30 9321 H 869.118 -2.50056 4.31594 0
M  V30 9322 H 868.272 -4.78291 3.7326 0
M  V30 9323 H 867.011 -4.06957 2.6877 0
M  V30 9324 H 866.016 -2.89769 4.67241 0
M  V30 9325 H 867.241 -3.64242 5.73153 0
M  V30 9326 H 865.187 -5.14725 4.06687 0
M  V30 9327 H 865.104 -4.87675 5.77676 0
M  V30 9328 H 866.372 -5.87225 5.12628 0
M  V30 9329 N 870.601 -1.47988 -0.541979 0
M  V30 9330 C 871.849 -1.55086 -1.29587 0
M  V30 9331 C 872.17 -0.221304 -1.9374 0
M  V30 9332 O 871.44 0.756128 -1.80719 0
M  V30 9333 H 870.02 -0.571307 -0.481266 0
M  V30 9334 H 872.682 -1.8438 -0.631675 0
M  V30 9335 H 871.778 -2.32556 -2.08144 0
M  V30 9336 N 872.079 0.78992 -1.36375 0
M  V30 9337 C 873.304 1.58389 -1.33895 0
M  V30 9338 C 873.729 1.8794 0.0774934 0
M  V30 9339 O 873.087 1.4785 1.0493 0
M  V30 9340 C 873.135 2.88201 -2.16732 0
M  V30 9341 O 872.239 3.81778 -1.55946 0
M  V30 9342 H 871.58 0.480471 -0.458305 0
M  V30 9343 H 874.11 0.979119 -1.79651 0
M  V30 9344 H 874.12 3.37475 -2.29292 0
M  V30 9345 H 872.795 2.66019 -3.19698 0
M  V30 9346 H 871.372 3.40371 -1.52323 0
M  V30 9347 N 873.557 1.20646 1.01402 0
M  V30 9348 C 874.487 0.98155 2.11867 0
M  V30 9349 C 875.468 -0.0903712 1.6986 0
M  V30 9350 O 876.653 0.0676586 1.94082 0
M  V30 9351 C 873.783 0.535636 3.43145 0
M  V30 9352 C 872.737 1.55109 3.98905 0
M  V30 9353 C 872.063 0.961725 5.2598 0
M  V30 9354 C 873.363 2.93552 4.32001 0
M  V30 9355 H 875.057 1.90544 2.3094 0
M  V30 9356 H 872.603 0.917554 1.10982 0
M  V30 9357 H 874.556 0.365512 4.19812 0
M  V30 9358 H 873.28 -0.423882 3.23838 0
M  V30 9359 H 871.939 1.70862 3.24348 0
M  V30 9360 H 871.587 -0.00580108 5.03 0
M  V30 9361 H 871.287 1.63993 5.64252 0
M  V30 9362 H 872.811 0.802726 6.053 0
M  V30 9363 H 874.225 2.81295 4.99546 0
M  V30 9364 H 872.622 3.58303 4.81393 0
M  V30 9365 H 873.692 3.4508 3.40658 0
M  V30 9366 N 875.035 -1.20752 1.01276 0
M  V30 9367 C 875.982 -2.234 0.579732 0
M  V30 9368 C 876.952 -1.61256 -0.398206 0
M  V30 9369 O 878.137 -1.8845 -0.29851 0
M  V30 9370 C 875.277 -3.45008 -0.0797006 0
M  V30 9371 C 874.39 -4.21597 0.942343 0
M  V30 9372 C 873.525 -5.30591 0.254364 0
M  V30 9373 C 872.564 -5.98919 1.26343 0
M  V30 9374 N 871.701 -6.99511 0.602384 0
M  V30 9375 H 876.541 -2.59801 1.45971 0
M  V30 9376 H 874.078 -1.27663 0.730787 0
M  V30 9377 H 876.036 -4.1444 -0.479125 0
M  V30 9378 H 874.666 -3.09312 -0.923354 0
M  V30 9379 H 873.718 -3.51268 1.45996 0
M  V30 9380 H 875.03 -4.68576 1.70992 0
M  V30 9381 H 874.184 -6.06368 -0.200763 0
M  V30 9382 H 872.923 -4.84639 -0.545553 0
M  V30 9383 H 871.928 -5.21906 1.72898 0
M  V30 9384 H 873.153 -6.46957 2.06456 0
M  V30 9385 H 871.099 -6.55759 -0.177734 0
M  V30 9386 H 871.016 -7.44597 1.30809 0
M  V30 9387 H 872.284 -7.79313 0.17072 0
M  V30 9388 N 876.513 -0.788492 -1.36457 0
M  V30 9389 C 877.929 -0.470063 -1.52521 0
M  V30 9390 C 878.129 1.01176 -1.74258 0
M  V30 9391 O 877.185 1.79726 -1.77355 0
M  V30 9392 C 878.498 -1.2997 -2.71161 0
M  V30 9393 C 880.046 -1.2933 -2.85031 0
M  V30 9394 C 880.521 -2.10665 -4.06674 0
M  V30 9395 N 882.012 -2.08107 -4.13819 0
M  V30 9396 C 882.747 -2.6781 -5.07016 0
M  V30 9397 N 882.243 -3.36369 -6.05663 0
M  V30 9398 N 884.036 -2.57549 -4.99625 0
M  V30 9399 H 876.187 -1.7484 -1.20602 0
M  V30 9400 H 878.45 -0.743159 -0.588574 0
M  V30 9401 H 878.156 -2.35051 -2.61618 0
M  V30 9402 H 878.03 -0.940367 -3.6529 0
M  V30 9403 H 880.417 -0.250414 -2.94036 0
M  V30 9404 H 880.498 -1.69239 -1.91812 0
M  V30 9405 H 880.142 -3.14984 -3.98431 0
M  V30 9406 H 880.072 -1.68128 -4.9904 0
M  V30 9407 H 882.563 -1.58208 -3.43189 0
M  V30 9408 H 882.876 -3.79258 -6.73338 0
M  V30 9409 H 881.221 -3.40471 -6.05891 0
M  V30 9410 H 884.412 -2.0359 -4.21508 0
M  V30 9411 H 884.585 -3.0437 -5.72069 0
M  V30 9412 N 877.991 1.48044 -0.54043 0
M  V30 9413 C 878.938 2.29781 0.216597 0
M  V30 9414 C 879.908 1.38021 0.924094 0
M  V30 9415 O 881.093 1.66985 0.923078 0
M  V30 9416 C 878.233 3.21623 1.2511 0
M  V30 9417 C 877.346 4.28467 0.551384 0
M  V30 9418 C 876.481 5.07477 1.56972 0
M  V30 9419 C 875.52 6.06113 0.854048 0
M  V30 9420 N 874.657 6.78143 1.81842 0
M  V30 9421 H 879.497 2.94001 -0.486578 0
M  V30 9422 H 877.034 1.44929 -0.251789 0
M  V30 9423 H 878.992 3.73279 1.8633 0
M  V30 9424 H 877.622 2.59305 1.92252 0
M  V30 9425 H 876.674 3.79997 -0.174982 0
M  V30 9426 H 877.986 4.98799 -0.0100542 0
M  V30 9427 H 877.14 5.63199 2.25592 0
M  V30 9428 H 875.879 4.37008 2.16507 0
M  V30 9429 H 874.884 5.49585 0.153838 0
M  V30 9430 H 876.109 6.78584 0.264675 0
M  V30 9431 H 874.055 6.10417 2.40265 0
M  V30 9432 H 873.972 7.44587 1.3087 0
M  V30 9433 H 875.24 7.38448 2.49628 0
M  V30 9434 O 879.508 0.418012 1.55996 0
M  V30 9435 H 880.199 -0.120381 1.93326 0
M  V30 END ATOM
M  V30 BEGIN BOND
M  V30 END BOND
M  V30 END CTAB
M  END
$$$$
