drugbank_target|P00803 Signal peptidase I (DB01934; DB02080; DB06904)
 OpenBabel12092119523D

  0  0  0     0  0            999 V3000
M  V30 BEGIN CTAB
M  V30 COUNTS 5074 5139 0 0 0
M  V30 BEGIN ATOM
M  V30 1 H -0.908 1.98254 -0.117106 0
M  V30 2 N 0 1.576 0 0
M  V30 3 C 0.933 2.03868 1.02534 0
M  V30 4 C 1.911 0.928543 1.3348 0
M  V30 5 O 3.095 1.19667 1.45644 0
M  V30 6 C 0.222 2.43627 2.35294 0
M  V30 7 C -0.732 3.65373 2.2001 0
M  V30 8 S 0.101 5.13292 1.52614 0
M  V30 9 C 1.257 5.56322 2.86805 0
M  V30 10 H 1.49 2.90518 0.631377 0
M  V30 11 H -0.977 1.52953 0.210867 0
M  V30 12 H 0.981 2.67203 3.11629 0
M  V30 13 H -0.358 1.57376 2.7183 0
M  V30 14 H -1.165 3.90944 3.18086 0
M  V30 15 H -1.563 3.418 1.51819 0
M  V30 16 H 0.729 5.58782 3.83104 0
M  V30 17 H 1.672 6.56266 2.65933 0
M  V30 18 H 2.08 4.83886 2.90714 0
M  V30 19 N 1.4781 -0.272755 1.55222 0
M  V30 20 C 2.4411 -1.32041 1.87344 0
M  V30 21 C 3.4411 -1.42342 0.74803 0
M  V30 22 O 4.6311 -1.41488 1.0162 0
M  V30 23 C 1.7631 -2.70173 2.07893 0
M  V30 24 H 2.9561 -1.04789 2.80997 0
M  V30 25 H 0.5091 -0.51083 1.47717 0
M  V30 26 H 1.2441 -3.02605 1.16622 0
M  V30 27 H 1.0291 -2.64082 2.89833 0
M  V30 28 H 2.5191 -3.45869 2.34017 0
M  V30 29 N 2.9562 -1.48159 -0.537278 0
M  V30 30 C 3.9042 -1.62573 -1.66352 0
M  V30 31 C 4.8982 -0.492366 -1.62087 0
M  V30 32 O 6.1042 -0.670847 -1.67032 0
M  V30 33 H 2.4792 -0.511992 -0.550789 0
M  V30 34 H 4.4502 -2.57176 -1.51337 0
M  V30 35 C 3.1992 -1.67583 -3.04649 0
M  V30 36 H 2.5222 -2.54151 -3.08622 0
M  V30 37 H 3.9622 -1.81713 -3.83088 0
M  V30 38 C 2.4212 -0.413039 -3.34358 0
M  V30 39 O 2.9512 0.477259 -3.98855 0
M  V30 40 N 1.1572 -0.286961 -2.8918 0
M  V30 41 H 0.7042 -1.01241 -2.36871 0
M  V30 42 H 0.6622 0.556963 -3.09427 0
M  V30 43 N 4.4343 0.785586 -1.36625 0
M  V30 44 C 5.3673 1.90509 -1.25625 0
M  V30 45 C 6.3453 1.62 -0.139607 0
M  V30 46 O 7.5293 1.8591 -0.31141 0
M  V30 47 C 4.6563 3.25419 -0.939158 0
M  V30 48 C 3.7023 3.72856 -2.07077 0
M  V30 49 S 4.5353 3.88162 -3.68904 0
M  V30 50 C 5.6913 5.25942 -3.39317 0
M  V30 51 H 5.9243 1.99549 -2.20381 0
M  V30 52 H 3.4573 0.945226 -1.22085 0
M  V30 53 H 5.4153 4.03346 -0.763029 0
M  V30 54 H 4.0763 3.14099 -0.00931402 0
M  V30 55 H 3.2693 4.70624 -1.80357 0
M  V30 56 H 2.8713 3.01989 -2.20632 0
M  V30 57 H 5.1633 6.10651 -2.93447 0
M  V30 58 H 6.1063 5.57668 -4.36363 0
M  V30 59 H 6.5143 4.93224 -2.74573 0
M  V30 60 N 5.9124 1.20967 1.01018 0
M  V30 61 C 7.1594 1.02374 1.74716 0
M  V30 62 C 7.4874 -0.443375 1.89379 0
M  V30 63 O 6.7424 -1.34535 1.42123 0
M  V30 64 C 7.0414 1.65997 3.16512 0
M  V30 65 C 6.7074 3.15831 3.2181 0
M  V30 66 C 5.3694 3.56719 3.22963 0
M  V30 67 C 7.7214 4.11816 3.19464 0
M  V30 68 C 5.0494 4.92107 3.19449 0
M  V30 69 C 7.4014 5.47158 3.17491 0
M  V30 70 C 6.0654 5.87451 3.16951 0
M  V30 71 H 5.3354 0.374614 0.639332 0
M  V30 72 H 7.9824 1.50485 1.18434 0
M  V30 73 H 6.2874 1.10166 3.75993 0
M  V30 74 H 7.9844 1.49119 3.72242 0
M  V30 75 H 4.5744 2.83263 3.21652 0
M  V30 76 H 8.7584 3.81257 3.17737 0
M  V30 77 H 4.0144 5.22579 3.17366 0
M  V30 78 H 8.1884 6.21274 3.14629 0
M  V30 79 H 5.8154 6.92329 3.13983 0
M  V30 80 N 7.3905 -1.2043 1.01659 0
M  V30 81 C 8.3535 -2.21433 0.591616 0
M  V30 82 C 9.3535 -1.57203 -0.338226 0
M  V30 83 O 10.5435 -1.73737 -0.126918 0
M  V30 84 C 7.6755 -3.40628 -0.136058 0
M  V30 85 H 8.8685 -2.60545 1.48514 0
M  V30 86 H 6.4215 -1.33893 0.806379 0
M  V30 87 H 7.1565 -3.07019 -1.04449 0
M  V30 88 H 6.9415 -3.88475 0.531917 0
M  V30 89 H 8.4315 -4.15475 -0.420735 0
M  V30 90 N 8.8686 -0.792821 -1.36206 0
M  V30 91 C 9.7986 -0.207853 -2.32573 0
M  V30 92 C 10.7796 0.659055 -1.56813 0
M  V30 93 O 11.9646 0.592176 -1.84951 0
M  V30 94 C 9.0946 0.655449 -3.41059 0
M  V30 95 C 8.0486 -0.111842 -4.27854 0
M  V30 96 C 7.3746 0.872274 -5.27537 0
M  V30 97 C 8.6746 -1.30299 -5.05786 0
M  V30 98 H 10.3686 -1.01294 -2.81744 0
M  V30 99 H 7.9146 -0.48854 -1.3546 0
M  V30 100 H 9.8676 1.07464 -4.07467 0
M  V30 101 H 8.5916 1.49328 -2.90463 0
M  V30 102 H 7.2506 -0.512053 -3.63006 0
M  V30 103 H 6.8986 1.70523 -4.73214 0
M  V30 104 H 6.5986 0.363291 -5.86476 0
M  V30 105 H 8.1226 1.28996 -5.96818 0
M  V30 106 H 9.5366 -0.959379 -5.65216 0
M  V30 107 H 7.9336 -1.7455 -5.74154 0
M  V30 108 H 9.0036 -2.09663 -4.37229 0
M  V30 109 N 10.3467 1.47872 -0.545128 0
M  V30 110 C 11.5957 2.01695 -0.0145033 0
M  V30 111 C 11.9087 1.42609 1.33873 0
M  V30 112 O 13.1147 1.88021 1.95858 0
M  V30 113 C 11.5707 3.59892 0.0245068 0
M  V30 114 C 11.1787 4.27966 -1.32475 0
M  V30 115 C 12.9227 4.21507 0.50316 0
M  V30 116 C 10.8297 5.78136 -1.2455 0
M  V30 117 H 9.7597 0.753998 -0.00165172 0
M  V30 118 H 12.4107 1.69985 -0.691175 0
M  V30 119 H 10.7927 3.88509 0.766575 0
M  V30 120 H 11.9667 4.11003 -2.08357 0
M  V30 121 H 10.2817 3.78286 -1.74036 0
M  V30 122 H 12.8787 5.31538 0.580656 0
M  V30 123 H 13.2217 3.87855 1.51243 0
M  V30 124 H 13.7547 3.97376 -0.183681 0
M  V30 125 H 10.4937 6.16388 -2.23039 0
M  V30 126 H 10.0137 5.97469 -0.528282 0
M  V30 127 H 11.6927 6.40099 -0.942488 0
M  V30 128 N 11.8248 0.280983 1.55075 0
M  V30 129 C 12.7548 -0.597469 2.25727 0
M  V30 130 C 13.7358 -1.15417 1.24952 0
M  V30 131 O 14.9208 -1.18722 1.53684 0
M  V30 132 C 12.0508 -1.7789 2.98283 0
M  V30 133 C 11.0048 -1.35347 4.06036 0
M  V30 134 C 10.3308 -2.61846 4.66198 0
M  V30 135 C 11.6308 -0.499354 5.19907 0
M  V30 136 H 13.3248 -0.00824265 2.99399 0
M  V30 137 H 10.8708 -0.0025244 1.44 0
M  V30 138 H 12.8238 -2.39937 3.46422 0
M  V30 139 H 11.5478 -2.39405 2.22155 0
M  V30 140 H 10.2068 -0.756156 3.58717 0
M  V30 141 H 9.8548 -3.21632 3.86732 0
M  V30 142 H 9.5548 -2.3409 5.38958 0
M  V30 143 H 11.0788 -3.24732 5.1709 0
M  V30 144 H 12.4928 -1.02498 5.64063 0
M  V30 145 H 10.8898 -0.316424 5.99265 0
M  V30 146 H 11.9598 0.480459 4.82514 0
M  V30 147 N 13.3029 -1.57598 0.00835791 0
M  V30 148 C 14.5489 -1.91211 -0.675732 0
M  V30 149 C 14.8819 -0.883139 -1.72958 0
M  V30 150 O 14.1569 0.097016 -1.94258 0
M  V30 151 C 14.4399 -3.35379 -1.31123 0
M  V30 152 C 14.2929 -4.48999 -0.268356 0
M  V30 153 C 15.6119 -3.7912 -2.23508 0
M  V30 154 H 12.7309 -0.695374 -0.244179 0
M  V30 155 H 15.3729 -1.89901 0.0613655 0
M  V30 156 H 13.5229 -3.36626 -1.93946 0
M  V30 157 H 15.1949 -4.59887 0.360844 0
M  V30 158 H 13.4379 -4.31873 0.408482 0
M  V30 159 H 14.1089 -5.46851 -0.752218 0
M  V30 160 H 16.5849 -3.79477 -1.70693 0
M  V30 161 H 15.4609 -4.80729 -2.64936 0
M  V30 162 H 15.7219 -3.13455 -3.11766 0
M  V30 163 N 14.781 0.264519 -1.55364 0
M  V30 164 C 16.03 0.992812 -1.75574 0
M  V30 165 C 16.343 1.87142 -0.568979 0
M  V30 166 O 17.549 2.63513 -0.653682 0
M  V30 167 C 16.005 1.81519 -3.10771 0
M  V30 168 C 15.613 0.984839 -4.37041 0
M  V30 169 C 17.357 2.53727 -3.40327 0
M  V30 170 C 15.264 1.80209 -5.63275 0
M  V30 171 H 14.194 0.374412 -0.65447 0
M  V30 172 H 16.845 0.248138 -1.81815 0
M  V30 173 H 15.227 2.60115 -2.98591 0
M  V30 174 H 16.401 0.242455 -4.60162 0
M  V30 175 H 14.716 0.37691 -4.14691 0
M  V30 176 H 17.313 3.15292 -4.3185 0
M  V30 177 H 17.656 3.24447 -2.60845 0
M  V30 178 H 18.189 1.82156 -3.53644 0
M  V30 179 H 14.928 1.13896 -6.45529 0
M  V30 180 H 14.448 2.52022 -5.44284 0
M  V30 181 H 16.127 2.37364 -6.01887 0
M  V30 182 N 16.2591 1.48442 0.529413 0
M  V30 183 C 17.2221 1.62524 1.61612 0
M  V30 184 C 18.2221 0.498509 1.52877 0
M  V30 185 O 19.4121 0.76431 1.56537 0
M  V30 186 C 16.5441 1.59597 3.01233 0
M  V30 187 H 17.7371 2.59423 1.50465 0
M  V30 188 H 15.2901 1.37047 0.751514 0
M  V30 189 H 16.0251 0.641781 3.17886 0
M  V30 190 H 15.8101 2.41397 3.08982 0
M  V30 191 H 17.3001 1.72646 3.80241 0
M  V30 192 N 17.7372 -0.778329 1.37039 0
M  V30 193 C 18.9652 -1.56734 1.35063 0
M  V30 194 C 19.3802 -1.88686 -0.0655597 0
M  V30 195 O 18.7372 -1.5096 -1.02554 0
M  V30 196 C 18.7882 -2.88163 2.18276 0
M  V30 197 O 18.5092 -2.57583 3.54376 0
M  V30 198 C 20.0102 -3.82422 2.24206 0
M  V30 199 H 17.2302 -0.485778 0.462883 0
M  V30 200 H 19.7742 -0.965185 1.8029 0
M  V30 201 H 17.9292 -3.44818 1.76576 0
M  V30 202 H 18.3432 -3.41699 3.97922 0
M  V30 203 H 19.8172 -4.71667 2.86765 0
M  V30 204 H 20.2942 -4.21078 1.24861 0
M  V30 205 H 20.9002 -3.31697 2.6619 0
M  V30 206 N 19.2153 -1.21501 -1.00376 0
M  V30 207 C 20.1453 -0.999478 -2.11028 0
M  V30 208 C 21.1263 0.0759671 -1.6993 0
M  V30 209 O 22.3113 -0.0841106 -1.94018 0
M  V30 210 C 19.4413 -0.564709 -3.42678 0
M  V30 211 C 18.3953 -1.58486 -3.97576 0
M  V30 212 C 17.7213 -1.00628 -5.25146 0
M  V30 213 C 19.0213 -2.97204 -4.29496 0
M  V30 214 H 20.7153 -1.92495 -2.29317 0
M  V30 215 H 18.2613 -0.92693 -1.102 0
M  V30 216 H 20.2143 -0.401091 -4.19487 0
M  V30 217 H 18.9383 0.396411 -3.24185 0
M  V30 218 H 17.5973 -1.73606 -3.22888 0
M  V30 219 H 17.2453 -0.0368439 -5.02987 0
M  V30 220 H 16.9453 -1.68771 -5.62841 0
M  V30 221 H 18.4693 -0.854015 -6.04598 0
M  V30 222 H 19.8833 -2.8552 -4.97143 0
M  V30 223 H 18.2803 -3.62372 -4.78338 0
M  V30 224 H 19.3503 -3.47956 -3.3772 0
M  V30 225 N 20.6934 1.19889 -1.02296 0
M  V30 226 C 21.9394 1.89701 -0.717033 0
M  V30 227 C 22.2724 1.7905 0.751989 0
M  V30 228 O 21.5474 1.17891 1.547 0
M  V30 229 C 21.8304 3.40858 -1.16136 0
M  V30 230 C 21.6834 3.60411 -2.69117 0
M  V30 231 C 23.0024 4.33876 -0.737549 0
M  V30 232 H 20.1214 0.688874 -0.261957 0
M  V30 233 H 22.7634 1.41154 -1.27183 0
M  V30 234 H 20.9134 3.82335 -0.689342 0
M  V30 235 H 22.5854 3.28145 -3.2422 0
M  V30 236 H 20.8284 3.03665 -3.0979 0
M  V30 237 H 21.4994 4.66396 -2.95261 0
M  V30 238 H 23.9754 4.00081 -1.14344 0
M  V30 239 H 22.8514 5.38242 -1.0764 0
M  V30 240 H 23.1124 4.40628 0.360436 0
M  V30 241 N 22.1715 0.800033 1.35784 0
M  V30 242 C 23.3995 0.389606 2.03199 0
M  V30 243 C 23.8145 -0.997375 1.60306 0
M  V30 244 O 23.1715 -1.64154 0.797481 0
M  V30 245 C 23.2225 0.455855 3.58614 0
M  V30 246 O 22.9435 1.78815 3.99946 0
M  V30 247 C 24.4445 0.0374032 4.43284 0
M  V30 248 H 21.6645 0.159132 0.651857 0
M  V30 249 H 24.2085 1.08183 1.73541 0
M  V30 250 H 22.3635 -0.188057 3.86943 0
M  V30 251 H 22.7775 1.74636 4.94573 0
M  V30 252 H 24.2515 0.134882 5.51835 0
M  V30 253 H 24.7285 -1.01651 4.27275 0
M  V30 254 H 25.3345 0.654215 4.20238 0
M  V30 255 N 23.6496 -1.47581 0.552962 0
M  V30 256 C 24.8976 -2.02082 0.0272703 0
M  V30 257 C 25.2186 -1.4301 -1.32563 0
M  V30 258 O 24.4886 -0.603745 -1.86365 0
M  V30 259 H 23.0686 -0.746966 0.00709182 0
M  V30 260 H 25.7306 -1.81033 0.722008 0
M  V30 261 H 24.8266 -3.12034 -0.0639951 0
M  V30 262 N 25.1277 -0.289203 -1.54924 0
M  V30 263 C 26.3767 0.324231 -1.99077 0
M  V30 264 C 26.6897 1.5591 -1.18117 0
M  V30 265 O 27.8957 2.24637 -1.52481 0
M  V30 266 C 26.3517 0.628209 -3.54375 0
M  V30 267 C 25.9597 -0.587647 -4.44129 0
M  V30 268 C 27.7037 1.20349 -4.07083 0
M  V30 269 C 25.6107 -0.257475 -5.90839 0
M  V30 270 H 24.5407 0.124924 -0.743579 0
M  V30 271 H 27.1917 -0.396063 -1.79175 0
M  V30 272 H 25.5737 1.40778 -3.70132 0
M  V30 273 H 26.7477 -1.36418 -4.40144 0
M  V30 274 H 25.0627 -1.08074 -4.0213 0
M  V30 275 H 27.6597 1.46456 -5.14252 0
M  V30 276 H 28.0027 2.14195 -3.56968 0
M  V30 277 H 28.5357 0.485889 -3.94821 0
M  V30 278 H 25.2747 -1.16419 -6.45079 0
M  V30 279 H 24.7947 0.482018 -5.9786 0
M  V30 280 H 26.4737 0.145238 -6.46837 0
M  V30 281 N 26.6058 1.57591 -0.0167156 0
M  V30 282 C 27.5358 2.12496 0.967858 0
M  V30 283 C 28.5168 1.03807 1.34752 0
M  V30 284 O 29.7018 1.31577 1.42833 0
M  V30 285 C 26.8318 2.64194 2.25431 0
M  V30 286 C 25.7858 3.77559 2.01576 0
M  V30 287 C 25.1118 4.15636 3.36379 0
M  V30 288 C 26.4118 5.04151 1.36489 0
M  V30 289 H 28.1058 2.95013 0.510643 0
M  V30 290 H 25.6518 1.41915 0.244181 0
M  V30 291 H 27.6048 3.01236 2.94678 0
M  V30 292 H 26.3288 1.78821 2.73296 0
M  V30 293 H 24.9878 3.40937 1.34751 0
M  V30 294 H 24.6358 3.27263 3.81979 0
M  V30 295 H 24.3358 4.92022 3.21229 0
M  V30 296 H 25.8598 4.5525 4.06915 0
M  V30 297 H 27.2738 5.38857 1.95718 0
M  V30 298 H 25.6708 5.85453 1.31776 0
M  V30 299 H 26.7408 4.83733 0.336219 0
M  V30 300 N 28.0839 -0.256276 1.55502 0
M  V30 301 C 29.3299 -0.982884 1.78076 0
M  V30 302 C 29.6849 -1.83319 0.584109 0
M  V30 303 O 28.9779 -1.86875 -0.422877 0
M  V30 304 C 29.1719 -1.88432 3.03691 0
M  V30 305 C 29.0009 -1.12276 4.35459 0
M  V30 306 C 27.7709 -0.831647 4.98409 0
M  V30 307 C 29.9689 -0.504933 5.11815 0
M  V30 308 N 27.9509 -0.0450423 6.13883 0
M  V30 309 C 29.3219 0.146696 6.19826 0
M  V30 310 C 31.3769 -0.414455 4.96172 0
M  V30 311 C 30.0799 0.880103 7.13895 0
M  V30 312 C 32.1059 0.305398 5.90611 0
M  V30 313 C 31.4679 0.945701 6.98023 0
M  V30 314 H 27.5669 -0.341084 0.703694 0
M  V30 315 H 30.1509 -0.256909 1.92998 0
M  V30 316 H 28.3219 -2.58241 2.90114 0
M  V30 317 H 30.0539 -2.54579 3.14598 0
M  V30 318 H 26.8089 -1.14111 4.59647 0
M  V30 319 H 27.2329 0.336079 6.76165 0
M  V30 320 H 31.8749 -0.895163 4.13215 0
M  V30 321 H 29.5929 1.37244 7.9636 0
M  V30 322 H 33.1789 0.375946 5.80584 0
M  V30 323 H 32.0589 1.49383 7.6984 0
M  V30 324 N 29.562 -1.4872 -0.521534 0
M  V30 325 C 30.802 -1.58771 -1.28729 0
M  V30 326 C 31.166 -0.259394 -1.9024 0
M  V30 327 O 32.367 -0.234942 -2.67771 0
M  V30 328 C 30.638 -2.70039 -2.34124 0
M  V30 329 S 32.197 -2.9991 -3.20312 0
M  V30 330 H 29.015 -0.560251 -0.437767 0
M  V30 331 H 31.617 -1.86283 -0.593188 0
M  V30 332 H 30.321 -3.65101 -1.87429 0
M  V30 333 H 29.852 -2.44455 -3.08229 0
M  V30 334 H 31.867 -2.39855 -4.34378 0
M  V30 335 N 31.0401 0.771051 -1.3745 0
M  V30 336 C 32.2861 1.5319 -1.32894 0
M  V30 337 C 32.6191 1.94008 0.0862511 0
M  V30 338 O 31.8941 1.64124 1.04373 0
M  V30 339 C 32.1771 2.79648 -2.26868 0
M  V30 340 C 32.0301 2.45079 -3.77169 0
M  V30 341 C 33.3491 3.81583 -2.19277 0
M  V30 342 H 30.4681 0.555744 -0.484064 0
M  V30 343 H 33.1101 0.884492 -1.68157 0
M  V30 344 H 31.2601 3.34891 -1.96926 0
M  V30 345 H 32.9321 1.95745 -4.1771 0
M  V30 346 H 31.1751 1.77767 -3.95704 0
M  V30 347 H 31.8461 3.35478 -4.38359 0
M  V30 348 H 34.3221 3.35835 -2.45671 0
M  V30 349 H 33.1981 4.67787 -2.87171 0
M  V30 350 H 33.4591 4.25897 -1.18592 0
M  V30 351 N 32.5182 1.22032 0.997298 0
M  V30 352 C 33.7952 0.950823 1.70935 0
M  V30 353 C 34.1752 -0.535292 2.042 0
M  V30 354 O 33.5232 -1.50217 1.72183 0
M  V30 355 C 33.7332 1.84386 2.96315 0
M  V30 356 C 35.0812 2.09732 3.69185 0
M  V30 357 O 36.1052 1.81798 3.06314 0
M  V30 358 O 34.9642 2.57018 4.82291 0
M  V30 359 H 32.0582 0.357204 0.745878 0
M  V30 360 H 34.6042 1.32997 1.05404 0
M  V30 361 H 33.3762 2.84928 2.68201 0
M  V30 362 H 32.9992 1.46602 3.69586 0
M  V30 363 N 33.9963 -1.19345 1.0293 0
M  V30 364 C 34.9433 -2.2258 0.610464 0
M  V30 365 C 35.9133 -1.6179 -0.375946 0
M  V30 366 O 37.0983 -1.88844 -0.272511 0
M  V30 367 C 34.2383 -3.45085 -0.0321473 0
M  V30 368 C 33.3513 -4.20258 1.00035 0
M  V30 369 C 32.4863 -5.3019 0.32746 0
M  V30 370 C 31.5253 -5.97121 1.34584 0
M  V30 371 N 30.6623 -6.98615 0.698726 0
M  V30 372 H 35.5023 -2.57764 1.49538 0
M  V30 373 H 33.0393 -1.26644 0.748311 0
M  V30 374 H 34.9973 -4.15061 -0.421966 0
M  V30 375 H 33.6273 -3.10555 -0.88064 0
M  V30 376 H 32.6793 -3.49223 1.50823 0
M  V30 377 H 33.9913 -4.66175 1.77433 0
M  V30 378 H 33.1453 -6.06587 -0.11718 0
M  V30 379 H 31.8843 -4.85345 -0.478713 0
M  V30 380 H 30.8893 -5.19474 1.80074 0
M  V30 381 H 32.1143 -6.4405 2.15352 0
M  V30 382 H 30.0603 -6.55942 -0.0873471 0
M  V30 383 H 29.9773 -7.42724 1.41058 0
M  V30 384 H 31.2453 -7.79004 0.278102 0
M  V30 385 N 35.4744 -0.807222 -1.35358 0
M  V30 386 C 36.7214 -0.387888 -1.9875 0
M  V30 387 C 37.0494 1.04509 -1.64037 0
M  V30 388 O 36.3044 1.73986 -0.895946 0
M  V30 389 C 36.6034 -0.519036 -3.53611 0
M  V30 390 C 36.2694 -1.91542 -4.08194 0
M  V30 391 C 34.9314 -2.29745 -4.22813 0
M  V30 392 C 37.2834 -2.82896 -4.37744 0
M  V30 393 C 34.6114 -3.58668 -4.643 0
M  V30 394 C 36.9634 -4.11265 -4.8067 0
M  V30 395 C 35.6274 -4.49466 -4.93494 0
M  V30 396 H 34.8974 -0.141938 -0.727279 0
M  V30 397 H 37.5444 -1.02814 -1.6156 0
M  V30 398 H 35.8494 0.204658 -3.91265 0
M  V30 399 H 37.5464 -0.175345 -4.00616 0
M  V30 400 H 34.1364 -1.60862 -3.97268 0
M  V30 401 H 38.3204 -2.54629 -4.26002 0
M  V30 402 H 33.5764 -3.88113 -4.72418 0
M  V30 403 H 37.7504 -4.82153 -5.02496 0
M  V30 404 H 35.3774 -5.49418 -5.25399 0
M  V30 405 N 36.9525 1.47285 -0.560781 0
M  V30 406 C 38.1995 2.02464 -0.038062 0
M  V30 407 C 38.5275 1.43474 1.31322 0
M  V30 408 O 37.7825 0.581311 1.86867 0
M  V30 409 C 38.0815 3.57258 0.100784 0
M  V30 410 C 37.7475 4.35184 -1.18007 0
M  V30 411 C 36.4095 4.56194 -1.53103 0
M  V30 412 C 38.7615 4.80098 -2.02867 0
M  V30 413 C 36.0895 5.19367 -2.729 0
M  V30 414 C 38.4415 5.44593 -3.21871 0
M  V30 415 C 37.1055 5.63835 -3.57276 0
M  V30 416 H 36.3755 0.740869 -0.0139279 0
M  V30 417 H 39.0225 1.76916 -0.733012 0
M  V30 418 H 37.3275 3.81819 0.878724 0
M  V30 419 H 39.0245 3.97606 0.520639 0
M  V30 420 H 35.6145 4.19113 -0.8968 0
M  V30 421 H 39.7985 4.63642 -1.7706 0
M  V30 422 H 35.0545 5.32459 -3.00496 0
M  V30 423 H 39.2285 5.78358 -3.87911 0
M  V30 424 H 36.8555 6.12557 -4.50197 0
M  V30 425 N 38.4306 0.297415 1.54768 0
M  V30 426 C 39.6776 -0.312913 2.00068 0
M  V30 427 C 40.0056 -1.54171 1.18582 0
M  V30 428 O 39.2606 -1.94108 0.249133 0
M  V30 429 C 39.5596 -0.717561 3.50123 0
M  V30 430 C 39.2256 0.409095 4.4904 0
M  V30 431 C 37.8876 0.718399 4.75807 0
M  V30 432 C 40.2396 1.16717 5.07963 0
M  V30 433 C 37.5676 1.78896 5.5876 0
M  V30 434 C 39.9196 2.22762 5.92081 0
M  V30 435 C 38.5836 2.54303 6.1716 0
M  V30 436 H 37.8536 -0.114503 0.7321 0
M  V30 437 H 40.5006 0.415767 1.86932 0
M  V30 438 H 38.8056 -1.52627 3.60849 0
M  V30 439 H 40.5026 -1.20091 3.82595 0
M  V30 440 H 37.0926 0.157918 4.28309 0
M  V30 441 H 41.2766 0.941466 4.87289 0
M  V30 442 H 36.5326 2.0381 5.7643 0
M  V30 443 H 40.7066 2.81962 6.36765 0
M  V30 444 H 38.3336 3.3739 6.81229 0
M  V30 445 N 39.9087 -1.5758 0.0250728 0
M  V30 446 C 40.8717 -2.08896 -0.943139 0
M  V30 447 C 41.8717 -1.00321 -1.25668 0
M  V30 448 O 43.0617 -1.26495 -1.19769 0
M  V30 449 C 40.1937 -2.55143 -2.26086 0
M  V30 450 H 41.3867 -2.95723 -0.498775 0
M  V30 451 H 38.9397 -1.54703 -0.222888 0
M  V30 452 H 39.6747 -1.71633 -2.75159 0
M  V30 453 H 39.4597 -3.34461 -2.04641 0
M  V30 454 H 40.9497 -2.95083 -2.95492 0
M  V30 455 N 41.3868 0.248026 -1.55636 0
M  V30 456 C 42.7978 0.817177 -1.67866 0
M  V30 457 C 43.1488 1.86069 -0.622322 0
M  V30 458 O 42.2738 2.15157 0.231618 0
M  V30 459 C 42.8688 1.489 -3.04326 0
M  V30 460 C 41.4278 2.00587 -3.185 0
M  V30 461 C 40.5748 0.856573 -2.63739 0
M  V30 462 H 43.5258 0.0238579 -1.58682 0
M  V30 463 H 43.5468 2.35698 -2.98708 0
M  V30 464 H 43.0588 0.729279 -3.81186 0
M  V30 465 H 41.1598 2.79443 -2.4646 0
M  V30 466 H 41.2728 2.20402 -4.25393 0
M  V30 467 H 39.6368 1.25678 -2.21534 0
M  V30 468 H 40.4198 0.109953 -3.43124 0
M  V30 469 N 42.8649 1.48995 0.513639 0
M  V30 470 C 43.8119 1.6473 1.61656 0
M  V30 471 C 44.7819 0.488984 1.58739 0
M  V30 472 O 45.9669 0.714478 1.76918 0
M  V30 473 C 43.1069 1.7082 2.99858 0
M  V30 474 C 42.2199 2.9787 3.12885 0
M  V30 475 C 41.3549 2.95017 4.41744 0
M  V30 476 C 40.3939 4.16702 4.48359 0
M  V30 477 N 39.5309 4.11832 5.68629 0
M  V30 478 H 44.3709 2.58909 1.47547 0
M  V30 479 H 41.9079 1.28382 0.71808 0
M  V30 480 H 43.8659 1.72331 3.79944 0
M  V30 481 H 42.4959 0.801181 3.12699 0
M  V30 482 H 41.5479 3.06029 2.25944 0
M  V30 483 H 42.8599 3.8786 3.13633 0
M  V30 484 H 42.0139 2.95021 5.30139 0
M  V30 485 H 40.7529 2.02784 4.43542 0
M  V30 486 H 39.7579 4.16955 3.58369 0
M  V30 487 H 40.9829 5.10113 4.48287 0
M  V30 488 H 38.9289 3.22428 5.71293 0
M  V30 489 H 38.8459 4.95543 5.7094 0
M  V30 490 H 40.1139 4.1592 6.59266 0
M  V30 491 N 44.343 -0.763751 1.37857 0
M  V30 492 C 45.759 -1.06542 1.18832 0
M  V30 493 C 45.959 -2.01478 0.0299722 0
M  V30 494 O 45.015 -2.4458 -0.627447 0
M  V30 495 C 46.328 -1.65525 2.51042 0
M  V30 496 C 47.876 -1.77745 2.57635 0
M  V30 497 C 48.351 -2.4014 3.89996 0
M  V30 498 N 49.842 -2.47582 3.91481 0
M  V30 499 C 50.577 -2.96732 4.9065 0
M  V30 500 N 50.073 -3.45993 6.00217 0
M  V30 501 N 51.866 -2.95679 4.78048 0
M  V30 502 H 44.017 -0.133556 2.1198 0
M  V30 503 H 46.28 -0.121879 0.940133 0
M  V30 504 H 45.986 -1.03236 3.36207 0
M  V30 505 H 45.86 -2.64719 2.68707 0
M  V30 506 H 48.247 -2.39164 1.72872 0
M  V30 507 H 48.328 -0.772836 2.43846 0
M  V30 508 H 47.972 -1.79358 4.75177 0
M  V30 509 H 47.902 -3.41223 4.01092 0
M  V30 510 H 50.393 -2.1273 3.12337 0
M  V30 511 H 50.706 -3.81922 6.7183 0
M  V30 512 H 49.051 -3.44077 6.03851 0
M  V30 513 H 52.242 -2.56499 3.91568 0
M  V30 514 H 52.415 -3.33672 5.55488 0
M  V30 515 N 45.8211 -1.22559 -0.990812 0
M  V30 516 C 47.2371 -0.985996 -1.255 0
M  V30 517 C 47.4371 0.319173 -1.98956 0
M  V30 518 O 46.4931 1.04127 -2.3003 0
M  V30 519 C 47.8061 -2.18607 -2.06474 0
M  V30 520 C 49.3541 -2.22985 -2.19651 0
M  V30 521 C 49.8291 -3.4255 -3.04012 0
M  V30 522 N 51.3201 -3.42725 -3.11599 0
M  V30 523 C 52.0551 -4.31892 -3.7717 0
M  V30 524 N 51.5511 -5.31279 -4.44651 0
M  V30 525 N 53.3441 -4.19662 -3.73952 0
M  V30 526 H 45.4951 -2.06469 -0.49841 0
M  V30 527 H 47.7581 -0.904853 -0.282747 0
M  V30 528 H 47.4641 -3.13267 -1.59865 0
M  V30 529 H 47.3381 -2.18838 -3.07229 0
M  V30 530 H 49.7251 -1.28871 -2.65474 0
M  V30 531 H 49.8061 -2.26791 -1.18319 0
M  V30 532 H 49.4501 -4.36965 -2.58889 0
M  V30 533 H 49.3801 -3.35984 -4.0549 0
M  V30 534 H 51.8711 -2.70807 -2.63575 0
M  V30 535 H 52.1841 -5.95593 -4.92431 0
M  V30 536 H 50.5291 -5.3519 -4.43392 0
M  V30 537 H 53.7201 -3.41268 -3.20396 0
M  V30 538 H 53.8931 -4.89358 -4.24774 0
M  V30 539 N 47.2992 1.18797 -1.03562 0
M  V30 540 C 48.2092 2.25913 -0.632505 0
M  V30 541 C 49.2252 1.70668 0.338882 0
M  V30 542 O 50.4012 2.00453 0.195076 0
M  V30 543 C 47.4662 3.467 0.00350942 0
M  V30 544 C 46.5272 4.17098 -1.01624 0
M  V30 545 C 45.7602 5.32119 -0.410478 0
M  V30 546 O 45.9832 5.64976 0.784725 0
M  V30 547 O 44.9172 5.9107 -1.13667 0
M  V30 548 H 48.7432 2.62648 -1.52478 0
M  V30 549 H 46.3282 1.25781 -0.806195 0
M  V30 550 H 48.2102 4.19878 0.35781 0
M  V30 551 H 46.8852 3.11798 0.869686 0
M  V30 552 H 45.7922 3.4601 -1.42224 0
M  V30 553 H 47.1252 4.55987 -1.85301 0
M  V30 554 N 48.7773 0.814389 1.34928 0
M  V30 555 C 50.1933 0.499084 1.51596 0
M  V30 556 C 50.3933 -0.978319 1.76157 0
M  V30 557 O 49.4493 -1.76309 1.80752 0
M  V30 558 C 50.7623 1.35121 2.68631 0
M  V30 559 C 52.3103 1.34746 2.82511 0
M  V30 560 C 52.7853 2.18388 4.0258 0
M  V30 561 N 54.2763 2.15966 4.09772 0
M  V30 562 C 55.0113 2.77437 5.01813 0
M  V30 563 N 54.5073 3.47866 5.99134 0
M  V30 564 N 56.3003 2.67037 4.94619 0
M  V30 565 H 48.4513 1.7711 1.17243 0
M  V30 566 H 50.7143 0.754256 0.574284 0
M  V30 567 H 50.4203 2.40001 2.57085 0
M  V30 568 H 50.2943 1.00991 3.63429 0
M  V30 569 H 52.6813 0.30648 2.93504 0
M  V30 570 H 52.7623 1.72869 1.88547 0
M  V30 571 H 52.4063 3.2253 3.92347 0
M  V30 572 H 52.3363 1.77621 4.9574 0
M  V30 573 H 54.8273 1.64729 3.40107 0
M  V30 574 H 55.1403 3.92038 6.65977 0
M  V30 575 H 53.4853 3.51972 5.99284 0
M  V30 576 H 56.6763 2.11597 4.17546 0
M  V30 577 H 56.8493 3.15232 5.66156 0
M  V30 578 N 50.2554 -1.46986 0.568584 0
M  V30 579 C 51.1874 -2.28233 -0.210337 0
M  V30 580 C 52.2004 -1.37682 -0.868767 0
M  V30 581 O 53.3894 -1.62406 -0.740705 0
M  V30 582 C 50.4894 -3.12293 -1.3163 0
M  V30 583 C 49.6624 -4.30878 -0.7525 0
M  V30 584 C 48.7214 -4.96445 -1.74439 0
M  V30 585 O 47.7474 -5.54482 -1.286 0
M  V30 586 N 48.9494 -4.92171 -3.07812 0
M  V30 587 H 51.7144 -2.95723 0.486648 0
M  V30 588 H 49.2754 -1.56742 0.405409 0
M  V30 589 H 51.2674 -3.53022 -1.97883 0
M  V30 590 H 49.8374 -2.46971 -1.91636 0
M  V30 591 H 49.0574 -3.94104 0.0871128 0
M  V30 592 H 50.3454 -5.07558 -0.35536 0
M  V30 593 H 49.7434 -4.46239 -3.47688 0
M  V30 594 H 48.3004 -5.36884 -3.69592 0
M  V30 595 N 51.7335 -0.305618 -1.54608 0
M  V30 596 C 52.6965 0.555591 -2.22364 0
M  V30 597 C 53.6965 1.05768 -1.21119 0
M  V30 598 O 54.8865 0.952972 -1.45822 0
M  V30 599 C 52.0185 1.76974 -2.91364 0
M  V30 600 H 53.2115 -0.0364572 -2.99878 0
M  V30 601 H 50.7645 -0.0565007 -1.56198 0
M  V30 602 H 51.4995 2.40151 -2.17941 0
M  V30 603 H 51.2845 1.41732 -3.65588 0
M  V30 604 H 52.7745 2.38148 -3.43038 0
M  V30 605 N 53.2116 1.57565 -0.0334293 0
M  V30 606 C 54.1746 2.09393 0.932048 0
M  V30 607 C 55.1746 1.00986 1.25134 0
M  V30 608 O 56.3646 1.27129 1.19096 0
M  V30 609 C 53.4966 2.56338 2.2473 0
M  V30 610 H 54.6896 2.95984 0.483085 0
M  V30 611 H 52.2426 1.54819 0.21468 0
M  V30 612 H 52.9776 1.7309 2.74245 0
M  V30 613 H 52.7626 3.35542 2.02865 0
M  V30 614 H 54.2526 2.96646 2.93923 0
M  V30 615 N 54.6897 -0.239769 1.55765 0
M  V30 616 C 55.6527 -1.28038 1.90103 0
M  V30 617 C 56.6527 -1.40723 0.778055 0
M  V30 618 O 57.8427 -1.39301 1.04599 0
M  V30 619 C 54.9747 -2.65702 2.13577 0
M  V30 620 H 56.1677 -0.988048 2.83157 0
M  V30 621 H 53.7207 -0.479382 1.48767 0
M  V30 622 H 54.4557 -3.00063 1.23015 0
M  V30 623 H 54.2407 -2.57875 2.95369 0
M  V30 624 H 55.7307 -3.40828 2.41301 0
M  V30 625 N 56.1678 -1.49265 -0.50573 0
M  V30 626 C 57.0998 -1.617 -1.62437 0
M  V30 627 C 58.1128 -0.499924 -1.54934 0
M  V30 628 O 59.3018 -0.771785 -1.60953 0
M  V30 629 C 56.4018 -1.5533 -3.01207 0
M  V30 630 C 55.5748 -2.8249 -3.33943 0
M  V30 631 C 54.6338 -2.69238 -4.52103 0
M  V30 632 O 53.6598 -3.43167 -4.5412 0
M  V30 633 N 54.8618 -1.80468 -5.51735 0
M  V30 634 H 57.6268 -2.58177 -1.52199 0
M  V30 635 H 55.1878 -1.46294 -0.693511 0
M  V30 636 H 57.1798 -1.44125 -3.78167 0
M  V30 637 H 55.7498 -0.667297 -3.05395 0
M  V30 638 H 54.9698 -3.08081 -2.45926 0
M  V30 639 H 56.2578 -3.66802 -3.5261 0
M  V30 640 H 55.6558 -1.19653 -5.52901 0
M  V30 641 H 54.2128 -1.75188 -6.27816 0
M  V30 642 N 57.6459 0.756429 -1.3826 0
M  V30 643 C 58.6089 1.85176 -1.35065 0
M  V30 644 C 59.6089 1.58818 -0.251703 0
M  V30 645 O 60.7989 1.66615 -0.508433 0
M  V30 646 C 57.9309 3.22596 -1.10201 0
M  V30 647 H 59.1239 1.89417 -2.3251 0
M  V30 648 H 56.6769 0.95783 -1.23512 0
M  V30 649 H 57.4119 3.24025 -0.133504 0
M  V30 650 H 57.1969 3.43122 -1.89762 0
M  V30 651 H 58.6869 4.02673 -1.10654 0
M  V30 652 N 59.124 1.23083 0.984299 0
M  V30 653 C 60.087 1.00979 2.05757 0
M  V30 654 C 61.087 -0.0269573 1.60777 0
M  V30 655 O 62.277 0.212403 1.729 0
M  V30 656 C 59.409 0.527072 3.36801 0
M  V30 657 H 60.602 1.9622 2.26799 0
M  V30 658 H 58.155 1.05072 1.15714 0
M  V30 659 H 58.89 -0.429294 3.21446 0
M  V30 660 H 58.675 1.27515 3.70786 0
M  V30 661 H 60.165 0.392942 4.15747 0
M  V30 662 N 60.6021 -1.18246 1.0419 0
M  V30 663 C 61.5651 -2.20128 0.638452 0
M  V30 664 C 62.5651 -1.57885 -0.304805 0
M  V30 665 O 63.7551 -1.73967 -0.0900369 0
M  V30 666 C 60.8871 -3.4084 -0.0637751 0
M  V30 667 H 62.0801 -2.57336 1.54007 0
M  V30 668 H 59.6331 -1.32152 0.834598 0
M  V30 669 H 60.3681 -3.09166 -0.979136 0
M  V30 670 H 60.1531 -3.8726 0.614198 0
M  V30 671 H 61.6431 -4.16274 -0.332512 0
M  V30 672 N 62.0802 -0.821533 -1.34494 0
M  V30 673 C 63.3282 -0.408139 -1.97936 0
M  V30 674 C 63.6492 1.03193 -1.65457 0
M  V30 675 O 62.9192 1.71622 -0.944595 0
M  V30 676 H 61.4992 -0.147928 -0.732206 0
M  V30 677 H 64.1612 -1.05067 -1.64155 0
M  V30 678 H 63.2572 -0.52601 -3.07635 0
M  V30 679 N 63.5583 1.46682 -0.576371 0
M  V30 680 C 64.8353 1.95599 0.00703437 0
M  V30 681 C 65.2153 1.51904 1.46589 0
M  V30 682 O 64.5633 0.766755 2.15251 0
M  V30 683 C 64.7733 3.4864 -0.158404 0
M  V30 684 C 66.1213 4.24594 -0.0229439 0
M  V30 685 O 67.1453 3.56094 -0.0869173 0
M  V30 686 O 66.0043 5.46373 0.118015 0
M  V30 687 H 63.0983 0.825275 0.053384 0
M  V30 688 H 65.6443 1.56996 -0.644244 0
M  V30 689 H 64.4163 3.7331 -1.17282 0
M  V30 690 H 64.0393 3.94057 0.5296 0
M  V30 691 N 65.0364 0.313813 1.54444 0
M  V30 692 C 66.2614 -0.296681 2.05267 0
M  V30 693 C 66.6864 -1.45757 1.18897 0
M  V30 694 O 66.0444 -1.80239 0.195886 0
M  V30 695 C 66.0924 -0.71831 3.53373 0
M  V30 696 O 65.1964 -1.82175 3.69981 0
M  V30 697 H 64.5374 -0.0554061 0.661684 0
M  V30 698 H 67.0674 0.459387 1.99376 0
M  V30 699 H 67.0774 -1.00364 3.95463 0
M  V30 700 H 65.7524 0.130821 4.15694 0
M  V30 701 H 64.3294 -1.53598 3.39797 0
M  V30 702 N 66.5145 -1.57545 0.0417849 0
M  V30 703 C 67.4445 -2.14009 -0.933929 0
M  V30 704 C 68.4255 -1.05938 -1.33083 0
M  V30 705 O 69.6105 -1.33833 -1.40721 0
M  V30 706 C 66.7405 -2.67747 -2.21199 0
M  V30 707 C 65.6945 -3.80718 -1.95544 0
M  V30 708 C 65.0205 -4.20935 -3.29724 0
M  V30 709 C 66.3205 -5.06258 -1.28452 0
M  V30 710 H 68.0145 -2.95788 -0.463645 0
M  V30 711 H 65.5605 -1.42285 -0.221573 0
M  V30 712 H 67.5135 -3.05886 -2.89848 0
M  V30 713 H 66.2375 -1.83147 -2.70416 0
M  V30 714 H 64.8965 -3.43037 -1.2931 0
M  V30 715 H 64.5445 -3.33298 -3.76724 0
M  V30 716 H 64.2445 -4.9707 -3.13361 0
M  V30 717 H 65.7685 -4.61666 -3.9962 0
M  V30 718 H 67.1825 -5.41903 -1.8712 0
M  V30 719 H 65.5795 -5.87475 -1.22445 0
M  V30 720 H 66.6495 -4.84207 -0.259219 0
M  V30 721 N 67.9926 0.231505 -1.5589 0
M  V30 722 C 69.2696 0.981096 -1.69215 0
M  V30 723 C 69.6496 2.02799 -0.586164 0
M  V30 724 O 68.9976 2.24823 0.408253 0
M  V30 725 C 69.2076 1.60054 -3.10135 0
M  V30 726 C 70.5556 2.09658 -3.69227 0
M  V30 727 O 71.5796 1.69967 -3.13033 0
M  V30 728 O 70.4386 2.8258 -4.67772 0
M  V30 729 H 67.5326 0.457653 -0.688827 0
M  V30 730 H 70.0786 0.224073 -1.68214 0
M  V30 731 H 68.8506 0.844105 -3.82087 0
M  V30 732 H 68.4736 2.42336 -3.15212 0
M  V30 733 N 69.4707 1.49531 0.497807 0
M  V30 734 C 70.4177 1.66436 1.59899 0
M  V30 735 C 71.3877 0.505793 1.58212 0
M  V30 736 O 72.5727 0.733202 1.7615 0
M  V30 737 C 69.7127 1.7399 2.98029 0
M  V30 738 C 68.8257 3.01172 3.09708 0
M  V30 739 C 67.9607 2.99686 4.38591 0
M  V30 740 C 66.9997 4.21434 4.43914 0
M  V30 741 N 66.1367 4.1784 5.64229 0
M  V30 742 H 70.9767 2.60459 1.44793 0
M  V30 743 H 68.5137 1.29137 0.704423 0
M  V30 744 H 70.4717 1.76352 3.78095 0
M  V30 745 H 69.1017 0.834301 3.11832 0
M  V30 746 H 68.1537 3.08408 2.22685 0
M  V30 747 H 69.4657 3.91165 3.09502 0
M  V30 748 H 68.6197 3.00628 5.2698 0
M  V30 749 H 67.3587 2.07477 4.41367 0
M  V30 750 H 66.3637 4.20733 3.53926 0
M  V30 751 H 67.5887 5.14839 4.42851 0
M  V30 752 H 65.5347 3.28469 5.67841 0
M  V30 753 H 65.4517 5.01571 5.65652 0
M  V30 754 H 66.7197 4.22889 6.54817 0
M  V30 755 N 70.9488 -0.749086 1.3866 0
M  V30 756 C 71.9118 -1.84457 1.36045 0
M  V30 757 C 72.9118 -1.58682 0.260122 0
M  V30 758 O 74.1018 -1.66343 0.517261 0
M  V30 759 C 71.2338 -3.22008 1.11911 0
M  V30 760 H 72.4268 -1.88182 2.33512 0
M  V30 761 H 69.9798 -0.951266 1.24019 0
M  V30 762 H 70.7148 -3.2395 0.150686 0
M  V30 763 H 70.4998 -3.42111 1.91579 0
M  V30 764 H 71.9898 -4.0208 1.12788 0
M  V30 765 N 72.4269 -1.23603 -0.977757 0
M  V30 766 C 73.6549 -1.09646 -1.75458 0
M  V30 767 C 74.0699 0.351859 -1.85492 0
M  V30 768 O 73.4269 1.24327 -1.336 0
M  V30 769 C 73.4779 -1.71895 -3.18016 0
M  V30 770 O 73.1989 -3.11063 -3.08498 0
M  V30 771 C 74.6999 -1.63415 -4.12081 0
M  V30 772 H 71.9199 -0.38359 -0.550545 0
M  V30 773 H 74.4639 -1.63507 -1.22824 0
M  V30 774 H 72.6189 -1.22061 -3.67668 0
M  V30 775 H 73.0329 -3.41305 -3.9826 0
M  V30 776 H 74.5069 -2.11669 -5.09804 0
M  V30 777 H 74.9839 -0.593462 -4.35172 0
M  V30 778 H 75.5899 -2.12628 -3.68334 0
M  V30 779 N 73.905 1.17692 -1.04816 0
M  V30 780 C 74.835 2.23777 -0.666791 0
M  V30 781 C 75.816 1.66796 0.33361 0
M  V30 782 O 77.001 1.93039 0.212042 0
M  V30 783 C 74.131 3.47281 -0.0367933 0
M  V30 784 C 73.085 4.17059 -0.961546 0
M  V30 785 C 72.411 5.34342 -0.195626 0
M  V30 786 C 73.711 4.69713 -2.28402 0
M  V30 787 H 75.405 2.55933 -1.55367 0
M  V30 788 H 72.951 1.23019 -0.748484 0
M  V30 789 H 74.904 4.20706 0.241775 0
M  V30 790 H 73.628 3.14381 0.885004 0
M  V30 791 H 72.287 3.45541 -1.22462 0
M  V30 792 H 71.935 4.97692 0.728816 0
M  V30 793 H 71.635 5.81966 -0.811775 0
M  V30 794 H 73.159 6.10553 0.0757473 0
M  V30 795 H 74.573 5.34794 -2.06563 0
M  V30 796 H 72.97 5.279 -2.8538 0
M  V30 797 H 74.04 3.86726 -2.92525 0
M  V30 798 N 75.3831 0.828654 1.34056 0
M  V30 799 C 76.3301 0.252567 2.29414 0
M  V30 800 C 77.3001 -0.62588 1.53857 0
M  V30 801 O 78.4851 -0.566312 1.82202 0
M  V30 802 C 75.6251 -0.574831 3.40279 0
M  V30 803 C 74.7381 0.326499 4.30764 0
M  V30 804 C 73.8731 -0.511016 5.28736 0
M  V30 805 C 72.9121 0.389342 6.1086 0
M  V30 806 N 72.0491 -0.409439 7.00905 0
M  V30 807 H 76.8891 1.07108 2.78086 0
M  V30 808 H 74.4261 0.539677 1.36843 0
M  V30 809 H 76.3841 -1.06992 4.03248 0
M  V30 810 H 75.0141 -1.35841 2.92826 0
M  V30 811 H 74.0661 0.939837 3.68607 0
M  V30 812 H 75.3781 1.01857 4.88289 0
M  V30 813 H 74.5321 -1.07035 5.97184 0
M  V30 814 H 73.2711 -1.23657 4.71763 0
M  V30 815 H 72.2761 0.960769 5.4134 0
M  V30 816 H 73.5011 1.1131 6.69916 0
M  V30 817 H 71.4471 -1.11856 6.46393 0
M  V30 818 H 71.3641 0.224126 7.55668 0
M  V30 819 H 72.6321 -0.951336 7.73673 0
M  V30 820 N 76.8612 -1.46375 0.584142 0
M  V30 821 C 77.8082 -2.30323 -0.148286 0
M  V30 822 C 78.7782 -1.40703 -0.882713 0
M  V30 823 O 79.9632 -1.69651 -0.873099 0
M  V30 824 C 77.1032 -3.25196 -1.15507 0
M  V30 825 C 76.2162 -4.29915 -0.423943 0
M  V30 826 C 75.3512 -5.11914 -1.41838 0
M  V30 827 C 74.3902 -6.08381 -0.673736 0
M  V30 828 N 73.5272 -6.83242 -1.6163 0
M  V30 829 H 78.3672 -2.92427 0.573644 0
M  V30 830 H 75.9042 -1.44118 0.294703 0
M  V30 831 H 77.8622 -3.78646 -1.75166 0
M  V30 832 H 76.4922 -2.64898 -1.8447 0
M  V30 833 H 75.5442 -3.7931 0.287714 0
M  V30 834 H 76.8562 -4.98549 0.158128 0
M  V30 835 H 76.0102 -5.69648 -2.08773 0
M  V30 836 H 74.7492 -4.43243 -2.03438 0
M  V30 837 H 73.7542 -5.49799 0.00938483 0
M  V30 838 H 74.9792 -6.79071 -0.0631082 0
M  V30 839 H 72.9252 -6.1728 -2.22038 0
M  V30 840 H 72.8422 -7.48144 -1.08707 0
M  V30 841 H 74.1102 -7.45534 -2.27596 0
M  V30 842 N 78.3393 -0.321999 -1.54275 0
M  V30 843 C 79.5853 0.281461 -2.00837 0
M  V30 844 C 79.9183 1.51909 -1.20985 0
M  V30 845 O 79.1933 1.923 -0.291733 0
M  V30 846 C 79.4763 0.617162 -3.54772 0
M  V30 847 C 79.3293 -0.631064 -4.45351 0
M  V30 848 C 80.6483 1.43542 -4.16033 0
M  V30 849 H 77.7673 0.100826 -0.730071 0
M  V30 850 H 80.4093 -0.438268 -1.84876 0
M  V30 851 H 78.5593 1.23034 -3.68504 0
M  V30 852 H 80.2313 -1.26934 -4.43492 0
M  V30 853 H 78.4743 -1.26025 -4.15091 0
M  V30 854 H 79.1453 -0.351735 -5.50878 0
M  V30 855 H 81.6213 0.917134 -4.05867 0
M  V30 856 H 80.4973 1.63907 -5.23856 0
M  V30 857 H 80.7583 2.43108 -3.69257 0
M  V30 858 N 79.8174 1.5752 -0.0501392 0
M  V30 859 C 80.7804 2.1037 0.909786 0
M  V30 860 C 81.7804 1.02308 1.24056 0
M  V30 861 O 82.9704 1.28385 1.17741 0
M  V30 862 C 80.1024 2.58708 2.21998 0
M  V30 863 H 81.2954 2.96479 0.451665 0
M  V30 864 H 78.8484 1.55038 0.198248 0
M  V30 865 H 79.5834 1.75989 2.72394 0
M  V30 866 H 79.3684 3.37675 1.99295 0
M  V30 867 H 80.8584 2.99747 2.9076 0
M  V30 868 N 81.2955 -0.223234 1.56011 0
M  V30 869 C 82.7065 -0.790368 1.69145 0
M  V30 870 C 83.0575 -1.85055 0.651845 0
M  V30 871 O 82.1825 -2.15498 -0.197359 0
M  V30 872 C 82.7775 -1.4404 3.06656 0
M  V30 873 C 81.3365 -1.95494 3.2165 0
M  V30 874 C 80.4835 -0.814506 2.65068 0
M  V30 875 H 83.4345 0.00139011 1.587 0
M  V30 876 H 83.4555 -2.30916 3.0242 0
M  V30 877 H 82.9675 -0.668543 3.82298 0
M  V30 878 H 81.0685 -2.75487 2.50874 0
M  V30 879 H 81.1815 -2.13607 4.28846 0
M  V30 880 H 79.5455 -1.22137 2.23505 0
M  V30 881 H 80.3285 -0.0553515 3.43255 0
M  V30 882 N 82.7736 -1.49793 -0.48987 0
M  V30 883 C 83.7206 -1.67281 -1.59014 0
M  V30 884 C 84.6906 -0.514177 -1.57941 0
M  V30 885 O 85.8756 -0.742533 -1.75759 0
M  V30 886 C 83.0156 -1.75569 -2.97102 0
M  V30 887 C 82.1286 -3.0281 -3.08107 0
M  V30 888 C 81.2636 -3.02008 -4.36995 0
M  V30 889 C 80.3026 -4.23782 -4.41673 0
M  V30 890 N 79.4396 -4.20826 -5.62005 0
M  V30 891 H 84.2796 -2.61224 -1.43409 0
M  V30 892 H 81.8166 -1.29508 -0.697565 0
M  V30 893 H 83.7746 -1.78354 -3.77155 0
M  V30 894 H 82.4046 -0.850827 -3.11385 0
M  V30 895 H 81.4566 -3.09584 -2.21047 0
M  V30 896 H 82.7686 -3.92801 -3.07423 0
M  V30 897 H 81.9226 -3.03418 -5.25378 0
M  V30 898 H 80.6616 -2.09815 -4.4026 0
M  V30 899 H 79.6666 -4.22604 -3.5169 0
M  V30 900 H 80.8916 -5.17181 -4.40115 0
M  V30 901 H 78.8376 -3.31476 -5.66091 0
M  V30 902 H 78.7546 -5.04564 -5.62984 0
M  V30 903 H 80.0226 -4.26355 -6.52565 0
M  V30 904 N 84.2517 0.741722 -1.39055 0
M  V30 905 C 85.6627 1.31966 -1.32068 0
M  V30 906 C 86.0137 1.96192 0.0180797 0
M  V30 907 O 85.1387 1.95861 0.920196 0
M  V30 908 C 85.7337 2.39954 -2.39181 0
M  V30 909 C 84.2927 2.93438 -2.35735 0
M  V30 910 C 83.4397 1.66936 -2.21422 0
M  V30 911 H 86.3907 0.539721 -1.4924 0
M  V30 912 H 86.4117 3.20182 -2.05581 0
M  V30 913 H 85.9237 1.9318 -3.36605 0
M  V30 914 H 84.0247 3.4451 -1.41929 0
M  V30 915 H 84.1377 3.4701 -3.30335 0
M  V30 916 H 82.5017 1.91016 -1.68478 0
M  V30 917 H 83.2847 1.22224 -3.20806 0
M  V30 918 N 85.7298 1.2412 0.971189 0
M  V30 919 C 86.9778 1.07668 1.71032 0
M  V30 920 C 87.2988 -0.385797 1.91146 0
M  V30 921 O 86.5688 -1.27569 1.4867 0
M  V30 922 H 85.1488 0.395429 0.633755 0
M  V30 923 H 87.8108 1.55984 1.16855 0
M  V30 924 H 86.9068 1.57195 2.69622 0
M  V30 925 N 87.2079 -1.17134 1.05439 0
M  V30 926 C 88.4539 -1.87979 0.776872 0
M  V30 927 C 88.8089 -1.7965 -0.688751 0
M  V30 928 O 88.1019 -1.19535 -1.4974 0
M  V30 929 C 88.2959 -3.36833 1.19491 0
M  V30 930 C 88.1249 -3.59653 2.69963 0
M  V30 931 C 86.8949 -3.76234 3.37307 0
M  V30 932 C 89.0929 -3.59091 3.68182 0
M  V30 933 N 87.0749 -3.86922 4.76618 0
M  V30 934 C 88.4459 -3.75659 4.93235 0
M  V30 935 C 90.5009 -3.42255 3.61616 0
M  V30 936 C 89.2039 -3.77133 6.12506 0
M  V30 937 C 91.2299 -3.45018 4.8033 0
M  V30 938 C 90.5919 -3.62096 6.04207 0
M  V30 939 H 86.6909 -0.705876 0.336546 0
M  V30 940 H 89.2749 -1.40602 1.34682 0
M  V30 941 H 87.4459 -3.82873 0.652884 0
M  V30 942 H 89.1779 -3.95305 0.866966 0
M  V30 943 H 85.9329 -3.76193 2.87708 0
M  V30 944 H 86.3569 -3.96055 5.49062 0
M  V30 945 H 90.9989 -3.27986 2.66805 0
M  V30 946 H 88.7169 -3.90186 7.07659 0
M  V30 947 H 92.3029 -3.33246 4.76905 0
M  V30 948 H 91.1829 -3.64142 6.94529 0
M  V30 949 N 88.686 -0.835752 -1.33615 0
M  V30 950 C 89.616 -0.281739 -2.31794 0
M  V30 951 C 90.597 0.608833 -1.58831 0
M  V30 952 O 91.782 0.533035 -1.86741 0
M  V30 953 C 88.912 0.546612 -3.42971 0
M  V30 954 C 87.866 -0.247904 -4.27281 0
M  V30 955 C 87.192 0.704001 -5.30045 0
M  V30 956 C 88.492 -1.46324 -5.01385 0
M  V30 957 H 90.186 -1.10206 -2.78379 0
M  V30 958 H 87.732 -0.531388 -1.33837 0
M  V30 959 H 89.685 0.944467 -4.1068 0
M  V30 960 H 88.409 1.40011 -2.95067 0
M  V30 961 H 87.068 -0.627281 -3.61194 0
M  V30 962 H 86.716 1.55381 -4.78399 0
M  V30 963 H 86.416 0.176524 -5.87335 0
M  V30 964 H 87.94 1.09944 -6.0062 0
M  V30 965 H 89.354 -1.13871 -5.61877 0
M  V30 966 H 87.751 -1.92728 -5.6831 0
M  V30 967 H 88.821 -2.23467 -4.30338 0
M  V30 968 N 90.1641 1.46063 -0.591896 0
M  V30 969 C 91.0741 2.34192 0.13831 0
M  V30 970 C 92.0901 1.50305 0.876608 0
M  V30 971 O 93.2661 1.8315 0.837728 0
M  V30 972 C 90.3311 3.27656 1.13326 0
M  V30 973 C 89.3921 4.27445 0.39863 0
M  V30 974 C 88.6251 5.16443 1.34618 0
M  V30 975 O 88.8481 5.08553 2.58321 0
M  V30 976 O 87.7821 5.95843 0.851768 0
M  V30 977 H 91.6081 2.98002 -0.58552 0
M  V30 978 H 89.1931 1.45188 -0.352239 0
M  V30 979 H 91.0751 3.85291 1.70671 0
M  V30 980 H 89.7501 2.6643 1.83839 0
M  V30 981 H 88.6571 3.73471 -0.216895 0
M  V30 982 H 89.9901 4.91482 -0.265709 0
M  V30 983 N 91.6422 0.330177 1.54103 0
M  V30 984 C 92.8702 -0.272179 2.05102 0
M  V30 985 C 93.2852 -1.45267 1.20595 0
M  V30 986 O 92.6422 -1.8094 0.238144 0
M  V30 987 C 92.6932 -0.70023 3.54653 0
M  V30 988 O 92.4142 0.433301 4.35952 0
M  V30 989 C 93.9152 -1.3647 4.21771 0
M  V30 990 H 91.1352 -0.0549159 0.668749 0
M  V30 991 H 93.6792 0.478285 1.98828 0
M  V30 992 H 91.8342 -1.40066 3.61193 0
M  V30 993 H 92.2482 0.0947539 5.24414 0
M  V30 994 H 93.7222 -1.61509 5.27843 0
M  V30 995 H 94.1992 -2.31409 3.73292 0
M  V30 996 H 94.8052 -0.706675 4.19388 0
M  V30 997 N 93.1203 -1.57491 0.0584922 0
M  V30 998 C 94.3683 -1.92597 -0.612436 0
M  V30 999 C 94.6893 -0.938162 -1.70949 0
M  V30 1000 O 93.9593 0.0158301 -1.95894 0
M  V30 1001 H 92.5393 -0.710964 -0.229214 0
M  V30 1002 H 95.2013 -1.94571 0.113218 0
M  V30 1003 H 94.2973 -2.94038 -1.04633 0
M  V30 1004 N 94.5984 0.214957 -1.56127 0
M  V30 1005 C 95.5614 1.24997 -1.92116 0
M  V30 1006 C 96.5614 1.39467 -0.800344 0
M  V30 1007 O 97.7514 1.37619 -1.06802 0
M  V30 1008 C 94.8834 2.62271 -2.17777 0
M  V30 1009 H 96.0764 0.942875 -2.84693 0
M  V30 1010 H 93.6294 0.455654 -1.49511 0
M  V30 1011 H 94.3644 2.98068 -1.27773 0
M  V30 1012 H 94.1494 2.53143 -2.99434 0
M  V30 1013 H 95.6394 3.36946 -2.46693 0
M  V30 1014 N 96.0765 1.50051 0.48192 0
M  V30 1015 C 97.3015 1.64508 1.26301 0
M  V30 1016 C 97.7265 0.323851 1.85291 0
M  V30 1017 O 97.0845 -0.710969 1.66778 0
M  V30 1018 C 97.1325 2.7305 2.35533 0
M  V30 1019 O 96.2365 2.3355 3.39895 0
M  V30 1020 H 95.5775 0.549978 0.372048 0
M  V30 1021 H 98.1075 1.9636 0.574786 0
M  V30 1022 H 98.1175 2.95799 2.8101 0
M  V30 1023 H 96.7925 3.68946 1.91967 0
M  V30 1024 H 95.3695 2.21205 3.00204 0
M  V30 1025 N 97.5546 -0.734337 1.39446 0
M  V30 1026 C 98.8006 -1.49613 1.36908 0
M  V30 1027 C 99.1336 -1.94169 -0.0347829 0
M  V30 1028 O 98.4086 -1.66833 -0.999847 0
M  V30 1029 C 98.6916 -2.73534 2.34203 0
M  V30 1030 C 98.5446 -2.34993 3.83534 0
M  V30 1031 C 99.8636 -3.75635 2.29317 0
M  V30 1032 H 96.9826 -0.542714 0.498629 0
M  V30 1033 H 99.6246 -0.839597 1.70443 0
M  V30 1034 H 97.7746 -3.29553 2.05736 0
M  V30 1035 H 99.4466 -1.84601 4.22753 0
M  V30 1036 H 97.6896 -1.67213 4.00278 0
M  V30 1037 H 98.3606 -3.23738 4.47099 0
M  V30 1038 H 100.837 -3.29203 2.54489 0
M  V30 1039 H 99.7126 -4.60008 2.99472 0
M  V30 1040 H 99.9736 -4.22603 1.29842 0
M  V30 1041 N 99.0327 -1.24633 -0.964593 0
M  V30 1042 C 100.28 -1.08788 -1.70796 0
M  V30 1043 C 100.608 0.372783 -1.90894 0
M  V30 1044 O 99.8627 1.29167 -1.47018 0
M  V30 1045 C 100.162 -1.7763 -3.10133 0
M  V30 1046 C 99.8277 -3.27557 -3.09866 0
M  V30 1047 C 98.4897 -3.6846 -3.09501 0
M  V30 1048 C 100.842 -4.23389 -3.03959 0
M  V30 1049 C 98.1697 -5.03624 -3.00965 0
M  V30 1050 C 100.522 -5.58565 -2.96965 0
M  V30 1051 C 99.1857 -5.98809 -2.9493 0
M  V30 1052 H 98.4557 -0.398084 -0.624988 0
M  V30 1053 H 101.103 -1.54777 -1.12767 0
M  V30 1054 H 99.4077 -1.24044 -3.71645 0
M  V30 1055 H 101.105 -1.62832 -3.66451 0
M  V30 1056 H 97.6947 -2.95006 -3.10917 0
M  V30 1057 H 101.879 -3.92787 -3.03368 0
M  V30 1058 H 97.1347 -5.33998 -2.97752 0
M  V30 1059 H 101.309 -6.32523 -2.91354 0
M  V30 1060 H 98.9357 -7.03505 -2.88071 0
M  V30 1061 N 100.511 1.16574 -1.06058 0
M  V30 1062 C 101.922 1.68662 -0.800632 0
M  V30 1063 C 102.273 1.84184 0.67608 0
M  V30 1064 O 101.398 1.53568 1.52466 0
M  V30 1065 C 101.993 3.06356 -1.44676 0
M  V30 1066 C 100.552 3.55575 -1.23465 0
M  V30 1067 C 99.6988 2.31616 -1.52477 0
M  V30 1068 H 102.65 1.00969 -1.22438 0
M  V30 1069 H 102.671 3.70636 -0.860788 0
M  V30 1070 H 102.183 2.95027 -2.52152 0
M  V30 1071 H 100.284 3.72167 -0.179527 0
M  V30 1072 H 100.397 4.37812 -1.94571 0
M  V30 1073 H 98.7608 2.36512 -0.945209 0
M  V30 1074 H 99.5438 2.22887 -2.61106 0
M  V30 1075 N 101.989 0.842826 1.3317 0
M  V30 1076 C 103.235 0.441099 1.97945 0
M  V30 1077 C 103.568 -0.998024 1.66593 0
M  V30 1078 O 102.843 -1.69839 0.947898 0
M  V30 1079 C 103.126 0.666841 3.53872 0
M  V30 1080 C 102.979 2.15352 3.94897 0
M  V30 1081 C 104.298 0.115544 4.39948 0
M  V30 1082 H 101.417 0.161739 0.719034 0
M  V30 1083 H 104.059 1.05907 1.57746 0
M  V30 1084 H 102.209 0.140828 3.88245 0
M  V30 1085 H 103.881 2.7447 3.70761 0
M  V30 1086 H 102.124 2.63653 3.44484 0
M  V30 1087 H 102.795 2.26221 5.03516 0
M  V30 1088 H 105.271 0.565213 4.12243 0
M  V30 1089 H 104.147 0.303152 5.48062 0
M  V30 1090 H 104.408 -0.980935 4.3108 0
M  V30 1091 N 103.467 -1.45747 0.599634 0
M  V30 1092 C 104.397 -2.33235 -0.111306 0
M  V30 1093 C 105.378 -1.46359 -0.866781 0
M  V30 1094 O 106.563 -1.75146 -0.838904 0
M  V30 1095 C 103.693 -3.28932 -1.11451 0
M  V30 1096 C 102.647 -4.25381 -0.472772 0
M  V30 1097 C 101.973 -5.1071 -1.58365 0
M  V30 1098 C 103.273 -5.18831 0.600948 0
M  V30 1099 H 104.967 -2.92927 0.61919 0
M  V30 1100 H 102.513 -1.40857 0.299215 0
M  V30 1101 H 104.466 -3.89002 -1.62036 0
M  V30 1102 H 103.19 -2.67381 -1.8755 0
M  V30 1103 H 101.849 -3.66598 0.0121472 0
M  V30 1104 H 101.497 -4.45533 -2.33473 0
M  V30 1105 H 101.197 -5.7604 -1.15982 0
M  V30 1106 H 102.721 -5.73647 -2.09194 0
M  V30 1107 H 104.135 -5.73019 0.179491 0
M  V30 1108 H 102.532 -5.92595 0.946076 0
M  V30 1109 H 103.602 -4.6174 1.48068 0
M  V30 1110 N 104.945 -0.338344 -1.53925 0
M  V30 1111 C 105.908 0.508299 -2.23493 0
M  V30 1112 C 106.908 1.03175 -1.23335 0
M  V30 1113 O 108.098 0.921826 -1.47811 0
M  V30 1114 C 105.23 1.70754 -2.95052 0
M  V30 1115 H 106.423 -0.100058 -2.99733 0
M  V30 1116 H 103.976 -0.0896198 -1.56043 0
M  V30 1117 H 104.711 2.35474 -2.22986 0
M  V30 1118 H 104.496 1.33946 -3.68512 0
M  V30 1119 H 105.986 2.30818 -3.48013 0
M  V30 1120 N 106.423 1.57458 -0.0668435 0
M  V30 1121 C 107.672 1.92477 0.602947 0
M  V30 1122 C 107.985 0.948419 1.71068 0
M  V30 1123 O 109.191 1.19124 2.43971 0
M  V30 1124 C 107.647 3.41903 1.12383 0
M  V30 1125 C 107.255 4.47975 0.04737 0
M  V30 1126 C 108.999 3.85931 1.76797 0
M  V30 1127 C 106.906 5.88529 0.582022 0
M  V30 1128 H 105.836 0.718387 0.22899 0
M  V30 1129 H 108.487 1.82978 -0.138276 0
M  V30 1130 H 106.869 3.46459 1.91787 0
M  V30 1131 H 108.043 4.55029 -0.726978 0
M  V30 1132 H 106.358 4.13384 -0.500243 0
M  V30 1133 H 108.955 4.88322 2.17821 0
M  V30 1134 H 109.298 3.23029 2.62599 0
M  V30 1135 H 109.831 3.83958 1.04024 0
M  V30 1136 H 106.57 6.55065 -0.238721 0
M  V30 1137 H 106.09 5.85004 1.324 0
M  V30 1138 H 107.769 6.38258 1.05999 0
M  V30 1139 N 107.901 -0.206675 1.56239 0
M  V30 1140 C 109.147 -0.930218 1.80208 0
M  V30 1141 C 109.48 -1.83387 0.638981 0
M  V30 1142 O 108.755 -1.91119 -0.361066 0
M  V30 1143 C 109.038 -1.75641 3.1436 0
M  V30 1144 C 108.891 -0.878257 4.41142 0
M  V30 1145 C 110.21 -2.73129 3.45092 0
M  V30 1146 H 107.329 -0.336742 0.655571 0
M  V30 1147 H 109.971 -0.198222 1.88963 0
M  V30 1148 H 108.121 -2.38048 3.07027 0
M  V30 1149 H 109.793 -0.269787 4.6051 0
M  V30 1150 H 108.036 -0.184385 4.33408 0
M  V30 1151 H 108.707 -1.49106 5.3148 0
M  V30 1152 H 111.183 -2.20856 3.52649 0
M  V30 1153 H 110.059 -3.28028 4.40101 0
M  V30 1154 H 110.32 -3.51606 2.68003 0
M  V30 1155 N 109.379 -1.50304 -0.473955 0
M  V30 1156 C 110.309 -1.71886 -1.58042 0
M  V30 1157 C 111.29 -0.567799 -1.60344 0
M  V30 1158 O 112.475 -0.806623 -1.76656 0
M  V30 1159 C 109.605 -1.81036 -2.96384 0
M  V30 1160 C 108.559 -2.962 -3.08949 0
M  V30 1161 C 107.885 -2.9049 -4.48909 0
M  V30 1162 C 109.185 -4.36752 -2.86434 0
M  V30 1163 H 110.879 -2.64527 -1.40234 0
M  V30 1164 H 108.425 -1.27295 -0.673201 0
M  V30 1165 H 110.378 -1.94719 -3.73714 0
M  V30 1166 H 109.102 -0.850147 -3.15341 0
M  V30 1167 H 107.761 -2.82164 -2.3405 0
M  V30 1168 H 107.409 -1.92321 -4.64781 0
M  V30 1169 H 107.109 -3.67802 -4.58253 0
M  V30 1170 H 108.633 -3.06218 -5.28264 0
M  V30 1171 H 110.047 -4.5133 -3.53517 0
M  V30 1172 H 108.444 -5.15493 -3.07225 0
M  V30 1173 H 109.514 -4.49321 -1.82316 0
M  V30 1174 N 110.857 0.726932 -1.39834 0
M  V30 1175 C 112.106 1.48214 -1.36805 0
M  V30 1176 C 112.419 1.95576 0.0305291 0
M  V30 1177 O 113.625 2.7088 0.183417 0
M  V30 1178 C 112.081 2.67854 -2.40379 0
M  V30 1179 C 111.689 2.27408 -3.85992 0
M  V30 1180 C 113.433 3.45641 -2.46439 0
M  V30 1181 C 111.34 3.43819 -4.81189 0
M  V30 1182 H 110.27 0.556606 -0.508631 0
M  V30 1183 H 112.921 0.792216 -1.65518 0
M  V30 1184 H 111.303 3.3896 -2.04749 0
M  V30 1185 H 112.477 1.63795 -4.30706 0
M  V30 1186 H 110.792 1.62692 -3.83302 0
M  V30 1187 H 113.389 4.32244 -3.14753 0
M  V30 1188 H 113.732 3.88669 -1.49139 0
M  V30 1189 H 114.265 2.8157 -2.81004 0
M  V30 1190 H 111.004 3.05834 -5.79781 0
M  V30 1191 H 110.524 4.06385 -4.41148 0
M  V30 1192 H 112.203 4.10043 -5.00474 0
M  V30 1193 N 112.336 1.25143 0.95797 0
M  V30 1194 C 113.582 1.09855 1.70469 0
M  V30 1195 C 113.915 -0.360187 1.90831 0
M  V30 1196 O 113.19 -1.26568 1.47685 0
M  V30 1197 C 113.473 1.8497 3.08963 0
M  V30 1198 C 113.326 3.38652 2.96032 0
M  V30 1199 C 114.645 1.63016 4.08795 0
M  V30 1200 H 111.764 0.400465 0.618706 0
M  V30 1201 H 114.406 1.53933 1.11376 0
M  V30 1202 H 112.556 1.47505 3.59409 0
M  V30 1203 H 114.228 3.85772 2.52938 0
M  V30 1204 H 112.471 3.66534 2.32025 0
M  V30 1205 H 113.142 3.8642 3.94187 0
M  V30 1206 H 115.618 1.95625 3.67247 0
M  V30 1207 H 114.494 2.18015 5.03747 0
M  V30 1208 H 114.755 0.570692 4.38401 0
M  V30 1209 N 113.814 -1.1601 1.06675 0
M  V30 1210 C 115.23 -1.38622 0.790948 0
M  V30 1211 C 115.43 -1.92109 -0.607965 0
M  V30 1212 O 114.486 -2.12239 -1.36787 0
M  V30 1213 C 115.799 -2.36347 1.85905 0
M  V30 1214 C 117.347 -2.50023 1.88301 0
M  V30 1215 C 117.822 -3.51033 2.94176 0
M  V30 1216 N 119.313 -3.58563 2.93235 0
M  V30 1217 C 120.048 -4.36521 3.71803 0
M  V30 1218 N 119.544 -5.17869 4.602 0
M  V30 1219 N 121.337 -4.31541 3.60178 0
M  V30 1220 H 113.488 -0.796294 1.96908 0
M  V30 1221 H 115.751 -0.412597 0.853503 0
M  V30 1222 H 115.457 -2.04147 2.86386 0
M  V30 1223 H 115.331 -3.36042 1.71334 0
M  V30 1224 H 117.718 -2.81524 0.884769 0
M  V30 1225 H 117.799 -1.5035 2.06951 0
M  V30 1226 H 117.443 -3.20268 3.94196 0
M  V30 1227 H 117.373 -4.50445 2.72776 0
M  V30 1228 H 119.864 -3.00496 2.29152 0
M  V30 1229 H 120.177 -5.74578 5.16797 0
M  V30 1230 H 118.522 -5.17199 4.64253 0
M  V30 1231 H 121.713 -3.67051 2.90502 0
M  V30 1232 H 121.886 -4.9205 4.21653 0
M  V30 1233 N 115.292 -0.849877 -1.32721 0
M  V30 1234 C 116.517 -0.463856 -2.02146 0
M  V30 1235 C 116.942 0.930449 -1.63476 0
M  V30 1236 O 116.3 1.61033 -0.832952 0
M  V30 1237 C 116.348 -0.604955 -3.55489 0
M  V30 1238 O 115.452 0.36425 -4.10788 0
M  V30 1239 H 114.793 -0.187046 -0.637111 0
M  V30 1240 H 117.323 -1.14775 -1.69375 0
M  V30 1241 H 117.333 -0.490696 -4.05038 0
M  V30 1242 H 116.008 -1.62174 -3.82978 0
M  V30 1243 H 114.585 0.206628 -3.72327 0
M  V30 1244 N 116.77 1.45427 -0.607355 0
M  V30 1245 C 118.017 2.02241 -0.102455 0
M  V30 1246 C 118.345 1.4758 1.26691 0
M  V30 1247 O 117.6 0.640468 1.84923 0
M  V30 1248 C 117.899 3.57398 -0.0129263 0
M  V30 1249 C 117.565 4.3121 -1.31792 0
M  V30 1250 C 116.227 4.51092 -1.67539 0
M  V30 1251 C 118.579 4.73401 -2.18039 0
M  V30 1252 C 115.907 5.10422 -2.89285 0
M  V30 1253 C 118.259 5.34078 -3.39034 0
M  V30 1254 C 116.923 5.52184 -3.75033 0
M  V30 1255 H 116.193 0.740051 -0.037491 0
M  V30 1256 H 118.84 1.74494 -0.788926 0
M  V30 1257 H 117.145 3.84421 0.756806 0
M  V30 1258 H 118.842 3.99061 0.393881 0
M  V30 1259 H 115.432 4.16047 -1.02968 0
M  V30 1260 H 119.616 4.57774 -1.91721 0
M  V30 1261 H 114.872 5.22629 -3.17283 0
M  V30 1262 H 119.046 5.65724 -4.06115 0
M  V30 1263 H 116.673 5.97925 -4.69457 0
M  V30 1264 N 118.248 0.346503 1.53744 0
M  V30 1265 C 119.497 -0.250122 2.00143 0
M  V30 1266 C 119.81 -1.51418 1.23822 0
M  V30 1267 O 121.016 -2.18823 1.60713 0
M  V30 1268 C 119.472 -0.496252 3.56462 0
M  V30 1269 C 119.08 0.752077 4.41642 0
M  V30 1270 C 120.824 -1.05157 4.11269 0
M  V30 1271 C 118.731 0.476583 5.89477 0
M  V30 1272 H 117.661 -0.0972409 0.747703 0
M  V30 1273 H 120.312 0.46229 1.77581 0
M  V30 1274 H 118.694 -1.26944 3.75102 0
M  V30 1275 H 119.868 1.5266 4.34778 0
M  V30 1276 H 118.183 1.22925 3.97842 0
M  V30 1277 H 120.78 -1.27269 5.19333 0
M  V30 1278 H 121.123 -2.00799 3.64672 0
M  V30 1279 H 121.656 -0.339019 3.96353 0
M  V30 1280 H 118.395 1.4028 6.40314 0
M  V30 1281 H 117.915 -0.259794 5.99237 0
M  V30 1282 H 119.594 0.0949315 6.4693 0
M  V30 1283 N 119.726 -1.57421 0.075193 0
M  V30 1284 C 120.956 -1.97659 -0.601203 0
M  V30 1285 C 121.364 -0.952427 -1.63479 0
M  V30 1286 O 120.707 0.0688241 -1.83571 0
M  V30 1287 C 120.769 -3.34218 -1.32434 0
M  V30 1288 C 120.433 -4.5484 -0.443826 0
M  V30 1289 C 121.43 -5.19034 0.299969 0
M  V30 1290 C 119.115 -5.00952 -0.367709 0
M  V30 1291 C 121.109 -6.27695 1.10807 0
M  V30 1292 C 118.796 -6.09484 0.444058 0
M  V30 1293 C 119.794 -6.72719 1.18061 0
M  V30 1294 O 119.482 -7.79161 1.97898 0
M  V30 1295 H 119.214 -0.65494 -0.167422 0
M  V30 1296 H 121.768 -2.04886 0.145157 0
M  V30 1297 H 119.998 -3.23615 -2.11685 0
M  V30 1298 H 121.687 -3.59038 -1.89331 0
M  V30 1299 H 122.453 -4.84351 0.250776 0
M  V30 1300 H 118.332 -4.51509 -0.930638 0
M  V30 1301 H 121.876 -6.76982 1.68347 0
M  V30 1302 H 117.773 -6.43601 0.494803 0
M  V30 1303 H 118.541 -7.96055 1.90367 0
M  V30 1304 N 121.204 0.198386 -1.56346 0
M  V30 1305 C 122.114 1.2664 -1.97483 0
M  V30 1306 C 123.13 1.49989 -0.882002 0
M  V30 1307 O 124.306 1.62668 -1.18748 0
M  V30 1308 C 121.371 2.59141 -2.30319 0
M  V30 1309 C 120.432 2.43892 -3.53292 0
M  V30 1310 C 119.665 3.70074 -3.84553 0
M  V30 1311 O 119.888 4.74101 -3.1715 0
M  V30 1312 O 118.822 3.658 -4.7799 0
M  V30 1313 H 122.648 0.947304 -2.88548 0
M  V30 1314 H 120.233 0.403123 -1.43859 0
M  V30 1315 H 122.115 3.37352 -2.5253 0
M  V30 1316 H 120.79 2.90684 -1.42423 0
M  V30 1317 H 119.697 1.63803 -3.36332 0
M  V30 1318 H 121.03 2.17282 -4.41644 0
M  V30 1319 N 122.682 1.50554 0.465978 0
M  V30 1320 C 124.093 1.54599 1.04671 0
M  V30 1321 C 124.444 0.352488 1.93008 0
M  V30 1322 O 123.569 -0.534044 2.09707 0
M  V30 1323 C 124.164 2.80166 1.90505 0
M  V30 1324 C 122.723 2.86876 2.43678 0
M  V30 1325 C 121.87 2.48947 1.22151 0
M  V30 1326 H 124.821 1.56744 0.248384 0
M  V30 1327 H 124.842 2.62311 2.75633 0
M  V30 1328 H 124.354 3.67013 1.26186 0
M  V30 1329 H 122.455 2.04393 3.11536 0
M  V30 1330 H 122.568 3.89885 2.78436 0
M  V30 1331 H 120.932 2.01498 1.5579 0
M  V30 1332 H 121.715 3.38107 0.594866 0
M  V30 1333 N 124.16 -0.719506 1.40217 0
M  V30 1334 C 125.407 -1.47933 1.38283 0
M  V30 1335 C 125.735 -1.94493 -0.0161536 0
M  V30 1336 O 124.99 -1.68224 -0.999956 0
M  V30 1337 C 125.289 -2.72271 2.31524 0
M  V30 1338 C 124.955 -2.44496 3.78857 0
M  V30 1339 C 123.617 -2.36631 4.18998 0
M  V30 1340 C 125.969 -2.21104 4.71977 0
M  V30 1341 C 123.297 -2.03437 5.503 0
M  V30 1342 C 125.649 -1.89423 6.03574 0
M  V30 1343 C 124.313 -1.80038 6.42762 0
M  V30 1344 H 123.583 -0.541325 0.506012 0
M  V30 1345 H 126.23 -0.824502 1.72842 0
M  V30 1346 H 124.535 -3.42572 1.90137 0
M  V30 1347 H 126.232 -3.30348 2.27313 0
M  V30 1348 H 122.822 -2.51503 3.47051 0
M  V30 1349 H 127.006 -2.26139 4.41786 0
M  V30 1350 H 122.262 -1.94705 5.79569 0
M  V30 1351 H 126.436 -1.70336 6.75247 0
M  V30 1352 H 124.063 -1.54083 7.44421 0
M  V30 1353 N 125.638 -1.25649 -0.95132 0
M  V30 1354 C 126.57 -1.02112 -2.05197 0
M  V30 1355 C 127.583 0.0150571 -1.62793 0
M  V30 1356 O 128.772 -0.223874 -1.77091 0
M  V30 1357 C 125.872 -0.522361 -3.3485 0
M  V30 1358 C 125.045 -1.62546 -4.06076 0
M  V30 1359 C 124.104 -1.12649 -5.14001 0
M  V30 1360 O 123.13 -1.82156 -5.39266 0
M  V30 1361 N 124.332 0.03047 -5.80492 0
M  V30 1362 H 127.097 -1.96885 -2.25957 0
M  V30 1363 H 124.658 -1.16899 -1.1201 0
M  V30 1364 H 126.65 -0.172961 -4.0433 0
M  V30 1365 H 125.22 0.33151 -3.10837 0
M  V30 1366 H 124.44 -2.14628 -3.30649 0
M  V30 1367 H 125.728 -2.36644 -4.50419 0
M  V30 1368 H 125.126 0.611169 -5.62389 0
M  V30 1369 H 123.683 0.320875 -6.5101 0
M  V30 1370 N 127.117 1.15442 -1.07289 0
M  V30 1371 C 128.366 1.85557 -0.790669 0
M  V30 1372 C 128.679 1.83186 0.685739 0
M  V30 1373 O 129.885 2.48977 1.0827 0
M  V30 1374 C 128.341 3.33038 -1.36433 0
M  V30 1375 C 127.949 3.43856 -2.8717 0
M  V30 1376 C 129.693 4.0834 -1.1601 0
M  V30 1377 C 127.6 4.85482 -3.3773 0
M  V30 1378 H 126.53 0.695122 -0.292098 0
M  V30 1379 H 129.181 1.30219 -1.29287 0
M  V30 1380 H 127.563 3.88043 -0.789864 0
M  V30 1381 H 128.737 2.98961 -3.50655 0
M  V30 1382 H 127.052 2.81998 -3.06376 0
M  V30 1383 H 129.649 5.12859 -1.51262 0
M  V30 1384 H 129.992 4.16182 -0.0991007 0
M  V30 1385 H 130.525 3.59603 -1.70089 0
M  V30 1386 H 127.264 4.82823 -4.43353 0
M  V30 1387 H 126.784 5.30961 -2.78999 0
M  V30 1388 H 128.463 5.54335 -3.33648 0
M  V30 1389 N 128.595 0.856903 1.32268 0
M  V30 1390 C 130.006 0.515711 1.79436 0
M  V30 1391 C 130.357 -0.966586 1.70738 0
M  V30 1392 O 129.482 -1.75409 1.26731 0
M  V30 1393 C 130.077 0.929335 3.25805 0
M  V30 1394 C 128.636 0.640006 3.70919 0
M  V30 1395 C 127.783 1.12784 2.53328 0
M  V30 1396 H 130.734 1.04389 1.19535 0
M  V30 1397 H 130.755 0.246633 3.797 0
M  V30 1398 H 130.267 2.00821 3.32103 0
M  V30 1399 H 128.368 -0.428051 3.70133 0
M  V30 1400 H 128.481 1.20788 4.63624 0
M  V30 1401 H 126.845 0.548033 2.48734 0
M  V30 1402 H 127.628 2.21387 2.62379 0
M  V30 1403 N 130.073 -1.45103 0.615059 0
M  V30 1404 C 131.298 -2.07064 0.117988 0
M  V30 1405 C 131.723 -1.4554 -1.19163 0
M  V30 1406 O 131.081 -0.550855 -1.72729 0
M  V30 1407 C 131.129 -3.606 -0.000288387 0
M  V30 1408 O 130.233 -3.98847 -1.04856 0
M  V30 1409 H 129.574 -0.659467 0.0774581 0
M  V30 1410 H 132.104 -1.86236 0.847186 0
M  V30 1411 H 132.114 -4.07529 -0.196091 0
M  V30 1412 H 130.789 -4.04765 0.955932 0
M  V30 1413 H 129.366 -3.63577 -0.828619 0
M  V30 1414 N 131.551 -0.354651 -1.53558 0
M  V30 1415 C 132.799 0.237972 -2.00694 0
M  V30 1416 C 133.12 1.50173 -1.24391 0
M  V30 1417 O 132.39 1.92673 -0.354135 0
M  V30 1418 H 130.97 0.0909256 -0.741446 0
M  V30 1419 H 133.632 -0.478368 -1.88938 0
M  V30 1420 H 132.728 0.47264 -3.085 0
M  V30 1421 N 133.029 1.57378 -0.0835403 0
M  V30 1422 C 134.254 1.98682 0.594987 0
M  V30 1423 C 134.679 0.961969 1.61641 0
M  V30 1424 O 134.037 -0.0709989 1.81161 0
M  V30 1425 C 134.085 3.38988 1.2296 0
M  V30 1426 O 133.189 3.39208 2.34546 0
M  V30 1427 H 132.53 0.646368 0.152002 0
M  V30 1428 H 135.06 2.03961 -0.161533 0
M  V30 1429 H 135.07 3.76431 1.57366 0
M  V30 1430 H 133.745 4.13107 0.481228 0
M  V30 1431 H 132.322 3.13548 2.01846 0
M  V30 1432 N 134.507 -0.190092 1.56449 0
M  V30 1433 C 135.44 -1.26375 1.90012 0
M  V30 1434 C 136.418 -1.43705 0.760765 0
M  V30 1435 O 137.602 -1.59014 1.01226 0
M  V30 1436 C 134.729 -2.62962 2.13468 0
M  V30 1437 C 133.775 -2.62474 3.36169 0
M  V30 1438 S 134.608 -2.13412 4.91137 0
M  V30 1439 C 135.764 -3.51812 5.17667 0
M  V30 1440 H 135.997 -0.977181 2.80782 0
M  V30 1441 H 133.53 -0.393814 1.49293 0
M  V30 1442 H 135.488 -3.41583 2.27664 0
M  V30 1443 H 134.149 -2.88828 1.23439 0
M  V30 1444 H 133.342 -3.62918 3.49723 0
M  V30 1445 H 132.944 -1.91937 3.20992 0
M  V30 1446 H 135.236 -4.47706 5.08494 0
M  V30 1447 H 136.179 -3.43148 6.19399 0
M  V30 1448 H 136.587 -3.46956 4.45288 0
M  V30 1449 N 135.985 -1.50799 -0.457987 0
M  V30 1450 C 136.918 -1.65273 -1.57353 0
M  V30 1451 C 137.896 -0.500578 -1.54703 0
M  V30 1452 O 139.08 -0.721781 -1.74134 0
M  V30 1453 C 136.207 -1.64737 -2.95938 0
M  V30 1454 C 135.253 -2.8567 -3.16693 0
M  V30 1455 S 136.086 -4.46791 -2.95191 0
M  V30 1456 C 137.242 -4.48968 -4.36095 0
M  V30 1457 H 137.475 -2.59633 -1.44838 0
M  V30 1458 H 135.008 -1.40225 -0.64625 0
M  V30 1459 H 136.966 -1.65112 -3.7583 0
M  V30 1460 H 135.627 -0.715899 -3.05833 0
M  V30 1461 H 134.82 -2.81637 -4.17967 0
M  V30 1462 H 134.422 -2.8293 -2.44594 0
M  V30 1463 H 136.714 -4.23337 -5.28954 0
M  V30 1464 H 137.657 -5.50664 -4.45168 0
M  V30 1465 H 138.065 -3.78522 -4.18786 0
M  V30 1466 N 137.463 0.71206 -1.40597 0
M  V30 1467 C 138.874 1.29135 -1.34837 0
M  V30 1468 C 139.225 1.96186 -0.0235395 0
M  V30 1469 O 138.35 1.97768 0.878444 0
M  V30 1470 C 138.945 2.34827 -2.44217 0
M  V30 1471 C 137.504 2.88371 -2.41907 0
M  V30 1472 C 136.651 1.62202 -2.24913 0
M  V30 1473 H 139.602 0.507944 -1.50352 0
M  V30 1474 H 139.623 3.15749 -2.12327 0
M  V30 1475 H 139.135 1.85996 -3.40627 0
M  V30 1476 H 137.236 3.41422 -1.49204 0
M  V30 1477 H 137.349 3.39925 -3.37621 0
M  V30 1478 H 135.713 1.874 -1.72492 0
M  V30 1479 H 136.496 1.15391 -3.23326 0
M  V30 1480 N 138.941 1.26152 0.944643 0
M  V30 1481 C 140.169 1.14259 1.72489 0
M  V30 1482 C 140.584 -0.302555 1.8636 0
M  V30 1483 O 139.941 -1.20741 1.36849 0
M  V30 1484 C 139.992 1.80266 3.13347 0
M  V30 1485 O 139.713 3.19133 3.00143 0
M  V30 1486 C 141.214 1.74283 4.07603 0
M  V30 1487 H 138.434 0.398051 0.540181 0
M  V30 1488 H 140.978 1.66706 1.18446 0
M  V30 1489 H 139.133 1.31766 3.64303 0
M  V30 1490 H 139.547 3.51744 3.89071 0
M  V30 1491 H 141.021 2.25111 5.04013 0
M  V30 1492 H 141.498 0.708631 4.33446 0
M  V30 1493 H 142.104 2.22319 3.62567 0
M  V30 1494 N 140.419 -1.14872 1.07899 0
M  V30 1495 C 141.349 -2.2193 0.725887 0
M  V30 1496 C 142.33 -1.67622 -0.28927 0
M  V30 1497 O 143.515 -1.93533 -0.160787 0
M  V30 1498 C 140.645 -3.47061 0.128856 0
M  V30 1499 C 139.599 -4.14363 1.07178 0
M  V30 1500 C 138.925 -5.33636 0.337229 0
M  V30 1501 C 140.225 -4.63492 2.40775 0
M  V30 1502 H 141.919 -2.51724 1.62097 0
M  V30 1503 H 139.465 -1.20991 0.780838 0
M  V30 1504 H 141.418 -4.21199 -0.130147 0
M  V30 1505 H 140.142 -3.16617 -0.80134 0
M  V30 1506 H 138.801 -3.42173 1.3158 0
M  V30 1507 H 138.449 -4.99449 -0.596606 0
M  V30 1508 H 138.149 -5.79609 0.965788 0
M  V30 1509 H 139.673 -6.10539 0.0861567 0
M  V30 1510 H 141.087 -5.2913 2.20669 0
M  V30 1511 H 139.484 -5.20148 2.99276 0
M  V30 1512 H 140.554 -3.78834 3.02676 0
M  V30 1513 N 141.898 -0.863906 -1.31812 0
M  V30 1514 C 142.828 -0.330843 -2.31144 0
M  V30 1515 C 143.809 0.575005 -1.60087 0
M  V30 1516 O 144.994 0.493304 -1.8783 0
M  V30 1517 C 142.124 0.47374 -3.44054 0
M  V30 1518 C 141.078 -0.338481 -4.26659 0
M  V30 1519 C 140.404 0.591412 -5.31419 0
M  V30 1520 C 141.704 -1.56926 -4.98168 0
M  V30 1521 H 143.398 -1.16086 -2.75979 0
M  V30 1522 H 140.944 -0.559657 -1.32679 0
M  V30 1523 H 142.897 0.857143 -4.12591 0
M  V30 1524 H 141.621 1.33721 -2.9797 0
M  V30 1525 H 140.28 -0.703754 -3.59782 0
M  V30 1526 H 139.928 1.45199 -4.81587 0
M  V30 1527 H 139.628 0.0519022 -5.87577 0
M  V30 1528 H 141.152 0.97179 -6.02817 0
M  V30 1529 H 142.566 -1.25764 -5.59336 0
M  V30 1530 H 140.963 -2.04739 -5.64094 0
M  V30 1531 H 142.033 -2.32544 -4.25501 0
M  V30 1532 N 143.376 1.44774 -0.622745 0
M  V30 1533 C 144.625 2.01334 -0.121397 0
M  V30 1534 C 144.938 1.49505 1.26125 0
M  V30 1535 O 146.144 1.98139 1.85616 0
M  V30 1536 C 144.6 3.59516 -0.166298 0
M  V30 1537 C 144.208 4.20342 -1.54974 0
M  V30 1538 C 145.952 4.23582 0.279021 0
M  V30 1539 C 143.859 5.70721 -1.55021 0
M  V30 1540 H 142.789 0.752851 -0.0416172 0
M  V30 1541 H 145.44 1.66083 -0.780309 0
M  V30 1542 H 143.822 3.92027 0.559557 0
M  V30 1543 H 144.996 3.99381 -2.29851 0
M  V30 1544 H 143.311 3.68529 -1.93843 0
M  V30 1545 H 145.908 5.33868 0.298083 0
M  V30 1546 H 146.251 3.95327 1.30471 0
M  V30 1547 H 146.784 3.95843 -0.394063 0
M  V30 1548 H 143.523 6.03698 -2.55399 0
M  V30 1549 H 143.043 5.93829 -0.844245 0
M  V30 1550 H 144.722 6.34203 -1.28047 0
M  V30 1551 N 144.854 0.36279 1.53368 0
M  V30 1552 C 146.102 -0.227326 2.00817 0
M  V30 1553 C 146.423 -1.49511 1.25186 0
M  V30 1554 O 145.693 -1.92482 0.364348 0
M  V30 1555 H 144.273 -0.0869923 0.741917 0
M  V30 1556 H 146.935 0.488381 1.88682 0
M  V30 1557 H 146.031 -0.456273 3.08747 0
M  V30 1558 N 146.332 -1.57332 0.0918853 0
M  V30 1559 C 147.609 -1.85691 -0.614668 0
M  V30 1560 C 147.989 -0.988146 -1.86545 0
M  V30 1561 O 147.337 -0.0597055 -2.28422 0
M  V30 1562 C 147.547 -3.36294 -0.933126 0
M  V30 1563 C 148.895 -4.04275 -1.29796 0
M  V30 1564 O 149.919 -3.41157 -1.02424 0
M  V30 1565 O 148.778 -5.1564 -1.81047 0
M  V30 1566 H 145.872 -0.767802 -0.307261 0
M  V30 1567 H 148.418 -1.69244 0.12434 0
M  V30 1568 H 147.19 -3.91273 -0.0456404 0
M  V30 1569 H 146.813 -3.58076 -1.72822 0
M  V30 1570 N 147.81 0.181792 -1.56548 0
M  V30 1571 C 149.057 0.900097 -1.81396 0
M  V30 1572 C 149.385 1.82695 -0.667281 0
M  V30 1573 O 148.64 1.92614 0.346146 0
M  V30 1574 C 148.939 1.73728 -3.12335 0
M  V30 1575 C 148.605 0.960255 -4.40556 0
M  V30 1576 C 147.267 0.745766 -4.75386 0
M  V30 1577 C 149.619 0.414477 -5.19549 0
M  V30 1578 C 146.947 -0.0257694 -5.86694 0
M  V30 1579 C 149.299 -0.343916 -6.31664 0
M  V30 1580 C 147.963 -0.569301 -6.65068 0
M  V30 1581 H 147.233 0.329369 -0.663775 0
M  V30 1582 H 149.88 0.165647 -1.90782 0
M  V30 1583 H 148.185 2.54081 -2.98245 0
M  V30 1584 H 149.882 2.29591 -3.28769 0
M  V30 1585 H 146.472 1.13746 -4.13231 0
M  V30 1586 H 150.656 0.567554 -4.93044 0
M  V30 1587 H 145.912 -0.210233 -6.11038 0
M  V30 1588 H 150.086 -0.774133 -6.92084 0
M  V30 1589 H 147.713 -1.16903 -7.51158 0
M  V30 1590 N 149.288 1.51039 0.449983 0
M  V30 1591 C 150.537 1.62317 1.19733 0
M  V30 1592 C 150.85 0.339101 1.92638 0
M  V30 1593 O 152.056 0.331069 2.69474 0
M  V30 1594 C 150.512 2.86608 2.17678 0
M  V30 1595 C 150.12 4.21972 1.50479 0
M  V30 1596 C 151.864 3.07239 2.92924 0
M  V30 1597 C 149.771 5.37426 2.46834 0
M  V30 1598 H 148.701 0.604532 0.450619 0
M  V30 1599 H 151.352 1.77494 0.465625 0
M  V30 1600 H 149.734 2.65037 2.94231 0
M  V30 1601 H 150.908 4.53878 0.795716 0
M  V30 1602 H 149.223 4.07117 0.874344 0
M  V30 1603 H 151.82 3.90668 3.65079 0
M  V30 1604 H 152.163 2.19807 3.5354 0
M  V30 1605 H 152.696 3.29091 2.23481 0
M  V30 1606 H 149.435 6.27079 1.90926 0
M  V30 1607 H 148.955 5.09912 3.15832 0
M  V30 1608 H 150.634 5.68862 3.08228 0
M  V30 1609 N 150.766 -0.704594 1.40972 0
M  V30 1610 C 151.696 -1.83124 1.44872 0
M  V30 1611 C 152.677 -1.67281 0.30838 0
M  V30 1612 O 153.862 -1.87149 0.518556 0
M  V30 1613 C 150.992 -3.21181 1.32136 0
M  V30 1614 C 149.946 -3.51714 2.43888 0
M  V30 1615 C 149.272 -4.89032 2.16222 0
M  V30 1616 C 150.572 -3.516 3.86232 0
M  V30 1617 H 152.266 -1.80117 2.39161 0
M  V30 1618 H 149.812 -0.865145 1.15114 0
M  V30 1619 H 151.765 -3.99702 1.33479 0
M  V30 1620 H 150.489 -3.24791 0.343279 0
M  V30 1621 H 149.148 -2.75539 2.41813 0
M  V30 1622 H 148.796 -4.89256 1.16778 0
M  V30 1623 H 148.496 -5.10426 2.911 0
M  V30 1624 H 150.02 -5.69873 2.19265 0
M  V30 1625 H 151.434 -4.2014 3.9007 0
M  V30 1626 H 149.831 -3.84523 4.60719 0
M  V30 1627 H 150.901 -2.50757 4.15029 0
M  V30 1628 N 152.244 -1.26651 -0.937939 0
M  V30 1629 C 153.49 -1.12553 -1.687 0
M  V30 1630 C 153.823 0.329782 -1.91379 0
M  V30 1631 O 153.098 1.24202 -1.4968 0
M  V30 1632 C 153.381 -1.89862 -3.05981 0
M  V30 1633 C 153.234 -3.43318 -2.90607 0
M  V30 1634 C 154.553 -1.69499 -4.0615 0
M  V30 1635 H 151.672 -0.410257 -0.612257 0
M  V30 1636 H 154.314 -1.55685 -1.08913 0
M  V30 1637 H 152.464 -1.53204 -3.57017 0
M  V30 1638 H 154.136 -3.89747 -2.46769 0
M  V30 1639 H 152.379 -3.70179 -2.26164 0
M  V30 1640 H 153.05 -3.92642 -3.8799 0
M  V30 1641 H 155.526 -2.01442 -3.64088 0
M  V30 1642 H 154.402 -2.26002 -5.00214 0
M  V30 1643 H 154.663 -0.640365 -4.37438 0
M  V30 1644 N 153.722 1.14298 -1.08507 0
M  V30 1645 C 154.632 2.23027 -0.727753 0
M  V30 1646 C 155.648 1.71952 0.26619 0
M  V30 1647 O 156.824 2.011 0.109882 0
M  V30 1648 C 153.889 3.46403 -0.143541 0
M  V30 1649 C 152.95 4.12413 -1.19223 0
M  V30 1650 C 152.183 5.29899 -0.635798 0
M  V30 1651 O 152.406 5.67796 0.544393 0
M  V30 1652 O 151.34 5.85717 -1.38634 0
M  V30 1653 H 155.166 2.55945 -1.63481 0
M  V30 1654 H 152.751 1.22248 -0.858817 0
M  V30 1655 H 154.633 4.21018 0.179404 0
M  V30 1656 H 153.308 3.15206 0.736659 0
M  V30 1657 H 152.215 3.39667 -1.56772 0
M  V30 1658 H 153.548 4.47718 -2.04474 0
M  V30 1659 N 155.201 0.870884 1.31352 0
M  V30 1660 C 156.148 0.325425 2.28494 0
M  V30 1661 C 157.118 -0.576615 1.5577 0
M  V30 1662 O 158.303 -0.508059 1.83911 0
M  V30 1663 C 155.443 -0.466283 3.41935 0
M  V30 1664 C 154.556 0.463378 4.29508 0
M  V30 1665 C 153.691 -0.342544 5.30094 0
M  V30 1666 C 152.73 0.583486 6.09313 0
M  V30 1667 N 151.867 -0.186244 7.01853 0
M  V30 1668 H 156.707 1.15901 2.74538 0
M  V30 1669 H 154.244 0.58294 1.35056 0
M  V30 1670 H 156.202 -0.941085 4.06447 0
M  V30 1671 H 154.832 -1.26456 2.97 0
M  V30 1672 H 153.884 1.05663 3.65431 0
M  V30 1673 H 155.196 1.1734 4.84802 0
M  V30 1674 H 154.35 -0.879816 6.00287 0
M  V30 1675 H 153.089 -1.08585 4.75458 0
M  V30 1676 H 152.094 1.13251 5.3801 0
M  V30 1677 H 153.319 1.32566 6.66035 0
M  V30 1678 H 151.265 -0.912348 6.49625 0
M  V30 1679 H 151.182 0.464422 7.54572 0
M  V30 1680 H 152.45 -0.704716 7.76308 0
M  V30 1681 N 156.679 -1.44442 0.630414 0
M  V30 1682 C 157.926 -2.02052 0.134617 0
M  V30 1683 C 158.254 -1.49576 -1.24327 0
M  V30 1684 O 157.509 -0.669806 -1.83881 0
M  V30 1685 C 157.808 -3.57332 0.0697835 0
M  V30 1686 C 157.474 -4.29058 1.38635 0
M  V30 1687 C 156.136 -4.4837 1.74694 0
M  V30 1688 C 158.488 -4.69872 2.25543 0
M  V30 1689 C 155.816 -5.05756 2.97369 0
M  V30 1690 C 158.168 -5.28616 3.47487 0
M  V30 1691 C 156.832 -5.46147 3.8377 0
M  V30 1692 H 156.102 -0.739361 0.0492598 0
M  V30 1693 H 158.749 -1.73217 0.816586 0
M  V30 1694 H 157.054 -3.85577 -0.695553 0
M  V30 1695 H 158.751 -3.99637 -0.330344 0
M  V30 1696 H 155.341 -4.14357 1.09574 0
M  V30 1697 H 159.525 -4.54666 1.98979 0
M  V30 1698 H 154.781 -5.17515 3.25558 0
M  V30 1699 H 158.955 -5.59192 4.15063 0
M  V30 1700 H 156.582 -5.9038 4.7891 0
M  V30 1701 N 158.157 -0.370918 -1.53173 0
M  V30 1702 C 159.12 0.460778 -2.24521 0
M  V30 1703 C 160.12 1.00536 -1.25496 0
M  V30 1704 O 161.31 0.890266 -1.49733 0
M  V30 1705 C 158.442 1.64457 -2.98608 0
M  V30 1706 H 159.635 -0.163613 -2.99453 0
M  V30 1707 H 157.188 -0.122699 -1.55818 0
M  V30 1708 H 157.923 2.30691 -2.2793 0
M  V30 1709 H 157.708 1.26099 -3.7127 0
M  V30 1710 H 159.198 2.23384 -3.5283 0
M  V30 1711 N 159.635 1.57281 -0.100228 0
M  V30 1712 C 160.865 1.98591 0.569681 0
M  V30 1713 C 161.273 0.978315 1.61943 0
M  V30 1714 O 160.616 -0.0396108 1.83657 0
M  V30 1715 C 160.678 3.36282 1.271 0
M  V30 1716 C 160.342 4.55488 0.371409 0
M  V30 1717 C 161.339 5.18491 -0.382504 0
M  V30 1718 C 159.024 5.01474 0.287965 0
M  V30 1719 C 161.018 6.25852 -1.20779 0
M  V30 1720 C 158.705 6.08701 -0.540965 0
M  V30 1721 C 159.703 6.70755 -1.28749 0
M  V30 1722 O 159.391 7.75914 -2.10269 0
M  V30 1723 H 159.123 0.65752 0.156982 0
M  V30 1724 H 161.677 2.0463 -0.177734 0
M  V30 1725 H 159.907 3.26941 2.0651 0
M  V30 1726 H 161.596 3.62005 1.83595 0
M  V30 1727 H 162.362 4.83891 -0.3278 0
M  V30 1728 H 158.241 4.52932 0.858689 0
M  V30 1729 H 161.785 6.74218 -1.79096 0
M  V30 1730 H 157.682 6.42732 -0.597131 0
M  V30 1731 H 158.45 7.92925 -2.03007 0
M  V30 1732 N 161.113 -0.173488 1.56642 0
M  V30 1733 C 162.361 -0.888706 1.81512 0
M  V30 1734 C 162.682 -1.82875 0.676872 0
M  V30 1735 O 161.952 -1.93536 -0.303414 0
M  V30 1736 H 160.532 -0.331164 0.669582 0
M  V30 1737 H 163.194 -0.173823 1.94123 0
M  V30 1738 H 162.29 -1.46691 2.75478 0
M  V30 1739 N 162.591 -1.51276 -0.441967 0
M  V30 1740 C 163.84 -1.6295 -1.18871 0
M  V30 1741 C 164.153 -0.349312 -1.92456 0
M  V30 1742 O 165.359 -0.345355 -2.69295 0
M  V30 1743 C 163.815 -2.87759 -2.16155 0
M  V30 1744 C 163.423 -4.22764 -1.48239 0
M  V30 1745 C 165.167 -3.08788 -2.91291 0
M  V30 1746 C 163.074 -5.38728 -2.4398 0
M  V30 1747 H 162.004 -0.606913 -0.447406 0
M  V30 1748 H 164.655 -1.77739 -0.456205 0
M  V30 1749 H 163.037 -2.66593 -2.92821 0
M  V30 1750 H 164.211 -4.54293 -0.771635 0
M  V30 1751 H 162.526 -4.07575 -0.852741 0
M  V30 1752 H 165.123 -3.92599 -3.63002 0
M  V30 1753 H 165.466 -2.21679 -3.5237 0
M  V30 1754 H 165.999 -3.30272 -2.21733 0
M  V30 1755 H 162.738 -6.28082 -1.87598 0
M  V30 1756 H 162.258 -5.1158 -3.13123 0
M  V30 1757 H 163.937 -5.70489 -3.05207 0
M  V30 1758 N 164.069 0.697108 -1.41344 0
M  V30 1759 C 165.016 1.81106 -1.43071 0
M  V30 1760 C 165.986 1.63632 -0.285275 0
M  V30 1761 O 167.171 1.84504 -0.486091 0
M  V30 1762 C 164.311 3.18975 -1.31715 0
M  V30 1763 C 163.424 3.47892 -2.56115 0
M  V30 1764 C 162.559 4.75367 -2.37064 0
M  V30 1765 C 161.598 4.97247 -3.56948 0
M  V30 1766 N 160.735 6.15947 -3.36977 0
M  V30 1767 H 165.575 1.78965 -2.38276 0
M  V30 1768 H 163.112 0.873975 -1.18322 0
M  V30 1769 H 165.07 3.98615 -1.23133 0
M  V30 1770 H 163.7 3.20297 -0.401183 0
M  V30 1771 H 162.752 2.62669 -2.75153 0
M  V30 1772 H 164.064 3.59962 -3.45295 0
M  V30 1773 H 163.218 5.63059 -2.25941 0
M  V30 1774 H 161.957 4.65541 -1.45338 0
M  V30 1775 H 160.962 4.08004 -3.68527 0
M  V30 1776 H 162.187 5.08934 -4.49626 0
M  V30 1777 H 160.133 6.07336 -2.47949 0
M  V30 1778 H 160.05 6.28777 -4.19732 0
M  V30 1779 H 161.318 7.06377 -3.29623 0
M  V30 1780 N 165.547 1.27147 0.931209 0
M  V30 1781 C 166.824 1.0401 1.65654 0
M  V30 1782 C 167.204 -0.426297 2.06751 0
M  V30 1783 O 166.552 -1.40879 1.79904 0
M  V30 1784 C 166.762 1.99834 2.86125 0
M  V30 1785 C 168.11 2.29007 3.57549 0
M  V30 1786 O 169.134 1.97779 2.96246 0
M  V30 1787 O 167.993 2.82222 4.67989 0
M  V30 1788 H 165.087 0.396239 0.725895 0
M  V30 1789 H 167.633 1.38397 0.982056 0
M  V30 1790 H 166.405 2.98744 2.52721 0
M  V30 1791 H 166.028 1.65987 3.61295 0
M  V30 1792 N 167.025 -1.13721 1.09112 0
M  V30 1793 C 168.436 -1.6648 0.845068 0
M  V30 1794 C 168.787 -1.85911 -0.62701 0
M  V30 1795 O 167.912 -1.57556 -1.48341 0
M  V30 1796 C 168.507 -3.02413 1.52748 0
M  V30 1797 C 167.066 -3.52176 1.32849 0
M  V30 1798 C 166.213 -2.27492 1.58564 0
M  V30 1799 H 169.164 -0.976872 1.25072 0
M  V30 1800 H 169.185 -3.68223 0.958752 0
M  V30 1801 H 168.697 -2.88238 2.59885 0
M  V30 1802 H 166.798 -3.7156 0.278137 0
M  V30 1803 H 166.911 -4.32499 2.0611 0
M  V30 1804 H 165.275 -2.33923 1.00758 0
M  V30 1805 H 166.058 -2.15886 2.66924 0
M  V30 1806 N 168.503 -0.877838 -1.30888 0
M  V30 1807 C 169.752 -0.488793 -1.95688 0
M  V30 1808 C 170.065 0.965485 -1.70111 0
M  V30 1809 O 171.271 1.46104 -2.28836 0
M  V30 1810 C 169.727 -0.823201 -3.50359 0
M  V30 1811 C 169.335 -2.29477 -3.84765 0
M  V30 1812 C 171.079 -0.503009 -4.21509 0
M  V30 1813 C 168.986 -2.57118 -5.32583 0
M  V30 1814 H 167.916 -0.179062 -0.732429 0
M  V30 1815 H 170.567 -1.07183 -1.48943 0
M  V30 1816 H 168.949 -0.169331 -3.95638 0
M  V30 1817 H 170.123 -2.99236 -3.5042 0
M  V30 1818 H 168.438 -2.58178 -3.267 0
M  V30 1819 H 171.035 -0.68665 -5.30273 0
M  V30 1820 H 171.378 0.557109 -4.12555 0
M  V30 1821 H 171.911 -1.11376 -3.8189 0
M  V30 1822 H 168.65 -3.61843 -5.4658 0
M  V30 1823 H 168.17 -1.91961 -5.68253 0
M  V30 1824 H 169.849 -2.42251 -5.99936 0
M  V30 1825 N 169.982 1.44106 -0.638065 0
M  V30 1826 C 171.212 2.06037 -0.152394 0
M  V30 1827 C 171.62 1.47808 1.18108 0
M  V30 1828 O 170.963 0.598092 1.73691 0
M  V30 1829 C 171.025 3.59488 0.0293714 0
M  V30 1830 C 170.689 4.4022 -1.22702 0
M  V30 1831 C 171.686 4.73256 -2.15232 0
M  V30 1832 C 169.371 4.8048 -1.46437 0
M  V30 1833 C 171.365 5.45444 -3.29802 0
M  V30 1834 C 169.052 5.52417 -2.61303 0
M  V30 1835 C 170.05 5.84819 -3.52811 0
M  V30 1836 O 169.738 6.55289 -4.65673 0
M  V30 1837 H 169.47 0.671233 -0.0801401 0
M  V30 1838 H 172.024 1.85851 -0.874563 0
M  V30 1839 H 170.254 3.78191 0.806758 0
M  V30 1840 H 171.943 4.03164 0.470475 0
M  V30 1841 H 172.709 4.42684 -1.98131 0
M  V30 1842 H 168.588 4.54676 -0.760977 0
M  V30 1843 H 172.132 5.70653 -4.01249 0
M  V30 1844 H 168.029 5.82404 -2.78344 0
M  V30 1845 H 168.797 6.73762 -4.64744 0
M  V30 1846 N 171.46 0.379036 1.52974 0
M  V30 1847 C 172.392 -0.495963 2.2377 0
M  V30 1848 C 173.405 -1.03517 1.25651 0
M  V30 1849 O 174.594 -0.939249 1.51791 0
M  V30 1850 C 171.694 -1.69894 2.93239 0
M  V30 1851 C 170.867 -1.2889 4.17979 0
M  V30 1852 C 169.926 -2.35543 4.70538 0
M  V30 1853 O 168.952 -1.97375 5.33883 0
M  V30 1854 N 170.154 -3.67318 4.49508 0
M  V30 1855 H 172.919 0.110523 2.99496 0
M  V30 1856 H 170.48 0.204878 1.60598 0
M  V30 1857 H 172.472 -2.40747 3.25304 0
M  V30 1858 H 171.042 -2.212 2.20883 0
M  V30 1859 H 170.262 -0.409676 3.92065 0
M  V30 1860 H 171.55 -0.991443 4.99047 0
M  V30 1861 H 170.948 -4.01095 3.98923 0
M  V30 1862 H 169.505 -4.34235 4.8609 0
M  V30 1863 N 172.938 -1.57226 0.108567 0
M  V30 1864 C 173.885 -2.14756 -0.845481 0
M  V30 1865 C 174.855 -1.06971 -1.27068 0
M  V30 1866 O 176.04 -1.34827 -1.35005 0
M  V30 1867 C 173.18 -2.74298 -2.09415 0
M  V30 1868 C 172.293 -3.96358 -1.71826 0
M  V30 1869 C 171.428 -4.44021 -2.9158 0
M  V30 1870 C 170.467 -5.58637 -2.50181 0
M  V30 1871 N 169.604 -6.01091 -3.62814 0
M  V30 1872 H 174.444 -2.95961 -0.348035 0
M  V30 1873 H 171.981 -1.46226 -0.160106 0
M  V30 1874 H 173.939 -3.06945 -2.82561 0
M  V30 1875 H 172.569 -1.95801 -2.56636 0
M  V30 1876 H 171.621 -3.69939 -0.885947 0
M  V30 1877 H 172.933 -4.79504 -1.37394 0
M  V30 1878 H 172.087 -4.78522 -3.72963 0
M  V30 1879 H 170.826 -3.59803 -3.29231 0
M  V30 1880 H 169.831 -5.23751 -1.67228 0
M  V30 1881 H 171.056 -6.44613 -2.13659 0
M  V30 1882 H 169.002 -5.19817 -4.00158 0
M  V30 1883 H 168.919 -6.79066 -3.32273 0
M  V30 1884 H 170.187 -6.40227 -4.44668 0
M  V30 1885 N 174.416 0.165178 -1.56732 0
M  V30 1886 C 175.644 0.896218 -1.86482 0
M  V30 1887 C 176.059 1.75555 -0.694675 0
M  V30 1888 O 175.416 1.79379 0.33607 0
M  V30 1889 C 175.467 1.76792 -3.1532 0
M  V30 1890 O 175.188 0.943239 -4.27825 0
M  V30 1891 C 176.689 2.6081 -3.58459 0
M  V30 1892 H 173.909 0.260064 -0.618553 0
M  V30 1893 H 176.453 0.163428 -2.03846 0
M  V30 1894 H 174.608 2.45398 -2.99764 0
M  V30 1895 H 175.022 1.53998 -5.01383 0
M  V30 1896 H 176.496 3.17579 -4.51495 0
M  V30 1897 H 176.973 3.35977 -2.82872 0
M  V30 1898 H 177.579 1.97526 -3.76648 0
M  V30 1899 N 175.894 1.51508 0.433938 0
M  V30 1900 C 176.824 1.76016 1.53429 0
M  V30 1901 C 177.805 0.610112 1.58782 0
M  V30 1902 O 178.99 0.853177 1.74455 0
M  V30 1903 C 176.12 1.88831 2.9148 0
M  V30 1904 C 175.074 3.04288 3.00987 0
M  V30 1905 C 174.4 3.0229 4.4105 0
M  V30 1906 C 175.7 4.44193 2.74754 0
M  V30 1907 H 177.394 2.68152 1.33171 0
M  V30 1908 H 174.94 1.29035 0.639214 0
M  V30 1909 H 176.893 2.04559 3.6842 0
M  V30 1910 H 175.617 0.933455 3.12976 0
M  V30 1911 H 174.276 2.8827 2.26486 0
M  V30 1912 H 173.924 2.04576 4.59519 0
M  V30 1913 H 173.624 3.79822 4.4834 0
M  V30 1914 H 175.148 3.20116 5.1996 0
M  V30 1915 H 176.562 4.60544 3.41426 0
M  V30 1916 H 174.959 5.23457 2.9345 0
M  V30 1917 H 176.029 4.53996 1.70339 0
M  V30 1918 N 177.372 -0.689602 1.41712 0
M  V30 1919 C 178.621 -1.44534 1.40686 0
M  V30 1920 C 178.934 -1.95588 0.0213352 0
M  V30 1921 O 180.14 -2.71271 -0.111534 0
M  V30 1922 C 178.596 -2.61387 2.47396 0
M  V30 1923 C 178.204 -2.17094 3.91885 0
M  V30 1924 C 179.948 -3.38986 2.55517 0
M  V30 1925 C 177.855 -3.3094 4.90135 0
M  V30 1926 H 176.785 -0.542925 0.52321 0
M  V30 1927 H 179.436 -0.748054 1.6756 0
M  V30 1928 H 177.818 -3.33412 2.13664 0
M  V30 1929 H 178.992 -1.52318 4.34897 0
M  V30 1930 H 177.307 -1.52473 3.8748 0
M  V30 1931 H 179.904 -4.23747 3.26102 0
M  V30 1932 H 180.247 -3.84578 1.59391 0
M  V30 1933 H 180.78 -2.74021 2.8837 0
M  V30 1934 H 177.519 -2.90355 5.87685 0
M  V30 1935 H 177.039 -3.94546 4.51767 0
M  V30 1936 H 178.718 -3.9663 5.11169 0
M  V30 1937 N 178.85 -1.27639 -0.924453 0
M  V30 1938 C 179.76 -1.12466 -2.05885 0
M  V30 1939 C 180.776 -0.053869 -1.73917 0
M  V30 1940 O 181.952 -0.261012 -1.99702 0
M  V30 1941 C 179.017 -0.776768 -3.37886 0
M  V30 1942 C 178.078 -1.92878 -3.83532 0
M  V30 1943 C 177.311 -1.59739 -5.09234 0
M  V30 1944 O 177.534 -0.506782 -5.68144 0
M  V30 1945 O 176.468 -2.43761 -5.50331 0
M  V30 1946 H 180.294 -2.07671 -2.21599 0
M  V30 1947 H 177.879 -1.06857 -1.04413 0
M  V30 1948 H 179.761 -0.596229 -4.17161 0
M  V30 1949 H 178.436 0.145732 -3.23372 0
M  V30 1950 H 177.343 -2.1644 -3.0513 0
M  V30 1951 H 178.676 -2.8316 -4.02593 0
M  V30 1952 N 180.328 1.1314 -1.09713 0
M  V30 1953 C 181.556 1.88321 -0.856898 0
M  V30 1954 C 181.971 1.79276 0.592073 0
M  V30 1955 O 181.328 1.16142 1.40774 0
M  V30 1956 C 181.379 3.37812 -1.28706 0
M  V30 1957 O 181.1 3.46627 -2.67921 0
M  V30 1958 C 182.601 4.29952 -1.07964 0
M  V30 1959 H 179.821 0.596094 -0.308079 0
M  V30 1960 H 182.365 1.43205 -1.45988 0
M  V30 1961 H 180.52 3.805 -0.727912 0
M  V30 1962 H 180.934 4.39579 -2.8613 0
M  V30 1963 H 182.408 5.33159 -1.42986 0
M  V30 1964 H 182.885 4.39196 -0.0176577 0
M  V30 1965 H 183.491 3.93036 -1.62489 0
M  V30 1966 N 181.806 0.884767 1.30421 0
M  V30 1967 C 183.054 0.502112 1.95763 0
M  V30 1968 C 183.375 -0.951815 1.70192 0
M  V30 1969 O 182.645 -1.6692 1.0254 0
M  V30 1970 H 181.225 0.182694 0.724315 0
M  V30 1971 H 183.887 1.1278 1.58955 0
M  V30 1972 H 182.983 0.672188 3.04775 0
M  V30 1973 N 183.284 -1.43765 0.645699 0
M  V30 1974 C 184.234 -2.27884 -0.0726442 0
M  V30 1975 C 185.218 -1.39483 -0.802086 0
M  V30 1976 O 186.41 -1.63174 -0.685791 0
M  V30 1977 C 183.539 -3.27055 -1.04356 0
M  V30 1978 C 182.625 -4.22944 -0.312985 0
M  V30 1979 N 183.016 -5.01391 0.666386 0
M  V30 1980 C 181.314 -4.42528 -0.55546 0
M  V30 1981 C 182.015 -5.71217 1.09935 0
M  V30 1982 N 180.991 -5.41856 0.435137 0
M  V30 1983 H 184.793 -2.85949 0.678988 0
M  V30 1984 H 182.307 -1.55378 0.472368 0
M  V30 1985 H 184.304 -3.86089 -1.57292 0
M  V30 1986 H 182.964 -2.70551 -1.79534 0
M  V30 1987 H 183.975 -5.07252 1.04481 0
M  V30 1988 H 180.652 -3.97104 -1.28899 0
M  V30 1989 H 182.042 -6.44202 1.90929 0
M  V30 1990 N 184.763 -0.387143 -1.52771 0
M  V30 1991 C 186.174 0.0873634 -1.86495 0
M  V30 1992 C 186.525 1.46336 -1.30691 0
M  V30 1993 O 185.65 2.068 -0.637409 0
M  V30 1994 C 186.245 0.165305 -3.38396 0
M  V30 1995 C 184.804 0.584101 -3.7184 0
M  V30 1996 C 183.951 -0.255279 -2.76122 0
M  V30 1997 H 186.902 -0.605104 -1.46711 0
M  V30 1998 H 186.923 0.984848 -3.67534 0
M  V30 1999 H 186.435 -0.836301 -3.78982 0
M  V30 2000 H 184.536 1.59315 -3.36823 0
M  V30 2001 H 184.649 0.343749 -4.77865 0
M  V30 2002 H 183.013 0.279126 -2.53166 0
M  V30 2003 H 183.796 -1.25482 -3.19545 0
M  V30 2004 N 186.241 1.57166 -0.116904 0
M  V30 2005 C 187.188 2.15202 0.83408 0
M  V30 2006 C 188.158 1.07644 1.26499 0
M  V30 2007 O 189.343 1.35541 1.34288 0
M  V30 2008 C 186.483 2.75405 2.07957 0
M  V30 2009 C 185.596 3.97264 1.69721 0
M  V30 2010 C 184.731 4.45561 2.89221 0
M  V30 2011 C 183.77 5.59956 2.47215 0
M  V30 2012 N 182.907 6.03006 3.59622 0
M  V30 2013 H 187.747 2.96141 0.332335 0
M  V30 2014 H 185.284 1.46309 0.152349 0
M  V30 2015 H 187.242 3.08439 2.80929 0
M  V30 2016 H 185.872 1.97159 2.55594 0
M  V30 2017 H 184.924 3.70404 0.866316 0
M  V30 2018 H 186.236 4.80226 1.34849 0
M  V30 2019 H 185.39 4.80493 3.7042 0
M  V30 2020 H 184.129 3.61544 3.27318 0
M  V30 2021 H 183.134 5.2463 1.64448 0
M  V30 2022 H 184.359 6.45738 2.10238 0
M  V30 2023 H 182.305 5.21931 3.97396 0
M  V30 2024 H 182.222 6.80819 3.28667 0
M  V30 2025 H 183.49 6.42576 4.41267 0
M  V30 2026 N 187.719 -0.156864 1.56817 0
M  V30 2027 C 189.135 -0.50916 1.5126 0
M  V30 2028 C 189.335 -1.83897 0.823658 0
M  V30 2029 O 188.391 -2.49469 0.390055 0
M  V30 2030 C 189.704 -0.52857 2.96018 0
M  V30 2031 C 191.252 -0.614771 3.06903 0
M  V30 2032 C 191.727 -0.664938 4.53147 0
M  V30 2033 N 193.218 -0.727433 4.57452 0
M  V30 2034 C 193.953 -0.787067 5.67973 0
M  V30 2035 N 193.449 -0.806649 6.88088 0
M  V30 2036 N 195.242 -0.827195 5.5598 0
M  V30 2037 H 187.393 0.714935 2.00006 0
M  V30 2038 H 189.656 0.259526 0.911784 0
M  V30 2039 H 189.362 0.380154 3.49639 0
M  V30 2040 H 189.236 -1.36998 3.51442 0
M  V30 2041 H 191.623 -1.51392 2.53307 0
M  V30 2042 H 191.704 0.253597 2.5454 0
M  V30 2043 H 191.348 0.230011 5.07379 0
M  V30 2044 H 191.278 -1.54966 5.03282 0
M  V30 2045 H 193.769 -0.719998 3.70978 0
M  V30 2046 H 194.082 -0.853727 7.6807 0
M  V30 2047 H 192.427 -0.774687 6.90669 0
M  V30 2048 H 195.618 -0.808998 4.61056 0
M  V30 2049 H 195.791 -0.870206 6.4213 0
M  V30 2050 N 189.197 -1.51736 -0.425897 0
M  V30 2051 C 190.445 -1.64644 -1.17204 0
M  V30 2052 C 190.766 -0.370486 -1.91448 0
M  V30 2053 O 190.036 0.614088 -1.86026 0
M  V30 2054 H 188.616 -0.606819 -0.435638 0
M  V30 2055 H 191.278 -1.88713 -0.487177 0
M  V30 2056 H 190.374 -2.47958 -1.89534 0
M  V30 2057 N 190.675 0.682077 -1.42076 0
M  V30 2058 C 191.952 1.43755 -1.32642 0
M  V30 2059 C 192.332 2.11063 0.0396611 0
M  V30 2060 O 191.68 2.02701 1.05474 0
M  V30 2061 C 191.89 2.44596 -2.48946 0
M  V30 2062 C 193.238 3.09454 -2.9073 0
M  V30 2063 O 194.262 2.54922 -2.48783 0
M  V30 2064 O 193.121 4.08253 -3.63307 0
M  V30 2065 H 190.215 0.640857 -0.522715 0
M  V30 2066 H 192.761 0.711415 -1.54068 0
M  V30 2067 H 191.533 1.93609 -3.40046 0
M  V30 2068 H 191.156 3.24701 -2.29467 0
M  V30 2069 N 192.153 1.28127 0.917671 0
M  V30 2070 C 193.402 1.14432 1.66097 0
M  V30 2071 C 193.715 -0.307247 1.93172 0
M  V30 2072 O 194.921 -0.565259 2.65551 0
M  V30 2073 C 193.377 2.00015 2.99202 0
M  V30 2074 C 192.985 3.49889 2.79789 0
M  V30 2075 C 194.729 1.94996 3.77064 0
M  V30 2076 C 192.636 4.27636 4.08511 0
M  V30 2077 H 191.566 0.424662 0.62304 0
M  V30 2078 H 194.217 1.52628 1.01868 0
M  V30 2079 H 192.599 1.54672 3.64544 0
M  V30 2080 H 193.773 4.03162 2.23152 0
M  V30 2081 H 192.088 3.56392 2.15345 0
M  V30 2082 H 194.685 2.50354 4.72469 0
M  V30 2083 H 195.028 0.925819 4.05875 0
M  V30 2084 H 195.561 2.38287 3.18534 0
M  V30 2085 H 192.3 5.30615 3.84874 0
M  V30 2086 H 191.82 3.79137 4.64774 0
M  V30 2087 H 193.499 4.37346 4.76799 0
M  V30 2088 N 193.631 -1.12557 1.10312 0
M  V30 2089 C 194.877 -1.84311 0.846011 0
M  V30 2090 C 195.21 -1.83805 -0.626859 0
M  V30 2091 O 194.485 -1.28268 -1.46211 0
M  V30 2092 C 194.768 -3.32048 1.39341 0
M  V30 2093 C 194.621 -3.41016 2.93305 0
M  V30 2094 C 195.94 -4.27764 1.03468 0
M  V30 2095 H 193.059 -0.669192 0.30879 0
M  V30 2096 H 195.701 -1.32057 1.36605 0
M  V30 2097 H 193.851 -3.76678 0.951087 0
M  V30 2098 H 195.523 -3.05031 3.46055 0
M  V30 2099 H 193.766 -2.81603 3.29973 0
M  V30 2100 H 194.437 -4.44948 3.26689 0
M  V30 2101 H 196.913 -3.91253 1.41633 0
M  V30 2102 H 195.789 -5.29549 1.44463 0
M  V30 2103 H 196.05 -4.42064 -0.0560404 0
M  V30 2104 N 195.109 -0.891671 -1.2995 0
M  V30 2105 C 196.355 -0.514261 -1.96171 0
M  V30 2106 C 196.688 0.935506 -1.70182 0
M  V30 2107 O 195.963 1.66204 -1.01028 0
M  V30 2108 C 196.246 -0.797719 -3.51153 0
M  V30 2109 C 196.099 -2.2986 -3.86632 0
M  V30 2110 C 197.418 -0.278749 -4.39216 0
M  V30 2111 H 194.537 -0.188314 -0.712535 0
M  V30 2112 H 197.179 -1.11689 -1.53706 0
M  V30 2113 H 195.329 -0.284826 -3.87455 0
M  V30 2114 H 197.001 -2.88042 -3.60319 0
M  V30 2115 H 195.244 -2.76257 -3.34462 0
M  V30 2116 H 195.915 -2.44753 -4.94773 0
M  V30 2117 H 198.391 -0.717825 -4.09862 0
M  V30 2118 H 197.267 -0.506353 -5.46559 0
M  V30 2119 H 197.528 0.820266 -4.34424 0
M  V30 2120 N 196.587 1.43421 -0.653314 0
M  V30 2121 C 197.834 2.01812 -0.166745 0
M  V30 2122 C 198.162 1.51535 1.21931 0
M  V30 2123 O 197.417 0.698975 1.82792 0
M  V30 2124 C 197.716 3.57176 -0.126623 0
M  V30 2125 C 197.382 4.26798 -1.45444 0
M  V30 2126 C 196.044 4.45534 -1.81805 0
M  V30 2127 C 198.396 4.66225 -2.32989 0
M  V30 2128 C 195.724 5.00961 -3.05377 0
M  V30 2129 C 198.076 5.23021 -3.55853 0
M  V30 2130 C 196.74 5.39973 -3.9241 0
M  V30 2131 H 196.01 0.738484 -0.0610162 0
M  V30 2132 H 198.657 1.71896 -0.84404 0
M  V30 2133 H 196.962 3.86634 0.634123 0
M  V30 2134 H 198.659 4.00112 0.266723 0
M  V30 2135 H 195.249 4.12561 -1.16153 0
M  V30 2136 H 199.433 4.51443 -2.06187 0
M  V30 2137 H 194.689 5.12271 -3.3375 0
M  V30 2138 H 198.863 5.52518 -4.23907 0
M  V30 2139 H 196.49 5.82687 -4.88242 0
M  V30 2140 N 198.065 0.39524 1.52563 0
M  V30 2141 C 199.012 -0.437036 2.26624 0
M  V30 2142 C 199.982 -1.05281 1.28472 0
M  V30 2143 O 201.167 -1.07971 1.57311 0
M  V30 2144 C 198.307 -1.55524 3.08069 0
M  V30 2145 C 197.42 -0.961745 4.21158 0
M  V30 2146 C 196.555 -2.05149 4.89987 0
M  V30 2147 C 195.594 -1.4342 5.95061 0
M  V30 2148 N 194.731 -2.46351 6.57462 0
M  V30 2149 H 199.571 0.200976 2.97322 0
M  V30 2150 H 197.108 0.110944 1.46681 0
M  V30 2151 H 199.066 -2.21437 3.53584 0
M  V30 2152 H 197.696 -2.16348 2.3957 0
M  V30 2153 H 196.748 -0.192048 3.79915 0
M  V30 2154 H 198.06 -0.470701 4.96574 0
M  V30 2155 H 197.214 -2.78819 5.38837 0
M  V30 2156 H 195.953 -2.57615 4.14109 0
M  V30 2157 H 194.958 -0.682774 5.45544 0
M  V30 2158 H 196.183 -0.917416 6.72875 0
M  V30 2159 H 194.129 -2.97975 5.8442 0
M  V30 2160 H 194.046 -2.02019 7.28508 0
M  V30 2161 H 195.314 -3.19633 7.10954 0
M  V30 2162 N 199.544 -1.57102 0.125237 0
M  V30 2163 C 200.774 -1.99472 -0.538015 0
M  V30 2164 C 201.182 -1.00395 -1.60366 0
M  V30 2165 O 200.525 0.0103875 -1.83697 0
M  V30 2166 C 200.587 -3.38262 -1.21734 0
M  V30 2167 C 200.251 -4.56021 -0.298897 0
M  V30 2168 C 201.248 -5.17817 0.464943 0
M  V30 2169 C 198.933 -5.01869 -0.208149 0
M  V30 2170 C 200.927 -6.23852 1.3072 0
M  V30 2171 C 198.614 -6.07763 0.637736 0
M  V30 2172 C 199.612 -6.68622 1.39403 0
M  V30 2173 O 199.3 -7.7247 2.22586 0
M  V30 2174 H 199.032 -0.659934 -0.146501 0
M  V30 2175 H 201.586 -2.04321 0.210267 0
M  V30 2176 H 199.816 -3.30185 -2.01282 0
M  V30 2177 H 201.505 -3.6488 -1.77813 0
M  V30 2178 H 202.271 -4.83308 0.404741 0
M  V30 2179 H 198.15 -4.54241 -0.786522 0
M  V30 2180 H 201.694 -6.71284 1.898 0
M  V30 2181 H 197.591 -6.41701 0.699309 0
M  V30 2182 H 198.359 -7.89595 2.15596 0
M  V30 2183 N 201.022 0.148545 -1.56898 0
M  V30 2184 C 202.433 0.708766 -1.72723 0
M  V30 2185 C 202.784 1.81734 -0.739395 0
M  V30 2186 O 201.909 2.16194 0.0943169 0
M  V30 2187 C 202.504 1.29245 -3.13179 0
M  V30 2188 C 201.063 1.79925 -3.30611 0
M  V30 2189 C 200.21 0.687111 -2.68652 0
M  V30 2190 H 203.161 -0.0771063 -1.58513 0
M  V30 2191 H 203.182 2.16224 -3.13093 0
M  V30 2192 H 202.694 0.485382 -3.85053 0
M  V30 2193 H 200.795 2.63203 -2.63732 0
M  V30 2194 H 200.908 1.92903 -4.38549 0
M  V30 2195 H 199.272 1.11335 -2.29078 0
M  V30 2196 H 200.055 -0.108483 -3.43129 0
M  V30 2197 N 202.5 1.5196 0.417844 0
M  V30 2198 C 203.41 1.77554 1.53336 0
M  V30 2199 C 204.426 0.660655 1.6097 0
M  V30 2200 O 205.602 0.945099 1.77848 0
M  V30 2201 C 202.667 1.91291 2.89152 0
M  V30 2202 C 201.728 3.15183 2.91475 0
M  V30 2203 C 200.961 3.28256 4.20813 0
M  V30 2204 O 201.184 2.46798 5.14244 0
M  V30 2205 O 200.118 4.21356 4.29817 0
M  V30 2206 H 203.944 2.7222 1.34647 0
M  V30 2207 H 201.529 1.36698 0.602828 0
M  V30 2208 H 203.411 2.02199 3.69721 0
M  V30 2209 H 202.086 0.998129 3.07927 0
M  V30 2210 H 200.993 3.09739 2.09791 0
M  V30 2211 H 202.326 4.06414 2.77648 0
M  V30 2212 N 203.978 -0.674533 1.42435 0
M  V30 2213 C 205.255 -1.4305 1.33402 0
M  V30 2214 C 205.635 -2.11081 -0.0284674 0
M  V30 2215 O 204.983 -2.03257 -1.04397 0
M  V30 2216 C 205.193 -2.43272 2.50239 0
M  V30 2217 C 206.541 -3.07907 2.92367 0
M  V30 2218 O 207.565 -2.53599 2.50132 0
M  V30 2219 O 206.424 -4.0632 3.65467 0
M  V30 2220 H 203.518 -0.638076 0.526106 0
M  V30 2221 H 206.064 -0.703235 1.54443 0
M  V30 2222 H 204.836 -1.91803 3.41068 0
M  V30 2223 H 204.459 -3.23479 2.31186 0
M  V30 2224 N 205.456 -1.28612 -0.910864 0
M  V30 2225 C 206.867 -1.14406 -1.47541 0
M  V30 2226 C 207.218 0.264901 -1.94403 0
M  V30 2227 O 206.343 1.15942 -1.82719 0
M  V30 2228 C 206.938 -2.07073 -2.68153 0
M  V30 2229 C 205.497 -1.96923 -3.20778 0
M  V30 2230 C 204.644 -1.98646 -1.93481 0
M  V30 2231 H 207.595 -1.41259 -0.723291 0
M  V30 2232 H 207.616 -1.63642 -3.43514 0
M  V30 2233 H 207.128 -3.09611 -2.34015 0
M  V30 2234 H 205.229 -0.97433 -3.59635 0
M  V30 2235 H 205.342 -2.84026 -3.85832 0
M  V30 2236 H 203.706 -1.43093 -2.10705 0
M  V30 2237 H 204.489 -3.02868 -1.61634 0
M  V30 2238 N 206.934 1.1197 -1.10907 0
M  V30 2239 C 207.881 2.17846 -0.762345 0
M  V30 2240 C 208.851 1.63995 0.263599 0
M  V30 2241 O 210.036 1.90273 0.141773 0
M  V30 2242 C 207.176 3.44487 -0.205651 0
M  V30 2243 C 206.289 4.12369 -1.28748 0
M  V30 2244 C 205.424 5.26674 -0.691919 0
M  V30 2245 C 204.463 5.86431 -1.75399 0
M  V30 2246 N 203.6 6.92142 -1.17833 0
M  V30 2247 H 208.44 2.46851 -1.6694 0
M  V30 2248 H 205.977 1.21188 -0.833776 0
M  V30 2249 H 207.935 4.16981 0.135037 0
M  V30 2250 H 206.565 3.15884 0.664613 0
M  V30 2251 H 205.617 3.38003 -1.74522 0
M  V30 2252 H 206.929 4.52844 -2.09125 0
M  V30 2253 H 206.083 6.05953 -0.300963 0
M  V30 2254 H 204.822 4.8749 0.143232 0
M  V30 2255 H 203.827 5.05835 -2.15432 0
M  V30 2256 H 205.052 6.27685 -2.59208 0
M  V30 2257 H 202.998 6.54985 -0.364725 0
M  V30 2258 H 202.915 7.31242 -1.91887 0
M  V30 2259 H 204.183 7.75237 -0.81408 0
M  V30 2260 N 208.412 0.89855 1.29475 0
M  V30 2261 C 209.342 0.39201 2.30186 0
M  V30 2262 C 210.323 -0.532359 1.61555 0
M  V30 2263 O 211.508 -0.443331 1.89072 0
M  V30 2264 C 208.638 -0.382353 3.45189 0
M  V30 2265 C 207.592 0.451483 4.25612 0
M  V30 2266 C 206.918 -0.450307 5.328 0
M  V30 2267 C 208.218 1.70079 4.93832 0
M  V30 2268 H 209.912 1.23362 2.72804 0
M  V30 2269 H 207.458 0.594638 1.31149 0
M  V30 2270 H 209.411 -0.747451 4.14718 0
M  V30 2271 H 208.135 -1.25774 3.01411 0
M  V30 2272 H 206.794 0.798897 3.57789 0
M  V30 2273 H 206.442 -1.32379 4.85268 0
M  V30 2274 H 206.142 0.103902 5.87508 0
M  V30 2275 H 207.666 -0.811623 6.05182 0
M  V30 2276 H 209.08 1.40549 5.55805 0
M  V30 2277 H 207.477 2.19623 5.58467 0
M  V30 2278 H 208.547 2.43744 4.19186 0
M  V30 2279 N 209.89 -1.43072 0.660911 0
M  V30 2280 C 211.167 -1.95307 0.107017 0
M  V30 2281 C 211.547 -1.60192 -1.37484 0
M  V30 2282 O 210.895 -0.890949 -2.10415 0
M  V30 2283 C 211.105 -3.47124 0.361402 0
M  V30 2284 C 212.453 -4.23738 0.270455 0
M  V30 2285 O 213.477 -3.54981 0.294382 0
M  V30 2286 O 212.336 -5.46131 0.200737 0
M  V30 2287 H 209.43 -0.826984 -0.00517729 0
M  V30 2288 H 211.976 -1.52972 0.734681 0
M  V30 2289 H 210.748 -3.65837 1.38848 0
M  V30 2290 H 210.371 -3.96475 -0.298953 0
M  V30 2291 N 211.368 -0.403325 -1.52352 0
M  V30 2292 C 212.598 0.17376 -2.05868 0
M  V30 2293 C 213.006 1.39898 -1.27378 0
M  V30 2294 O 212.349 1.80939 -0.31729 0
M  V30 2295 C 212.411 0.594756 -3.54546 0
M  V30 2296 C 212.075 -0.518926 -4.54044 0
M  V30 2297 C 213.072 -1.3807 -5.01231 0
M  V30 2298 C 210.757 -0.689961 -4.97539 0
M  V30 2299 C 212.751 -2.39852 -5.90551 0
M  V30 2300 C 210.438 -1.71109 -5.86656 0
M  V30 2301 C 211.436 -2.56378 -6.33056 0
M  V30 2302 O 211.124 -3.56743 -7.20409 0
M  V30 2303 H 210.856 0.0264951 -0.675481 0
M  V30 2304 H 213.41 -0.571179 -1.97299 0
M  V30 2305 H 211.64 1.39189 -3.60782 0
M  V30 2306 H 213.329 1.0991 -3.90736 0
M  V30 2307 H 214.095 -1.25994 -4.68349 0
M  V30 2308 H 209.974 -0.035939 -4.60986 0
M  V30 2309 H 213.518 -3.06441 -6.26689 0
M  V30 2310 H 209.415 -1.83218 -6.18952 0
M  V30 2311 H 210.183 -3.52918 -7.38506 0
M  V30 2312 N 212.846 1.57033 -0.133567 0
M  V30 2313 C 214.095 1.94861 0.520768 0
M  V30 2314 C 214.408 1.02012 1.66892 0
M  V30 2315 O 215.614 1.29365 2.38699 0
M  V30 2316 C 214.07 3.46362 0.977809 0
M  V30 2317 C 213.678 4.47773 -0.142674 0
M  V30 2318 C 215.422 3.93083 1.60269 0
M  V30 2319 C 213.329 5.90468 0.331883 0
M  V30 2320 H 212.259 0.727453 0.198315 0
M  V30 2321 H 214.91 1.82227 -0.215759 0
M  V30 2322 H 213.292 3.54282 1.7692 0
M  V30 2323 H 214.466 4.51536 -0.919317 0
M  V30 2324 H 212.781 4.10891 -0.675124 0
M  V30 2325 H 215.378 4.97121 1.96914 0
M  V30 2326 H 215.721 3.33876 2.48662 0
M  V30 2327 H 216.254 3.88025 0.876453 0
M  V30 2328 H 212.993 6.53463 -0.516341 0
M  V30 2329 H 212.513 5.90094 1.07469 0
M  V30 2330 H 214.192 6.42179 0.788332 0
M  V30 2331 N 214.325 -0.140222 1.56975 0
M  V30 2332 C 215.272 -1.17292 1.98774 0
M  V30 2333 C 216.242 -1.4232 0.856408 0
M  V30 2334 O 217.427 -1.54541 1.119 0
M  V30 2335 C 214.567 -2.49973 2.37923 0
M  V30 2336 C 213.68 -2.32062 3.64378 0
M  V30 2337 C 212.815 -3.57825 3.926 0
M  V30 2338 C 211.854 -3.3498 5.12303 0
M  V30 2339 N 210.991 -4.52891 5.36502 0
M  V30 2340 H 215.831 -0.809472 2.86795 0
M  V30 2341 H 213.368 -0.388237 1.41884 0
M  V30 2342 H 215.326 -3.27346 2.58652 0
M  V30 2343 H 213.956 -2.84252 1.52972 0
M  V30 2344 H 213.008 -1.45711 3.51387 0
M  V30 2345 H 214.32 -2.11145 4.51906 0
M  V30 2346 H 213.474 -4.43624 4.13863 0
M  V30 2347 H 212.213 -3.81753 3.03506 0
M  V30 2348 H 211.218 -2.4757 4.90906 0
M  V30 2349 H 212.443 -3.12444 6.02956 0
M  V30 2350 H 210.389 -4.76979 4.50363 0
M  V30 2351 H 210.306 -4.35001 6.18312 0
M  V30 2352 H 211.574 -5.39884 5.62268 0
M  V30 2353 N 215.803 -1.52179 -0.40978 0
M  V30 2354 C 217.219 -1.40968 -0.74835 0
M  V30 2355 C 217.419 -0.513657 -1.94843 0
M  V30 2356 O 216.475 0.0208026 -2.52491 0
M  V30 2357 C 217.788 -2.83483 -1.0029 0
M  V30 2358 C 219.336 -2.92821 -1.10565 0
M  V30 2359 C 219.811 -4.36303 -1.39296 0
M  V30 2360 N 221.302 -4.39535 -1.46162 0
M  V30 2361 C 222.037 -5.47614 -1.70018 0
M  V30 2362 N 221.533 -6.65812 -1.91483 0
M  V30 2363 N 223.326 -5.35129 -1.72027 0
M  V30 2364 H 215.477 -2.0897 0.380186 0
M  V30 2365 H 217.74 -0.94185 0.107805 0
M  V30 2366 H 217.446 -3.51168 -0.193461 0
M  V30 2367 H 217.32 -3.24487 -1.92323 0
M  V30 2368 H 219.707 -2.25318 -1.90568 0
M  V30 2369 H 219.788 -2.55276 -0.16369 0
M  V30 2370 H 219.432 -5.04366 -0.598109 0
M  V30 2371 H 219.362 -4.71385 -2.34743 0
M  V30 2372 H 221.853 -3.54332 -1.31367 0
M  V30 2373 H 222.166 -7.43964 -2.09134 0
M  V30 2374 H 220.511 -6.68879 -1.88749 0
M  V30 2375 H 223.702 -4.41764 -1.54796 0
M  V30 2376 H 223.875 -6.19433 -1.9028 0
M  V30 2377 N 217.281 0.66697 -1.42791 0
M  V30 2378 C 218.244 1.76211 -1.46568 0
M  V30 2379 C 219.244 1.56896 -0.352196 0
M  V30 2380 O 220.434 1.63044 -0.613364 0
M  V30 2381 C 217.566 3.14935 -1.30494 0
M  V30 2382 H 218.759 1.74247 -2.44086 0
M  V30 2383 H 216.312 0.877342 -1.29354 0
M  V30 2384 H 217.047 3.2252 -0.339301 0
M  V30 2385 H 216.832 3.30359 -2.11199 0
M  V30 2386 H 218.322 3.94821 -1.36038 0
M  V30 2387 N 218.759 1.29093 0.90403 0
M  V30 2388 C 220.005 1.16986 1.65656 0
M  V30 2389 C 220.338 -0.278925 1.92186 0
M  V30 2390 O 219.613 -1.2019 1.5292 0
M  V30 2391 C 219.896 1.97908 3.0084 0
M  V30 2392 C 219.749 3.50903 2.81403 0
M  V30 2393 C 221.068 1.80208 4.01513 0
M  V30 2394 H 218.187 0.426346 0.601164 0
M  V30 2395 H 220.829 1.58518 1.04747 0
M  V30 2396 H 218.979 1.62616 3.52829 0
M  V30 2397 H 220.651 3.96153 2.36348 0
M  V30 2398 H 218.894 3.76045 2.1627 0
M  V30 2399 H 219.565 4.02791 3.77443 0
M  V30 2400 H 222.041 2.11025 3.58619 0
M  V30 2401 H 220.917 2.39184 4.94047 0
M  V30 2402 H 221.178 0.756119 4.35586 0
M  V30 2403 N 220.237 -1.11381 1.11499 0
M  V30 2404 C 221.485 -1.8277 0.862524 0
M  V30 2405 C 221.806 -1.85097 -0.613534 0
M  V30 2406 O 221.076 -1.32198 -1.4457 0
M  V30 2407 H 219.656 -0.676823 0.316101 0
M  V30 2408 H 222.318 -1.34816 1.4075 0
M  V30 2409 H 221.414 -2.86614 1.23527 0
M  V30 2410 N 221.715 -0.905404 -1.28997 0
M  V30 2411 C 222.645 -0.404212 -2.29975 0
M  V30 2412 C 223.626 0.523784 -1.61835 0
M  V30 2413 O 224.811 0.433298 -1.89304 0
M  V30 2414 C 221.941 0.364042 -3.45387 0
M  V30 2415 C 220.895 -0.474048 -4.25367 0
M  V30 2416 C 220.221 0.422045 -5.33032 0
M  V30 2417 C 221.521 -1.72696 -4.92923 0
M  V30 2418 H 223.215 -1.24807 -2.72146 0
M  V30 2419 H 220.761 -0.601585 -1.30832 0
M  V30 2420 H 222.714 0.725447 -4.15109 0
M  V30 2421 H 221.438 1.24174 -3.02074 0
M  V30 2422 H 220.097 -0.81786 -3.57361 0
M  V30 2423 H 219.745 1.29804 -4.85963 0
M  V30 2424 H 219.445 -0.135057 -5.87445 0
M  V30 2425 H 220.969 0.779517 -6.05604 0
M  V30 2426 H 222.383 -1.43495 -5.55051 0
M  V30 2427 H 220.78 -2.22582 -5.57295 0
M  V30 2428 H 221.85 -2.45964 -4.17887 0
M  V30 2429 N 223.193 1.4272 -0.668489 0
M  V30 2430 C 224.604 1.84793 -0.266151 0
M  V30 2431 C 224.955 1.55959 1.19043 0
M  V30 2432 O 224.08 1.01622 1.91055 0
M  V30 2433 C 224.675 3.35436 -0.476271 0
M  V30 2434 C 223.234 3.76182 -0.128113 0
M  V30 2435 C 222.381 2.66344 -0.771777 0
M  V30 2436 H 225.332 1.32656 -0.871098 0
M  V30 2437 H 225.353 3.79515 0.273561 0
M  V30 2438 H 224.865 3.5639 -1.53647 0
M  V30 2439 H 222.966 3.60836 0.928891 0
M  V30 2440 H 223.079 4.75766 -0.564231 0
M  V30 2441 H 221.443 2.53885 -0.203652 0
M  V30 2442 H 222.226 2.90123 -1.83531 0
M  V30 2443 N 224.671 0.411399 1.52136 0
M  V30 2444 C 225.919 -0.163322 2.01439 0
M  V30 2445 C 226.24 -1.45453 1.29879 0
M  V30 2446 O 225.51 -1.91225 0.4254 0
M  V30 2447 H 224.09 -0.0633447 0.744309 0
M  V30 2448 H 226.752 0.548161 1.87033 0
M  V30 2449 H 225.848 -0.357817 3.10042 0
M  V30 2450 N 226.149 -1.5696 0.141893 0
M  V30 2451 C 227.426 -1.87553 -0.555281 0
M  V30 2452 C 227.806 -1.04699 -1.83306 0
M  V30 2453 O 227.154 -0.132346 -2.28116 0
M  V30 2454 C 227.364 -3.39093 -0.825664 0
M  V30 2455 C 228.712 -4.08199 -1.16869 0
M  V30 2456 O 229.736 -3.44242 -0.915185 0
M  V30 2457 O 228.595 -5.21139 -1.6455 0
M  V30 2458 H 225.689 -0.777188 -0.282679 0
M  V30 2459 H 228.235 -1.68763 0.17812 0
M  V30 2460 H 227.007 -3.91221 0.0788633 0
M  V30 2461 H 226.63 -3.63393 -1.61343 0
M  V30 2462 N 227.627 0.131896 -1.57047 0
M  V30 2463 C 228.574 1.16236 -1.99393 0
M  V30 2464 C 229.544 1.41863 -0.863943 0
M  V30 2465 O 230.729 1.53946 -1.12718 0
M  V30 2466 C 227.869 2.48708 -2.39245 0
M  V30 2467 C 226.982 2.30127 -3.65603 0
M  V30 2468 C 226.117 3.55738 -3.94492 0
M  V30 2469 C 225.156 3.32259 -5.14073 0
M  V30 2470 N 224.293 4.50039 -5.38896 0
M  V30 2471 H 229.133 0.794251 -2.87221 0
M  V30 2472 H 226.67 0.380707 -1.42088 0
M  V30 2473 H 228.628 3.25969 -2.60384 0
M  V30 2474 H 227.258 2.83437 -1.54478 0
M  V30 2475 H 226.31 1.43845 -3.52154 0
M  V30 2476 H 227.622 2.08746 -4.5302 0
M  V30 2477 H 226.776 4.41423 -4.1621 0
M  V30 2478 H 225.515 3.80138 -3.05526 0
M  V30 2479 H 224.52 2.44963 -4.92212 0
M  V30 2480 H 225.745 3.09242 -6.04604 0
M  V30 2481 H 223.691 4.74584 -4.52886 0
M  V30 2482 H 223.608 4.31716 -6.2061 0
M  V30 2483 H 224.876 5.36895 -5.65123 0
M  V30 2484 N 229.106 1.52395 0.401703 0
M  V30 2485 C 230.352 1.67065 1.14966 0
M  V30 2486 C 230.685 0.403052 1.89971 0
M  V30 2487 O 229.96 -0.598774 1.85054 0
M  V30 2488 C 230.243 2.8975 2.13815 0
M  V30 2489 C 230.096 4.26578 1.42658 0
M  V30 2490 C 231.415 3.07965 3.14397 0
M  V30 2491 H 228.534 0.607968 0.416587 0
M  V30 2492 H 231.176 1.84965 0.434511 0
M  V30 2493 H 229.326 2.74619 2.74803 0
M  V30 2494 H 230.998 4.53451 0.847329 0
M  V30 2495 H 229.241 4.27639 0.72849 0
M  V30 2496 H 229.912 5.08483 2.14823 0
M  V30 2497 H 232.388 3.22043 2.63491 0
M  V30 2498 H 231.264 3.95308 3.80819 0
M  V30 2499 H 231.525 2.21611 3.82545 0
M  V30 2500 N 230.584 -0.659388 1.43143 0
M  V30 2501 C 231.812 -1.44723 1.47861 0
M  V30 2502 C 232.227 -1.88563 0.0945886 0
M  V30 2503 O 231.584 -1.59108 -0.893915 0
M  V30 2504 C 231.635 -2.68627 2.41913 0
M  V30 2505 O 231.356 -2.26623 3.74932 0
M  V30 2506 C 232.857 -3.62045 2.55809 0
M  V30 2507 H 230.077 -0.444801 0.502387 0
M  V30 2508 H 232.621 -0.808916 1.87821 0
M  V30 2509 H 230.776 -3.28613 2.05164 0
M  V30 2510 H 231.19 -3.06745 4.2545 0
M  V30 2511 H 232.664 -4.45666 3.25708 0
M  V30 2512 H 233.141 -4.08981 1.60099 0
M  V30 2513 H 233.747 -3.07944 2.93344 0
M  V30 2514 N 232.062 -1.29571 -0.897171 0
M  V30 2515 C 233.292 -1.20408 -1.67886 0
M  V30 2516 C 233.7 0.237429 -1.87704 0
M  V30 2517 O 233.043 1.17048 -1.41582 0
M  V30 2518 C 233.105 -1.84887 -3.08314 0
M  V30 2519 C 232.769 -3.34189 -3.11716 0
M  V30 2520 C 233.766 -4.30374 -2.91675 0
M  V30 2521 C 231.451 -3.75431 -3.33701 0
M  V30 2522 C 233.445 -5.65776 -2.93557 0
M  V30 2523 C 231.132 -5.10955 -3.35214 0
M  V30 2524 C 232.13 -6.05938 -3.15164 0
M  V30 2525 O 231.818 -7.38987 -3.1647 0
M  V30 2526 H 231.55 -0.418289 -0.531046 0
M  V30 2527 H 234.104 -1.71514 -1.13014 0
M  V30 2528 H 232.334 -1.28295 -3.64798 0
M  V30 2529 H 234.023 -1.70011 -3.6858 0
M  V30 2530 H 234.789 -3.99844 -2.74499 0
M  V30 2531 H 230.668 -3.01953 -3.48347 0
M  V30 2532 H 234.212 -6.39889 -2.77826 0
M  V30 2533 H 230.109 -5.4113 -3.51922 0
M  V30 2534 H 230.877 -7.47823 -3.3272 0
M  V30 2535 N 233.54 1.10788 -1.12088 0
M  V30 2536 C 234.817 1.79136 -0.785476 0
M  V30 2537 C 235.197 1.98246 0.725377 0
M  V30 2538 O 234.545 1.57258 1.65778 0
M  V30 2539 C 234.755 3.12375 -1.55636 0
M  V30 2540 C 236.103 3.8731 -1.74001 0
M  V30 2541 O 237.127 3.22085 -1.52117 0
M  V30 2542 O 235.986 5.04369 -2.10415 0
M  V30 2543 H 233.08 0.776226 -0.285311 0
M  V30 2544 H 235.626 1.1747 -1.2247 0
M  V30 2545 H 234.398 2.93863 -2.5838 0
M  V30 2546 H 234.021 3.81758 -1.11114 0
M  V30 2547 N 235.018 0.912232 1.28515 0
M  V30 2548 C 236.429 0.591352 1.77087 0
M  V30 2549 C 236.78 -0.8933 1.74684 0
M  V30 2550 O 235.905 -1.69876 1.34056 0
M  V30 2551 C 236.5 1.06668 3.2157 0
M  V30 2552 C 235.059 0.79675 3.67871 0
M  V30 2553 C 234.206 1.23427 2.48316 0
M  V30 2554 H 237.157 1.09365 1.15 0
M  V30 2555 H 237.178 0.407455 3.78312 0
M  V30 2556 H 236.69 2.14726 3.23287 0
M  V30 2557 H 234.791 -0.270679 3.71616 0
M  V30 2558 H 234.904 1.40343 4.58084 0
M  V30 2559 H 233.268 0.653036 2.46186 0
M  V30 2560 H 234.051 2.32316 2.52753 0
M  V30 2561 N 236.496 -1.42363 0.676048 0
M  V30 2562 C 237.742 -2.0182 0.199125 0
M  V30 2563 C 238.075 -1.53339 -1.19168 0
M  V30 2564 O 237.35 -0.736124 -1.80032 0
M  V30 2565 C 237.633 -3.59331 0.235144 0
M  V30 2566 C 237.486 -4.17989 1.66149 0
M  V30 2567 C 238.805 -4.3813 -0.41595 0
M  V30 2568 H 235.924 -0.733293 0.0738311 0
M  V30 2569 H 238.566 -1.69368 0.86107 0
M  V30 2570 H 236.716 -3.87109 -0.328487 0
M  V30 2571 H 238.388 -4.0116 2.27747 0
M  V30 2572 H 236.631 -3.7377 2.20178 0
M  V30 2573 H 237.302 -5.27126 1.63837 0
M  V30 2574 H 239.778 -4.16051 0.0638529 0
M  V30 2575 H 238.654 -5.47717 -0.360115 0
M  V30 2576 H 238.915 -4.16101 -1.49373 0
M  V30 2577 N 237.974 -0.419461 -1.51915 0
M  V30 2578 C 239.199 0.154572 -2.06823 0
M  V30 2579 C 239.624 1.3722 -1.28656 0
M  V30 2580 O 238.982 1.78461 -0.319583 0
M  V30 2581 C 239.03 0.473172 -3.57482 0
M  V30 2582 O 238.134 1.56255 -3.81652 0
M  V30 2583 H 237.475 0.0096924 -0.663929 0
M  V30 2584 H 240.005 -0.595642 -1.95738 0
M  V30 2585 H 240.015 0.728825 -4.01438 0
M  V30 2586 H 238.69 -0.416873 -4.13805 0
M  V30 2587 H 237.267 1.29825 -3.49571 0
M  V30 2588 N 239.452 1.56882 -0.150215 0
M  V30 2589 C 240.399 2.16922 0.788244 0
M  V30 2590 C 241.369 1.10303 1.24187 0
M  V30 2591 O 242.554 1.38359 1.31383 0
M  V30 2592 C 239.694 2.79754 2.02068 0
M  V30 2593 C 238.807 4.00775 1.61257 0
M  V30 2594 C 237.942 4.51595 2.79705 0
M  V30 2595 C 236.981 5.65074 2.35282 0
M  V30 2596 N 236.118 6.10499 3.4675 0
M  V30 2597 H 240.958 2.96779 0.269444 0
M  V30 2598 H 238.495 1.46599 0.12128 0
M  V30 2599 H 240.453 3.14329 2.74323 0
M  V30 2600 H 239.083 2.02536 2.51354 0
M  V30 2601 H 238.135 3.72158 0.787553 0
M  V30 2602 H 239.447 4.82978 1.24633 0
M  V30 2603 H 238.601 4.88242 3.60145 0
M  V30 2604 H 237.34 3.68406 3.19576 0
M  V30 2605 H 236.345 5.28 1.53283 0
M  V30 2606 H 237.57 6.50052 1.96493 0
M  V30 2607 H 235.516 5.30243 3.86236 0
M  V30 2608 H 235.433 6.87637 3.14152 0
M  V30 2609 H 236.701 6.51791 4.27537 0
M  V30 2610 N 240.93 -0.123565 1.57115 0
M  V30 2611 C 241.84 -1.17074 2.033 0
M  V30 2612 C 242.856 -1.4561 0.952559 0
M  V30 2613 O 244.032 -1.56817 1.26374 0
M  V30 2614 C 241.097 -2.47857 2.42421 0
M  V30 2615 C 240.158 -2.26758 3.64526 0
M  V30 2616 C 239.391 -3.51305 4.01771 0
M  V30 2617 O 239.614 -4.5843 3.39409 0
M  V30 2618 O 238.548 -3.42578 4.94898 0
M  V30 2619 H 242.374 -0.808555 2.92739 0
M  V30 2620 H 239.959 -0.334027 1.45618 0
M  V30 2621 H 241.841 -3.2492 2.68338 0
M  V30 2622 H 240.516 -2.83558 1.5613 0
M  V30 2623 H 239.423 -1.47569 3.43765 0
M  V30 2624 H 240.756 -1.95963 4.51508 0
M  V30 2625 N 242.408 -1.52605 -0.393616 0
M  V30 2626 C 243.338 -1.80022 -1.48709 0
M  V30 2627 C 244.319 -0.651995 -1.57108 0
M  V30 2628 O 245.504 -0.89913 -1.72132 0
M  V30 2629 C 242.634 -1.96492 -2.86371 0
M  V30 2630 C 241.588 -3.12161 -2.92813 0
M  V30 2631 C 240.914 -3.13877 -4.3288 0
M  V30 2632 C 242.214 -4.51322 -2.6288 0
M  V30 2633 H 243.908 -2.71589 -1.26015 0
M  V30 2634 H 241.454 -1.30684 -0.604778 0
M  V30 2635 H 243.407 -2.14255 -3.62867 0
M  V30 2636 H 242.131 -1.01611 -3.10391 0
M  V30 2637 H 240.79 -2.94173 -2.18764 0
M  V30 2638 H 240.438 -2.16687 -4.53933 0
M  V30 2639 H 240.138 -3.91576 -4.38112 0
M  V30 2640 H 241.662 -3.33789 -5.1129 0
M  V30 2641 H 243.076 -4.69435 -3.29096 0
M  V30 2642 H 241.473 -5.31053 -2.79468 0
M  V30 2643 H 242.543 -4.58353 -1.58242 0
M  V30 2644 N 243.887 0.651787 -1.4349 0
M  V30 2645 C 245.115 1.43937 -1.48626 0
M  V30 2646 C 245.53 1.8851 -0.104587 0
M  V30 2647 O 244.887 1.5958 0.885464 0
M  V30 2648 C 244.938 2.6734 -2.43334 0
M  V30 2649 O 244.659 2.24631 -3.76128 0
M  V30 2650 C 246.16 3.60683 -2.57726 0
M  V30 2651 H 243.38 0.44213 -0.504739 0
M  V30 2652 H 245.924 0.798944 -1.88248 0
M  V30 2653 H 244.079 3.2752 -2.06904 0
M  V30 2654 H 244.493 3.04485 -4.2707 0
M  V30 2655 H 245.967 4.43933 -3.28067 0
M  V30 2656 H 246.444 4.08126 -1.62265 0
M  V30 2657 H 247.05 3.06384 -2.94973 0
M  V30 2658 N 245.365 1.30045 0.890287 0
M  V30 2659 C 246.614 1.17929 1.63633 0
M  V30 2660 C 246.927 -0.266204 1.9378 0
M  V30 2661 O 248.133 -0.508804 2.6669 0
M  V30 2662 C 246.589 2.06317 2.94892 0
M  V30 2663 C 246.197 3.55745 2.72305 0
M  V30 2664 C 247.941 2.0295 3.72843 0
M  V30 2665 C 245.848 4.36205 3.99348 0
M  V30 2666 H 244.778 0.437782 0.613892 0
M  V30 2667 H 247.429 1.54754 0.986075 0
M  V30 2668 H 245.811 1.6237 3.61182 0
M  V30 2669 H 246.985 4.07805 2.1455 0
M  V30 2670 H 245.3 3.6088 2.07737 0
M  V30 2671 H 247.897 2.60319 4.67053 0
M  V30 2672 H 248.24 1.0117 4.0382 0
M  V30 2673 H 248.773 2.4499 3.13408 0
M  V30 2674 H 245.512 5.38659 3.73533 0
M  V30 2675 H 245.032 3.8891 4.56628 0
M  V30 2676 H 246.711 4.47362 4.67415 0
M  V30 2677 N 246.843 -1.10192 1.12674 0
M  V30 2678 C 247.775 -2.16418 0.754701 0
M  V30 2679 C 248.788 -1.61309 -0.21986 0
M  V30 2680 O 249.977 -1.785 -0.000826841 0
M  V30 2681 C 247.077 -3.38762 0.096698 0
M  V30 2682 C 246.25 -4.23307 1.10136 0
M  V30 2683 C 245.309 -5.24092 0.470513 0
M  V30 2684 O 244.335 -5.57906 1.12824 0
M  V30 2685 N 245.537 -5.75491 -0.760948 0
M  V30 2686 H 248.302 -2.48943 1.66875 0
M  V30 2687 H 245.863 -1.25834 1.01869 0
M  V30 2688 H 247.855 -4.03291 -0.337384 0
M  V30 2689 H 246.425 -3.04192 -0.720153 0
M  V30 2690 H 245.645 -3.55036 1.71299 0
M  V30 2691 H 246.933 -4.76624 1.78064 0
M  V30 2692 H 246.331 -5.50222 -1.31424 0
M  V30 2693 H 244.888 -6.41792 -1.13781 0
M  V30 2694 N 248.321 -0.919034 -1.28029 0
M  V30 2695 C 249.732 -0.600735 -1.76771 0
M  V30 2696 C 250.083 0.884024 -1.75156 0
M  V30 2697 O 249.208 1.69163 -1.34956 0
M  V30 2698 C 249.803 -1.08372 -3.21 0
M  V30 2699 C 248.362 -0.816248 -3.67443 0
M  V30 2700 C 247.509 -1.24742 -2.47658 0
M  V30 2701 H 250.46 -1.09974 -1.14418 0
M  V30 2702 H 250.481 -0.427512 -3.78091 0
M  V30 2703 H 249.993 -2.16437 -3.22144 0
M  V30 2704 H 248.094 0.250968 -3.71754 0
M  V30 2705 H 248.207 -1.4277 -4.57333 0
M  V30 2706 H 246.571 -0.666083 -2.45836 0
M  V30 2707 H 247.354 -2.33653 -2.51518 0
M  V30 2708 N 249.799 1.42003 -0.683588 0
M  V30 2709 C 251.047 2.01015 -0.209101 0
M  V30 2710 C 251.368 1.54365 1.19149 0
M  V30 2711 O 250.638 0.769083 1.80172 0
M  V30 2712 H 249.218 0.743294 -0.074315 0
M  V30 2713 H 251.88 1.73798 -0.882066 0
M  V30 2714 H 250.976 3.11343 -0.2172 0
M  V30 2715 N 251.277 0.427512 1.51691 0
M  V30 2716 C 252.517 -0.141524 2.03909 0
M  V30 2717 C 252.881 -1.40811 1.30523 0
M  V30 2718 O 254.082 -2.05676 1.73063 0
M  V30 2719 C 252.353 -0.364962 3.55532 0
M  V30 2720 S 253.912 -0.898812 4.29496 0
M  V30 2721 H 250.73 -0.0364542 0.710065 0
M  V30 2722 H 253.332 0.584659 1.86553 0
M  V30 2723 H 252.036 0.56336 4.06515 0
M  V30 2724 H 251.567 -1.1185 3.77164 0
M  V30 2725 H 253.582 -2.17747 4.45871 0
M  V30 2726 N 252.755 -1.56801 0.158532 0
M  V30 2727 C 253.98 -2.01295 -0.499516 0
M  V30 2728 C 254.405 -1.03799 -1.56867 0
M  V30 2729 O 253.763 -0.0155162 -1.81293 0
M  V30 2730 C 253.811 -3.44469 -1.06647 0
M  V30 2731 O 252.915 -3.50012 -2.18095 0
M  V30 2732 H 252.256 -0.652884 -0.12099 0
M  V30 2733 H 254.786 -2.02958 0.258661 0
M  V30 2734 H 254.796 -3.8351 -1.39227 0
M  V30 2735 H 253.471 -4.14932 -0.283581 0
M  V30 2736 H 252.048 -3.22822 -1.86656 0
M  V30 2737 N 254.233 0.115231 -1.57178 0
M  V30 2738 C 255.458 0.840354 -1.89612 0
M  V30 2739 C 255.883 1.72464 -0.750845 0
M  V30 2740 O 255.241 1.78826 0.298478 0
M  V30 2741 C 255.289 1.64654 -3.20814 0
M  V30 2742 O 254.393 2.7538 -3.06985 0
M  V30 2743 H 253.734 0.232158 -0.622092 0
M  V30 2744 H 256.264 0.0964977 -2.04372 0
M  V30 2745 H 256.274 2.03499 -3.53627 0
M  V30 2746 H 254.949 0.997416 -4.03763 0
M  V30 2747 H 253.526 2.3971 -2.85646 0
M  V30 2748 N 255.711 1.52812 0.385517 0
M  V30 2749 C 256.959 1.67694 1.12797 0
M  V30 2750 C 257.28 0.421115 1.90399 0
M  V30 2751 O 256.55 -0.564551 1.87589 0
M  V30 2752 H 255.13 0.618155 0.419396 0
M  V30 2753 H 257.792 1.89938 0.436972 0
M  V30 2754 H 256.888 2.52896 1.82894 0
M  V30 2755 N 257.189 -0.644168 1.43834 0
M  V30 2756 C 258.121 -1.76955 1.45669 0
M  V30 2757 C 259.134 -1.58956 0.351666 0
M  V30 2758 O 260.323 -1.6751 0.616644 0
M  V30 2759 C 257.423 -3.14507 1.26248 0
M  V30 2760 C 256.596 -3.59083 2.49757 0
M  V30 2761 C 255.655 -4.75467 2.25427 0
M  V30 2762 O 254.681 -4.84444 2.98836 0
M  V30 2763 N 255.883 -5.66289 1.27661 0
M  V30 2764 H 258.648 -1.75856 2.42682 0
M  V30 2765 H 256.209 -0.828312 1.39106 0
M  V30 2766 H 258.201 -3.90067 1.0784 0
M  V30 2767 H 256.771 -3.10325 0.376478 0
M  V30 2768 H 255.991 -2.7387 2.8353 0
M  V30 2769 H 257.279 -3.85613 3.31934 0
M  V30 2770 H 256.677 -5.61718 0.670064 0
M  V30 2771 H 255.234 -6.41533 1.15234 0
M  V30 2772 N 258.668 -1.30515 -0.883378 0
M  V30 2773 C 259.631 -1.1701 -1.97082 0
M  V30 2774 C 260.631 -0.10089 -1.60483 0
M  V30 2775 O 261.821 -0.349127 -1.70666 0
M  V30 2776 C 258.953 -0.793045 -3.31547 0
M  V30 2777 H 260.146 -2.13622 -2.10489 0
M  V30 2778 H 257.699 -1.13935 -1.06998 0
M  V30 2779 H 258.434 0.172499 -3.23841 0
M  V30 2780 H 258.219 -1.56576 -3.5948 0
M  V30 2781 H 259.709 -0.722073 -4.1131 0
M  V30 2782 N 260.146 1.09593 -1.13257 0
M  V30 2783 C 261.386 1.83349 -0.903472 0
M  V30 2784 C 261.75 1.83641 0.560351 0
M  V30 2785 O 262.951 2.53037 0.906947 0
M  V30 2786 C 261.222 3.25629 -1.47311 0
M  V30 2787 S 262.781 4.16408 -1.38382 0
M  V30 2788 H 259.599 0.632014 -0.325699 0
M  V30 2789 H 262.201 1.31817 -1.44376 0
M  V30 2790 H 260.905 3.22991 -2.53189 0
M  V30 2791 H 260.436 3.82233 -0.930689 0
M  V30 2792 H 262.451 4.94884 -0.361113 0
M  V30 2793 N 261.624 0.925811 1.2754 0
M  V30 2794 C 262.534 0.428993 2.30644 0
M  V30 2795 C 263.55 -0.489387 1.66976 0
M  V30 2796 O 264.726 -0.372653 1.97922 0
M  V30 2797 C 261.791 -0.311967 3.45294 0
M  V30 2798 C 260.852 0.641098 4.24486 0
M  V30 2799 C 260.085 -0.0645955 5.33661 0
M  V30 2800 O 260.308 -1.28429 5.55754 0
M  V30 2801 O 259.242 0.606265 5.98839 0
M  V30 2802 H 263.068 1.28504 2.75173 0
M  V30 2803 H 260.653 0.691086 1.32455 0
M  V30 2804 H 262.535 -0.729972 4.15029 0
M  V30 2805 H 261.21 -1.14365 3.02824 0
M  V30 2806 H 260.117 1.10874 3.57292 0
M  V30 2807 H 261.45 1.43995 4.70666 0
M  V30 2808 N 263.102 -1.41638 0.69111 0
M  V30 2809 C 264.05 -2.32597 0.0115199 0
M  V30 2810 C 265.044 -1.5072 -0.773296 0
M  V30 2811 O 266.25 -1.66685 -0.67942 0
M  V30 2812 H 262.625 -0.751849 -0.0150746 0
M  V30 2813 H 264.596 -2.87593 0.795791 0
M  V30 2814 C 263.345 -3.35467 -0.914172 0
M  V30 2815 H 262.668 -3.9852 -0.319687 0
M  V30 2816 H 264.108 -4.01662 -1.35808 0
M  V30 2817 C 262.567 -2.69004 -2.02826 0
M  V30 2818 O 263.097 -2.53444 -3.11655 0
M  V30 2819 N 261.303 -2.2777 -1.80469 0
M  V30 2820 H 260.85 -2.40626 -0.919615 0
M  V30 2821 H 260.808 -1.83635 -2.55197 0
M  V30 2822 N 264.58 -0.43555 -1.51462 0
M  V30 2823 C 265.543 0.365137 -2.26273 0
M  V30 2824 C 266.543 0.951227 -1.29647 0
M  V30 2825 O 267.733 0.825958 -1.53374 0
M  V30 2826 C 264.865 1.51645 -3.05314 0
M  V30 2827 H 266.058 -0.290474 -2.9849 0
M  V30 2828 H 263.611 -0.188676 -1.55157 0
M  V30 2829 H 264.346 2.20816 -2.3751 0
M  V30 2830 H 264.131 1.10238 -3.76284 0
M  V30 2831 H 265.621 2.08218 -3.61987 0
M  V30 2832 N 266.058 1.56714 -0.166846 0
M  V30 2833 C 266.988 2.20754 0.760913 0
M  V30 2834 C 267.969 1.16178 1.24244 0
M  V30 2835 O 269.154 1.44592 1.29641 0
M  V30 2836 C 266.284 2.84478 1.99223 0
M  V30 2837 C 265.238 3.95053 1.64672 0
M  V30 2838 C 264.564 4.45805 2.95232 0
M  V30 2839 C 265.864 5.14865 0.878155 0
M  V30 2840 H 267.558 2.98537 0.22713 0
M  V30 2841 H 265.104 1.43596 0.107805 0
M  V30 2842 H 267.057 3.27951 2.64624 0
M  V30 2843 H 265.781 2.04056 2.55007 0
M  V30 2844 H 264.44 3.52228 1.01641 0
M  V30 2845 H 264.088 3.62181 3.49047 0
M  V30 2846 H 263.788 5.204 2.7287 0
M  V30 2847 H 265.312 4.91962 3.6167 0
M  V30 2848 H 266.726 5.55059 1.43466 0
M  V30 2849 H 265.123 5.95348 0.753738 0
M  V30 2850 H 266.193 4.84735 -0.126377 0
M  V30 2851 N 267.536 -0.106894 1.57237 0
M  V30 2852 C 268.947 -0.662723 1.74542 0
M  V30 2853 C 269.298 -1.7971 0.787319 0
M  V30 2854 O 268.423 -2.16368 -0.0369636 0
M  V30 2855 C 269.018 -1.20896 3.16496 0
M  V30 2856 C 267.577 -1.71096 3.35266 0
M  V30 2857 C 266.724 -0.615642 2.7038 0
M  V30 2858 H 269.675 0.119106 1.58252 0
M  V30 2859 H 269.696 -2.07847 3.18716 0
M  V30 2860 H 269.208 -0.383122 3.86204 0
M  V30 2861 H 267.309 -2.56119 2.70618 0
M  V30 2862 H 267.422 -1.81208 4.43509 0
M  V30 2863 H 265.786 -1.05222 2.31949 0
M  V30 2864 H 266.569 0.199419 3.4272 0
M  V30 2865 N 269.014 -1.53014 -0.377408 0
M  V30 2866 C 270.26 -1.68872 -1.12294 0
M  V30 2867 C 270.593 -0.433224 -1.89306 0
M  V30 2868 O 269.868 0.569258 -1.85983 0
M  V30 2869 C 270.151 -2.93115 -2.09179 0
M  V30 2870 C 270.004 -4.28794 -1.35853 0
M  V30 2871 C 271.323 -3.12928 -3.09458 0
M  V30 2872 H 268.442 -0.614518 -0.406862 0
M  V30 2873 H 271.084 -1.85633 -0.40503 0
M  V30 2874 H 269.234 -2.78956 -2.70399 0
M  V30 2875 H 270.906 -4.54742 -0.775082 0
M  V30 2876 H 269.149 -4.28744 -0.660364 0
M  V30 2877 H 269.82 -5.11837 -2.06706 0
M  V30 2878 H 272.296 -3.26194 -2.58334 0
M  V30 2879 H 271.172 -4.01316 -3.74482 0
M  V30 2880 H 271.433 -2.27669 -3.78971 0
M  V30 2881 N 270.492 0.636531 -1.44174 0
M  V30 2882 C 271.72 1.42353 -1.50144 0
M  V30 2883 C 272.135 1.88389 -0.124575 0
M  V30 2884 O 271.492 1.6051 0.868489 0
M  V30 2885 C 271.543 2.64744 -2.46156 0
M  V30 2886 O 271.264 2.20629 -3.7849 0
M  V30 2887 C 272.765 3.57929 -2.61537 0
M  V30 2888 H 269.985 0.436752 -0.5094 0
M  V30 2889 H 272.529 0.778933 -1.89084 0
M  V30 2890 H 270.684 3.25307 -2.10366 0
M  V30 2891 H 271.098 2.99938 -4.30276 0
M  V30 2892 H 272.572 4.40428 -3.32757 0
M  V30 2893 H 273.049 4.06382 -1.66585 0
M  V30 2894 H 273.655 3.03238 -2.98206 0
M  V30 2895 N 271.97 1.30982 0.876444 0
M  V30 2896 C 273.2 1.23063 1.65949 0
M  V30 2897 C 273.608 -0.207537 1.88058 0
M  V30 2898 O 272.951 -1.14781 1.43426 0
M  V30 2899 C 273.013 1.89768 3.05333 0
M  V30 2900 C 272.677 3.39106 3.0636 0
M  V30 2901 C 273.674 4.3496 2.84791 0
M  V30 2902 C 271.359 3.80693 3.27686 0
M  V30 2903 C 273.353 5.70375 2.84519 0
M  V30 2904 C 271.04 5.16223 3.27043 0
M  V30 2905 C 272.038 6.10875 3.05485 0
M  V30 2906 O 271.726 7.43928 3.04674 0
M  V30 2907 H 271.458 0.426685 0.524324 0
M  V30 2908 H 274.012 1.7329 1.10271 0
M  V30 2909 H 272.242 1.34082 3.6271 0
M  V30 2910 H 273.931 1.75853 3.65829 0
M  V30 2911 H 274.697 4.0416 2.68103 0
M  V30 2912 H 270.576 3.07457 3.43499 0
M  V30 2913 H 274.12 6.44228 2.67611 0
M  V30 2914 H 270.017 5.4666 3.43269 0
M  V30 2915 H 270.785 7.53022 3.2078 0
M  V30 2916 N 273.449 -1.08991 1.13837 0
M  V30 2917 C 274.674 -1.85551 0.926585 0
M  V30 2918 C 275.099 -1.80782 -0.519566 0
M  V30 2919 O 274.457 -1.18855 -1.36906 0
M  V30 2920 C 274.505 -3.31266 1.42462 0
M  V30 2921 O 273.609 -4.07822 0.612789 0
M  V30 2922 H 272.95 -0.575192 0.331738 0
M  V30 2923 H 275.48 -1.37604 1.51414 0
M  V30 2924 H 275.49 -3.82112 1.43019 0
M  V30 2925 H 274.165 -3.34052 2.47754 0
M  V30 2926 H 272.742 -3.66731 0.675463 0
M  V30 2927 N 274.927 -0.932562 -1.27047 0
M  V30 2928 C 275.875 -0.42603 -2.28665 0
M  V30 2929 C 276.869 0.49219 -1.62092 0
M  V30 2930 O 278.075 0.371355 -1.76128 0
M  V30 2931 H 274.45 -0.119213 -0.742491 0
M  V30 2932 H 276.421 -1.29579 -2.68797 0
M  V30 2933 C 275.17 0.301426 -3.46391 0
M  V30 2934 H 274.493 -0.39595 -3.97834 0
M  V30 2935 H 275.933 0.6202 -4.1944 0
M  V30 2936 C 274.392 1.51616 -3.00856 0
M  V30 2937 O 274.922 2.61476 -3.04948 0
M  V30 2938 N 273.128 1.36969 -2.56296 0
M  V30 2939 H 272.675 0.475873 -2.53166 0
M  V30 2940 H 272.633 2.18368 -2.26192 0
M  V30 2941 N 276.405 1.4127 -0.698611 0
M  V30 2942 C 277.651 2.01478 -0.231207 0
M  V30 2943 C 277.984 1.55215 1.16713 0
M  V30 2944 O 277.259 0.764672 1.78838 0
M  V30 2945 C 277.542 3.58912 -0.292281 0
M  V30 2946 C 277.395 4.15293 -1.72778 0
M  V30 2947 C 278.714 4.38736 0.346194 0
M  V30 2948 H 275.833 0.732025 -0.0854878 0
M  V30 2949 H 278.475 1.67977 -0.887906 0
M  V30 2950 H 276.625 3.87582 0.26686 0
M  V30 2951 H 278.297 3.97486 -2.341 0
M  V30 2952 H 276.54 3.7022 -2.26096 0
M  V30 2953 H 277.211 5.24452 -1.72202 0
M  V30 2954 H 279.687 4.15897 -0.130035 0
M  V30 2955 H 278.563 5.48221 0.272932 0
M  V30 2956 H 278.824 4.18425 1.42734 0
M  V30 2957 N 277.883 0.443576 1.51229 0
M  V30 2958 C 278.793 -0.370721 2.31652 0
M  V30 2959 C 279.809 -1.02186 1.40833 0
M  V30 2960 O 280.985 -1.01586 1.73903 0
M  V30 2961 C 278.05 -1.45376 3.14749 0
M  V30 2962 C 277.111 -0.822099 4.21355 0
M  V30 2963 C 276.344 -1.85353 5.0048 0
M  V30 2964 O 276.567 -3.07656 4.80316 0
M  V30 2965 O 275.501 -1.4406 5.84406 0
M  V30 2966 H 279.327 0.286002 3.0235 0
M  V30 2967 H 276.912 0.20598 1.47973 0
M  V30 2968 H 278.794 -2.08173 3.66391 0
M  V30 2969 H 277.469 -2.09445 2.46809 0
M  V30 2970 H 276.376 -0.155909 3.73775 0
M  V30 2971 H 277.709 -0.224797 4.91686 0
M  V30 2972 N 279.361 -1.56624 0.175154 0
M  V30 2973 C 280.772 -1.83561 -0.340916 0
M  V30 2974 C 281.123 -1.09511 -1.62794 0
M  V30 2975 O 280.248 -0.349389 -2.13561 0
M  V30 2976 C 280.843 -3.32979 -0.625313 0
M  V30 2977 C 279.402 -3.60399 -1.08581 0
M  V30 2978 C 278.549 -2.77024 -0.123722 0
M  V30 2979 H 281.5 -1.53593 0.399344 0
M  V30 2980 H 281.521 -3.50666 -1.47694 0
M  V30 2981 H 281.033 -3.86847 0.311575 0
M  V30 2982 H 279.134 -3.11945 -2.03767 0
M  V30 2983 H 279.247 -4.68711 -0.992317 0
M  V30 2984 H 277.611 -2.46993 -0.621821 0
M  V30 2985 H 278.394 -3.33674 0.807256 0
M  V30 2986 N 280.839 0.0985539 -1.57292 0
M  V30 2987 C 282.064 0.820196 -1.90493 0
M  V30 2988 C 282.489 1.71658 -0.769094 0
M  V30 2989 O 281.847 1.79133 0.279495 0
M  V30 2990 C 281.895 1.61242 -3.22542 0
M  V30 2991 O 280.999 2.72108 -3.09888 0
M  V30 2992 H 280.34 0.225547 -0.62452 0
M  V30 2993 H 282.87 0.0748159 -2.04463 0
M  V30 2994 H 282.88 1.99737 -3.55766 0
M  V30 2995 H 281.555 0.954535 -4.04798 0
M  V30 2996 H 280.132 2.36667 -2.88172 0
M  V30 2997 N 282.317 1.53212 0.369288 0
M  V30 2998 C 283.594 1.59815 1.12776 0
M  V30 2999 C 283.974 0.403402 2.0721 0
M  V30 3000 O 283.322 -0.606667 2.20299 0
M  V30 3001 C 283.532 2.94664 1.87013 0
M  V30 3002 C 284.88 3.49109 2.41677 0
M  V30 3003 O 285.904 2.96669 1.97144 0
M  V30 3004 O 284.763 4.40775 3.23079 0
M  V30 3005 H 281.857 0.645376 0.517125 0
M  V30 3006 H 284.403 1.65553 0.37285 0
M  V30 3007 H 283.175 3.73061 1.18071 0
M  V30 3008 H 282.798 2.92401 2.69421 0
M  V30 3009 N 283.795 -0.628877 1.44509 0
M  V30 3010 C 285.042 -1.38839 1.47411 0
M  V30 3011 C 285.37 -1.94202 0.10757 0
M  V30 3012 O 284.625 -1.74243 -0.890947 0
M  V30 3013 C 284.924 -2.56995 2.48371 0
M  V30 3014 C 284.59 -2.19908 3.93639 0
M  V30 3015 C 283.252 -2.09506 4.33198 0
M  V30 3016 C 285.604 -1.9064 4.85083 0
M  V30 3017 C 282.932 -1.68028 5.62124 0
M  V30 3018 C 285.284 -1.50655 6.14399 0
M  V30 3019 C 283.948 -1.38796 6.5291 0
M  V30 3020 H 283.218 -0.508048 0.539414 0
M  V30 3021 H 285.865 -0.712913 1.77735 0
M  V30 3022 H 284.17 -3.29786 2.11538 0
M  V30 3023 H 285.867 -3.15223 2.47861 0
M  V30 3024 H 282.457 -2.28922 3.62343 0
M  V30 3025 H 286.641 -1.97585 4.55273 0
M  V30 3026 H 281.897 -1.57452 5.90778 0
M  V30 3027 H 286.071 -1.27048 6.84713 0
M  V30 3028 H 283.698 -1.06429 7.52713 0
M  V30 3029 N 285.273 -1.31445 -0.869486 0
M  V30 3030 C 286.519 -1.21337 -1.62496 0
M  V30 3031 C 286.852 0.227872 -1.92858 0
M  V30 3032 O 286.127 1.16094 -1.56053 0
M  V30 3033 C 286.41 -2.05814 -2.95487 0
M  V30 3034 C 286.263 -3.5824 -2.72 0
M  V30 3035 C 287.582 -1.9079 -3.96594 0
M  V30 3036 H 284.701 -0.442135 -0.589649 0
M  V30 3037 H 287.343 -1.6124 -1.00507 0
M  V30 3038 H 285.493 -1.71913 -3.48394 0
M  V30 3039 H 287.165 -4.0228 -2.25762 0
M  V30 3040 H 285.408 -3.81647 -2.06224 0
M  V30 3041 H 286.079 -4.12657 -3.66631 0
M  V30 3042 H 288.555 -2.20459 -3.52898 0
M  V30 3043 H 287.431 -2.52199 -4.87531 0
M  V30 3044 H 287.692 -0.871341 -4.33428 0
M  V30 3045 N 286.751 1.08385 -1.14413 0
M  V30 3046 C 287.683 2.1519 -0.789036 0
M  V30 3047 C 288.696 1.61638 0.19417 0
M  V30 3048 O 289.885 1.78479 -0.0275711 0
M  V30 3049 C 286.985 3.38565 -0.15058 0
M  V30 3050 C 286.158 4.21501 -1.16857 0
M  V30 3051 C 285.217 5.23277 -0.553832 0
M  V30 3052 O 284.243 5.56041 -1.21686 0
M  V30 3053 N 285.445 5.76629 0.669296 0
M  V30 3054 H 288.21 2.46257 -1.70814 0
M  V30 3055 H 285.771 1.24198 -1.03858 0
M  V30 3056 H 287.763 4.03777 0.273181 0
M  V30 3057 H 286.333 3.05299 0.671667 0
M  V30 3058 H 285.553 3.52265 -1.76926 0
M  V30 3059 H 286.841 4.73731 -1.85624 0
M  V30 3060 H 286.239 5.52243 1.22654 0
M  V30 3061 H 284.796 6.43521 1.03556 0
M  V30 3062 N 288.23 0.939286 1.26551 0
M  V30 3063 C 289.458 0.602536 1.97932 0
M  V30 3064 C 289.873 -0.82206 1.69964 0
M  V30 3065 O 289.23 -1.54789 0.966784 0
M  V30 3066 C 289.281 0.832946 3.51773 0
M  V30 3067 O 289.002 2.20151 3.78768 0
M  V30 3068 C 290.503 0.506483 4.40397 0
M  V30 3069 H 287.723 0.227248 0.631347 0
M  V30 3070 H 290.267 1.25948 1.61113 0
M  V30 3071 H 288.422 0.222644 3.8676 0
M  V30 3072 H 288.836 2.26013 4.73306 0
M  V30 3073 H 290.31 0.718333 5.47306 0
M  V30 3074 H 290.787 -0.558451 4.35635 0
M  V30 3075 H 291.393 1.09543 4.10951 0
M  V30 3076 N 289.708 -1.40897 0.706093 0
M  V30 3077 C 290.955 -2.01054 0.241531 0
M  V30 3078 C 291.283 -1.55956 -1.16223 0
M  V30 3079 O 290.538 -0.766336 -1.80072 0
M  V30 3080 C 290.837 -3.5646 0.259099 0
M  V30 3081 C 290.503 -4.21106 1.61184 0
M  V30 3082 C 289.165 -4.38479 1.98216 0
M  V30 3083 C 291.517 -4.57256 2.50132 0
M  V30 3084 C 288.845 -4.89282 3.2376 0
M  V30 3085 C 291.197 -5.09454 3.7502 0
M  V30 3086 C 289.861 -5.25037 4.12181 0
M  V30 3087 H 289.131 -0.73571 0.0883825 0
M  V30 3088 H 291.778 -1.68645 0.907257 0
M  V30 3089 H 290.083 -3.88721 -0.490189 0
M  V30 3090 H 291.78 -4.00826 -0.11804 0
M  V30 3091 H 288.37 -4.07966 1.31384 0
M  V30 3092 H 292.554 -4.43479 2.228 0
M  V30 3093 H 287.81 -4.99531 3.52532 0
M  V30 3094 H 291.984 -5.36404 4.44121 0
M  V30 3095 H 289.611 -5.64164 5.09532 0
M  V30 3096 N 291.186 -0.45159 -1.50991 0
M  V30 3097 C 292.411 0.110667 -2.07105 0
M  V30 3098 C 292.836 1.3446 -1.31538 0
M  V30 3099 O 292.194 1.77743 -0.357365 0
M  V30 3100 C 292.242 0.397238 -3.58405 0
M  V30 3101 O 291.346 1.48124 -3.84881 0
M  V30 3102 H 290.687 -0.00439271 -0.663985 0
M  V30 3103 H 293.217 -0.637026 -1.9443 0
M  V30 3104 H 293.227 0.64351 -4.02893 0
M  V30 3105 H 291.902 -0.504553 -4.12828 0
M  V30 3106 H 290.479 1.22381 -3.52246 0
M  V30 3107 N 292.664 1.56529 -0.183458 0
M  V30 3108 C 294.08 1.58664 0.172554 0
M  V30 3109 C 294.28 1.19925 1.61926 0
M  V30 3110 O 293.336 0.916534 2.35278 0
M  V30 3111 C 294.649 3.00463 -0.119262 0
M  V30 3112 C 296.197 3.12945 -0.0584396 0
M  V30 3113 C 296.672 4.56857 -0.323408 0
M  V30 3114 N 298.163 4.62403 -0.271612 0
M  V30 3115 C 298.898 5.71626 -0.450639 0
M  V30 3116 N 298.394 6.89362 -0.689384 0
M  V30 3117 N 300.187 5.60775 -0.385701 0
M  V30 3118 H 292.338 1.79994 -1.12765 0
M  V30 3119 H 294.601 0.834808 -0.449222 0
M  V30 3120 H 294.307 3.33326 -1.12192 0
M  V30 3121 H 294.181 3.72659 0.583544 0
M  V30 3122 H 296.568 2.79902 0.934805 0
M  V30 3123 H 296.649 2.4316 -0.794144 0
M  V30 3124 H 296.293 4.9061 -1.31392 0
M  V30 3125 H 296.223 5.24816 0.43305 0
M  V30 3126 H 298.714 3.77785 -0.0932256 0
M  V30 3127 H 299.027 7.68489 -0.815113 0
M  V30 3128 H 297.372 6.91196 -0.726142 0
M  V30 3129 H 300.563 4.67674 -0.199687 0
M  V30 3130 H 300.736 6.4584 -0.528646 0
M  V30 3131 N 294.142 -0.090211 1.57342 0
M  V30 3132 C 295.558 -0.444547 1.53284 0
M  V30 3133 C 295.758 -1.80238 0.900914 0
M  V30 3134 O 294.814 -2.4759 0.495513 0
M  V30 3135 C 296.127 -0.402543 2.97993 0
M  V30 3136 C 297.675 -0.48405 3.09234 0
M  V30 3137 C 298.15 -0.472144 4.5556 0
M  V30 3138 N 299.641 -0.532757 4.60126 0
M  V30 3139 C 300.376 -0.545462 5.708 0
M  V30 3140 N 299.872 -0.514082 6.9089 0
M  V30 3141 N 301.665 -0.59064 5.58988 0
M  V30 3142 H 293.816 0.799121 1.96794 0
M  V30 3143 H 296.079 0.297965 0.899956 0
M  V30 3144 H 295.785 0.528106 3.47712 0
M  V30 3145 H 295.659 -1.21969 3.56936 0
M  V30 3146 H 298.046 -1.40512 2.595 0
M  V30 3147 H 298.127 0.361328 2.53235 0
M  V30 3148 H 297.771 0.445 5.05947 0
M  V30 3149 H 297.701 -1.3348 5.09402 0
M  V30 3150 H 300.192 -0.562006 3.73698 0
M  V30 3151 H 300.505 -0.527195 7.71 0
M  V30 3152 H 298.85 -0.481054 6.93333 0
M  V30 3153 H 302.041 -0.61272 4.64073 0
M  V30 3154 H 302.214 -0.597073 6.45243 0
M  V30 3155 N 295.62 -1.53406 -0.361157 0
M  V30 3156 C 296.568 -1.80832 -1.46296 0
M  V30 3157 C 297.562 -0.677699 -1.55253 0
M  V30 3158 O 298.768 -0.860723 -1.58087 0
M  V30 3159 H 295.143 -0.572627 -0.487445 0
M  V30 3160 H 297.114 -2.73045 -1.20371 0
M  V30 3161 C 295.863 -2.01907 -2.8307 0
M  V30 3162 H 295.186 -2.88349 -2.76938 0
M  V30 3163 H 296.626 -2.25072 -3.59331 0
M  V30 3164 C 295.085 -0.799449 -3.27277 0
M  V30 3165 O 295.615 0.00971761 -4.01699 0
M  V30 3166 N 293.821 -0.621637 -2.83873 0
M  V30 3167 H 293.368 -1.28126 -2.23476 0
M  V30 3168 H 293.326 0.19298 -3.13807 0
M  V30 3169 N 297.098 0.621204 -1.44841 0
M  V30 3170 C 298.346 1.37783 -1.47852 0
M  V30 3171 C 298.667 1.94653 -0.116224 0
M  V30 3172 O 297.937 1.76367 0.852737 0
M  V30 3173 H 296.517 0.511453 -0.544449 0
M  V30 3174 H 299.179 0.730446 -1.80694 0
M  V30 3175 H 298.275 2.20414 -2.20961 0
M  V30 3176 N 298.576 1.31904 0.862503 0
M  V30 3177 C 299.824 1.21776 1.61292 0
M  V30 3178 C 300.145 -0.222413 1.93727 0
M  V30 3179 O 299.415 -1.1451 1.58947 0
M  V30 3180 H 297.995 0.447717 0.597962 0
M  V30 3181 H 300.657 1.65326 1.03215 0
M  V30 3182 H 299.753 1.7948 2.5533 0
M  V30 3183 N 300.054 -1.07777 1.14986 0
M  V30 3184 C 300.964 -2.18404 0.856546 0
M  V30 3185 C 301.98 -1.73211 -0.165485 0
M  V30 3186 O 303.156 -2.01399 0.00755219 0
M  V30 3187 C 300.221 -3.44977 0.34526 0
M  V30 3188 C 299.282 -4.0476 1.43065 0
M  V30 3189 C 298.515 -5.25291 0.943663 0
M  V30 3190 O 298.738 -5.70004 -0.212426 0
M  V30 3191 O 297.672 -5.76638 1.72547 0
M  V30 3192 H 301.498 -2.45978 1.78125 0
M  V30 3193 H 299.083 -1.17033 0.928631 0
M  V30 3194 H 300.965 -4.21348 0.0663671 0
M  V30 3195 H 299.64 -3.18965 -0.551631 0
M  V30 3196 H 298.547 -3.29949 1.76309 0
M  V30 3197 H 299.88 -4.35035 2.30229 0
M  V30 3198 N 301.532 -0.945985 -1.26051 0
M  V30 3199 C 302.495 -0.463897 -2.24456 0
M  V30 3200 C 303.495 0.427655 -1.55009 0
M  V30 3201 O 304.685 0.226157 -1.72726 0
M  V30 3202 C 301.817 0.330812 -3.39291 0
M  V30 3203 H 303.01 -1.33357 -2.68619 0
M  V30 3204 H 300.563 -0.728416 -1.38289 0
M  V30 3205 H 301.298 1.21852 -3.00537 0
M  V30 3206 H 301.083 -0.308679 -3.90883 0
M  V30 3207 H 302.573 0.657865 -4.12386 0
M  V30 3208 N 303.011 1.40521 -0.713556 0
M  V30 3209 C 304.239 2.05237 -0.261775 0
M  V30 3210 C 304.654 1.53755 1.09567 0
M  V30 3211 O 304.011 0.693268 1.6882 0
M  V30 3212 C 304.062 3.60763 -0.230706 0
M  V30 3213 O 303.783 4.10345 -1.53455 0
M  V30 3214 C 305.284 4.42651 0.239874 0
M  V30 3215 H 302.504 0.660533 -0.118057 0
M  V30 3216 H 305.048 1.79967 -0.971192 0
M  V30 3217 H 303.203 3.8501 0.429661 0
M  V30 3218 H 303.617 5.04526 -1.43366 0
M  V30 3219 H 305.091 5.51599 0.210468 0
M  V30 3220 H 305.568 4.20082 1.28171 0
M  V30 3221 H 306.174 4.23507 -0.390142 0
M  V30 3222 N 304.489 0.459591 1.5075 0
M  V30 3223 C 305.714 -0.0996819 2.0716 0
M  V30 3224 C 306.139 -1.33761 1.32249 0
M  V30 3225 O 305.497 -1.77551 0.366786 0
M  V30 3226 C 305.545 -0.378226 3.58611 0
M  V30 3227 O 304.649 -1.46081 3.85661 0
M  V30 3228 H 303.99 0.00791392 0.663953 0
M  V30 3229 H 306.52 0.647329 1.9409 0
M  V30 3230 H 306.53 -0.622135 4.03229 0
M  V30 3231 H 305.205 0.526439 4.12555 0
M  V30 3232 H 303.782 -1.20511 3.5289 0
M  V30 3233 N 305.967 -1.56429 0.191757 0
M  V30 3234 C 307.215 -1.97095 -0.447006 0
M  V30 3235 C 307.536 -1.07967 -1.62383 0
M  V30 3236 O 306.806 -0.150248 -1.95323 0
M  V30 3237 H 305.386 -0.727832 -0.168135 0
M  V30 3238 H 308.048 -1.92911 0.27771 0
M  V30 3239 H 307.144 -3.01848 -0.793371 0
M  V30 3240 N 307.445 0.0818655 -1.57387 0
M  V30 3241 C 308.692 0.782914 -1.86753 0
M  V30 3242 C 309.02 1.78082 -0.782118 0
M  V30 3243 O 308.275 1.94426 0.22295 0
M  V30 3244 C 308.574 1.53513 -3.22752 0
M  V30 3245 C 308.24 0.678134 -4.45771 0
M  V30 3246 C 306.902 0.441929 -4.79166 0
M  V30 3247 C 309.254 0.0832243 -5.21134 0
M  V30 3248 C 306.582 -0.398833 -5.85343 0
M  V30 3249 C 308.934 -0.744935 -6.28199 0
M  V30 3250 C 307.598 -0.991107 -6.60101 0
M  V30 3251 H 306.868 0.286489 -0.683378 0
M  V30 3252 H 309.515 0.0439808 -1.91449 0
M  V30 3253 H 307.82 2.34599 -3.138 0
M  V30 3254 H 309.517 2.08218 -3.42705 0
M  V30 3255 H 306.107 0.872357 -4.19628 0
M  V30 3256 H 310.291 0.252847 -4.95655 0
M  V30 3257 H 305.547 -0.598405 -6.08465 0
M  V30 3258 H 309.721 -1.21271 -6.8576 0
M  V30 3259 H 307.348 -1.64437 -7.42202 0
M  V30 3260 N 308.923 1.53595 0.353017 0
M  V30 3261 C 310.17 1.70385 1.09431 0
M  V30 3262 C 310.498 0.462113 1.88931 0
M  V30 3263 O 309.753 -0.556074 1.87633 0
M  V30 3264 C 310.052 2.91313 2.07054 0
M  V30 3265 C 309.718 4.27308 1.43939 0
M  V30 3266 C 308.38 4.64287 1.26454 0
M  V30 3267 C 310.732 5.11829 0.983883 0
M  V30 3268 C 308.06 5.83412 0.620226 0
M  V30 3269 C 310.412 6.31611 0.353516 0
M  V30 3270 C 309.076 6.67293 0.166272 0
M  V30 3271 H 308.346 0.623484 0.400436 0
M  V30 3272 H 310.993 1.87799 0.374655 0
M  V30 3273 H 309.298 2.68463 2.85368 0
M  V30 3274 H 310.995 3.01497 2.64387 0
M  V30 3275 H 307.585 3.98198 1.58543 0
M  V30 3276 H 311.769 4.838 1.10685 0
M  V30 3277 H 307.025 6.09639 0.463681 0
M  V30 3278 H 311.199 6.964 -0.00757555 0
M  V30 3279 H 308.826 7.59461 -0.335047 0
M  V30 3280 N 310.401 -0.613514 1.45168 0
M  V30 3281 C 311.311 -1.75296 1.55912 0
M  V30 3282 C 312.327 -1.68244 0.443856 0
M  V30 3283 O 313.503 -1.88706 0.70371 0
M  V30 3284 C 310.568 -3.1174 1.5172 0
M  V30 3285 C 309.629 -3.30291 2.74238 0
M  V30 3286 C 308.862 -4.60226 2.70236 0
M  V30 3287 O 309.085 -5.42168 1.77229 0
M  V30 3288 O 308.019 -4.81361 3.61352 0
M  V30 3289 H 311.845 -1.69183 2.52212 0
M  V30 3290 H 309.43 -0.776886 1.27612 0
M  V30 3291 H 311.312 -3.93044 1.51968 0
M  V30 3292 H 309.987 -3.18357 0.585697 0
M  V30 3293 H 308.894 -2.48598 2.79553 0
M  V30 3294 H 310.227 -3.28547 3.66494 0
M  V30 3295 N 311.879 -1.3236 -0.855495 0
M  V30 3296 C 313.125 -1.23054 -1.612 0
M  V30 3297 C 313.458 0.207404 -1.93089 0
M  V30 3298 O 312.733 1.14432 -1.57275 0
M  V30 3299 C 313.016 -2.08937 -2.93287 0
M  V30 3300 C 312.869 -3.61105 -2.68185 0
M  V30 3301 C 314.188 -1.94986 -3.94549 0
M  V30 3302 H 311.307 -0.448364 -0.584926 0
M  V30 3303 H 313.949 -1.62297 -0.987917 0
M  V30 3304 H 312.099 -1.75599 -3.46551 0
M  V30 3305 H 313.771 -4.04652 -2.21483 0
M  V30 3306 H 312.014 -3.83813 -2.02164 0
M  V30 3307 H 312.685 -4.16522 -3.62234 0
M  V30 3308 H 315.161 -2.24189 -3.5054 0
M  V30 3309 H 314.037 -2.57356 -4.84829 0
M  V30 3310 H 314.298 -0.917263 -4.3248 0
M  V30 3311 N 313.357 1.07166 -1.15556 0
M  V30 3312 C 314.768 1.6127 -0.940693 0
M  V30 3313 C 315.119 1.89251 0.517551 0
M  V30 3314 O 314.244 1.65937 1.38903 0
M  V30 3315 C 314.839 2.92993 -1.7012 0
M  V30 3316 C 313.398 3.43832 -1.53156 0
M  V30 3317 C 312.545 2.1786 -1.71558 0
M  V30 3318 H 315.496 0.90229 -1.30554 0
M  V30 3319 H 315.517 3.62007 -1.17181 0
M  V30 3320 H 315.029 2.72596 -2.76248 0
M  V30 3321 H 313.13 3.69307 -0.494294 0
M  V30 3322 H 313.243 4.19747 -2.30975 0
M  V30 3323 H 311.607 2.2765 -1.14225 0
M  V30 3324 H 312.39 1.99956 -2.79056 0
M  V30 3325 N 314.835 0.952656 1.25548 0
M  V30 3326 C 315.782 0.47008 2.25962 0
M  V30 3327 C 316.752 -0.476384 1.59122 0
M  V30 3328 O 317.937 -0.39007 1.8677 0
M  V30 3329 C 315.077 -0.247881 3.44209 0
M  V30 3330 C 314.19 0.735591 4.25691 0
M  V30 3331 C 313.325 -0.0047306 5.312 0
M  V30 3332 C 312.364 0.969805 6.04368 0
M  V30 3333 N 311.501 0.260486 7.01617 0
M  V30 3334 H 316.341 1.33126 2.66611 0
M  V30 3335 H 313.878 0.66765 1.31076 0
M  V30 3336 H 315.836 -0.680695 4.1161 0
M  V30 3337 H 314.466 -1.07312 3.0444 0
M  V30 3338 H 313.518 1.28689 3.57971 0
M  V30 3339 H 314.83 1.47934 4.76358 0
M  V30 3340 H 313.984 -0.496275 6.04667 0
M  V30 3341 H 312.723 -0.781282 4.81401 0
M  V30 3342 H 311.728 1.47237 5.29718 0
M  V30 3343 H 312.953 1.74655 6.56256 0
M  V30 3344 H 310.899 -0.497364 6.54112 0
M  V30 3345 H 310.816 0.943362 7.50091 0
M  V30 3346 H 312.084 -0.209587 7.79218 0
M  V30 3347 N 316.313 -1.40141 0.720998 0
M  V30 3348 C 317.261 -2.3252 0.0608547 0
M  V30 3349 C 318.255 -1.52326 -0.741152 0
M  V30 3350 O 319.461 -1.68089 -0.643911 0
M  V30 3351 H 315.836 -0.751999 0.000876664 0
M  V30 3352 H 317.807 -2.8584 0.856614 0
M  V30 3353 C 316.556 -3.37331 -0.842809 0
M  V30 3354 H 315.879 -3.99108 -0.235084 0
M  V30 3355 H 317.319 -4.04452 -1.27257 0
M  V30 3356 C 315.778 -2.73246 -1.97074 0
M  V30 3357 O 316.308 -2.59998 -3.06209 0
M  V30 3358 N 314.514 -2.31547 -1.75597 0
M  V30 3359 H 314.061 -2.42522 -0.868368 0
M  V30 3360 H 314.019 -1.89007 -2.51244 0
M  V30 3361 N 317.792 -0.46758 -1.50504 0
M  V30 3362 C 318.702 0.33382 -2.32213 0
M  V30 3363 C 319.718 0.999323 -1.42441 0
M  V30 3364 O 320.894 0.988068 -1.75497 0
M  V30 3365 C 317.959 1.4035 -3.17022 0
M  V30 3366 C 317.02 0.754961 -4.2261 0
M  V30 3367 C 316.253 1.77367 -5.03365 0
M  V30 3368 O 316.476 2.99976 -4.8515 0
M  V30 3369 O 315.41 1.34744 -5.86624 0
M  V30 3370 H 319.236 -0.334067 -3.01857 0
M  V30 3371 H 316.821 -0.229496 -1.47627 0
M  V30 3372 H 318.703 2.02318 -3.69656 0
M  V30 3373 H 317.378 2.05492 -2.5011 0
M  V30 3374 H 316.285 0.0964244 -3.73976 0
M  V30 3375 H 317.618 0.146545 -4.91982 0
M  V30 3376 N 319.27 1.56325 -0.20005 0
M  V30 3377 C 320.498 2.02105 0.442874 0
M  V30 3378 C 320.913 1.08014 1.5485 0
M  V30 3379 O 320.27 0.0858797 1.82298 0
M  V30 3380 C 320.321 3.47549 0.994583 0
M  V30 3381 O 320.042 4.38049 -0.0669322 0
M  V30 3382 C 321.543 4.0887 1.7129 0
M  V30 3383 H 318.763 0.661807 0.110691 0
M  V30 3384 H 321.307 2.02134 -0.310207 0
M  V30 3385 H 319.462 3.48204 1.69803 0
M  V30 3386 H 319.876 5.23368 0.344462 0
M  V30 3387 H 321.35 5.12475 2.05118 0
M  V30 3388 H 321.827 3.52615 2.61838 0
M  V30 3389 H 322.433 4.12002 1.05518 0
M  V30 3390 N 320.748 -0.0735177 1.57428 0
M  V30 3391 C 321.695 -1.08756 2.0357 0
M  V30 3392 C 322.665 -1.38559 0.916 0
M  V30 3393 O 323.85 -1.49656 1.18354 0
M  V30 3394 C 320.99 -2.39657 2.48311 0
M  V30 3395 C 320.103 -2.16399 3.73892 0
M  V30 3396 C 319.238 -3.40852 4.07423 0
M  V30 3397 C 318.277 -3.1295 5.2605 0
M  V30 3398 N 317.414 -4.29729 5.55228 0
M  V30 3399 H 322.254 -0.687104 2.8997 0
M  V30 3400 H 319.791 -0.327709 1.43403 0
M  V30 3401 H 321.749 -3.16081 2.72303 0
M  V30 3402 H 320.379 -2.77508 1.64891 0
M  V30 3403 H 319.431 -1.30676 3.57251 0
M  V30 3404 H 320.743 -1.91788 4.60455 0
M  V30 3405 H 319.897 -4.25671 4.32306 0
M  V30 3406 H 318.636 -3.68537 3.19425 0
M  V30 3407 H 317.641 -2.26526 5.00965 0
M  V30 3408 H 318.866 -2.86589 6.15665 0
M  V30 3409 H 316.812 -4.57448 4.70188 0
M  V30 3410 H 316.729 -4.08385 6.36206 0
M  V30 3411 H 317.997 -5.1555 5.84661 0
M  V30 3412 N 322.226 -1.5378 -0.344866 0
M  V30 3413 C 323.136 -1.84667 -1.4469 0
M  V30 3414 C 324.152 -0.736704 -1.57635 0
M  V30 3415 O 325.328 -1.02888 -1.73136 0
M  V30 3416 C 322.393 -2.04869 -2.79696 0
M  V30 3417 C 321.454 -3.28731 -2.76106 0
M  V30 3418 C 320.687 -3.4796 -4.04673 0
M  V30 3419 O 320.91 -2.71052 -5.01883 0
M  V30 3420 O 319.844 -4.41383 -4.09224 0
M  V30 3421 H 323.67 -2.78334 -1.21506 0
M  V30 3422 H 321.255 -1.39418 -0.536921 0
M  V30 3423 H 323.137 -2.19609 -3.59652 0
M  V30 3424 H 321.812 -1.14391 -3.02814 0
M  V30 3425 H 320.719 -3.19396 -1.94774 0
M  V30 3426 H 322.052 -4.19198 -2.57941 0
M  V30 3427 N 323.704 0.605807 -1.45491 0
M  V30 3428 C 324.652 1.73754 -1.54636 0
M  V30 3429 C 325.646 1.64207 -0.416219 0
M  V30 3430 O 326.852 1.69979 -0.592199 0
M  V30 3431 H 323.227 0.574073 -0.485741 0
M  V30 3432 H 325.198 1.63169 -2.49837 0
M  V30 3433 C 323.947 3.12135 -1.53189 0
M  V30 3434 H 323.27 3.20141 -2.39478 0
M  V30 3435 H 324.71 3.91147 -1.63645 0
M  V30 3436 C 323.169 3.35921 -0.256616 0
M  V30 3437 O 323.699 3.96194 0.662798 0
M  V30 3438 N 321.905 2.90204 -0.151751 0
M  V30 3439 H 321.452 2.41336 -0.90081 0
M  V30 3440 H 321.41 3.06492 0.700699 0
M  V30 3441 N 325.182 1.32811 0.848464 0
M  V30 3442 C 326.43 1.23479 1.59991 0
M  V30 3443 C 326.751 -0.201853 1.93952 0
M  V30 3444 O 326.021 -1.12818 1.60153 0
M  V30 3445 H 324.601 0.454034 0.593179 0
M  V30 3446 H 327.263 1.66412 1.01455 0
M  V30 3447 H 326.359 1.82178 2.53412 0
M  V30 3448 N 326.66 -1.06551 1.16123 0
M  V30 3449 C 327.909 -1.78687 0.935622 0
M  V30 3450 C 328.222 -1.88056 -0.538001 0
M  V30 3451 O 329.428 -2.56794 -0.88143 0
M  V30 3452 C 327.884 -3.21143 1.62466 0
M  V30 3453 C 327.492 -3.19949 3.13587 0
M  V30 3454 C 329.236 -3.9783 1.48092 0
M  V30 3455 C 327.143 -4.57108 3.75241 0
M  V30 3456 H 326.073 -0.669712 0.346412 0
M  V30 3457 H 328.724 -1.19534 1.39226 0
M  V30 3458 H 327.106 -3.80539 1.09572 0
M  V30 3459 H 328.28 -2.70151 3.73303 0
M  V30 3460 H 326.595 -2.5676 3.27816 0
M  V30 3461 H 329.192 -4.99217 1.91538 0
M  V30 3462 H 329.535 -4.14078 0.429507 0
M  V30 3463 H 330.068 -3.4495 1.98127 0
M  V30 3464 H 326.807 -4.46065 4.80319 0
M  V30 3465 H 326.327 -5.07111 3.20309 0
M  V30 3466 H 328.006 -5.26069 3.76644 0
M  V30 3467 N 328.138 -0.959301 -1.25041 0
M  V30 3468 C 329.554 -0.664474 -1.4511 0
M  V30 3469 C 329.754 0.776481 -1.85938 0
M  V30 3470 O 328.81 1.55128 -1.99227 0
M  V30 3471 C 330.123 -1.64139 -2.5195 0
M  V30 3472 C 331.671 -1.65309 -2.65786 0
M  V30 3473 C 332.146 -2.61777 -3.75815 0
M  V30 3474 N 333.637 -2.60169 -3.83231 0
M  V30 3475 C 334.372 -3.31489 -4.6787 0
M  V30 3476 N 333.868 -4.12298 -5.56761 0
M  V30 3477 N 335.661 -3.20354 -4.61876 0
M  V30 3478 H 327.812 -1.89043 -0.968332 0
M  V30 3479 H 330.075 -0.813408 -0.4869 0
M  V30 3480 H 329.781 -2.67086 -2.28819 0
M  V30 3481 H 329.655 -1.40756 -3.49954 0
M  V30 3482 H 332.042 -0.630778 -2.8828 0
M  V30 3483 H 332.123 -1.92753 -1.68167 0
M  V30 3484 H 331.767 -3.64137 -3.54071 0
M  V30 3485 H 331.697 -2.31616 -4.72929 0
M  V30 3486 H 334.188 -2.01507 -3.19692 0
M  V30 3487 H 334.501 -4.63625 -6.18281 0
M  V30 3488 H 332.846 -4.16395 -5.56454 0
M  V30 3489 H 336.037 -2.56692 -3.91442 0
M  V30 3490 H 336.21 -3.76201 -5.27614 0
M  V30 3491 N 329.616 1.39756 -0.72842 0
M  V30 3492 C 330.546 2.33289 -0.0991354 0
M  V30 3493 C 331.527 1.53568 0.731489 0
M  V30 3494 O 332.712 1.81987 0.677807 0
M  V30 3495 C 329.842 3.3763 0.813834 0
M  V30 3496 C 328.796 4.2791 0.0878663 0
M  V30 3497 C 328.122 5.22894 1.11741 0
M  V30 3498 C 329.422 5.11314 -1.06563 0
M  V30 3499 H 331.116 2.86163 -0.880408 0
M  V30 3500 H 328.662 1.37591 -0.424819 0
M  V30 3501 H 330.615 4.0201 1.26355 0
M  V30 3502 H 329.339 2.83181 1.62715 0
M  V30 3503 H 327.998 3.65 -0.342159 0
M  V30 3504 H 327.646 4.64744 1.92412 0
M  V30 3505 H 327.346 5.84143 0.636477 0
M  V30 3506 H 328.87 5.90151 1.56697 0
M  V30 3507 H 330.284 5.69076 -0.694671 0
M  V30 3508 H 328.681 5.81671 -1.47577 0
M  V30 3509 H 329.751 4.46534 -1.89038 0
M  V30 3510 N 331.094 0.475555 1.50254 0
M  V30 3511 C 332.319 -0.0777042 2.07254 0
M  V30 3512 C 332.744 -1.3235 1.3366 0
M  V30 3513 O 332.102 -1.77152 0.385597 0
M  V30 3514 C 332.15 -0.340169 3.58992 0
M  V30 3515 O 331.254 -1.41982 3.87188 0
M  V30 3516 H 330.595 0.0149556 0.663832 0
M  V30 3517 H 333.125 0.667878 1.93392 0
M  V30 3518 H 333.135 -0.579332 4.03866 0
M  V30 3519 H 331.81 0.570167 4.11973 0
M  V30 3520 H 330.387 -1.16762 3.54148 0
M  V30 3521 N 332.573 -1.56217 0.208337 0
M  V30 3522 C 333.483 -2.23316 -0.718836 0
M  V30 3523 C 334.499 -1.23648 -1.22422 0
M  V30 3524 O 335.675 -1.56423 -1.26861 0
M  V30 3525 C 332.74 -2.88968 -1.91568 0
M  V30 3526 C 331.801 -4.03943 -1.45357 0
M  V30 3527 C 331.034 -4.66455 -2.59337 0
M  V30 3528 O 331.257 -4.27919 -3.77149 0
M  V30 3529 O 330.191 -5.55686 -2.31293 0
M  V30 3530 H 334.017 -3.03182 -0.177315 0
M  V30 3531 H 331.602 -1.49384 -0.0215402 0
M  V30 3532 H 333.484 -3.30455 -2.61491 0
M  V30 3533 H 332.159 -2.12071 -2.44556 0
M  V30 3534 H 331.066 -3.67052 -0.722746 0
M  V30 3535 H 332.399 -4.82543 -0.970219 0
M  V30 3536 N 334.051 0.0651679 -1.57465 0
M  V30 3537 C 335.467 0.420105 -1.53972 0
M  V30 3538 C 335.667 1.78782 -0.929474 0
M  V30 3539 O 334.723 2.46771 -0.534839 0
M  V30 3540 C 336.036 0.355084 -2.98596 0
M  V30 3541 C 337.584 0.434792 -3.09965 0
M  V30 3542 C 338.059 0.399609 -4.56253 0
M  V30 3543 N 339.55 0.459488 -4.60915 0
M  V30 3544 C 340.285 0.454584 -5.71595 0
M  V30 3545 N 339.781 0.404102 -6.9162 0
M  V30 3546 N 341.574 0.501635 -5.59857 0
M  V30 3547 H 333.725 -0.830328 -1.95498 0
M  V30 3548 H 335.988 -0.312244 -0.895102 0
M  V30 3549 H 335.694 -0.583357 -3.46828 0
M  V30 3550 H 335.568 1.16275 -3.58831 0
M  V30 3551 H 337.955 1.36366 -2.61703 0
M  V30 3552 H 338.036 -0.40157 -2.52628 0
M  V30 3553 H 337.68 -0.525436 -5.05175 0
M  V30 3554 H 337.61 1.25359 -5.11461 0
M  V30 3555 H 340.101 0.502482 -3.74544 0
M  V30 3556 H 340.414 0.404468 -7.71741 0
M  V30 3557 H 338.759 0.37069 -6.94011 0
M  V30 3558 H 341.95 0.538812 -4.64989 0
M  V30 3559 H 342.123 0.494345 -6.46112 0
M  V30 3560 N 335.529 1.53961 0.336706 0
M  V30 3561 C 336.476 1.82428 1.41381 0
M  V30 3562 C 337.446 0.670444 1.51968 0
M  V30 3563 O 338.631 0.915565 1.67398 0
M  V30 3564 C 335.771 2.04564 2.77934 0
M  V30 3565 C 334.884 3.32267 2.76084 0
M  V30 3566 C 334.019 3.44434 4.04399 0
M  V30 3567 C 333.058 4.66061 3.96804 0
M  V30 3568 N 332.195 4.75224 5.16823 0
M  V30 3569 H 337.035 2.74324 1.16405 0
M  V30 3570 H 334.572 1.35869 0.563752 0
M  V30 3571 H 336.53 2.15388 3.57301 0
M  V30 3572 H 335.16 1.15974 3.01247 0
M  V30 3573 H 334.212 3.3025 1.88784 0
M  V30 3574 H 335.524 4.21733 2.66351 0
M  V30 3575 H 334.678 3.54728 4.92192 0
M  V30 3576 H 333.417 2.53037 4.16921 0
M  V30 3577 H 332.422 4.55838 3.07396 0
M  V30 3578 H 333.647 5.58829 3.85858 0
M  V30 3579 H 331.593 3.86739 5.29876 0
M  V30 3580 H 331.51 5.58636 5.09374 0
M  V30 3581 H 332.778 4.89835 6.06367 0
M  V30 3582 N 337.007 -0.598083 1.45811 0
M  V30 3583 C 337.917 -1.73632 1.57763 0
M  V30 3584 C 338.933 -1.67763 0.461676 0
M  V30 3585 O 340.109 -1.87949 0.723685 0
M  V30 3586 C 337.174 -3.10114 1.55018 0
M  V30 3587 C 336.235 -3.27364 2.77726 0
M  V30 3588 C 335.468 -4.57334 2.75102 0
M  V30 3589 O 335.691 -5.40258 1.8297 0
M  V30 3590 O 334.625 -4.77502 3.66437 0
M  V30 3591 H 338.451 -1.66498 2.53992 0
M  V30 3592 H 336.036 -0.763308 1.28429 0
M  V30 3593 H 337.918 -3.9141 1.56129 0
M  V30 3594 H 336.593 -3.17718 0.619431 0
M  V30 3595 H 335.5 -2.45619 2.82174 0
M  V30 3596 H 336.833 -3.24641 3.69958 0
M  V30 3597 N 338.485 -1.33259 -0.841409 0
M  V30 3598 C 339.713 -1.27605 -1.62864 0
M  V30 3599 C 340.128 0.153507 -1.88175 0
M  V30 3600 O 339.485 1.09485 -1.46011 0
M  V30 3601 C 339.536 -2.04596 -2.98031 0
M  V30 3602 O 339.257 -3.41975 -2.73834 0
M  V30 3603 C 340.758 -2.06122 -3.92465 0
M  V30 3604 H 337.978 -0.439718 -0.506842 0
M  V30 3605 H 340.522 -1.75591 -1.04824 0
M  V30 3606 H 338.677 -1.60299 -3.5268 0
M  V30 3607 H 339.091 -3.81549 -3.59889 0
M  V30 3608 H 340.565 -2.64451 -4.84531 0
M  V30 3609 H 341.042 -1.05083 -4.26444 0
M  V30 3610 H 341.648 -2.50427 -3.43753 0
M  V30 3611 N 339.963 1.05934 -1.16686 0
M  V30 3612 C 340.893 2.1546 -0.899949 0
M  V30 3613 C 341.874 1.69391 0.155154 0
M  V30 3614 O 343.059 1.94199 0.00648693 0
M  V30 3615 C 340.189 3.44939 -0.404241 0
M  V30 3616 C 339.143 4.04536 -1.39767 0
M  V30 3617 C 338.469 5.29268 -0.760216 0
M  V30 3618 C 339.769 4.42893 -2.76845 0
M  V30 3619 H 341.463 2.38046 -1.81588 0
M  V30 3620 H 339.009 1.14404 -0.874514 0
M  V30 3621 H 340.962 4.20901 -0.204971 0
M  V30 3622 H 339.686 3.21983 0.547206 0
M  V30 3623 H 338.345 3.30635 -1.58355 0
M  V30 3624 H 337.993 5.02611 0.197831 0
M  V30 3625 H 337.693 5.70101 -1.42332 0
M  V30 3626 H 339.217 6.07924 -0.57105 0
M  V30 3627 H 340.631 5.09921 -2.62019 0
M  V30 3628 H 339.028 4.94721 -3.39663 0
M  V30 3629 H 340.098 3.53584 -3.31823 0
M  V30 3630 N 341.441 0.965919 1.2453 0
M  V30 3631 C 342.689 0.625593 1.92174 0
M  V30 3632 C 343.01 -0.841652 1.75901 0
M  V30 3633 O 342.28 -1.60061 1.12948 0
M  V30 3634 H 340.86 0.228388 0.71123 0
M  V30 3635 H 343.522 1.2266 1.51461 0
M  V30 3636 H 342.618 0.864653 2.99884 0
M  V30 3637 N 342.919 -1.39368 0.735821 0
M  V30 3638 C 344.196 -1.94465 0.210395 0
M  V30 3639 C 344.576 -1.67254 -1.28799 0
M  V30 3640 O 343.924 -1.00123 -2.05396 0
M  V30 3641 C 344.134 -3.4472 0.544897 0
M  V30 3642 C 345.482 -4.21708 0.494689 0
M  V30 3643 O 346.506 -3.52922 0.482136 0
M  V30 3644 O 345.365 -5.44299 0.489947 0
M  V30 3645 H 342.459 -0.826096 0.0386666 0
M  V30 3646 H 345.005 -1.48863 0.814735 0
M  V30 3647 H 343.777 -3.57963 1.58045 0
M  V30 3648 H 343.4 -3.97502 -0.08837 0
M  V30 3649 N 344.397 -0.483516 -1.5 0
M  V30 3650 C 345.643 0.0672592 -2.02688 0
M  V30 3651 C 345.976 1.38247 -1.36387 0
M  V30 3652 O 345.251 1.88131 -0.493675 0
M  V30 3653 C 345.534 0.238109 -3.59312 0
M  V30 3654 C 345.387 -1.099 -4.36168 0
M  V30 3655 C 346.706 0.986916 -4.28892 0
M  V30 3656 H 343.825 0.0229696 -0.736642 0
M  V30 3657 H 346.467 -0.631527 -1.79197 0
M  V30 3658 H 344.617 0.8333 -3.79458 0
M  V30 3659 H 346.289 -1.73172 -4.27562 0
M  V30 3660 H 344.532 -1.69261 -3.99416 0
M  V30 3661 H 345.203 -0.932954 -5.44059 0
M  V30 3662 H 347.679 0.482302 -4.13295 0
M  V30 3663 H 346.555 1.07527 -5.38265 0
M  V30 3664 H 346.816 2.0265 -3.92919 0
M  V30 3665 N 345.875 1.56104 -0.216619 0
M  V30 3666 C 347.103 2.02563 0.421413 0
M  V30 3667 C 347.518 1.0965 1.53695 0
M  V30 3668 O 346.875 0.10521 1.82196 0
M  V30 3669 C 346.926 3.48584 0.957665 0
M  V30 3670 O 346.647 4.37953 -0.113389 0
M  V30 3671 C 348.148 4.10664 1.66943 0
M  V30 3672 H 345.368 0.662944 0.103665 0
M  V30 3673 H 347.912 2.01793 -0.331629 0
M  V30 3674 H 346.067 3.49985 1.661 0
M  V30 3675 H 346.481 5.23704 0.288932 0
M  V30 3676 H 347.955 5.14622 1.99671 0
M  V30 3677 H 348.432 3.55373 2.58083 0
M  V30 3678 H 349.038 4.13098 1.01142 0
M  V30 3679 N 347.353 -0.0568162 1.57498 0
M  V30 3680 C 348.303 -1.07315 2.01166 0
M  V30 3681 C 349.287 -1.33632 0.896171 0
M  V30 3682 O 350.479 -1.33682 1.16009 0
M  V30 3683 C 347.608 -2.38257 2.47161 0
M  V30 3684 C 346.694 -2.1515 3.65474 0
M  V30 3685 N 347.085 -1.62014 4.7915 0
M  V30 3686 C 345.383 -2.45559 3.72313 0
M  V30 3687 C 346.084 -1.54069 5.60926 0
M  V30 3688 N 345.06 -2.00652 5.05213 0
M  V30 3689 H 348.862 -0.655878 2.86488 0
M  V30 3690 H 346.376 -0.263635 1.60246 0
M  V30 3691 H 348.373 -3.11845 2.76691 0
M  V30 3692 H 347.033 -2.80687 1.63232 0
M  V30 3693 H 348.044 -1.30667 5.01145 0
M  V30 3694 H 344.721 -2.91253 2.99129 0
M  V30 3695 H 346.111 -1.13712 6.62208 0
M  V30 3696 N 348.832 -1.54138 -0.328536 0
M  V30 3697 C 350.248 -1.44736 -0.672574 0
M  V30 3698 C 350.448 -0.616217 -1.91846 0
M  V30 3699 O 349.504 -0.113067 -2.52247 0
M  V30 3700 C 350.817 -2.884 -0.851217 0
M  V30 3701 C 352.365 -2.98271 -0.948877 0
M  V30 3702 C 352.84 -4.43074 -1.15973 0
M  V30 3703 N 354.331 -4.46665 -1.22658 0
M  V30 3704 C 355.066 -5.55857 -1.40751 0
M  V30 3705 N 354.562 -6.75026 -1.5592 0
M  V30 3706 N 356.355 -5.43495 -1.4342 0
M  V30 3707 H 348.506 -2.06661 0.490421 0
M  V30 3708 H 350.769 -0.934812 0.157579 0
M  V30 3709 H 350.475 -3.51699 -0.00704236 0
M  V30 3710 H 350.349 -3.34225 -1.74853 0
M  V30 3711 H 352.736 -2.35102 -1.78356 0
M  V30 3712 H 352.817 -2.55785 -0.0281435 0
M  V30 3713 H 352.461 -5.06827 -0.329915 0
M  V30 3714 H 352.391 -4.83165 -2.09426 0
M  V30 3715 H 354.882 -3.60797 -1.124 0
M  V30 3716 H 355.195 -7.54004 -1.69404 0
M  V30 3717 H 353.54 -6.77944 -1.53027 0
M  V30 3718 H 356.731 -4.49349 -1.31162 0
M  V30 3719 H 356.904 -6.28649 -1.57178 0
M  V30 3720 N 350.31 0.590341 -1.46126 0
M  V30 3721 C 351.559 1.34499 -1.50309 0
M  V30 3722 C 351.872 1.94977 -0.156021 0
M  V30 3723 O 353.078 2.71395 -0.0756037 0
M  V30 3724 C 351.534 2.43723 -2.64815 0
M  V30 3725 C 351.142 1.89582 -4.0591 0
M  V30 3726 C 352.886 3.20579 -2.78262 0
M  V30 3727 C 350.793 2.9639 -5.11769 0
M  V30 3728 H 349.723 0.505593 -0.559368 0
M  V30 3729 H 352.374 0.630848 -1.72315 0
M  V30 3730 H 350.756 3.17902 -2.36124 0
M  V30 3731 H 351.93 1.21997 -4.44357 0
M  V30 3732 H 350.245 1.25418 -3.97063 0
M  V30 3733 H 352.842 4.00276 -3.54519 0
M  V30 3734 H 353.185 3.72684 -1.85505 0
M  V30 3735 H 353.718 2.53505 -3.06562 0
M  V30 3736 H 350.457 2.49181 -6.06291 0
M  V30 3737 H 349.977 3.62487 -4.77873 0
M  V30 3738 H 351.656 3.60474 -5.37278 0
M  V30 3739 N 351.788 1.33704 0.83433 0
M  V30 3740 C 352.718 1.26967 1.95963 0
M  V30 3741 C 353.699 0.149337 1.69443 0
M  V30 3742 O 354.884 0.339852 1.91203 0
M  V30 3743 C 352.014 1.01275 3.32206 0
M  V30 3744 C 350.968 2.09652 3.73136 0
M  V30 3745 C 350.294 1.69166 5.07235 0
M  V30 3746 C 351.594 3.51372 3.86439 0
M  V30 3747 H 353.288 2.2112 2.01857 0
M  V30 3748 H 350.834 1.06447 0.969793 0
M  V30 3749 H 352.787 0.952106 4.10503 0
M  V30 3750 H 351.511 0.0356203 3.26581 0
M  V30 3751 H 350.17 2.14766 2.97104 0
M  V30 3752 H 349.818 0.701437 4.98085 0
M  V30 3753 H 349.518 2.41694 5.35591 0
M  V30 3754 H 351.042 1.64576 5.88003 0
M  V30 3755 H 352.456 3.48734 4.55036 0
M  V30 3756 H 350.853 4.22425 4.26236 0
M  V30 3757 H 351.923 3.89546 2.88759 0
M  V30 3758 N 353.266 -1.05314 1.17247 0
M  V30 3759 C 354.494 -1.81971 0.984593 0
M  V30 3760 C 354.909 -1.82929 -0.467166 0
M  V30 3761 O 354.266 -1.25564 -1.32438 0
M  V30 3762 C 354.317 -3.28143 1.51672 0
M  V30 3763 O 354.038 -3.27347 2.91163 0
M  V30 3764 C 355.539 -4.21493 1.37326 0
M  V30 3765 H 352.759 -0.573455 0.348411 0
M  V30 3766 H 355.303 -1.32808 1.55506 0
M  V30 3767 H 353.458 -3.74582 0.988302 0
M  V30 3768 H 353.872 -4.18824 3.15732 0
M  V30 3769 H 355.346 -5.22043 1.79375 0
M  V30 3770 H 355.823 -4.38031 0.320169 0
M  V30 3771 H 356.429 -3.80909 1.89178 0
M  V30 3772 N 354.744 -0.972509 -1.24016 0
M  V30 3773 C 355.99 -0.637978 -1.92504 0
M  V30 3774 C 356.323 0.825383 -1.75787 0
M  V30 3775 O 355.598 1.59442 -1.11393 0
M  V30 3776 C 355.881 -1.01942 -3.45369 0
M  V30 3777 C 355.734 -2.53983 -3.71231 0
M  V30 3778 C 357.053 -0.55751 -4.36555 0
M  V30 3779 H 354.172 -0.233248 -0.699117 0
M  V30 3780 H 356.814 -1.21238 -1.46292 0
M  V30 3781 H 354.964 -0.530656 -3.84859 0
M  V30 3782 H 356.636 -3.10374 -3.41271 0
M  V30 3783 H 354.879 -2.96968 -3.16216 0
M  V30 3784 H 355.55 -2.75723 -4.78206 0
M  V30 3785 H 358.026 -0.977029 -4.04467 0
M  V30 3786 H 356.902 -0.85292 -5.42233 0
M  V30 3787 H 357.163 0.542328 -4.38761 0
M  V30 3788 N 356.222 1.38976 -0.743202 0
M  V30 3789 C 357.633 1.83123 -0.363732 0
M  V30 3790 C 357.984 1.6205 1.10609 0
M  V30 3791 O 357.109 1.11606 1.854 0
M  V30 3792 C 357.704 3.32439 -0.653408 0
M  V30 3793 C 356.263 3.74974 -0.327338 0
M  V30 3794 C 355.41 2.61878 -0.911875 0
M  V30 3795 H 358.361 1.27852 -0.940191 0
M  V30 3796 H 358.382 3.80432 0.0720031 0
M  V30 3797 H 357.894 3.47745 -1.72323 0
M  V30 3798 H 355.995 3.65252 0.736314 0
M  V30 3799 H 356.108 4.72106 -0.815631 0
M  V30 3800 H 354.472 2.52448 -0.337944 0
M  V30 3801 H 355.255 2.79987 -1.98651 0
M  V30 3802 N 357.7 0.491464 1.49741 0
M  V30 3803 C 358.949 -0.0582189 2.01616 0
M  V30 3804 C 359.262 -1.38927 1.3769 0
M  V30 3805 O 360.468 -2.02509 1.80838 0
M  V30 3806 C 358.924 -0.154235 3.59569 0
M  V30 3807 C 358.532 1.1696 4.32463 0
M  V30 3808 C 360.276 -0.65479 4.1942 0
M  V30 3809 C 358.183 1.03627 5.8225 0
M  V30 3810 H 357.113 -0.0255317 0.753568 0
M  V30 3811 H 359.764 0.629445 1.72367 0
M  V30 3812 H 358.146 -0.906138 3.85493 0
M  V30 3813 H 359.32 1.93405 4.18248 0
M  V30 3814 H 357.635 1.60285 3.84315 0
M  V30 3815 H 360.232 -0.771903 5.29099 0
M  V30 3816 H 360.575 -1.65127 3.8215 0
M  V30 3817 H 361.108 0.040304 3.9778 0
M  V30 3818 H 357.847 2.00672 6.24028 0
M  V30 3819 H 357.367 0.312546 5.98985 0
M  V30 3820 H 359.046 0.711114 6.4308 0
M  V30 3821 N 359.178 -1.55987 0.224894 0
M  V30 3822 C 360.141 -2.19178 -0.670348 0
M  V30 3823 C 361.141 -1.15461 -1.11917 0
M  V30 3824 O 362.331 -1.40675 -1.02743 0
M  V30 3825 C 359.463 -2.81777 -1.9187 0
M  V30 3826 H 360.656 -2.99662 -0.119364 0
M  V30 3827 H 358.209 -1.5628 -0.0247128 0
M  V30 3828 H 358.944 -2.05172 -2.51147 0
M  V30 3829 H 358.729 -3.57732 -1.60531 0
M  V30 3830 H 360.219 -3.30205 -2.55645 0
M  V30 3831 N 360.656 0.0484629 -1.57525 0
M  V30 3832 C 361.588 1.08222 -2.02041 0
M  V30 3833 C 362.601 1.33621 -0.930012 0
M  V30 3834 O 363.79 1.3145 -1.20761 0
M  V30 3835 C 360.89 2.42818 -2.36416 0
M  V30 3836 C 360.063 2.37049 -3.67596 0
M  V30 3837 C 359.122 3.53937 -3.89378 0
M  V30 3838 O 358.148 3.34308 -4.60681 0
M  V30 3839 N 359.35 4.75126 -3.3352 0
M  V30 3840 H 362.115 0.702946 -2.9134 0
M  V30 3841 H 359.676 0.236745 -1.6016 0
M  V30 3842 H 361.668 3.197 -2.48141 0
M  V30 3843 H 360.238 2.72661 -1.52888 0
M  V30 3844 H 359.458 1.45395 -3.66407 0
M  V30 3845 H 360.746 2.30318 -4.53686 0
M  V30 3846 H 360.144 4.93976 -2.75688 0
M  V30 3847 H 358.701 5.49439 -3.50656 0
M  V30 3848 N 362.134 1.5431 0.320358 0
M  V30 3849 C 363.411 1.63322 1.07635 0
M  V30 3850 C 363.791 0.46912 2.05821 0
M  V30 3851 O 363.139 -0.536274 2.22118 0
M  V30 3852 C 363.349 3.00465 1.77544 0
M  V30 3853 C 364.697 3.56621 2.30449 0
M  V30 3854 O 365.721 3.02791 1.87606 0
M  V30 3855 O 364.58 4.5083 3.08892 0
M  V30 3856 H 361.674 0.661502 0.496331 0
M  V30 3857 H 364.22 1.66656 0.319992 0
M  V30 3858 H 362.992 3.76629 1.06143 0
M  V30 3859 H 362.615 3.00824 2.59982 0
M  V30 3860 N 363.613 -0.582584 1.46437 0
M  V30 3861 C 364.545 -1.70618 1.53043 0
M  V30 3862 C 365.558 -1.57322 0.418769 0
M  V30 3863 O 366.747 -1.64744 0.687136 0
M  V30 3864 C 363.847 -3.08869 1.39474 0
M  V30 3865 C 363.02 -3.48166 2.64762 0
M  V30 3866 C 362.079 -4.65478 2.4539 0
M  V30 3867 O 361.105 -4.71333 3.19114 0
M  V30 3868 N 362.307 -5.60365 1.51564 0
M  V30 3869 H 365.072 -1.65405 2.49923 0
M  V30 3870 H 362.633 -0.768567 1.42494 0
M  V30 3871 H 364.625 -3.85143 1.24287 0
M  V30 3872 H 363.195 -3.08449 0.507758 0
M  V30 3873 H 362.415 -2.61598 2.9489 0
M  V30 3874 H 363.703 -3.71188 3.4799 0
M  V30 3875 H 363.101 -5.5837 0.907705 0
M  V30 3876 H 361.658 -6.36068 1.4234 0
M  V30 3877 N 365.091 -1.34144 -0.827227 0
M  V30 3878 C 366.337 -1.26446 -1.58554 0
M  V30 3879 C 366.67 0.1664 -1.93486 0
M  V30 3880 O 365.945 1.1107 -1.59667 0
M  V30 3881 C 366.228 -2.15111 -2.8879 0
M  V30 3882 C 366.081 -3.66712 -2.60465 0
M  V30 3883 C 367.4 -2.03311 -3.90324 0
M  V30 3884 H 364.519 -0.46067 -0.575284 0
M  V30 3885 H 367.161 -1.64356 -0.953269 0
M  V30 3886 H 365.311 -1.8291 -3.42748 0
M  V30 3887 H 366.983 -4.09259 -2.1285 0
M  V30 3888 H 365.226 -3.88014 -1.93978 0
M  V30 3889 H 365.897 -4.24112 -3.53317 0
M  V30 3890 H 368.373 -2.31574 -3.45706 0
M  V30 3891 H 367.249 -2.67582 -4.79261 0
M  V30 3892 H 367.51 -1.00879 -4.30437 0
M  V30 3893 N 366.569 1.04691 -1.17803 0
M  V30 3894 C 367.817 1.7743 -0.967617 0
M  V30 3895 C 368.138 1.88359 0.504574 0
M  V30 3896 O 367.408 1.40402 1.36617 0
M  V30 3897 H 365.988 0.657242 -0.355024 0
M  V30 3898 H 368.65 1.2638 -1.48371 0
M  V30 3899 H 367.746 2.78924 -1.40027 0
M  V30 3900 N 368.047 0.979072 1.23499 0
M  V30 3901 C 368.98 0.463027 2.23453 0
M  V30 3902 C 369.958 -0.469128 1.55685 0
M  V30 3903 O 371.142 -0.397882 1.84253 0
M  V30 3904 C 368.269 -0.330308 3.37086 0
M  V30 3905 C 367.315 0.545795 4.22993 0
M  V30 3906 S 368.148 1.99285 4.97037 0
M  V30 3907 C 369.304 1.20862 6.1412 0
M  V30 3908 H 369.537 1.31005 2.6688 0
M  V30 3909 H 367.07 0.784965 1.32957 0
M  V30 3910 H 369.028 -0.782027 4.02982 0
M  V30 3911 H 367.689 -1.15244 2.92194 0
M  V30 3912 H 366.882 -0.0638928 5.03959 0
M  V30 3913 H 366.484 0.933705 3.62157 0
M  V30 3914 H 368.776 0.469284 6.75873 0
M  V30 3915 H 369.719 1.99307 6.79472 0
M  V30 3916 H 370.127 0.727992 5.59786 0
M  V30 3917 N 369.525 -1.3858 0.750561 0
M  V30 3918 C 370.755 -2.04175 0.31564 0
M  V30 3919 C 371.163 -1.56726 -1.05989 0
M  V30 3920 O 370.506 -0.734225 -1.68389 0
M  V30 3921 C 370.568 -3.58585 0.256389 0
M  V30 3922 C 370.232 -4.29077 1.57296 0
M  V30 3923 C 371.229 -4.54656 2.52159 0
M  V30 3924 C 368.914 -4.67324 1.84156 0
M  V30 3925 C 370.908 -5.17512 3.72103 0
M  V30 3926 C 368.595 -5.29905 3.04374 0
M  V30 3927 C 369.593 -5.54933 3.98168 0
M  V30 3928 O 369.281 -6.16212 5.16273 0
M  V30 3929 H 369.013 -0.662742 0.133226 0
M  V30 3930 H 371.567 -1.78313 1.01948 0
M  V30 3931 H 369.797 -3.83406 -0.503677 0
M  V30 3932 H 371.486 -4.05628 -0.148612 0
M  V30 3933 H 372.252 -4.25539 2.32683 0
M  V30 3934 H 368.131 -4.47191 1.11988 0
M  V30 3935 H 371.675 -5.36963 4.45327 0
M  V30 3936 H 367.572 -5.58444 3.23745 0
M  V30 3937 H 368.34 -6.34701 5.16815 0
M  V30 3938 N 371.003 -0.499398 -1.49478 0
M  V30 3939 C 372.233 0.0424839 -2.06556 0
M  V30 3940 C 372.641 1.31514 -1.36018 0
M  V30 3941 O 371.984 1.78555 -0.431718 0
M  V30 3942 C 372.046 0.368074 -3.57611 0
M  V30 3943 C 371.71 -0.806631 -4.49825 0
M  V30 3944 C 372.707 -1.69667 -4.91436 0
M  V30 3945 C 370.392 -1.00498 -4.92144 0
M  V30 3946 C 372.386 -2.76923 -5.74101 0
M  V30 3947 C 370.073 -2.08072 -5.74586 0
M  V30 3948 C 371.071 -2.96119 -6.15469 0
M  V30 3949 O 370.759 -4.01836 -6.96264 0
M  V30 3950 H 370.491 -0.0165165 -0.675798 0
M  V30 3951 H 373.045 -0.695497 -1.93267 0
M  V30 3952 H 371.275 1.15963 -3.68903 0
M  V30 3953 H 372.964 0.848381 -3.96935 0
M  V30 3954 H 373.73 -1.55524 -4.59388 0
M  V30 3955 H 369.609 -0.329036 -4.59824 0
M  V30 3956 H 373.153 -3.45676 -6.05932 0
M  V30 3957 H 369.05 -2.22211 -6.06047 0
M  V30 3958 H 369.818 -3.9917 -7.14567 0
M  V30 3959 N 372.481 1.55866 -0.233164 0
M  V30 3960 C 373.413 2.18099 0.704668 0
M  V30 3961 C 374.426 1.15334 1.14899 0
M  V30 3962 O 375.615 1.42262 1.07814 0
M  V30 3963 C 372.715 2.7592 1.96777 0
M  V30 3964 C 371.888 4.03969 1.67713 0
M  V30 3965 C 370.947 4.46242 2.78845 0
M  V30 3966 O 369.973 5.12903 2.46818 0
M  V30 3967 N 371.175 4.12886 4.08051 0
M  V30 3968 H 373.94 2.99205 0.172258 0
M  V30 3969 H 371.501 1.61815 -0.0525945 0
M  V30 3970 H 373.493 3.01165 2.70337 0
M  V30 3971 H 372.063 1.99051 2.41034 0
M  V30 3972 H 371.283 3.86459 0.777391 0
M  V30 3973 H 372.571 4.8748 1.4574 0
M  V30 3974 H 371.969 3.59342 4.3691 0
M  V30 3975 H 370.526 4.42997 4.78118 0
M  V30 3976 N 373.959 -0.0401083 1.57549 0
M  V30 3977 C 374.891 -1.07149 2.02612 0
M  V30 3978 C 375.904 -1.33126 0.937085 0
M  V30 3979 O 377.093 -1.30808 1.21456 0
M  V30 3980 C 374.193 -2.41561 2.37701 0
M  V30 3981 C 373.366 -2.35096 3.68848 0
M  V30 3982 C 372.425 -3.51867 3.91249 0
M  V30 3983 O 371.451 -3.3186 4.62447 0
M  V30 3984 N 372.653 -4.73351 3.36035 0
M  V30 3985 H 375.418 -0.687485 2.91708 0
M  V30 3986 H 372.979 -0.228248 1.60283 0
M  V30 3987 H 374.971 -3.18379 2.49833 0
M  V30 3988 H 373.541 -2.71846 1.54332 0
M  V30 3989 H 372.761 -1.4345 3.67173 0
M  V30 3990 H 374.049 -2.27908 4.54901 0
M  V30 3991 H 373.447 -4.92507 2.78304 0
M  V30 3992 H 372.004 -5.47572 3.53565 0
M  V30 3993 N 375.437 -1.54477 -0.31217 0
M  V30 3994 C 376.848 -1.64344 -0.885891 0
M  V30 3995 C 377.199 -0.54485 -1.88483 0
M  V30 3996 O 376.324 0.320387 -2.14015 0
M  V30 3997 C 376.919 -2.97908 -1.61357 0
M  V30 3998 C 375.478 -3.09933 -2.13585 0
M  V30 3999 C 374.625 -2.59971 -0.964897 0
M  V30 4000 H 377.576 -1.58448 -0.0894528 0
M  V30 4001 H 377.597 -2.88706 -2.47848 0
M  V30 4002 H 377.109 -3.77845 -0.886277 0
M  V30 4003 H 375.21 -2.34694 -2.89395 0
M  V30 4004 H 375.323 -4.15916 -2.37804 0
M  V30 4005 H 373.687 -2.16147 -1.34731 0
M  V30 4006 H 374.47 -3.42376 -0.251742 0
M  V30 4007 N 376.915 0.57481 -1.46744 0
M  V30 4008 C 378.163 1.33009 -1.52161 0
M  V30 4009 C 378.484 1.94185 -0.178092 0
M  V30 4010 O 377.754 1.7899 0.796196 0
M  V30 4011 H 376.334 0.493873 -0.560445 0
M  V30 4012 H 378.996 0.672589 -1.82927 0
M  V30 4013 H 378.092 2.13273 -2.27862 0
M  V30 4014 N 378.394 1.34581 0.820102 0
M  V30 4015 C 379.326 1.22236 1.93884 0
M  V30 4016 C 380.339 0.148776 1.62119 0
M  V30 4017 O 381.528 0.400877 1.7394 0
M  V30 4018 C 378.628 0.856542 3.27897 0
M  V30 4019 C 377.801 2.02569 3.87666 0
M  V30 4020 C 376.86 1.63782 5.00062 0
M  V30 4021 O 375.886 2.35477 5.18208 0
M  V30 4022 N 377.088 0.553611 5.77854 0
M  V30 4023 H 379.853 2.18615 2.05006 0
M  V30 4024 H 377.414 1.27573 0.99683 0
M  V30 4025 H 379.406 0.578806 4.0054 0
M  V30 4026 H 377.976 -0.0171518 3.12595 0
M  V30 4027 H 377.196 2.468 3.07382 0
M  V30 4028 H 378.484 2.80752 4.24329 0
M  V30 4029 H 377.882 -0.0423528 5.65684 0
M  V30 4030 H 376.439 0.335614 6.50935 0
M  V30 4031 N 379.872 -1.04064 1.18357 0
M  V30 4032 C 380.804 -2.12114 0.868358 0
M  V30 4033 C 381.817 -1.62247 -0.134045 0
M  V30 4034 O 383.006 -1.78253 0.0937933 0
M  V30 4035 C 380.106 -3.37773 0.276132 0
M  V30 4036 C 379.279 -4.16874 1.3242 0
M  V30 4037 C 378.338 -5.20861 0.747662 0
M  V30 4038 O 377.364 -5.51141 1.42239 0
M  V30 4039 N 378.566 -5.78715 -0.454823 0
M  V30 4040 H 381.331 -2.39748 1.79836 0
M  V30 4041 H 378.892 -1.20258 1.08396 0
M  V30 4042 H 380.884 -4.04513 -0.123133 0
M  V30 4043 H 379.454 -3.07581 -0.557895 0
M  V30 4044 H 378.674 -3.45456 1.89878 0
M  V30 4045 H 379.962 -4.66516 2.03078 0
M  V30 4046 H 379.36 -5.56415 -1.02073 0
M  V30 4047 H 377.917 -6.46921 -0.79601 0
M  V30 4048 N 381.35 -0.985608 -1.22978 0
M  V30 4049 C 382.28 -0.549649 -2.26939 0
M  V30 4050 C 383.261 0.419803 -1.64838 0
M  V30 4051 O 384.446 0.31203 -1.91677 0
M  V30 4052 C 381.576 0.143652 -3.47003 0
M  V30 4053 C 380.53 -0.743606 -4.21491 0
M  V30 4054 C 379.856 0.0822027 -5.34637 0
M  V30 4055 C 381.156 -2.03694 -4.80943 0
M  V30 4056 H 382.85 -1.41862 -2.63658 0
M  V30 4057 H 380.396 -0.683571 -1.26741 0
M  V30 4058 H 382.349 0.459985 -4.18882 0
M  V30 4059 H 381.073 1.04711 -3.09359 0
M  V30 4060 H 379.732 -1.04347 -3.51436 0
M  V30 4061 H 379.38 0.986359 -4.93234 0
M  V30 4062 H 379.08 -0.508377 -5.85397 0
M  V30 4063 H 380.604 0.392797 -6.09335 0
M  V30 4064 H 382.018 -1.78504 -5.44802 0
M  V30 4065 H 380.415 -2.57573 -5.42011 0
M  V30 4066 H 381.485 -2.72042 -4.01399 0
M  V30 4067 N 382.828 1.3818 -0.7579 0
M  V30 4068 C 383.791 2.28764 -0.141286 0
M  V30 4069 C 384.791 1.47388 0.642907 0
M  V30 4070 O 385.981 1.67781 0.468536 0
M  V30 4071 C 383.113 3.31184 0.808069 0
M  V30 4072 H 384.306 2.848 -0.939633 0
M  V30 4073 H 381.859 1.47212 -0.525191 0
M  V30 4074 H 382.594 2.80247 1.63193 0
M  V30 4075 H 382.379 3.91314 0.248104 0
M  V30 4076 H 383.869 3.98909 1.23536 0
M  V30 4077 N 384.306 0.507319 1.49211 0
M  V30 4078 C 385.534 -0.0315749 2.06876 0
M  V30 4079 C 385.949 -1.30241 1.36685 0
M  V30 4080 O 385.306 -1.76937 0.447152 0
M  V30 4081 C 385.357 -0.282627 3.60393 0
M  V30 4082 O 385.078 0.937835 4.27944 0
M  V30 4083 C 386.579 -0.864453 4.3479 0
M  V30 4084 H 383.799 0.0233048 0.670595 0
M  V30 4085 H 386.343 0.706484 1.91909 0
M  V30 4086 H 384.498 -0.97068 3.75042 0
M  V30 4087 H 384.912 0.704567 5.19746 0
M  V30 4088 H 386.386 -0.989664 5.43056 0
M  V30 4089 H 386.863 -1.86382 3.97692 0
M  V30 4090 H 387.469 -0.213672 4.24763 0
M  V30 4091 N 385.784 -1.5574 0.241426 0
M  V30 4092 C 387.03 -1.99846 -0.378555 0
M  V30 4093 C 387.385 -1.12665 -1.55963 0
M  V30 4094 O 386.678 -0.180966 -1.90743 0
M  V30 4095 C 386.872 -3.47308 -0.843317 0
M  V30 4096 C 386.701 -4.48756 0.291178 0
M  V30 4097 C 385.471 -4.9949 0.764077 0
M  V30 4098 C 387.669 -5.02039 1.11631 0
M  V30 4099 N 385.651 -5.84676 1.87156 0
M  V30 4100 C 387.022 -5.84343 2.07226 0
M  V30 4101 C 389.077 -4.84354 1.15349 0
M  V30 4102 C 387.78 -6.50851 3.06245 0
M  V30 4103 C 389.806 -5.51636 2.13195 0
M  V30 4104 C 389.168 -6.33724 3.07528 0
M  V30 4105 H 385.267 -0.774968 -0.104634 0
M  V30 4106 H 387.851 -1.91385 0.357751 0
M  V30 4107 H 386.022 -3.56178 -1.54893 0
M  V30 4108 H 387.754 -3.78299 -1.43779 0
M  V30 4109 H 384.509 -4.72311 0.349175 0
M  V30 4110 H 384.933 -6.31967 2.42789 0
M  V30 4111 H 389.575 -4.20525 0.438057 0
M  V30 4112 H 387.293 -7.1385 3.78739 0
M  V30 4113 H 390.879 -5.39909 2.16771 0
M  V30 4114 H 389.759 -6.84867 3.82003 0
M  V30 4115 N 387.262 0.0317525 -1.57568 0
M  V30 4116 C 388.511 0.722131 -1.8833 0
M  V30 4117 C 388.824 1.76664 -0.839587 0
M  V30 4118 O 390.03 2.50942 -1.03635 0
M  V30 4119 C 388.486 1.33544 -3.34207 0
M  V30 4120 C 388.094 0.327415 -4.46802 0
M  V30 4121 C 389.838 2.00585 -3.7412 0
M  V30 4122 C 387.745 0.948915 -5.83738 0
M  V30 4123 H 386.675 0.273466 -0.702661 0
M  V30 4124 H 389.326 -0.0235811 -1.83485 0
M  V30 4125 H 387.708 2.13077 -3.33788 0
M  V30 4126 H 388.882 -0.441006 -4.58685 0
M  V30 4127 H 387.197 -0.240758 -4.15703 0
M  V30 4128 H 389.794 2.47932 -4.73744 0
M  V30 4129 H 390.137 2.82285 -3.05975 0
M  V30 4130 H 390.67 1.27831 -3.76702 0
M  V30 4131 H 387.409 0.171387 -6.55276 0
M  V30 4132 H 386.929 1.68724 -5.7558 0
M  V30 4133 H 388.608 1.45705 -6.3038 0
M  V30 4134 N 388.74 1.54641 0.303973 0
M  V30 4135 C 389.986 1.74038 1.04109 0
M  V30 4136 C 390.319 0.523051 1.87024 0
M  V30 4137 O 389.594 -0.479874 1.88487 0
M  V30 4138 C 389.877 3.02761 1.94955 0
M  V30 4139 C 389.73 4.34787 1.1524 0
M  V30 4140 C 391.049 3.27336 2.94175 0
M  V30 4141 H 388.168 0.63323 0.377079 0
M  V30 4142 H 390.81 1.87354 0.316001 0
M  V30 4143 H 388.96 2.9154 2.56782 0
M  V30 4144 H 390.632 4.57922 0.557236 0
M  V30 4145 H 388.875 4.31407 0.455053 0
M  V30 4146 H 389.546 5.21116 1.8205 0
M  V30 4147 H 392.022 3.38148 2.42477 0
M  V30 4148 H 390.898 4.18726 3.54908 0
M  V30 4149 H 391.159 2.45491 3.67677 0
M  V30 4150 N 390.218 -0.567019 1.47046 0
M  V30 4151 C 391.629 -1.14916 1.47143 0
M  V30 4152 C 391.98 -1.94954 0.220767 0
M  V30 4153 O 391.105 -2.05602 -0.67505 0
M  V30 4154 C 391.7 -2.09069 2.666 0
M  V30 4155 C 390.259 -2.62575 2.69687 0
M  V30 4156 C 389.406 -1.38755 2.40088 0
M  V30 4157 H 392.357 -0.354126 1.54699 0
M  V30 4158 H 392.378 -2.92789 2.43011 0
M  V30 4159 H 391.89 -1.50789 3.57609 0
M  V30 4160 H 389.991 -3.24681 1.82792 0
M  V30 4161 H 390.104 -3.04239 3.70102 0
M  V30 4162 H 388.468 -1.69098 1.90468 0
M  V30 4163 H 389.251 -0.822822 3.33293 0
M  V30 4164 N 391.696 -1.35014 -0.812953 0
M  V30 4165 C 393.107 -1.25035 -1.38648 0
M  V30 4166 C 393.458 0.119967 -1.95833 0
M  V30 4167 O 392.583 1.02069 -1.90816 0
M  V30 4168 C 393.178 -2.26394 -2.52054 0
M  V30 4169 C 391.737 -2.20175 -3.05287 0
M  V30 4170 C 390.884 -2.12451 -1.78213 0
M  V30 4171 H 393.835 -1.46235 -0.616516 0
M  V30 4172 H 393.856 -1.88672 -3.30429 0
M  V30 4173 H 393.368 -3.26116 -2.10404 0
M  V30 4174 H 391.469 -1.23841 -3.51417 0
M  V30 4175 H 391.582 -3.11863 -3.63701 0
M  V30 4176 H 389.946 -1.58328 -1.9951 0
M  V30 4177 H 390.729 -3.14024 -1.38723 0
M  V30 4178 N 393.175 1.03435 -1.18907 0
M  V30 4179 C 394.423 1.76394 -0.986382 0
M  V30 4180 C 394.744 1.88883 0.484567 0
M  V30 4181 O 394.014 1.41843 1.3512 0
M  V30 4182 H 392.594 0.65344 -0.361975 0
M  V30 4183 H 395.256 1.248 -1.49703 0
M  V30 4184 H 394.352 2.77424 -1.42978 0
M  V30 4185 N 394.653 0.992116 1.22453 0
M  V30 4186 C 395.585 0.500024 2.23679 0
M  V30 4187 C 396.598 -0.404463 1.57696 0
M  V30 4188 O 397.787 -0.206722 1.77299 0
M  V30 4189 C 394.887 -0.294711 3.37616 0
M  V30 4190 C 394.06 0.605723 4.33186 0
M  V30 4191 C 393.119 -0.13717 5.26021 0
M  V30 4192 O 392.145 0.477164 5.67196 0
M  V30 4193 N 393.347 -1.4197 5.62872 0
M  V30 4194 H 396.112 1.37045 2.66531 0
M  V30 4195 H 393.673 0.866741 1.36745 0
M  V30 4196 H 395.665 -0.800329 3.96707 0
M  V30 4197 H 394.235 -1.06623 2.93854 0
M  V30 4198 H 393.455 1.29202 3.72425 0
M  V30 4199 H 394.743 1.21896 4.93983 0
M  V30 4200 H 394.141 -1.94015 5.31389 0
M  V30 4201 H 392.698 -1.87052 6.24383 0
M  V30 4202 N 396.131 -1.37776 0.765217 0
M  V30 4203 C 397.361 -2.03828 0.337277 0
M  V30 4204 C 397.769 -1.57841 -1.04321 0
M  V30 4205 O 397.112 -0.752043 -1.67601 0
M  V30 4206 C 397.174 -3.58292 0.294407 0
M  V30 4207 C 396.838 -4.27384 1.61838 0
M  V30 4208 C 397.835 -4.51956 2.56967 0
M  V30 4209 C 395.52 -4.65345 1.89102 0
M  V30 4210 C 397.514 -5.13536 3.77571 0
M  V30 4211 C 395.201 -5.26647 3.09978 0
M  V30 4212 C 396.199 -5.50679 4.04032 0
M  V30 4213 O 395.887 -6.10702 5.2278 0
M  V30 4214 H 395.619 -0.661292 0.140248 0
M  V30 4215 H 398.173 -1.77222 1.03834 0
M  V30 4216 H 396.403 -3.83918 -0.462983 0
M  V30 4217 H 398.092 -4.05763 -0.105581 0
M  V30 4218 H 398.858 -4.23048 2.37183 0
M  V30 4219 H 394.737 -4.45978 1.16725 0
M  V30 4220 H 398.281 -5.3221 4.50997 0
M  V30 4221 H 394.178 -5.54979 3.29649 0
M  V30 4222 H 394.946 -6.29183 5.23517 0
M  V30 4223 N 397.609 -0.515225 -1.4894 0
M  V30 4224 C 398.856 0.024215 -2.02486 0
M  V30 4225 C 399.184 1.35671 -1.39368 0
M  V30 4226 O 398.439 1.88566 -0.523574 0
M  V30 4227 C 398.738 0.210595 -3.56779 0
M  V30 4228 C 398.404 -1.04569 -4.38607 0
M  V30 4229 C 397.066 -1.39002 -4.60686 0
M  V30 4230 C 399.418 -1.88008 -4.86109 0
M  V30 4231 C 396.746 -2.568 -5.27514 0
M  V30 4232 C 399.098 -3.04972 -5.54234 0
M  V30 4233 C 397.762 -3.39768 -5.74555 0
M  V30 4234 H 397.032 0.00886088 -0.740947 0
M  V30 4235 H 399.679 -0.678263 -1.79086 0
M  V30 4236 H 397.984 0.99572 -3.78936 0
M  V30 4237 H 399.681 0.642659 -3.95817 0
M  V30 4238 H 396.271 -0.767497 -4.21672 0
M  V30 4239 H 400.455 -1.62719 -4.68867 0
M  V30 4240 H 395.711 -2.8398 -5.41447 0
M  V30 4241 H 399.885 -3.69943 -5.90013 0
M  V30 4242 H 397.512 -4.31148 -6.26112 0
M  V30 4243 N 399.087 1.5561 -0.249682 0
M  V30 4244 C 400.02 2.17537 0.689408 0
M  V30 4245 C 400.998 1.12829 1.17083 0
M  V30 4246 O 402.182 1.41229 1.24846 0
M  V30 4247 C 399.309 2.77828 1.93725 0
M  V30 4248 C 398.355 3.95615 1.59346 0
M  V30 4249 S 399.188 5.30988 0.69367 0
M  V30 4250 C 400.344 5.94734 1.95046 0
M  V30 4251 H 400.577 2.96852 0.163142 0
M  V30 4252 H 398.11 1.54362 -0.0341166 0
M  V30 4253 H 400.068 3.13199 2.65361 0
M  V30 4254 H 398.729 1.98454 2.43465 0
M  V30 4255 H 397.922 4.364 2.52132 0
M  V30 4256 H 397.524 3.61535 0.957512 0
M  V30 4257 H 399.816 6.12419 2.89739 0
M  V30 4258 H 400.759 6.90109 1.58604 0
M  V30 4259 H 401.167 5.23832 2.10381 0
M  V30 4260 N 400.565 -0.0233959 1.57583 0
M  V30 4261 C 401.498 -1.05549 2.02323 0
M  V30 4262 C 402.476 -1.34843 0.908626 0
M  V30 4263 O 403.66 -1.47404 1.17491 0
M  V30 4264 C 400.787 -2.38885 2.40108 0
M  V30 4265 C 399.833 -2.2541 3.62067 0
M  V30 4266 S 400.666 -1.60217 5.1097 0
M  V30 4267 C 401.822 -2.95032 5.52003 0
M  V30 4268 H 402.055 -0.674435 2.89549 0
M  V30 4269 H 399.588 -0.23355 1.52623 0
M  V30 4270 H 401.546 -3.15562 2.62547 0
M  V30 4271 H 400.207 -2.74137 1.53323 0
M  V30 4272 H 399.4 -3.23854 3.86179 0
M  V30 4273 H 399.002 -1.56876 3.39508 0
M  V30 4274 H 401.294 -3.91357 5.53033 0
M  V30 4275 H 402.237 -2.75646 6.52246 0
M  V30 4276 H 402.645 -2.97865 4.79517 0
M  V30 4277 N 402.043 -1.548 -0.295768 0
M  V30 4278 C 403.291 -1.73985 -1.02828 0
M  V30 4279 C 403.612 -0.531406 -1.87619 0
M  V30 4280 O 402.882 0.454221 -1.90561 0
M  V30 4281 H 401.462 -0.641556 -0.382642 0
M  V30 4282 H 404.124 -1.92163 -0.325489 0
M  V30 4283 H 403.22 -2.63129 -1.67838 0
M  V30 4284 N 403.521 0.559213 -1.47345 0
M  V30 4285 C 404.798 1.31997 -1.44348 0
M  V30 4286 C 405.178 2.1064 -0.139358 0
M  V30 4287 O 404.526 2.1091 0.879153 0
M  V30 4288 C 404.736 2.22618 -2.68779 0
M  V30 4289 C 406.084 2.83701 -3.1591 0
M  V30 4290 O 407.108 2.32921 -2.69493 0
M  V30 4291 O 405.967 3.75993 -3.966 0
M  V30 4292 H 403.061 0.594251 -0.575147 0
M  V30 4293 H 405.607 0.578282 -1.59543 0
M  V30 4294 H 404.379 1.64093 -3.55231 0
M  V30 4295 H 404.002 3.04085 -2.5616 0
M  V30 4296 N 404.999 1.35443 0.805782 0
M  V30 4297 C 405.947 1.28465 1.93906 0
M  V30 4298 C 406.941 0.17943 1.68447 0
M  V30 4299 O 408.147 0.345459 1.76654 0
M  V30 4300 H 404.522 0.399528 0.637088 0
M  V30 4301 H 406.493 2.24206 1.96912 0
M  V30 4302 C 405.242 1.07432 3.30687 0
M  V30 4303 H 404.565 1.91716 3.50835 0
M  V30 4304 H 406.005 1.06591 4.10383 0
M  V30 4305 C 404.464 -0.22179 3.36169 0
M  V30 4306 O 404.994 -1.21731 3.82811 0
M  V30 4307 N 403.2 -0.260841 2.89427 0
M  V30 4308 H 402.747 0.549884 2.51663 0
M  V30 4309 H 402.705 -1.12777 2.93477 0
M  V30 4310 N 406.477 -1.02803 1.19454 0
M  V30 4311 C 407.893 -1.28473 0.946937 0
M  V30 4312 C 408.093 -1.97881 -0.380202 0
M  V30 4313 O 407.149 -2.26719 -1.11151 0
M  V30 4314 C 408.462 -2.13099 2.12154 0
M  V30 4315 C 410.01 -2.26404 2.16126 0
M  V30 4316 C 410.485 -3.14402 3.33039 0
M  V30 4317 N 411.976 -3.21991 3.32981 0
M  V30 4318 C 412.711 -3.90272 4.20089 0
M  V30 4319 N 412.207 -4.60777 5.17355 0
M  V30 4320 N 414 -3.8668 4.07964 0
M  V30 4321 H 406.151 -0.561665 2.04839 0
M  V30 4322 H 408.414 -0.310438 0.89573 0
M  V30 4323 H 408.12 -1.69422 3.08203 0
M  V30 4324 H 407.994 -3.13813 2.09287 0
M  V30 4325 H 410.381 -2.69311 1.20647 0
M  V30 4326 H 410.462 -1.25237 2.23045 0
M  V30 4327 H 410.106 -2.72204 4.28798 0
M  V30 4328 H 410.036 -4.1563 3.23356 0
M  V30 4329 H 412.527 -2.71778 2.62574 0
M  V30 4330 H 412.84 -5.10513 5.80169 0
M  V30 4331 H 411.185 -4.5964 5.21302 0
M  V30 4332 H 414.376 -3.30739 3.31254 0
M  V30 4333 H 414.549 -4.39621 4.76064 0
M  V30 4334 N 407.956 -0.998596 -1.21925 0
M  V30 4335 C 409.233 -0.593401 -1.86382 0
M  V30 4336 C 409.613 0.92916 -1.89552 0
M  V30 4337 O 408.961 1.81347 -1.39017 0
M  V30 4338 C 409.171 -1.22039 -3.26967 0
M  V30 4339 C 410.519 -1.32449 -4.03413 0
M  V30 4340 O 411.543 -1.17522 -3.36254 0
M  V30 4341 O 410.402 -1.56395 -5.23644 0
M  V30 4342 H 407.496 -0.202385 -0.801854 0
M  V30 4343 H 410.042 -1.09484 -1.29659 0
M  V30 4344 H 408.814 -2.26158 -3.19325 0
M  V30 4345 H 408.437 -0.704906 -3.91301 0
M  V30 4346 N 409.434 1.37368 -0.772513 0
M  V30 4347 C 410.382 2.32134 -0.147111 0
M  V30 4348 C 411.376 1.54972 0.684106 0
M  V30 4349 O 412.582 1.70363 0.581083 0
M  V30 4350 H 408.957 0.751449 -0.028786 0
M  V30 4351 H 410.928 2.82464 -0.962112 0
M  V30 4352 C 409.677 3.40226 0.71703 0
M  V30 4353 H 409 3.99706 0.0867951 0
M  V30 4354 H 410.44 4.08897 1.12159 0
M  V30 4355 C 408.899 2.80372 1.86797 0
M  V30 4356 O 409.429 2.71183 2.96349 0
M  V30 4357 N 407.635 2.37904 1.66883 0
M  V30 4358 H 407.182 2.45578 0.777759 0
M  V30 4359 H 407.14 1.98202 2.44056 0
M  V30 4360 N 410.912 0.523116 1.48665 0
M  V30 4361 C 412.137 -0.0117284 2.07397 0
M  V30 4362 C 412.562 -1.28031 1.37803 0
M  V30 4363 O 411.92 -1.75836 0.441762 0
M  V30 4364 C 411.968 -0.225786 3.59892 0
M  V30 4365 O 411.072 -1.29592 3.91509 0
M  V30 4366 H 410.413 0.0360673 0.66302 0
M  V30 4367 H 412.943 0.729066 1.9117 0
M  V30 4368 H 412.953 -0.450552 4.05505 0
M  V30 4369 H 411.628 0.700944 4.09951 0
M  V30 4370 H 410.205 -1.05436 3.57684 0
M  V30 4371 N 412.39 -1.55475 0.257931 0
M  V30 4372 C 413.353 -2.20551 -0.623706 0
M  V30 4373 C 414.353 -1.17809 -1.09443 0
M  V30 4374 O 415.543 -1.42823 -0.997362 0
M  V30 4375 C 412.675 -2.85784 -1.8585 0
M  V30 4376 H 413.868 -2.99848 -0.0557743 0
M  V30 4377 H 411.421 -1.56298 0.0084422 0
M  V30 4378 H 412.156 -2.10453 -2.46739 0
M  V30 4379 H 411.941 -3.61057 -1.52907 0
M  V30 4380 H 413.431 -3.35553 -2.48584 0
M  V30 4381 N 413.868 0.0150385 -1.57593 0
M  V30 4382 C 415.145 0.7392 -1.81094 0
M  V30 4383 C 415.525 1.92817 -0.859344 0
M  V30 4384 O 414.873 2.28301 0.095362 0
M  V30 4385 C 415.083 1.15907 -3.29191 0
M  V30 4386 C 416.431 1.56918 -3.9454 0
M  V30 4387 O 417.455 1.25328 -3.33424 0
M  V30 4388 O 416.314 2.15604 -5.02173 0
M  V30 4389 H 413.408 0.358631 -0.745193 0
M  V30 4390 H 415.954 -0.00926156 -1.69697 0
M  V30 4391 H 414.726 0.310921 -3.90063 0
M  V30 4392 H 414.349 1.96711 -3.45529 0
M  V30 4393 N 415.346 1.54954 0.287554 0
M  V30 4394 C 416.571 1.79209 1.04397 0
M  V30 4395 C 416.996 0.556431 1.79682 0
M  V30 4396 O 416.354 -0.493518 1.74454 0
M  V30 4397 C 416.402 3.00739 1.98969 0
M  V30 4398 O 415.506 2.74805 3.075 0
M  V30 4399 H 414.847 0.592755 0.299227 0
M  V30 4400 H 417.377 2.02068 0.320886 0
M  V30 4401 H 417.387 3.29077 2.4119 0
M  V30 4402 H 416.062 3.90329 1.43582 0
M  V30 4403 H 414.639 2.57523 2.69697 0
M  V30 4404 N 416.824 -0.551391 1.4764 0
M  V30 4405 C 418.24 -0.877887 1.33287 0
M  V30 4406 C 418.44 -1.98817 0.327721 0
M  V30 4407 O 417.496 -2.51171 -0.258695 0
M  V30 4408 C 418.809 -1.26563 2.72768 0
M  V30 4409 C 420.357 -1.37673 2.81097 0
M  V30 4410 C 420.832 -1.79799 4.21232 0
M  V30 4411 N 422.323 -1.8694 4.23802 0
M  V30 4412 C 423.058 -2.20876 5.29151 0
M  V30 4413 N 422.554 -2.53386 6.448 0
M  V30 4414 N 424.347 -2.217 5.16532 0
M  V30 4415 H 416.498 0.18153 2.11623 0
M  V30 4416 H 418.761 0.0185514 0.947818 0
M  V30 4417 H 418.467 -0.523591 3.47781 0
M  V30 4418 H 418.341 -2.22052 3.04915 0
M  V30 4419 H 420.728 -2.10956 2.06353 0
M  V30 4420 H 420.809 -0.40357 2.52596 0
M  V30 4421 H 420.453 -1.07083 4.96483 0
M  V30 4422 H 420.383 -2.78128 4.4716 0
M  V30 4423 H 422.874 -1.64179 3.40373 0
M  V30 4424 H 423.187 -2.78325 7.20941 0
M  V30 4425 H 421.532 -2.50953 6.48111 0
M  V30 4426 H 424.723 -1.95745 4.25207 0
M  V30 4427 H 424.896 -2.47818 5.98741 0
M  V30 4428 N 418.302 -1.35869 -0.798587 0
M  V30 4429 C 419.532 -1.32529 -1.58491 0
M  V30 4430 C 419.94 0.0975405 -1.88948 0
M  V30 4431 O 419.283 1.06224 -1.49874 0
M  V30 4432 C 419.345 -2.07247 -2.9375 0
M  V30 4433 C 419.009 -3.56391 -2.86068 0
M  V30 4434 C 420.006 -4.50824 -2.58947 0
M  V30 4435 C 417.691 -3.9915 -3.04933 0
M  V30 4436 C 419.685 -5.85993 -2.5078 0
M  V30 4437 C 417.372 -5.34413 -2.96389 0
M  V30 4438 C 418.37 -6.27646 -2.69349 0
M  V30 4439 O 418.058 -7.60426 -2.60782 0
M  V30 4440 H 417.79 -0.456529 -0.498556 0
M  V30 4441 H 420.344 -1.79425 -0.999799 0
M  V30 4442 H 418.574 -1.55001 -3.54276 0
M  V30 4443 H 420.263 -1.96883 -3.54954 0
M  V30 4444 H 421.029 -4.19104 -2.44084 0
M  V30 4445 H 416.908 -3.26961 -3.24989 0
M  V30 4446 H 420.452 -6.58735 -2.29595 0
M  V30 4447 H 416.349 -5.65743 -3.10813 0
M  V30 4448 H 417.117 -7.70444 -2.76331 0
M  V30 4449 N 419.78 1.02168 -1.19998 0
M  V30 4450 C 421.026 1.7606 -1.01855 0
M  V30 4451 C 421.381 1.87178 0.445222 0
M  V30 4452 O 420.674 1.3828 1.32624 0
M  V30 4453 C 420.868 3.18081 -1.62969 0
M  V30 4454 C 420.697 3.20809 -3.15137 0
M  V30 4455 C 419.467 3.28342 -3.84083 0
M  V30 4456 C 421.665 3.07268 -4.1242 0
M  V30 4457 N 419.647 3.2052 -5.23584 0
M  V30 4458 C 421.018 3.0716 -5.38566 0
M  V30 4459 C 423.073 2.91448 -4.03686 0
M  V30 4460 C 421.776 2.92853 -6.56985 0
M  V30 4461 C 423.802 2.78494 -5.21723 0
M  V30 4462 C 423.164 2.79046 -6.46771 0
M  V30 4463 H 419.263 0.655192 -0.426905 0
M  V30 4464 H 421.847 1.21564 -1.52087 0
M  V30 4465 H 420.018 3.70882 -1.15329 0
M  V30 4466 H 421.75 3.80375 -1.38192 0
M  V30 4467 H 418.505 3.34859 -3.34913 0
M  V30 4468 H 418.929 3.19997 -5.96599 0
M  V30 4469 H 423.571 2.89838 -3.07821 0
M  V30 4470 H 421.289 2.93213 -7.53028 0
M  V30 4471 H 424.875 2.67278 -5.16773 0
M  V30 4472 H 423.755 2.69134 -7.36571 0
M  V30 4473 N 421.258 1.00505 1.21394 0
M  V30 4474 C 422.506 0.686415 1.90086 0
M  V30 4475 C 422.827 -0.785264 1.7849 0
M  V30 4476 O 422.097 -1.56387 1.17983 0
M  V30 4477 H 420.677 0.2509 0.703604 0
M  V30 4478 H 423.339 1.27417 1.47482 0
M  V30 4479 H 422.435 0.959621 2.96981 0
M  V30 4480 N 422.737 -1.36956 0.779787 0
M  V30 4481 C 423.984 -1.99491 0.347766 0
M  V30 4482 C 424.312 -1.61898 -1.07793 0
M  V30 4483 O 423.567 -0.86071 -1.75756 0
M  V30 4484 C 423.866 -3.54585 0.447686 0
M  V30 4485 C 423.532 -4.1197 1.83279 0
M  V30 4486 C 422.194 -4.27356 2.2118 0
M  V30 4487 C 424.546 -4.43354 2.74019 0
M  V30 4488 C 421.874 -4.71432 3.4924 0
M  V30 4489 C 424.226 -4.88858 4.01497 0
M  V30 4490 C 422.89 -5.0245 4.39432 0
M  V30 4491 H 422.16 -0.729991 0.127257 0
M  V30 4492 H 424.807 -1.63599 0.995376 0
M  V30 4493 H 423.112 -3.90773 -0.283447 0
M  V30 4494 H 424.809 -4.00888 0.0945948 0
M  V30 4495 H 421.399 -4.00428 1.52825 0
M  V30 4496 H 425.583 -4.31045 2.45995 0
M  V30 4497 H 420.839 -4.80141 3.78516 0
M  V30 4498 H 425.013 -5.12108 4.71931 0
M  V30 4499 H 422.64 -5.36362 5.38721 0
M  V30 4500 N 424.215 -0.530993 -1.48385 0
M  V30 4501 C 425.461 0.00274135 -2.028 0
M  V30 4502 C 425.794 1.33838 -1.40716 0
M  V30 4503 O 425.069 1.86465 -0.553277 0
M  V30 4504 C 425.352 0.123676 -3.59888 0
M  V30 4505 C 425.205 -1.2372 -4.3245 0
M  V30 4506 C 426.524 0.849967 -4.31814 0
M  V30 4507 H 423.643 -0.000477758 -0.737 0
M  V30 4508 H 426.285 -0.688217 -1.77098 0
M  V30 4509 H 424.435 0.712157 -3.81917 0
M  V30 4510 H 426.107 -1.86687 -4.21836 0
M  V30 4511 H 424.35 -1.81882 -3.93829 0
M  V30 4512 H 425.021 -1.10557 -5.40815 0
M  V30 4513 H 427.497 0.350572 -4.14621 0
M  V30 4514 H 426.373 0.903486 -5.41413 0
M  V30 4515 H 426.634 1.90047 -3.99167 0
M  V30 4516 N 425.693 1.55336 -0.266172 0
M  V30 4517 C 427.104 1.85236 0.233315 0
M  V30 4518 C 427.455 1.18816 1.56132 0
M  V30 4519 O 426.58 0.473307 2.11161 0
M  V30 4520 C 427.175 3.36059 0.430113 0
M  V30 4521 C 425.734 3.66116 0.873842 0
M  V30 4522 C 424.881 2.77274 -0.0380016 0
M  V30 4523 H 427.832 1.51004 -0.488214 0
M  V30 4524 H 427.853 3.58681 1.26998 0
M  V30 4525 H 427.365 3.84373 -0.536588 0
M  V30 4526 H 425.466 3.23295 1.85233 0
M  V30 4527 H 425.579 4.73699 0.717358 0
M  V30 4528 H 423.943 2.50198 0.476759 0
M  V30 4529 H 424.726 3.284 -1.00042 0
M  V30 4530 N 427.171 -0.0066808 1.57599 0
M  V30 4531 C 428.081 -1.01671 2.11424 0
M  V30 4532 C 429.097 -1.38143 1.05795 0
M  V30 4533 O 430.273 -1.47011 1.37658 0
M  V30 4534 C 427.338 -2.29192 2.60139 0
M  V30 4535 C 426.399 -1.99094 3.80342 0
M  V30 4536 C 425.632 -3.20535 4.26724 0
M  V30 4537 O 425.855 -4.3199 3.72479 0
M  V30 4538 O 424.789 -3.04924 5.18946 0
M  V30 4539 H 428.615 -0.589181 2.9793 0
M  V30 4540 H 426.2 -0.225091 1.47695 0
M  V30 4541 H 428.082 -3.0412 2.917 0
M  V30 4542 H 426.757 -2.71195 1.76733 0
M  V30 4543 H 425.664 -1.21663 3.53764 0
M  V30 4544 H 426.997 -1.61931 4.648 0
M  V30 4545 N 428.649 -1.55105 -0.279332 0
M  V30 4546 C 429.612 -1.86783 -1.32834 0
M  V30 4547 C 430.612 -0.74199 -1.42657 0
M  V30 4548 O 431.802 -1.0102 -1.41918 0
M  V30 4549 C 428.934 -2.06746 -2.71052 0
M  V30 4550 H 430.127 -2.8055 -1.05979 0
M  V30 4551 H 427.68 -1.47499 -0.517087 0
M  V30 4552 H 428.415 -1.15339 -3.03097 0
M  V30 4553 H 428.2 -2.88711 -2.65309 0
M  V30 4554 H 429.69 -2.32549 -3.46858 0
M  V30 4555 N 430.127 0.543554 -1.4793 0
M  V30 4556 C 431.075 1.67039 -1.61866 0
M  V30 4557 C 432.069 1.62294 -0.48549 0
M  V30 4558 O 433.275 1.67315 -0.66376 0
M  V30 4559 H 429.65 0.552954 -0.509652 0
M  V30 4560 H 431.621 1.52426 -2.56533 0
M  V30 4561 C 430.37 3.05357 -1.6629 0
M  V30 4562 H 429.693 3.09696 -2.5284 0
M  V30 4563 H 431.133 3.83855 -1.80088 0
M  V30 4564 C 429.592 3.34531 -0.398861 0
M  V30 4565 O 430.122 3.98649 0.494162 0
M  V30 4566 N 428.328 2.89299 -0.2747 0
M  V30 4567 H 427.875 2.37298 -1.00236 0
M  V30 4568 H 427.833 3.09188 0.570075 0
M  V30 4569 N 431.605 1.3629 0.791371 0
M  V30 4570 C 432.535 1.33137 1.91825 0
M  V30 4571 C 433.516 0.203168 1.68882 0
M  V30 4572 O 434.701 0.400509 1.90025 0
M  V30 4573 C 431.831 1.11793 3.28816 0
M  V30 4574 C 430.785 2.21417 3.66277 0
M  V30 4575 C 430.111 1.85218 5.01596 0
M  V30 4576 C 431.411 3.63489 3.75064 0
M  V30 4577 H 433.105 2.2743 1.9472 0
M  V30 4578 H 430.651 1.09479 0.935437 0
M  V30 4579 H 432.604 1.08222 4.07266 0
M  V30 4580 H 431.328 0.139501 3.26302 0
M  V30 4581 H 429.987 2.2411 2.90121 0
M  V30 4582 H 429.635 0.859544 4.95602 0
M  V30 4583 H 429.335 2.58611 5.27631 0
M  V30 4584 H 430.859 1.832 5.82469 0
M  V30 4585 H 432.273 3.63034 4.43711 0
M  V30 4586 H 430.67 4.35771 4.12582 0
M  V30 4587 H 431.74 3.98536 2.76219 0
M  V30 4588 N 433.083 -1.0153 1.20538 0
M  V30 4589 C 434.329 -1.75408 1.01783 0
M  V30 4590 C 434.662 -1.88943 -0.448814 0
M  V30 4591 O 433.937 -1.4162 -1.33319 0
M  V30 4592 C 434.22 -3.17255 1.70356 0
M  V30 4593 C 434.073 -3.11508 3.24473 0
M  V30 4594 C 435.392 -4.15955 1.43769 0
M  V30 4595 H 432.511 -0.636713 0.371167 0
M  V30 4596 H 435.153 -1.18436 1.4857 0
M  V30 4597 H 433.303 -3.65898 1.30578 0
M  V30 4598 H 434.975 -2.70658 3.73553 0
M  V30 4599 H 433.218 -2.4887 3.55311 0
M  V30 4600 H 433.889 -4.11784 3.67611 0
M  V30 4601 H 436.365 -3.75973 1.7828 0
M  V30 4602 H 435.241 -5.13368 1.94279 0
M  V30 4603 H 435.502 -4.40586 0.365564 0
M  V30 4604 N 434.561 -1.01147 -1.20859 0
M  V30 4605 C 435.809 -0.696486 -1.89719 0
M  V30 4606 C 436.13 0.775788 -1.78904 0
M  V30 4607 O 435.4 1.55759 -1.18811 0
M  V30 4608 H 433.98 -0.254628 -0.702263 0
M  V30 4609 H 436.642 -1.28197 -1.46804 0
M  V30 4610 H 435.738 -0.975357 -2.96468 0
M  V30 4611 N 436.039 1.36541 -0.78704 0
M  V30 4612 C 437.455 1.52571 -0.46844 0
M  V30 4613 C 437.655 1.7415 1.01361 0
M  V30 4614 O 436.711 1.77163 1.79915 0
M  V30 4615 C 438.024 2.71299 -1.29682 0
M  V30 4616 C 439.572 2.85169 -1.29027 0
M  V30 4617 C 440.047 4.06898 -2.10233 0
M  V30 4618 N 441.538 4.1404 -2.07666 0
M  V30 4619 C 442.273 5.07301 -2.67271 0
M  V30 4620 N 441.769 6.06021 -3.35724 0
M  V30 4621 N 443.562 4.99898 -2.57018 0
M  V30 4622 H 435.713 1.20788 -1.74711 0
M  V30 4623 H 437.976 0.589364 -0.742532 0
M  V30 4624 H 437.682 2.61868 -2.34773 0
M  V30 4625 H 437.556 3.6539 -0.936479 0
M  V30 4626 H 439.943 2.94062 -0.247284 0
M  V30 4627 H 440.024 1.91992 -1.69035 0
M  V30 4628 H 439.668 3.98766 -3.1456 0
M  V30 4629 H 439.598 4.99218 -1.67597 0
M  V30 4630 H 442.089 3.43357 -1.57843 0
M  V30 4631 H 442.402 6.73741 -3.78541 0
M  V30 4632 H 440.747 6.06253 -3.39826 0
M  V30 4633 H 443.938 4.21724 -2.03142 0
M  V30 4634 H 444.111 5.72392 -3.03761 0
M  V30 4635 N 437.518 0.538854 1.48102 0
M  V30 4636 C 438.481 -0.208395 2.28251 0
M  V30 4637 C 439.481 -0.859656 1.35892 0
M  V30 4638 O 440.671 -0.71834 1.58699 0
M  V30 4639 C 437.803 -1.30252 3.15035 0
M  V30 4640 H 438.996 0.495407 2.9578 0
M  V30 4641 H 436.549 0.295112 1.53489 0
M  V30 4642 H 437.284 -2.0393 2.52157 0
M  V30 4643 H 437.069 -0.840551 3.82985 0
M  V30 4644 H 438.559 -1.82787 3.75471 0
M  V30 4645 N 438.996 -1.55193 0.274407 0
M  V30 4646 C 440.224 -2.03987 -0.345943 0
M  V30 4647 C 440.639 -1.15279 -1.4952 0
M  V30 4648 O 439.996 -0.172759 -1.8168 0
M  V30 4649 C 440.047 -3.51898 -0.827631 0
M  V30 4650 O 439.768 -4.37231 0.275855 0
M  V30 4651 C 441.269 -4.16577 -1.51587 0
M  V30 4652 H 438.489 -0.666335 -0.0789892 0
M  V30 4653 H 441.033 -2.00423 0.406294 0
M  V30 4654 H 439.188 -3.55909 -1.52996 0
M  V30 4655 H 439.602 -5.24415 -0.0943638 0
M  V30 4656 H 441.076 -5.21678 -1.80433 0
M  V30 4657 H 441.553 -3.64707 -2.44716 0
M  V30 4658 H 442.159 -4.16568 -0.857409 0
M  V30 4659 N 440.474 -0.00167713 -1.576 0
M  V30 4660 C 441.437 0.974046 -2.07473 0
M  V30 4661 C 442.437 1.27143 -0.984444 0
M  V30 4662 O 443.627 1.21633 -1.24703 0
M  V30 4663 C 440.759 2.29849 -2.51759 0
M  V30 4664 H 441.952 0.54262 -2.9495 0
M  V30 4665 H 439.505 0.245829 -1.54355 0
M  V30 4666 H 440.24 2.77677 -1.67529 0
M  V30 4667 H 440.025 2.09584 -3.31386 0
M  V30 4668 H 441.515 2.9984 -2.90664 0
M  V30 4669 N 441.952 1.55251 0.271103 0
M  V30 4670 C 443.201 1.75151 1.00025 0
M  V30 4671 C 443.514 0.561041 1.87381 0
M  V30 4672 O 444.72 0.642506 2.63788 0
M  V30 4673 C 443.176 3.09999 1.82835 0
M  V30 4674 C 442.784 4.3662 1.00336 0
M  V30 4675 C 444.528 3.39249 2.55168 0
M  V30 4676 C 442.435 5.62506 1.82595 0
M  V30 4677 H 441.365 0.652877 0.377183 0
M  V30 4678 H 444.016 1.81708 0.255843 0
M  V30 4679 H 442.398 2.97485 2.61378 0
M  V30 4680 H 443.572 4.60055 0.261959 0
M  V30 4681 H 441.887 4.14527 0.394486 0
M  V30 4682 H 444.484 4.3051 3.1712 0
M  V30 4683 H 444.827 2.59467 3.2555 0
M  V30 4684 H 445.36 3.52869 1.83653 0
M  V30 4685 H 442.099 6.45041 1.16631 0
M  V30 4686 H 441.619 5.43211 2.54327 0
M  V30 4687 H 443.298 6.00875 2.39913 0
M  V30 4688 N 443.43 -0.535701 1.48216 0
M  V30 4689 C 444.676 -1.2913 1.57153 0
M  V30 4690 C 445.031 -1.90899 0.239823 0
M  V30 4691 O 444.324 -1.76022 -0.756748 0
M  V30 4692 C 444.518 -2.4068 2.64212 0
M  V30 4693 C 444.347 -1.89844 4.07663 0
M  V30 4694 C 443.117 -1.72708 4.74869 0
M  V30 4695 C 445.315 -1.43031 4.94011 0
M  V30 4696 N 443.297 -1.16437 6.02757 0
M  V30 4697 C 444.668 -0.986691 6.12098 0
M  V30 4698 C 446.723 -1.3128 4.80281 0
M  V30 4699 C 445.426 -0.437231 7.1797 0
M  V30 4700 C 447.452 -0.777346 5.86269 0
M  V30 4701 C 446.814 -0.343774 7.03561 0
M  V30 4702 H 442.913 -0.463753 0.629648 0
M  V30 4703 H 445.497 -0.604736 1.8507 0
M  V30 4704 H 443.668 -3.06839 2.38126 0
M  V30 4705 H 445.4 -3.07706 2.62867 0
M  V30 4706 H 442.155 -1.96061 4.31111 0
M  V30 4707 H 442.579 -0.903281 6.70947 0
M  V30 4708 H 447.221 -1.63408 3.89946 0
M  V30 4709 H 444.939 -0.103621 8.08034 0
M  V30 4710 H 448.525 -0.689688 5.77698 0
M  V30 4711 H 447.405 0.0641219 7.84174 0
M  V30 4712 N 444.908 -1.36708 -0.784132 0
M  V30 4713 C 445.841 -1.25827 -1.90375 0
M  V30 4714 C 446.819 -0.141331 -1.61985 0
M  V30 4715 O 448.003 -0.313389 -1.85877 0
M  V30 4716 C 445.13 -0.942621 -3.25319 0
M  V30 4717 C 444.176 -2.07474 -3.72635 0
M  V30 4718 S 445.009 -3.69317 -3.8777 0
M  V30 4719 C 446.165 -3.39876 -5.25581 0
M  V30 4720 H 446.398 -2.20593 -1.99314 0
M  V30 4721 H 443.931 -1.22186 -0.943926 0
M  V30 4722 H 445.889 -0.767321 -4.03265 0
M  V30 4723 H 444.55 -0.0126566 -3.14097 0
M  V30 4724 H 443.743 -1.80858 -4.70432 0
M  V30 4725 H 443.345 -2.20953 -3.01754 0
M  V30 4726 H 445.637 -2.94097 -6.10339 0
M  V30 4727 H 446.58 -4.36956 -5.57203 0
M  V30 4728 H 446.988 -2.75098 -4.92931 0
M  V30 4729 N 446.386 1.0089 -1.21074 0
M  V30 4730 C 447.611 1.78727 -1.05221 0
M  V30 4731 C 448.036 1.83932 0.393795 0
M  V30 4732 O 447.394 1.28004 1.28393 0
M  V30 4733 C 447.442 3.20665 -1.64944 0
M  V30 4734 O 446.546 4.02632 -0.892273 0
M  V30 4735 H 445.887 0.550973 -0.370574 0
M  V30 4736 H 448.417 1.26847 -1.60534 0
M  V30 4737 H 448.427 3.71352 -1.69002 0
M  V30 4738 H 447.102 3.16191 -2.70177 0
M  V30 4739 H 445.679 3.61207 -0.926492 0
M  V30 4740 N 447.864 1.01787 1.20321 0
M  V30 4741 C 449.111 0.707936 1.89722 0
M  V30 4742 C 449.439 -0.762535 1.78929 0
M  V30 4743 O 448.694 -1.56977 1.16861 0
M  V30 4744 C 448.993 1.09076 3.40349 0
M  V30 4745 C 448.659 2.55765 3.71342 0
M  V30 4746 C 447.321 2.95845 3.79511 0
M  V30 4747 C 449.673 3.50723 3.85542 0
M  V30 4748 C 447.001 4.2982 3.99339 0
M  V30 4749 C 449.353 4.84387 4.06881 0
M  V30 4750 C 448.017 5.24172 4.1328 0
M  V30 4751 H 447.287 0.259052 0.694243 0
M  V30 4752 H 449.934 1.27868 1.42555 0
M  V30 4753 H 448.239 0.438453 3.89339 0
M  V30 4754 H 449.936 0.828636 3.92345 0
M  V30 4755 H 446.526 2.2371 3.65584 0
M  V30 4756 H 450.71 3.20916 3.78585 0
M  V30 4757 H 445.966 4.60196 4.02529 0
M  V30 4758 H 450.14 5.57891 4.1681 0
M  V30 4759 H 447.767 6.27997 4.28396 0
M  V30 4760 N 449.342 -1.36122 0.79427 0
M  V30 4761 C 450.619 -1.93398 0.292685 0
M  V30 4762 C 450.999 -1.72567 -1.21589 0
M  V30 4763 O 450.347 -1.08745 -2.00965 0
M  V30 4764 C 450.557 -3.42099 0.690614 0
M  V30 4765 C 451.905 -4.19231 0.673105 0
M  V30 4766 O 452.929 -3.50559 0.631389 0
M  V30 4767 O 451.788 -5.41732 0.720362 0
M  V30 4768 H 448.882 -0.823712 0.0736693 0
M  V30 4769 H 451.428 -1.45273 0.87714 0
M  V30 4770 H 450.2 -3.50938 1.73085 0
M  V30 4771 H 449.823 -3.97519 0.0803036 0
M  V30 4772 N 450.82 -0.546701 -1.47814 0
M  V30 4773 C 451.767 0.206854 -2.29871 0
M  V30 4774 C 452.737 0.918235 -1.38411 0
M  V30 4775 O 453.922 0.915991 -1.67375 0
M  V30 4776 C 451.062 1.23746 -3.22151 0
M  V30 4777 C 450.175 0.533216 -4.28697 0
M  V30 4778 C 449.31 1.5482 -5.08138 0
M  V30 4779 C 448.349 0.828347 -6.06469 0
M  V30 4780 N 447.486 1.78966 -6.78908 0
M  V30 4781 H 452.326 -0.499037 -2.93792 0
M  V30 4782 H 449.863 -0.25793 -1.44821 0
M  V30 4783 H 451.821 1.84746 -3.74065 0
M  V30 4784 H 450.451 1.91151 -2.60117 0
M  V30 4785 H 449.503 -0.191089 -3.7992 0
M  V30 4786 H 450.815 -0.0311987 -4.9879 0
M  V30 4787 H 449.969 2.23202 -5.6415 0
M  V30 4788 H 448.708 2.14652 -4.37922 0
M  V30 4789 H 447.713 0.130539 -5.49645 0
M  V30 4790 H 448.938 0.235907 -6.7869 0
M  V30 4791 H 446.884 2.37675 -6.1143 0
M  V30 4792 H 446.801 1.27712 -7.45135 0
M  V30 4793 H 448.069 2.46496 -7.395 0
M  V30 4794 N 452.299 1.55045 -0.282633 0
M  V30 4795 C 453.231 2.2023 0.634924 0
M  V30 4796 C 454.244 1.18931 1.11172 0
M  V30 4797 O 455.433 1.4562 1.03233 0
M  V30 4798 C 452.533 2.82041 1.87899 0
M  V30 4799 C 451.706 4.091 1.54776 0
M  V30 4800 C 450.765 4.54887 2.64507 0
M  V30 4801 O 449.791 5.20496 2.30375 0
M  V30 4802 N 450.993 4.25659 3.94709 0
M  V30 4803 H 453.758 2.99601 0.0769811 0
M  V30 4804 H 451.319 1.61565 -0.104048 0
M  V30 4805 H 453.311 3.09613 2.60619 0
M  V30 4806 H 451.881 2.06618 2.3458 0
M  V30 4807 H 451.101 3.88736 0.654049 0
M  V30 4808 H 452.389 4.9187 1.30158 0
M  V30 4809 H 451.787 3.7306 4.25256 0
M  V30 4810 H 450.344 4.57984 4.63782 0
M  V30 4811 N 453.777 0.010035 1.57597 0
M  V30 4812 C 454.687 -0.994226 2.12491 0
M  V30 4813 C 455.703 -1.37013 1.07254 0
M  V30 4814 O 456.879 -1.45542 1.3921 0
M  V30 4815 C 453.944 -2.2642 2.62555 0
M  V30 4816 C 453.005 -1.95049 3.82432 0
M  V30 4817 C 452.238 -3.15991 4.30099 0
M  V30 4818 O 452.461 -4.28015 3.7704 0
M  V30 4819 O 451.395 -2.99403 5.22151 0
M  V30 4820 H 455.221 -0.557549 2.98538 0
M  V30 4821 H 452.806 -0.209413 1.47925 0
M  V30 4822 H 454.688 -3.01009 2.9491 0
M  V30 4823 H 453.363 -2.69306 1.796 0
M  V30 4824 H 452.27 -1.17904 3.55034 0
M  V30 4825 H 453.603 -1.56992 4.66491 0
M  V30 4826 N 455.255 -1.55392 -0.262866 0
M  V30 4827 C 456.503 -1.76127 -0.991147 0
M  V30 4828 C 456.824 -0.571083 -1.8645 0
M  V30 4829 O 456.094 0.413698 -1.91482 0
M  V30 4830 H 454.674 -0.649528 -0.368948 0
M  V30 4831 H 457.336 -1.9281 -0.284655 0
M  V30 4832 H 456.432 -2.6663 -1.62219 0
M  V30 4833 N 456.733 0.527833 -1.48498 0
M  V30 4834 C 457.643 1.65907 -1.65867 0
M  V30 4835 C 458.659 1.6537 -0.541192 0
M  V30 4836 O 459.835 1.84282 -0.812534 0
M  V30 4837 C 456.9 3.02364 -1.69637 0
M  V30 4838 C 455.961 3.1374 -2.93028 0
M  V30 4839 C 455.194 4.43688 -2.96609 0
M  V30 4840 O 455.417 5.30913 -2.08538 0
M  V30 4841 O 454.351 4.59475 -3.88802 0
M  V30 4842 H 458.177 1.5419 -2.61647 0
M  V30 4843 H 455.762 0.701163 -1.31924 0
M  V30 4844 H 457.644 3.83515 -1.74625 0
M  V30 4845 H 456.319 3.14401 -0.770312 0
M  V30 4846 H 455.226 2.31877 -2.93571 0
M  V30 4847 H 456.559 3.06621 -3.85026 0
M  V30 4848 N 458.211 1.37122 0.776871 0
M  V30 4849 C 459.457 1.3325 1.53675 0
M  V30 4850 C 459.812 -0.0839891 1.92217 0
M  V30 4851 O 459.105 -1.04145 1.60824 0
M  V30 4852 C 459.299 2.20068 2.81611 0
M  V30 4853 C 459.128 3.70016 2.55574 0
M  V30 4854 C 457.898 4.39144 2.4996 0
M  V30 4855 C 460.096 4.62996 2.23917 0
M  V30 4856 N 458.078 5.74663 2.15953 0
M  V30 4857 C 459.449 5.86854 2.00005 0
M  V30 4858 C 461.504 4.51433 2.1003 0
M  V30 4859 C 460.207 7.00446 1.63609 0
M  V30 4860 C 462.233 5.64905 1.75033 0
M  V30 4861 C 461.595 6.8781 1.51977 0
M  V30 4862 H 457.694 0.542878 0.562856 0
M  V30 4863 H 460.278 1.72295 0.906784 0
M  V30 4864 H 458.449 1.83248 3.42454 0
M  V30 4865 H 460.181 2.07492 3.47461 0
M  V30 4866 H 456.936 3.92088 2.65639 0
M  V30 4867 H 457.36 6.46268 2.0166 0
M  V30 4868 H 462.002 3.56987 2.26539 0
M  V30 4869 H 459.72 7.94831 1.45837 0
M  V30 4870 H 463.306 5.57926 1.64952 0
M  V30 4871 H 462.186 7.74126 1.25296 0
M  V30 4872 N 459.689 -1.00246 1.21608 0
M  V30 4873 C 461.1 -1.55511 1.03312 0
M  V30 4874 C 461.451 -1.91946 -0.406332 0
M  V30 4875 O 460.576 -1.73753 -1.28992 0
M  V30 4876 C 461.171 -2.82576 1.86913 0
M  V30 4877 C 459.73 -3.34318 1.72941 0
M  V30 4878 C 458.877 -2.07487 1.83968 0
M  V30 4879 H 461.828 -0.824638 1.35593 0
M  V30 4880 H 461.849 -3.54559 1.38087 0
M  V30 4881 H 461.361 -2.56026 2.91672 0
M  V30 4882 H 459.462 -3.65797 0.70877 0
M  V30 4883 H 459.575 -4.05566 2.55055 0
M  V30 4884 H 457.939 -2.20603 1.27304 0
M  V30 4885 H 458.722 -1.83346 2.9024 0
M  V30 4886 N 461.167 -1.02423 -1.1978 0
M  V30 4887 C 462.395 -0.737456 -1.93311 0
M  V30 4888 C 462.81 0.703023 -1.75223 0
M  V30 4889 O 462.167 1.47761 -1.07112 0
M  V30 4890 C 462.218 -1.0733 -3.45199 0
M  V30 4891 O 461.939 -2.4572 -3.62702 0
M  V30 4892 C 463.44 -0.80866 -4.35862 0
M  V30 4893 H 460.66 -0.2702 -0.614193 0
M  V30 4894 H 463.204 -1.36747 -1.52054 0
M  V30 4895 H 461.359 -0.488545 -3.84307 0
M  V30 4896 H 461.773 -2.58081 -4.56612 0
M  V30 4897 H 463.247 -1.09365 -5.41057 0
M  V30 4898 H 463.724 0.257025 -4.38447 0
M  V30 4899 H 464.33 -1.37592 -4.02428 0
M  V30 4900 N 462.645 1.35699 -0.801477 0
M  V30 4901 C 463.893 1.9852 -0.37871 0
M  V30 4902 C 464.214 1.63907 1.05638 0
M  V30 4903 O 463.484 0.919013 1.73006 0
M  V30 4904 H 462.064 0.734322 -0.137042 0
M  V30 4905 H 464.726 1.65697 -1.02619 0
M  V30 4906 H 463.822 3.08382 -0.480284 0
M  V30 4907 N 464.123 0.554532 1.47522 0
M  V30 4908 C 465.053 -0.182974 2.32782 0
M  V30 4909 C 466.034 -0.911377 1.43624 0
M  V30 4910 O 467.219 -0.892366 1.72483 0
M  V30 4911 C 464.349 -1.21513 3.25349 0
M  V30 4912 C 463.303 -0.603355 4.23726 0
M  V30 4913 C 462.629 -1.73995 5.05598 0
M  V30 4914 C 463.929 0.441121 5.20434 0
M  V30 4915 H 465.623 0.52882 2.94693 0
M  V30 4916 H 463.169 0.255759 1.41711 0
M  V30 4917 H 465.122 -1.73922 3.83835 0
M  V30 4918 H 463.846 -1.95683 2.61487 0
M  V30 4919 H 462.505 -0.10059 3.66462 0
M  V30 4920 H 462.153 -2.47063 4.38143 0
M  V30 4921 H 461.853 -1.3364 5.72201 0
M  V30 4922 H 463.377 -2.26735 5.66942 0
M  V30 4923 H 464.791 0.00319931 5.733 0
M  V30 4924 H 463.188 0.763402 5.95224 0
M  V30 4925 H 464.258 1.33799 4.66075 0
M  V30 4926 N 465.601 -1.54893 0.290851 0
M  V30 4927 C 467.017 -1.59476 -0.0628432 0
M  V30 4928 C 467.217 -1.30795 -1.5328 0
M  V30 4929 O 466.273 -1.07644 -2.28406 0
M  V30 4930 C 467.586 -2.98928 0.325962 0
M  V30 4931 C 469.134 -3.11799 0.273882 0
M  V30 4932 C 469.609 -4.53544 0.637359 0
M  V30 4933 N 471.1 -4.59433 0.589507 0
M  V30 4934 C 471.835 -5.67164 0.84335 0
M  V30 4935 N 471.331 -6.82975 1.16263 0
M  V30 4936 N 473.124 -5.56786 0.771091 0
M  V30 4937 H 465.275 -1.71798 1.24896 0
M  V30 4938 H 467.538 -0.801879 0.505663 0
M  V30 4939 H 467.244 -3.24805 1.34887 0
M  V30 4940 H 467.118 -3.75793 -0.325441 0
M  V30 4941 H 469.505 -2.85677 -0.739765 0
M  V30 4942 H 469.586 -2.37112 0.959766 0
M  V30 4943 H 469.23 -4.80394 1.64877 0
M  V30 4944 H 469.16 -5.26553 -0.0704866 0
M  V30 4945 H 471.651 -3.76245 0.353252 0
M  V30 4946 H 471.964 -7.61048 1.34257 0
M  V30 4947 H 470.309 -6.84552 1.20057 0
M  V30 4948 H 473.5 -4.65187 0.521383 0
M  V30 4949 H 473.673 -6.40664 0.972295 0
M  V30 4950 N 467.08 -0.0183926 -1.57589 0
M  V30 4951 C 468.01 0.965596 -2.12599 0
M  V30 4952 C 468.991 1.34641 -1.0395 0
M  V30 4953 O 470.176 1.42693 -1.31729 0
M  V30 4954 C 467.306 2.25149 -2.64434 0
M  V30 4955 C 466.26 2.01175 -3.77773 0
M  V30 4956 C 465.586 3.35937 -4.15994 0
M  V30 4957 C 466.886 1.35953 -5.04296 0
M  V30 4958 H 468.58 0.507504 -2.95067 0
M  V30 4959 H 466.126 0.242671 -1.41941 0
M  V30 4960 H 468.079 2.94357 -3.01549 0
M  V30 4961 H 466.803 2.73105 -1.79112 0
M  V30 4962 H 465.462 1.34388 -3.4108 0
M  V30 4963 H 465.11 3.81631 -3.27669 0
M  V30 4964 H 464.81 3.20705 -4.92364 0
M  V30 4965 H 466.334 4.0643 -4.55683 0
M  V30 4966 H 467.748 1.95144 -5.39065 0
M  V30 4967 H 466.145 1.31152 -5.85593 0
M  V30 4968 H 467.215 0.331071 -4.83768 0
M  V30 4969 N 468.558 1.5553 0.254621 0
M  V30 4970 C 469.783 1.81383 1.00573 0
M  V30 4971 C 470.208 0.594419 1.78461 0
M  V30 4972 O 469.566 -0.456403 1.75461 0
M  V30 4973 C 469.614 3.04892 1.92545 0
M  V30 4974 O 468.718 2.81266 3.01601 0
M  V30 4975 H 468.059 0.598969 0.286587 0
M  V30 4976 H 470.589 2.02703 0.277952 0
M  V30 4977 H 470.599 3.34119 2.34155 0
M  V30 4978 H 469.274 3.93287 1.3527 0
M  V30 4979 H 467.851 2.63185 2.64174 0
M  V30 4980 N 470.036 -0.519951 1.48776 0
M  V30 4981 C 471.452 -0.849418 1.35119 0
M  V30 4982 C 471.652 -1.98077 0.36982 0
M  V30 4983 O 470.708 -2.51664 -0.205359 0
M  V30 4984 C 472.021 -1.20748 2.75391 0
M  V30 4985 C 473.569 -1.31679 2.83954 0
M  V30 4986 C 474.044 -1.70824 4.24951 0
M  V30 4987 N 475.535 -1.77908 4.27672 0
M  V30 4988 C 476.27 -2.09603 5.33717 0
M  V30 4989 N 475.766 -2.39652 6.5003 0
M  V30 4990 N 477.559 -2.10694 5.21119 0
M  V30 4991 H 469.71 0.226377 2.1119 0
M  V30 4992 H 471.973 0.0386519 0.947212 0
M  V30 4993 H 471.679 -0.449703 3.48813 0
M  V30 4994 H 471.553 -2.15534 3.09556 0
M  V30 4995 H 473.94 -2.06532 2.10781 0
M  V30 4996 H 474.021 -0.3499 2.53396 0
M  V30 4997 H 473.665 -0.965282 4.98643 0
M  V30 4998 H 473.595 -2.6858 4.52959 0
M  V30 4999 H 476.086 -1.56923 3.43779 0
M  V30 5000 H 476.399 -2.6297 7.26682 0
M  V30 5001 H 474.744 -2.37149 6.53288 0
M  V30 5002 H 477.935 -1.86682 4.29264 0
M  V30 5003 H 478.108 -2.35062 6.03863 0
M  V30 5004 N 471.514 -1.37532 -0.769588 0
M  V30 5005 C 472.763 -1.32183 -1.5235 0
M  V30 5006 C 473.076 0.0906555 -1.9539 0
M  V30 5007 O 474.282 0.266628 -2.70188 0
M  V30 5008 C 472.738 -2.32029 -2.75119 0
M  V30 5009 C 472.346 -3.78816 -2.3917 0
M  V30 5010 C 474.09 -2.35694 -3.53056 0
M  V30 5011 C 471.997 -4.70388 -3.58453 0
M  V30 5012 H 470.927 -0.491275 -0.571984 0
M  V30 5013 H 473.578 -1.63004 -0.842739 0
M  V30 5014 H 471.96 -1.94229 -3.45096 0
M  V30 5015 H 473.134 -4.25466 -1.76962 0
M  V30 5016 H 471.449 -3.78117 -1.74402 0
M  V30 5017 H 474.046 -3.01312 -4.41718 0
M  V30 5018 H 474.389 -1.37117 -3.93071 0
M  V30 5019 H 474.922 -2.72212 -2.90078 0
M  V30 5020 H 471.661 -5.70102 -3.23518 0
M  V30 5021 H 471.181 -4.28442 -4.19758 0
M  V30 5022 H 472.86 -4.87628 -4.25239 0
M  V30 5023 N 472.992 0.995999 -1.22138 0
M  V30 5024 C 474.24 1.73167 -1.042 0
M  V30 5025 C 474.561 1.90329 0.42423 0
M  V30 5026 O 473.831 1.4607 1.30539 0
M  V30 5027 H 472.411 0.641593 -0.38258 0
M  V30 5028 H 475.073 1.19974 -1.53598 0
M  V30 5029 H 474.169 2.72734 -1.51731 0
M  V30 5030 N 474.47 1.03057 1.19235 0
M  V30 5031 C 475.718 0.726581 1.88587 0
M  V30 5032 C 476.039 -0.747227 1.80115 0
M  V30 5033 O 475.309 -1.53849 1.21274 0
M  V30 5034 H 473.889 0.265768 0.698124 0
M  V30 5035 H 476.551 1.30516 1.44746 0
M  V30 5036 H 475.647 1.0224 2.94879 0
M  V30 5037 N 475.948 -1.35272 0.808662 0
M  V30 5038 C 477.197 -1.97963 0.386483 0
M  V30 5039 C 477.51 -1.64866 -1.05255 0
M  V30 5040 O 478.716 -2.20937 -1.57794 0
M  V30 5041 C 477.172 -3.54162 0.640096 0
M  V30 5042 C 476.78 -3.96166 2.0918 0
M  V30 5043 C 478.524 -4.23553 0.283376 0
M  V30 5044 C 476.431 -5.4522 2.29106 0
M  V30 5045 H 475.361 -0.740742 0.140774 0
M  V30 5046 H 478.012 -1.5431 0.993012 0
M  V30 5047 H 476.394 -3.95983 -0.0364117 0
M  V30 5048 H 477.568 -3.65491 2.80629 0
M  V30 5049 H 475.883 -3.3967 2.40859 0
M  V30 5050 H 478.48 -5.33124 0.410273 0
M  V30 5051 H 478.823 -4.09105 -0.770659 0
M  V30 5052 H 479.356 -3.8716 0.913884 0
M  V30 5053 H 476.095 -5.64638 3.32962 0
M  V30 5054 H 475.615 -5.77457 1.62184 0
M  V30 5055 H 477.294 -6.1171 2.1076 0
M  V30 5056 N 477.426 -0.562348 -1.47226 0
M  V30 5057 C 478.376 0.202967 -2.27095 0
M  V30 5058 C 479.36 0.880611 -1.34663 0
M  V30 5059 O 480.552 0.778069 -1.58981 0
M  V30 5060 C 477.681 1.22906 -3.20545 0
M  V30 5061 C 476.767 0.554566 -4.20459 0
M  V30 5062 N 477.158 -0.378295 -5.04383 0
M  V30 5063 C 475.456 0.807854 -4.38623 0
M  V30 5064 C 476.157 -0.770583 -5.76573 0
M  V30 5065 N 475.133 -0.124263 -5.43458 0
M  V30 5066 H 478.935 -0.514196 -2.89367 0
M  V30 5067 H 476.449 -0.382655 -1.57827 0
M  V30 5068 H 478.446 1.79134 -3.76453 0
M  V30 5069 H 477.106 1.94726 -2.59831 0
M  V30 5070 H 478.117 -0.75274 -5.124 0
M  V30 5071 H 474.794 1.51418 -3.89075 0
M  V30 5072 H 476.184 -1.53742 -6.54074 0
M  V30 5073 O 478.943 1.55359 -0.441124 0
M  V30 5074 H 479.634 1.93483 0.0916679 0
M  V30 END ATOM
M  V30 BEGIN BOND
M  V30 END BOND
M  V30 END CTAB
M  END
$$$$
