drugbank_target|Q9NRF9 DNA polymerase epsilon subunit 3 (DB00242)
 OpenBabel12092120363D

  0  0  0     0  0            999 V3000
M  V30 BEGIN CTAB
M  V30 COUNTS 5636 6036 0 0 0
M  V30 BEGIN ATOM
M  V30 1 H -1.547 9.37743 -1.21644 0
M  V30 2 O -1.44 8.89599 -0.40059 0
M  V30 3 P 0 8.91 0 0
M  V30 4 O 0.22 10.1746 0.733838 0
M  V30 5 O 0.79 8.73346 -1.23964 0
M  V30 6 O 0.25 7.66872 0.971405 0
M  V30 7 C -0.69 7.42405 2.04668 0
M  V30 8 C 0.04 6.86059 3.24661 0
M  V30 9 O 0.25 5.42934 3.03695 0
M  V30 10 C 1.44 7.41287 3.50796 0
M  V30 11 O 1.83 7.27073 4.86816 0
M  V30 12 C 2.32 6.5273 2.63741 0
M  V30 13 C 1.61 5.1842 2.73198 0
M  V30 14 N 1.66 4.38762 1.4784 0
M  V30 15 H -1.178 8.36899 2.3252 0
M  V30 16 H -1.45 6.70391 1.71179 0
M  V30 17 H -0.582 7.03638 4.13219 0
M  V30 18 H 2.073 4.59931 3.54016 0
M  V30 19 H 2.353 6.88995 1.59871 0
M  V30 20 H 3.344 6.4684 3.0373 0
M  V30 21 H 1.51 8.47002 3.20749 0
M  V30 22 P 3.37998 7.20834 5.23717 0
M  V30 23 O 3.59998 7.80006 6.57415 0
M  V30 24 O 4.16998 7.79416 4.13051 0
M  V30 25 O 3.62998 5.63315 5.29344 0
M  V30 26 C 2.68998 4.80318 6.01954 0
M  V30 27 C 3.41998 3.64202 6.65911 0
M  V30 28 O 3.62998 2.60736 5.64823 0
M  V30 29 C 4.81998 3.93521 7.19518 0
M  V30 30 O 5.20998 3.02071 8.21205 0
M  V30 31 C 5.69998 3.73047 5.97036 0
M  V30 32 C 4.98998 2.58828 5.25741 0
M  V30 33 N 5.03998 2.68068 3.77503 0
M  V30 34 C 4.95998 3.80474 2.99159 0
M  V30 35 N 5.02998 3.55622 1.71925 0
M  V30 36 C 5.17998 2.1832 1.65733 0
M  V30 37 C 5.30998 1.28842 0.572777 0
M  V30 38 N 5.31998 1.66875 -0.70098 0
M  V30 39 N 5.42998 -0.016788 0.859836 0
M  V30 40 C 5.41998 -0.398145 2.13316 0
M  V30 41 N 5.29998 0.328224 3.22333 0
M  V30 42 C 5.17998 1.62992 2.90383 0
M  V30 43 H 2.20198 5.40394 6.8003 0
M  V30 44 H 1.92998 4.41741 5.32532 0
M  V30 45 H 2.79798 3.26371 7.47889 0
M  V30 46 H 5.45298 1.64007 5.56746 0
M  V30 47 H 5.73298 4.63439 5.3432 0
M  V30 48 H 6.72398 3.44776 6.25925 0
M  V30 49 H 4.88998 4.96707 7.57347 0
M  V30 50 H 4.84898 4.8089 3.39924 0
M  V30 51 H 5.22998 2.66547 -0.941919 0
M  V30 52 H 5.41898 0.965341 -1.44766 0
M  V30 53 H 5.52698 -1.46427 2.29697 0
M  V30 54 P 6.75996 2.75334 8.47391 0
M  V30 55 O 6.97996 2.44571 9.90142 0
M  V30 56 O 7.54996 3.87688 7.92115 0
M  V30 57 O 7.00996 1.4459 7.59357 0
M  V30 58 C 6.06996 0.347608 7.69215 0
M  V30 59 C 6.79996 -0.96767 7.52806 0
M  V30 60 O 7.00996 -1.21036 6.1011 0
M  V30 61 C 8.19996 -1.04544 8.13308 0
M  V30 62 O 8.58996 -2.38311 8.41922 0
M  V30 63 C 9.07996 -0.491279 7.02284 0
M  V30 64 C 8.36996 -0.996264 5.77469 0
M  V30 65 N 8.41996 -0.0501916 4.62973 0
M  V30 66 H 5.58096 0.374722 8.67691 0
M  V30 67 H 5.31096 0.443485 6.90277 0
M  V30 68 H 6.17796 -1.75537 7.96793 0
M  V30 69 P 10.1399 -2.75334 8.47391 0
M  V30 70 O 10.3599 -3.84128 9.44797 0
M  V30 71 O 10.9299 -1.51947 8.68712 0
M  V30 72 O 10.3899 -3.29363 6.99321 0
M  V30 73 C 9.44994 -4.24011 6.4274 0
M  V30 74 C 10.1799 -5.20775 5.52155 0
M  V30 75 O 10.3899 -4.56534 4.22446 0
M  V30 76 C 11.5799 -5.62629 5.96531 0
M  V30 77 O 11.9699 -6.87667 5.41053 0
M  V30 78 C 12.4599 -4.52537 5.39283 0
M  V30 79 C 11.7499 -4.20027 4.08623 0
M  V30 80 N 11.7999 -2.76189 3.71603 0
M  V30 81 C 11.7199 -1.64862 4.52822 0
M  V30 82 N 11.7999 -0.512671 3.88633 0
M  V30 83 C 11.9399 -0.888083 2.54977 0
M  V30 84 C 12.0699 -0.094668 1.38677 0
M  V30 85 N 12.1899 -0.890102 0.232633 0
M  V30 86 C 12.1899 -2.26958 0.21772 0
M  V30 87 N 12.3199 -2.84626 -0.97925 0
M  V30 88 N 12.0599 -3.0178 1.31033 0
M  V30 89 C 11.9399 -2.26781 2.43843 0
M  V30 90 H 8.96094 -4.797 7.24003 0
M  V30 91 H 8.69094 -3.69856 5.84513 0
M  V30 92 H 9.55794 -6.10356 5.41441 0
M  V30 93 P 13.5199 -7.20834 5.23717 0
M  V30 94 O 13.7399 -8.66104 5.38572 0
M  V30 95 O 14.3099 -6.33544 6.1349 0
M  V30 96 O 13.7699 -6.7751 3.72168 0
M  V30 97 C 12.8299 -7.20825 2.7076 0
M  V30 98 C 13.5599 -7.45864 1.40599 0
M  V30 99 O 13.7699 -6.17651 0.734225 0
M  V30 100 C 14.9599 -8.05808 1.51899 0
M  V30 101 O 15.3499 -8.74358 0.335205 0
M  V30 102 C 15.8399 -6.83093 1.70294 0
M  V30 103 C 15.1299 -5.79992 0.836974 0
M  V30 104 N 15.1799 -4.41864 1.38293 0
M  V30 105 H 12.3409 -8.13644 3.0377 0
M  V30 106 H 12.0709 -6.42788 2.55485 0
M  V30 107 H 12.9379 -8.12039 0.792769 0
M  V30 108 P 16.8999 -8.91 1.09116e-15 0
M  V30 109 O 17.1199 -10.1726 -0.733694 0
M  V30 110 O 17.6899 -8.73148 1.23936 0
M  V30 111 O 17.1499 -7.66872 -0.971405 0
M  V30 112 C 16.2099 -7.42309 -2.04641 0
M  V30 113 C 16.9399 -6.86059 -3.24661 0
M  V30 114 O 17.1499 -5.42847 -3.03646 0
M  V30 115 C 18.3399 -7.41196 -3.50753 0
M  V30 116 O 18.7299 -7.27073 -4.86816 0
M  V30 117 C 19.2199 -6.5273 -2.63741 0
M  V30 118 C 18.5099 -5.1842 -2.73198 0
M  V30 119 N 18.5599 -4.38762 -1.4784 0
M  V30 120 H 15.7209 -8.36803 -2.32493 0
M  V30 121 H 15.4509 -6.70197 -1.71129 0
M  V30 122 H 16.3179 -7.03551 -4.13168 0
M  V30 123 P 20.2799 -7.20834 -5.23717 0
M  V30 124 O 20.4999 -7.79853 -6.57286 0
M  V30 125 O 21.0699 -7.79239 -4.12957 0
M  V30 126 O 20.5299 -5.63315 -5.29344 0
M  V30 127 C 19.5899 -4.80255 -6.01876 0
M  V30 128 C 20.3199 -3.64202 -6.65911 0
M  V30 129 O 20.5299 -2.60694 -5.64732 0
M  V30 130 C 21.7199 -3.93473 -7.1943 0
M  V30 131 O 22.1099 -3.02071 -8.21205 0
M  V30 132 C 22.5999 -3.73047 -5.97036 0
M  V30 133 C 21.8899 -2.58828 -5.25741 0
M  V30 134 N 21.9399 -2.68068 -3.77503 0
M  V30 135 H 19.1009 -5.40332 -6.79951 0
M  V30 136 H 18.8309 -4.41613 -5.32378 0
M  V30 137 H 19.6979 -3.26331 -7.47797 0
M  V30 138 P 23.6599 -2.75334 -8.47391 0
M  V30 139 O 23.8799 -2.44571 -9.90142 0
M  V30 140 O 24.4499 -3.87688 -7.92115 0
M  V30 141 O 23.9099 -1.4459 -7.59357 0
M  V30 142 C 22.9699 -0.347608 -7.69215 0
M  V30 143 C 23.6999 0.96767 -7.52806 0
M  V30 144 O 23.9099 1.21036 -6.1011 0
M  V30 145 C 25.0999 1.04544 -8.13308 0
M  V30 146 O 25.4899 2.38311 -8.41922 0
M  V30 147 C 25.9799 0.491279 -7.02284 0
M  V30 148 C 25.2699 0.996264 -5.77469 0
M  V30 149 N 25.3199 0.0501916 -4.62973 0
M  V30 150 H 22.4809 -0.374722 -8.67691 0
M  V30 151 H 22.2109 -0.443485 -6.90277 0
M  V30 152 H 23.0779 1.75537 -7.96793 0
M  V30 153 P 27.0398 2.75334 -8.47391 0
M  V30 154 O 27.2598 3.84128 -9.44797 0
M  V30 155 O 27.8298 1.51947 -8.68712 0
M  V30 156 O 27.2898 3.29363 -6.99321 0
M  V30 157 C 26.3498 4.24011 -6.4274 0
M  V30 158 C 27.0798 5.20775 -5.52155 0
M  V30 159 O 27.2898 4.56534 -4.22446 0
M  V30 160 C 28.4798 5.62629 -5.96531 0
M  V30 161 O 28.8698 6.87667 -5.41053 0
M  V30 162 C 29.3598 4.52537 -5.39283 0
M  V30 163 C 28.6498 4.20027 -4.08623 0
M  V30 164 N 28.6998 2.76189 -3.71603 0
M  V30 165 H 25.8608 4.797 -7.24003 0
M  V30 166 H 25.5908 3.69856 -5.84513 0
M  V30 167 H 26.4578 6.10356 -5.41441 0
M  V30 168 P 30.4198 7.20834 -5.23717 0
M  V30 169 O 30.6398 8.66104 -5.38572 0
M  V30 170 O 31.2098 6.33544 -6.1349 0
M  V30 171 O 30.6698 6.7751 -3.72168 0
M  V30 172 C 29.7298 7.20825 -2.7076 0
M  V30 173 C 30.4598 7.45864 -1.40599 0
M  V30 174 O 30.6698 6.17651 -0.734225 0
M  V30 175 C 31.8598 8.05808 -1.51899 0
M  V30 176 O 32.2498 8.74358 -0.335205 0
M  V30 177 C 32.7398 6.83093 -1.70294 0
M  V30 178 C 32.0298 5.79992 -0.836974 0
M  V30 179 N 32.0798 4.41864 -1.38293 0
M  V30 180 H 29.2408 8.13644 -3.0377 0
M  V30 181 H 28.9708 6.42788 -2.55485 0
M  V30 182 H 29.8378 8.12039 -0.792769 0
M  V30 183 P 33.7998 8.91 -2.18232e-15 0
M  V30 184 O 34.0198 10.1726 0.733694 0
M  V30 185 O 34.5898 8.73148 -1.23936 0
M  V30 186 O 34.0498 7.66872 0.971405 0
M  V30 187 C 33.1098 7.42309 2.04641 0
M  V30 188 C 33.8398 6.86059 3.24661 0
M  V30 189 O 34.0498 5.42847 3.03646 0
M  V30 190 C 35.2398 7.41196 3.50753 0
M  V30 191 O 35.6298 7.27073 4.86816 0
M  V30 192 C 36.1198 6.5273 2.63741 0
M  V30 193 C 35.4098 5.1842 2.73198 0
M  V30 194 N 35.4598 4.38762 1.4784 0
M  V30 195 H 32.6208 8.36803 2.32493 0
M  V30 196 H 32.3508 6.70197 1.71129 0
M  V30 197 H 33.2178 7.03551 4.13168 0
M  V30 198 P 37.1798 7.20834 5.23717 0
M  V30 199 O 37.3998 7.79853 6.57286 0
M  V30 200 O 37.9698 7.79239 4.12957 0
M  V30 201 O 37.4298 5.63315 5.29344 0
M  V30 202 C 36.4898 4.80255 6.01876 0
M  V30 203 C 37.2198 3.64202 6.65911 0
M  V30 204 O 37.4298 2.60694 5.64732 0
M  V30 205 C 38.6198 3.93473 7.1943 0
M  V30 206 O 39.0098 3.02071 8.21205 0
M  V30 207 C 39.4998 3.73047 5.97036 0
M  V30 208 C 38.7898 2.58828 5.25741 0
M  V30 209 N 38.8398 2.68068 3.77503 0
M  V30 210 H 36.0008 5.40332 6.79951 0
M  V30 211 H 35.7308 4.41613 5.32378 0
M  V30 212 H 36.5978 3.26331 7.47797 0
M  V30 213 P 40.5598 2.75334 8.47391 0
M  V30 214 O 40.7798 2.44619 9.90336 0
M  V30 215 O 41.3498 3.87776 7.92294 0
M  V30 216 O 40.8098 1.4459 7.59357 0
M  V30 217 C 39.8698 0.347653 7.69315 0
M  V30 218 C 40.5998 -0.96767 7.52806 0
M  V30 219 O 40.8098 -1.21055 6.10208 0
M  V30 220 C 41.9998 -1.04557 8.13408 0
M  V30 221 O 42.3898 -2.38311 8.41922 0
M  V30 222 C 42.8798 -0.491279 7.02284 0
M  V30 223 C 42.1698 -0.996264 5.77469 0
M  V30 224 N 42.2198 -0.0501916 4.62973 0
M  V30 225 C 42.1398 1.31969 4.65661 0
M  V30 226 N 42.2098 1.86649 3.48119 0
M  V30 227 C 42.3598 0.792089 2.62406 0
M  V30 228 C 42.4898 0.705684 1.2207 0
M  V30 229 N 42.4998 1.76207 0.413762 0
M  V30 230 N 42.6098 -0.518981 0.685754 0
M  V30 231 C 42.5998 -1.57595 1.49174 0
M  V30 232 N 42.4798 -1.62909 2.80066 0
M  V30 233 C 42.3598 -0.388195 3.3073 0
M  V30 234 H 39.3818 0.374765 8.67791 0
M  V30 235 H 39.1098 0.443613 6.90476 0
M  V30 236 H 39.9778 -1.75559 7.96891 0
M  V30 237 H 42.6328 -1.94563 5.46818 0
M  V30 238 H 42.9128 0.608651 7.04676 0
M  V30 239 H 43.9038 -0.889796 7.09039 0
M  V30 240 H 42.0698 -0.433128 9.04664 0
M  V30 241 H 42.0288 1.89246 5.57664 0
M  V30 242 H 42.4098 2.71005 0.804694 0
M  V30 243 H 42.5988 1.63189 -0.603768 0
M  V30 244 H 42.7068 -2.53475 0.997614 0
M  V30 245 P 43.9397 -2.75334 8.47391 0
M  V30 246 O 44.1597 -3.84128 9.44797 0
M  V30 247 O 44.7297 -1.51947 8.68712 0
M  V30 248 O 44.1897 -3.29363 6.99321 0
M  V30 249 C 43.2497 -4.24011 6.4274 0
M  V30 250 C 43.9797 -5.20775 5.52155 0
M  V30 251 O 44.1897 -4.56534 4.22446 0
M  V30 252 C 45.3797 -5.62629 5.96531 0
M  V30 253 O 45.7697 -6.87667 5.41053 0
M  V30 254 C 46.2597 -4.52537 5.39283 0
M  V30 255 C 45.5497 -4.20027 4.08623 0
M  V30 256 N 45.5997 -2.76189 3.71603 0
M  V30 257 H 42.7607 -4.797 7.24003 0
M  V30 258 H 42.4907 -3.69856 5.84513 0
M  V30 259 H 43.3577 -6.10356 5.41441 0
M  V30 260 P 47.3197 -7.20834 5.23717 0
M  V30 261 O 47.5397 -8.66104 5.38572 0
M  V30 262 O 48.1097 -6.33544 6.1349 0
M  V30 263 O 47.5697 -6.7751 3.72168 0
M  V30 264 C 46.6297 -7.20825 2.7076 0
M  V30 265 C 47.3597 -7.45864 1.40599 0
M  V30 266 O 47.5697 -6.17651 0.734225 0
M  V30 267 C 48.7597 -8.05808 1.51899 0
M  V30 268 O 49.1497 -8.74358 0.335205 0
M  V30 269 C 49.6397 -6.83093 1.70294 0
M  V30 270 C 48.9297 -5.79992 0.836974 0
M  V30 271 N 48.9797 -4.41864 1.38293 0
M  V30 272 H 46.1407 -8.13644 3.0377 0
M  V30 273 H 45.8707 -6.42788 2.55485 0
M  V30 274 H 46.7377 -8.12039 0.792769 0
M  V30 275 P 50.6997 -8.91 3.27348e-15 0
M  V30 276 O 50.9197 -10.1736 -0.733766 0
M  V30 277 O 51.4897 -8.73247 1.2395 0
M  V30 278 O 50.9497 -7.66872 -0.971405 0
M  V30 279 C 50.0097 -7.42212 -2.04614 0
M  V30 280 C 50.7397 -6.86059 -3.24661 0
M  V30 281 O 50.9497 -5.42847 -3.03646 0
M  V30 282 C 52.1397 -7.41196 -3.50753 0
M  V30 283 O 52.5297 -7.27073 -4.86816 0
M  V30 284 C 53.0197 -6.5273 -2.63741 0
M  V30 285 C 52.3097 -5.1842 -2.73198 0
M  V30 286 N 52.3597 -4.38668 -1.47808 0
M  V30 287 C 52.5097 -3.02239 -1.60048 0
M  V30 288 O 52.5997 -2.46459 -2.67869 0
M  V30 289 N 52.5497 -2.32436 -0.408571 0
M  V30 290 C 52.4597 -2.85471 0.854993 0
M  V30 291 O 52.5097 -2.12566 1.8531 0
M  V30 292 C 52.3097 -4.28918 0.887335 0
M  V30 293 C 52.1997 -4.91066 2.24619 0
M  V30 294 C 52.2597 -5.00349 -0.255399 0
M  V30 295 H 49.5197 -8.36803 -2.32493 0
M  V30 296 H 49.2507 -6.701 -1.71105 0
M  V30 297 H 50.1177 -7.03551 -4.13168 0
M  V30 298 H 52.7727 -4.59773 -3.53894 0
M  V30 299 H 53.0517 -6.88995 -1.59871 0
M  V30 300 H 54.0437 -6.46749 -3.03687 0
M  V30 301 H 52.2097 -8.46908 -3.20714 0
M  V30 302 H 52.1387 -6.08548 -0.206986 0
M  V30 303 H 53.1687 -5.34836 2.53099 0
M  V30 304 H 51.4317 -5.69638 2.2291 0
M  V30 305 H 51.9197 -4.13971 2.98044 0
M  V30 306 H 52.6557 -1.33211 -0.474216 0
M  V30 307 P 54.0797 -7.20834 -5.23717 0
M  V30 308 O 54.2997 -7.79853 -6.57286 0
M  V30 309 O 54.8697 -7.79239 -4.12957 0
M  V30 310 O 54.3297 -5.63315 -5.29344 0
M  V30 311 C 53.3897 -4.80255 -6.01876 0
M  V30 312 C 54.1197 -3.64202 -6.65911 0
M  V30 313 O 54.3297 -2.60694 -5.64732 0
M  V30 314 C 55.5197 -3.93473 -7.1943 0
M  V30 315 O 55.9097 -3.02071 -8.21205 0
M  V30 316 C 56.3997 -3.73047 -5.97036 0
M  V30 317 C 55.6897 -2.58828 -5.25741 0
M  V30 318 N 55.7397 -2.68068 -3.77503 0
M  V30 319 C 55.6597 -3.79715 -2.96723 0
M  V30 320 N 55.7397 -3.5377 -1.68852 0
M  V30 321 C 55.8797 -2.15054 -1.63254 0
M  V30 322 C 56.0097 -1.28964 -0.518571 0
M  V30 323 N 56.1297 0.0538097 -0.918425 0
M  V30 324 C 56.1297 0.494275 -2.22578 0
M  V30 325 N 56.2597 1.81086 -2.40434 0
M  V30 326 N 55.9997 -0.313645 -3.27502 0
M  V30 327 C 55.8797 -1.61829 -2.91033 0
M  V30 328 H 52.9007 -5.40332 -6.79951 0
M  V30 329 H 52.6307 -4.41613 -5.32378 0
M  V30 330 H 53.4977 -3.26331 -7.47797 0
M  V30 331 P 57.4597 -2.75334 -8.47391 0
M  V30 332 O 57.6797 -2.44571 -9.90142 0
M  V30 333 O 58.2497 -3.87688 -7.92115 0
M  V30 334 O 57.7097 -1.4459 -7.59357 0
M  V30 335 C 56.7697 -0.347608 -7.69215 0
M  V30 336 C 57.4997 0.96767 -7.52806 0
M  V30 337 O 57.7097 1.21036 -6.1011 0
M  V30 338 C 58.8997 1.04544 -8.13308 0
M  V30 339 O 59.2897 2.38311 -8.41922 0
M  V30 340 C 59.7797 0.491279 -7.02284 0
M  V30 341 C 59.0697 0.996264 -5.77469 0
M  V30 342 N 59.1197 0.0501916 -4.62973 0
M  V30 343 H 56.2807 -0.374722 -8.67691 0
M  V30 344 H 56.0107 -0.443485 -6.90277 0
M  V30 345 H 56.8777 1.75537 -7.96793 0
M  V30 346 P 60.8396 2.75334 -8.47391 0
M  V30 347 O 61.0596 3.84128 -9.44797 0
M  V30 348 O 61.6296 1.51947 -8.68712 0
M  V30 349 O 61.0896 3.29363 -6.99321 0
M  V30 350 C 60.1496 4.24011 -6.4274 0
M  V30 351 C 60.8796 5.20775 -5.52155 0
M  V30 352 O 61.0896 4.56534 -4.22446 0
M  V30 353 C 62.2796 5.62629 -5.96531 0
M  V30 354 O 62.6696 6.87667 -5.41053 0
M  V30 355 C 63.1596 4.52537 -5.39283 0
M  V30 356 C 62.4496 4.20027 -4.08623 0
M  V30 357 N 62.4996 2.76189 -3.71603 0
M  V30 358 H 59.6606 4.797 -7.24003 0
M  V30 359 H 59.3906 3.69856 -5.84513 0
M  V30 360 H 60.2576 6.10356 -5.41441 0
M  V30 361 P 64.2196 7.20834 -5.23717 0
M  V30 362 O 64.4396 8.66104 -5.38572 0
M  V30 363 O 65.0096 6.33544 -6.1349 0
M  V30 364 O 64.4696 6.7751 -3.72168 0
M  V30 365 C 63.5296 7.20825 -2.7076 0
M  V30 366 C 64.2596 7.45864 -1.40599 0
M  V30 367 O 64.4696 6.17651 -0.734225 0
M  V30 368 C 65.6596 8.05808 -1.51899 0
M  V30 369 O 66.0496 8.74358 -0.335205 0
M  V30 370 C 66.5396 6.83093 -1.70294 0
M  V30 371 C 65.8296 5.79992 -0.836974 0
M  V30 372 N 65.8796 4.41864 -1.38293 0
M  V30 373 H 63.0406 8.13644 -3.0377 0
M  V30 374 H 62.7706 6.42788 -2.55485 0
M  V30 375 H 63.6376 8.12039 -0.792769 0
M  V30 376 P 67.5996 8.91 -4.36464e-15 0
M  V30 377 O 67.8196 10.1726 0.733694 0
M  V30 378 O 68.3896 8.73148 -1.23936 0
M  V30 379 O 67.8496 7.66872 0.971405 0
M  V30 380 C 66.9096 7.42309 2.04641 0
M  V30 381 C 67.6396 6.86059 3.24661 0
M  V30 382 O 67.8496 5.42847 3.03646 0
M  V30 383 C 69.0396 7.41196 3.50753 0
M  V30 384 O 69.4296 7.27073 4.86816 0
M  V30 385 C 69.9196 6.5273 2.63741 0
M  V30 386 C 69.2096 5.1842 2.73198 0
M  V30 387 N 69.2596 4.38762 1.4784 0
M  V30 388 H 66.4206 8.36803 2.32493 0
M  V30 389 H 66.1506 6.70197 1.71129 0
M  V30 390 H 67.0176 7.03551 4.13168 0
M  V30 391 P 70.9796 7.20834 5.23717 0
M  V30 392 O 71.1996 7.80006 6.57415 0
M  V30 393 O 71.7696 7.79416 4.13051 0
M  V30 394 O 71.2296 5.63315 5.29344 0
M  V30 395 C 70.2896 4.80318 6.01954 0
M  V30 396 C 71.0196 3.64202 6.65911 0
M  V30 397 O 71.2296 2.60736 5.64823 0
M  V30 398 C 72.4196 3.93521 7.19518 0
M  V30 399 O 72.8096 3.02071 8.21205 0
M  V30 400 C 73.2996 3.73047 5.97036 0
M  V30 401 C 72.5896 2.58828 5.25741 0
M  V30 402 N 72.6396 2.68068 3.77503 0
M  V30 403 C 72.5596 3.80474 2.99159 0
M  V30 404 N 72.6296 3.55622 1.71925 0
M  V30 405 C 72.7796 2.1832 1.65733 0
M  V30 406 C 72.9096 1.28842 0.572777 0
M  V30 407 N 72.9196 1.66875 -0.70098 0
M  V30 408 N 73.0296 -0.016788 0.859836 0
M  V30 409 C 73.0196 -0.398145 2.13316 0
M  V30 410 N 72.8996 0.328224 3.22333 0
M  V30 411 C 72.7796 1.62992 2.90383 0
M  V30 412 H 69.8016 5.40394 6.8003 0
M  V30 413 H 69.5296 4.41741 5.32532 0
M  V30 414 H 70.3976 3.26371 7.47889 0
M  V30 415 H 73.0526 1.64007 5.56746 0
M  V30 416 H 73.3326 4.63439 5.3432 0
M  V30 417 H 74.3236 3.44776 6.25925 0
M  V30 418 H 72.4896 4.96707 7.57347 0
M  V30 419 H 72.4486 4.8089 3.39924 0
M  V30 420 H 72.8296 2.66547 -0.941919 0
M  V30 421 H 73.0186 0.965341 -1.44766 0
M  V30 422 H 73.1266 -1.46427 2.29697 0
M  V30 423 P 74.3596 2.75334 8.47391 0
M  V30 424 O 74.5796 2.44571 9.90142 0
M  V30 425 O 75.1496 3.87688 7.92115 0
M  V30 426 O 74.6096 1.4459 7.59357 0
M  V30 427 C 73.6696 0.347608 7.69215 0
M  V30 428 C 74.3996 -0.96767 7.52806 0
M  V30 429 O 74.6096 -1.21036 6.1011 0
M  V30 430 C 75.7996 -1.04544 8.13308 0
M  V30 431 O 76.1896 -2.38311 8.41922 0
M  V30 432 C 76.6796 -0.491279 7.02284 0
M  V30 433 C 75.9696 -0.996264 5.77469 0
M  V30 434 N 76.0196 -0.0501916 4.62973 0
M  V30 435 H 73.1806 0.374722 8.67691 0
M  V30 436 H 72.9106 0.443485 6.90277 0
M  V30 437 H 73.7776 -1.75537 7.96793 0
M  V30 438 P 77.7395 -2.75334 8.47391 0
M  V30 439 O 77.9595 -3.84128 9.44797 0
M  V30 440 O 78.5295 -1.51947 8.68712 0
M  V30 441 O 77.9895 -3.29363 6.99321 0
M  V30 442 C 77.0495 -4.24011 6.4274 0
M  V30 443 C 77.7795 -5.20775 5.52155 0
M  V30 444 O 77.9895 -4.56534 4.22446 0
M  V30 445 C 79.1795 -5.62629 5.96531 0
M  V30 446 O 79.5695 -6.87667 5.41053 0
M  V30 447 C 80.0595 -4.52537 5.39283 0
M  V30 448 C 79.3495 -4.20027 4.08623 0
M  V30 449 N 79.3995 -2.76189 3.71603 0
M  V30 450 H 76.5605 -4.797 7.24003 0
M  V30 451 H 76.2905 -3.69856 5.84513 0
M  V30 452 H 77.1575 -6.10356 5.41441 0
M  V30 453 P 81.1195 -7.20834 5.23717 0
M  V30 454 O 81.3395 -8.66104 5.38572 0
M  V30 455 O 81.9095 -6.33544 6.1349 0
M  V30 456 O 81.3695 -6.7751 3.72168 0
M  V30 457 C 80.4295 -7.20825 2.7076 0
M  V30 458 C 81.1595 -7.45864 1.40599 0
M  V30 459 O 81.3695 -6.17651 0.734225 0
M  V30 460 C 82.5595 -8.05808 1.51899 0
M  V30 461 O 82.9495 -8.74358 0.335205 0
M  V30 462 C 83.4395 -6.83093 1.70294 0
M  V30 463 C 82.7295 -5.79992 0.836974 0
M  V30 464 N 82.7795 -4.41864 1.38293 0
M  V30 465 H 79.9405 -8.13644 3.0377 0
M  V30 466 H 79.6705 -6.42788 2.55485 0
M  V30 467 H 80.5375 -8.12039 0.792769 0
M  V30 468 P 84.4995 -8.91 5.4558e-15 0
M  V30 469 O 84.7195 -10.1726 -0.733694 0
M  V30 470 O 85.2895 -8.73148 1.23936 0
M  V30 471 O 84.7495 -7.66872 -0.971405 0
M  V30 472 C 83.8095 -7.42309 -2.04641 0
M  V30 473 C 84.5395 -6.86059 -3.24661 0
M  V30 474 O 84.7495 -5.42847 -3.03646 0
M  V30 475 C 85.9395 -7.41196 -3.50753 0
M  V30 476 O 86.3295 -7.27073 -4.86816 0
M  V30 477 C 86.8195 -6.5273 -2.63741 0
M  V30 478 C 86.1095 -5.1842 -2.73198 0
M  V30 479 N 86.1595 -4.38762 -1.4784 0
M  V30 480 C 86.0795 -4.81605 -0.168631 0
M  V30 481 N 86.1595 -3.85454 0.713363 0
M  V30 482 C 86.2995 -2.6994 -0.0566958 0
M  V30 483 C 86.4295 -1.34815 0.338502 0
M  V30 484 O 86.4495 -0.869548 1.47125 0
M  V30 485 N 86.5495 -0.496304 -0.77465 0
M  V30 486 C 86.5495 -0.908403 -2.09122 0
M  V30 487 N 86.6795 0.0517805 -3.00955 0
M  V30 488 N 86.4195 -2.17875 -2.46519 0
M  V30 489 C 86.2995 -3.01988 -1.4033 0
M  V30 490 H 83.3205 -8.36803 -2.32493 0
M  V30 491 H 83.0505 -6.70197 -1.71129 0
M  V30 492 H 83.9175 -7.03551 -4.13168 0
M  V30 493 H 86.5725 -4.59498 -3.54415 0
M  V30 494 H 86.8515 -6.88898 -1.59848 0
M  V30 495 H 87.8435 -6.46749 -3.03687 0
M  V30 496 H 86.0095 -8.46908 -3.20714 0
M  V30 497 H 85.9605 -5.86405 0.105564 0
M  V30 498 H 86.6425 0.483664 -0.597855 0
M  V30 499 H 86.6795 -0.187865 -4.0116 0
M  V30 500 H 86.7805 1.03585 -2.71726 0
M  V30 501 P 87.8795 -7.20834 -5.23717 0
M  V30 502 O 88.0995 -7.79853 -6.57286 0
M  V30 503 O 88.6695 -7.79239 -4.12957 0
M  V30 504 O 88.1295 -5.63315 -5.29344 0
M  V30 505 C 87.1895 -4.80255 -6.01876 0
M  V30 506 C 87.9195 -3.64202 -6.65911 0
M  V30 507 O 88.1295 -2.60694 -5.64732 0
M  V30 508 C 89.3195 -3.93473 -7.1943 0
M  V30 509 O 89.7095 -3.02071 -8.21205 0
M  V30 510 C 90.1995 -3.73047 -5.97036 0
M  V30 511 C 89.4895 -2.58828 -5.25741 0
M  V30 512 N 89.5395 -2.68068 -3.77503 0
M  V30 513 H 86.7005 -5.40332 -6.79951 0
M  V30 514 H 86.4305 -4.41613 -5.32378 0
M  V30 515 H 87.2975 -3.26331 -7.47797 0
M  V30 516 P 91.2595 -2.75334 -8.47391 0
M  V30 517 O 91.4795 -2.44571 -9.90142 0
M  V30 518 O 92.0495 -3.87688 -7.92115 0
M  V30 519 O 91.5095 -1.4459 -7.59357 0
M  V30 520 C 90.5695 -0.347608 -7.69215 0
M  V30 521 C 91.2995 0.96767 -7.52806 0
M  V30 522 O 91.5095 1.21036 -6.1011 0
M  V30 523 C 92.6995 1.04544 -8.13308 0
M  V30 524 O 93.0895 2.38311 -8.41922 0
M  V30 525 C 93.5795 0.491279 -7.02284 0
M  V30 526 C 92.8695 0.996264 -5.77469 0
M  V30 527 N 92.9195 0.0501916 -4.62973 0
M  V30 528 H 90.0805 -0.374722 -8.67691 0
M  V30 529 H 89.8105 -0.443485 -6.90277 0
M  V30 530 H 90.6775 1.75537 -7.96793 0
M  V30 531 P 94.6394 2.75334 -8.47391 0
M  V30 532 O 94.8594 3.84128 -9.44797 0
M  V30 533 O 95.4294 1.51947 -8.68712 0
M  V30 534 O 94.8894 3.29363 -6.99321 0
M  V30 535 C 93.9494 4.24011 -6.4274 0
M  V30 536 C 94.6794 5.20775 -5.52155 0
M  V30 537 O 94.8894 4.56534 -4.22446 0
M  V30 538 C 96.0794 5.62629 -5.96531 0
M  V30 539 O 96.4694 6.87667 -5.41053 0
M  V30 540 C 96.9594 4.52537 -5.39283 0
M  V30 541 C 96.2494 4.20027 -4.08623 0
M  V30 542 N 96.2994 2.76189 -3.71603 0
M  V30 543 H 93.4604 4.797 -7.24003 0
M  V30 544 H 93.1904 3.69856 -5.84513 0
M  V30 545 H 94.0574 6.10356 -5.41441 0
M  V30 546 P 98.0194 7.20834 -5.23717 0
M  V30 547 O 98.2394 8.66104 -5.38572 0
M  V30 548 O 98.8094 6.33544 -6.1349 0
M  V30 549 O 98.2694 6.7751 -3.72168 0
M  V30 550 C 97.3294 7.20825 -2.7076 0
M  V30 551 C 98.0594 7.45864 -1.40599 0
M  V30 552 O 98.2694 6.17651 -0.734225 0
M  V30 553 C 99.4594 8.05808 -1.51899 0
M  V30 554 O 99.8494 8.74358 -0.335205 0
M  V30 555 C 100.339 6.83093 -1.70294 0
M  V30 556 C 99.6294 5.79992 -0.836974 0
M  V30 557 N 99.6794 4.41864 -1.38293 0
M  V30 558 H 96.8404 8.13644 -3.0377 0
M  V30 559 H 96.5704 6.42788 -2.55485 0
M  V30 560 H 97.4374 8.12039 -0.792769 0
M  V30 561 P 101.399 8.91 -6.54696e-15 0
M  V30 562 O 101.619 10.1726 0.733694 0
M  V30 563 O 102.189 8.73148 -1.23936 0
M  V30 564 O 101.649 7.66872 0.971405 0
M  V30 565 C 100.709 7.42309 2.04641 0
M  V30 566 C 101.439 6.86059 3.24661 0
M  V30 567 O 101.649 5.42847 3.03646 0
M  V30 568 C 102.839 7.41196 3.50753 0
M  V30 569 O 103.229 7.27073 4.86816 0
M  V30 570 C 103.719 6.5273 2.63741 0
M  V30 571 C 103.009 5.1842 2.73198 0
M  V30 572 N 103.059 4.38762 1.4784 0
M  V30 573 H 100.22 8.36803 2.32493 0
M  V30 574 H 99.9504 6.70197 1.71129 0
M  V30 575 H 100.817 7.03551 4.13168 0
M  V30 576 P 104.779 7.20834 5.23717 0
M  V30 577 O 104.999 7.79853 6.57286 0
M  V30 578 O 105.569 7.79239 4.12957 0
M  V30 579 O 105.029 5.63315 5.29344 0
M  V30 580 C 104.089 4.80255 6.01876 0
M  V30 581 C 104.819 3.64202 6.65911 0
M  V30 582 O 105.029 2.60694 5.64732 0
M  V30 583 C 106.219 3.93473 7.1943 0
M  V30 584 O 106.609 3.02071 8.21205 0
M  V30 585 C 107.099 3.73047 5.97036 0
M  V30 586 C 106.389 2.58828 5.25741 0
M  V30 587 N 106.439 2.68068 3.77503 0
M  V30 588 H 103.6 5.40332 6.79951 0
M  V30 589 H 103.33 4.41613 5.32378 0
M  V30 590 H 104.197 3.26331 7.47797 0
M  V30 591 P 108.159 2.75334 8.47391 0
M  V30 592 O 108.379 2.44619 9.90336 0
M  V30 593 O 108.949 3.87776 7.92294 0
M  V30 594 O 108.409 1.4459 7.59357 0
M  V30 595 C 107.469 0.347653 7.69315 0
M  V30 596 C 108.199 -0.96767 7.52806 0
M  V30 597 O 108.409 -1.21055 6.10208 0
M  V30 598 C 109.599 -1.04557 8.13408 0
M  V30 599 O 109.989 -2.38311 8.41922 0
M  V30 600 C 110.479 -0.491279 7.02284 0
M  V30 601 C 109.769 -0.996264 5.77469 0
M  V30 602 N 109.819 -0.0501916 4.62973 0
M  V30 603 C 109.739 1.31969 4.65661 0
M  V30 604 N 109.809 1.86649 3.48119 0
M  V30 605 C 109.959 0.792089 2.62406 0
M  V30 606 C 110.089 0.705684 1.2207 0
M  V30 607 N 110.099 1.76207 0.413762 0
M  V30 608 N 110.209 -0.518981 0.685754 0
M  V30 609 C 110.199 -1.57595 1.49174 0
M  V30 610 N 110.079 -1.62909 2.80066 0
M  V30 611 C 109.959 -0.388195 3.3073 0
M  V30 612 H 106.981 0.374765 8.67791 0
M  V30 613 H 106.709 0.443613 6.90476 0
M  V30 614 H 107.577 -1.75559 7.96891 0
M  V30 615 H 110.232 -1.94563 5.46818 0
M  V30 616 H 110.512 0.608651 7.04676 0
M  V30 617 H 111.503 -0.889796 7.09039 0
M  V30 618 H 109.669 -0.433128 9.04664 0
M  V30 619 H 109.628 1.89246 5.57664 0
M  V30 620 H 110.009 2.71005 0.804694 0
M  V30 621 H 110.198 1.63189 -0.603768 0
M  V30 622 H 110.306 -2.53475 0.997614 0
M  V30 623 P 111.539 -2.75334 8.47391 0
M  V30 624 O 111.759 -3.84128 9.44797 0
M  V30 625 O 112.329 -1.51947 8.68712 0
M  V30 626 O 111.789 -3.29363 6.99321 0
M  V30 627 C 110.849 -4.24011 6.4274 0
M  V30 628 C 111.579 -5.20775 5.52155 0
M  V30 629 O 111.789 -4.56534 4.22446 0
M  V30 630 C 112.979 -5.62629 5.96531 0
M  V30 631 O 113.369 -6.87667 5.41053 0
M  V30 632 C 113.859 -4.52537 5.39283 0
M  V30 633 C 113.149 -4.20027 4.08623 0
M  V30 634 N 113.199 -2.76189 3.71603 0
M  V30 635 C 113.119 -1.64862 4.52822 0
M  V30 636 N 113.199 -0.512671 3.88633 0
M  V30 637 C 113.339 -0.888083 2.54977 0
M  V30 638 C 113.469 -0.094668 1.38677 0
M  V30 639 N 113.589 -0.890102 0.232633 0
M  V30 640 C 113.589 -2.26958 0.21772 0
M  V30 641 N 113.719 -2.84626 -0.97925 0
M  V30 642 N 113.459 -3.0178 1.31033 0
M  V30 643 C 113.339 -2.26781 2.43843 0
M  V30 644 H 110.36 -4.797 7.24003 0
M  V30 645 H 110.09 -3.69856 5.84513 0
M  V30 646 H 110.957 -6.10356 5.41441 0
M  V30 647 P 114.919 -7.20834 5.23717 0
M  V30 648 O 115.139 -8.66104 5.38572 0
M  V30 649 O 115.709 -6.33544 6.1349 0
M  V30 650 O 115.169 -6.7751 3.72168 0
M  V30 651 C 114.229 -7.20825 2.7076 0
M  V30 652 C 114.959 -7.45864 1.40599 0
M  V30 653 O 115.169 -6.17651 0.734225 0
M  V30 654 C 116.359 -8.05808 1.51899 0
M  V30 655 O 116.749 -8.74358 0.335205 0
M  V30 656 C 117.239 -6.83093 1.70294 0
M  V30 657 C 116.529 -5.79992 0.836974 0
M  V30 658 N 116.579 -4.41864 1.38293 0
M  V30 659 H 113.74 -8.13644 3.0377 0
M  V30 660 H 113.47 -6.42788 2.55485 0
M  V30 661 H 114.337 -8.12039 0.792769 0
M  V30 662 P 118.299 -8.91 7.63812e-15 0
M  V30 663 O 118.519 -10.1746 -0.733838 0
M  V30 664 O 119.089 -8.73346 1.23964 0
M  V30 665 O 118.549 -7.66872 -0.971405 0
M  V30 666 C 117.609 -7.42405 -2.04668 0
M  V30 667 C 118.339 -6.86059 -3.24661 0
M  V30 668 O 118.549 -5.42934 -3.03695 0
M  V30 669 C 119.739 -7.41287 -3.50796 0
M  V30 670 O 120.129 -7.27073 -4.86816 0
M  V30 671 C 120.619 -6.5273 -2.63741 0
M  V30 672 C 119.909 -5.1842 -2.73198 0
M  V30 673 N 119.959 -4.38762 -1.4784 0
M  V30 674 C 119.879 -4.83651 -0.183876 0
M  V30 675 N 119.949 -3.88759 0.699393 0
M  V30 676 C 120.099 -2.7404 -0.0575568 0
M  V30 677 C 120.229 -1.37902 0.293928 0
M  V30 678 N 120.239 -0.938021 1.54797 0
M  V30 679 N 120.349 -0.491817 -0.70549 0
M  V30 680 C 120.339 -0.931735 -1.95979 0
M  V30 681 N 120.219 -2.16017 -2.41481 0
M  V30 682 C 120.099 -3.02547 -1.39121 0
M  V30 683 H 117.121 -8.36899 -2.3252 0
M  V30 684 H 116.849 -6.70391 -1.71179 0
M  V30 685 H 117.717 -7.03638 -4.13219 0
M  V30 686 H 120.372 -4.59931 -3.54016 0
M  V30 687 H 120.652 -6.88995 -1.59871 0
M  V30 688 H 121.643 -6.4684 -3.0373 0
M  V30 689 H 119.809 -8.47002 -3.20749 0
M  V30 690 H 119.768 -5.8885 0.0765548 0
M  V30 691 H 120.149 -1.60276 2.32875 0
M  V30 692 H 120.338 0.0699355 1.73859 0
M  V30 693 H 120.446 -0.165507 -2.71897 0
M  V30 694 P 121.679 -7.20834 -5.23717 0
M  V30 695 O 121.899 -7.79853 -6.57286 0
M  V30 696 O 122.469 -7.79239 -4.12957 0
M  V30 697 O 121.929 -5.63315 -5.29344 0
M  V30 698 C 120.989 -4.80255 -6.01876 0
M  V30 699 C 121.719 -3.64202 -6.65911 0
M  V30 700 O 121.929 -2.60694 -5.64732 0
M  V30 701 C 123.119 -3.93473 -7.1943 0
M  V30 702 O 123.509 -3.02071 -8.21205 0
M  V30 703 C 123.999 -3.73047 -5.97036 0
M  V30 704 C 123.289 -2.58828 -5.25741 0
M  V30 705 N 123.339 -2.68068 -3.77503 0
M  V30 706 H 120.5 -5.40332 -6.79951 0
M  V30 707 H 120.23 -4.41613 -5.32378 0
M  V30 708 H 121.097 -3.26331 -7.47797 0
M  V30 709 P 125.059 -2.75334 -8.47391 0
M  V30 710 O 125.279 -2.44571 -9.90142 0
M  V30 711 O 125.849 -3.87688 -7.92115 0
M  V30 712 O 125.309 -1.4459 -7.59357 0
M  V30 713 C 124.369 -0.347608 -7.69215 0
M  V30 714 C 125.099 0.96767 -7.52806 0
M  V30 715 O 125.309 1.21036 -6.1011 0
M  V30 716 C 126.499 1.04544 -8.13308 0
M  V30 717 O 126.889 2.38311 -8.41922 0
M  V30 718 C 127.379 0.491279 -7.02284 0
M  V30 719 C 126.669 0.996264 -5.77469 0
M  V30 720 N 126.719 0.0501916 -4.62973 0
M  V30 721 H 123.88 -0.374722 -8.67691 0
M  V30 722 H 123.61 -0.443485 -6.90277 0
M  V30 723 H 124.477 1.75537 -7.96793 0
M  V30 724 P 128.439 2.75334 -8.47391 0
M  V30 725 O 128.659 3.84128 -9.44797 0
M  V30 726 O 129.229 1.51947 -8.68712 0
M  V30 727 O 128.689 3.29363 -6.99321 0
M  V30 728 C 127.749 4.24011 -6.4274 0
M  V30 729 C 128.479 5.20775 -5.52155 0
M  V30 730 O 128.689 4.56534 -4.22446 0
M  V30 731 C 129.879 5.62629 -5.96531 0
M  V30 732 O 130.269 6.87667 -5.41053 0
M  V30 733 C 130.759 4.52537 -5.39283 0
M  V30 734 C 130.049 4.20027 -4.08623 0
M  V30 735 N 130.099 2.76189 -3.71603 0
M  V30 736 C 130.019 1.64862 -4.52822 0
M  V30 737 N 130.099 0.512671 -3.88633 0
M  V30 738 C 130.239 0.888083 -2.54977 0
M  V30 739 C 130.369 0.094668 -1.38677 0
M  V30 740 N 130.489 0.890102 -0.232633 0
M  V30 741 C 130.489 2.26958 -0.21772 0
M  V30 742 N 130.619 2.84626 0.97925 0
M  V30 743 N 130.359 3.0178 -1.31033 0
M  V30 744 C 130.239 2.26781 -2.43843 0
M  V30 745 H 127.26 4.797 -7.24003 0
M  V30 746 H 126.99 3.69856 -5.84513 0
M  V30 747 H 127.857 6.10356 -5.41441 0
M  V30 748 P 131.819 7.20834 -5.23717 0
M  V30 749 O 132.039 8.66274 -5.38678 0
M  V30 750 O 132.609 6.33687 -6.13629 0
M  V30 751 O 132.069 6.7751 -3.72168 0
M  V30 752 C 131.129 7.20919 -2.70795 0
M  V30 753 C 131.859 7.45864 -1.40599 0
M  V30 754 O 132.069 6.17751 -0.734343 0
M  V30 755 C 133.259 8.05906 -1.51917 0
M  V30 756 O 133.649 8.74358 -0.335205 0
M  V30 757 C 134.139 6.83093 -1.70294 0
M  V30 758 C 133.429 5.79992 -0.836974 0
M  V30 759 N 133.479 4.41864 -1.38293 0
M  V30 760 C 133.399 4.02089 -2.69407 0
M  V30 761 N 133.469 2.73403 -2.85089 0
M  V30 762 C 133.619 2.25086 -1.5642 0
M  V30 763 C 133.749 0.942887 -1.04836 0
M  V30 764 N 133.759 -0.150999 -1.80369 0
M  V30 765 N 133.869 0.812565 0.28167 0
M  V30 766 C 133.859 1.90572 1.03784 0
M  V30 767 N 133.739 3.167 0.683905 0
M  V30 768 C 133.619 3.26538 -0.652815 0
M  V30 769 H 130.641 8.13738 -3.03804 0
M  V30 770 H 130.369 6.42974 -2.55559 0
M  V30 771 H 131.237 8.12139 -0.792866 0
M  V30 772 H 133.892 5.80178 0.160643 0
M  V30 773 H 134.172 6.51379 -2.75643 0
M  V30 774 H 135.163 7.01832 -1.3448 0
M  V30 775 H 133.329 8.73771 -2.38364 0
M  V30 776 H 133.288 4.7189 -3.52311 0
M  V30 777 H 133.669 -0.0721434 -2.82608 0
M  V30 778 H 133.858 -1.0785 -1.36544 0
M  V30 779 H 133.966 1.73207 2.10241 0
M  V30 780 P 135.199 8.91 -8.72928e-15 0
M  V30 781 O 135.419 10.1746 0.733838 0
M  V30 782 O 135.989 8.73346 -1.23964 0
M  V30 783 O 135.449 7.66872 0.971405 0
M  V30 784 C 134.509 7.42405 2.04668 0
M  V30 785 C 135.239 6.86059 3.24661 0
M  V30 786 O 135.449 5.42934 3.03695 0
M  V30 787 C 136.639 7.41287 3.50796 0
M  V30 788 O 137.029 7.27073 4.86816 0
M  V30 789 C 137.519 6.5273 2.63741 0
M  V30 790 C 136.809 5.1842 2.73198 0
M  V30 791 N 136.859 4.38762 1.4784 0
M  V30 792 C 136.779 4.83651 0.183876 0
M  V30 793 N 136.849 3.88759 -0.699393 0
M  V30 794 C 136.999 2.7404 0.0575568 0
M  V30 795 C 137.129 1.37902 -0.293928 0
M  V30 796 N 137.139 0.938021 -1.54797 0
M  V30 797 N 137.249 0.491817 0.70549 0
M  V30 798 C 137.239 0.931735 1.95979 0
M  V30 799 N 137.119 2.16017 2.41481 0
M  V30 800 C 136.999 3.02547 1.39121 0
M  V30 801 H 134.021 8.36899 2.3252 0
M  V30 802 H 133.749 6.70391 1.71179 0
M  V30 803 H 134.617 7.03638 4.13219 0
M  V30 804 H 137.272 4.59931 3.54016 0
M  V30 805 H 137.552 6.88995 1.59871 0
M  V30 806 H 138.543 6.4684 3.0373 0
M  V30 807 H 136.709 8.47002 3.20749 0
M  V30 808 H 136.668 5.8885 -0.0765548 0
M  V30 809 H 137.049 1.60276 -2.32875 0
M  V30 810 H 137.238 -0.0699355 -1.73859 0
M  V30 811 H 137.346 0.165507 2.71897 0
M  V30 812 P 138.579 7.20834 5.23717 0
M  V30 813 O 138.799 7.79853 6.57286 0
M  V30 814 O 139.369 7.79239 4.12957 0
M  V30 815 O 138.829 5.63315 5.29344 0
M  V30 816 C 137.889 4.80255 6.01876 0
M  V30 817 C 138.619 3.64202 6.65911 0
M  V30 818 O 138.829 2.60694 5.64732 0
M  V30 819 C 140.019 3.93473 7.1943 0
M  V30 820 O 140.409 3.02071 8.21205 0
M  V30 821 C 140.899 3.73047 5.97036 0
M  V30 822 C 140.189 2.58828 5.25741 0
M  V30 823 N 140.239 2.68068 3.77503 0
M  V30 824 H 137.4 5.40332 6.79951 0
M  V30 825 H 137.13 4.41613 5.32378 0
M  V30 826 H 137.997 3.26331 7.47797 0
M  V30 827 P 141.959 2.75334 8.47391 0
M  V30 828 O 142.179 2.44571 9.90142 0
M  V30 829 O 142.749 3.87688 7.92115 0
M  V30 830 O 142.209 1.4459 7.59357 0
M  V30 831 C 141.269 0.347608 7.69215 0
M  V30 832 C 141.999 -0.96767 7.52806 0
M  V30 833 O 142.209 -1.21036 6.1011 0
M  V30 834 C 143.399 -1.04544 8.13308 0
M  V30 835 O 143.789 -2.38311 8.41922 0
M  V30 836 C 144.279 -0.491279 7.02284 0
M  V30 837 C 143.569 -0.996264 5.77469 0
M  V30 838 N 143.619 -0.0501916 4.62973 0
M  V30 839 H 140.78 0.374722 8.67691 0
M  V30 840 H 140.51 0.443485 6.90277 0
M  V30 841 H 141.377 -1.75537 7.96793 0
M  V30 842 P 145.339 -2.75334 8.47391 0
M  V30 843 O 145.559 -3.84128 9.44797 0
M  V30 844 O 146.129 -1.51947 8.68712 0
M  V30 845 O 145.589 -3.29363 6.99321 0
M  V30 846 C 144.649 -4.24011 6.4274 0
M  V30 847 C 145.379 -5.20775 5.52155 0
M  V30 848 O 145.589 -4.56534 4.22446 0
M  V30 849 C 146.779 -5.62629 5.96531 0
M  V30 850 O 147.169 -6.87667 5.41053 0
M  V30 851 C 147.659 -4.52537 5.39283 0
M  V30 852 C 146.949 -4.20027 4.08623 0
M  V30 853 N 146.999 -2.76189 3.71603 0
M  V30 854 H 144.16 -4.797 7.24003 0
M  V30 855 H 143.89 -3.69856 5.84513 0
M  V30 856 H 144.757 -6.10356 5.41441 0
M  V30 857 P 148.719 -7.20834 5.23717 0
M  V30 858 O 148.939 -8.66104 5.38572 0
M  V30 859 O 149.509 -6.33544 6.1349 0
M  V30 860 O 148.969 -6.7751 3.72168 0
M  V30 861 C 148.029 -7.20825 2.7076 0
M  V30 862 C 148.759 -7.45864 1.40599 0
M  V30 863 O 148.969 -6.17651 0.734225 0
M  V30 864 C 150.159 -8.05808 1.51899 0
M  V30 865 O 150.549 -8.74358 0.335205 0
M  V30 866 C 151.039 -6.83093 1.70294 0
M  V30 867 C 150.329 -5.79992 0.836974 0
M  V30 868 N 150.379 -4.41864 1.38293 0
M  V30 869 H 147.54 -8.13644 3.0377 0
M  V30 870 H 147.27 -6.42788 2.55485 0
M  V30 871 H 148.137 -8.12039 0.792769 0
M  V30 872 P 152.099 -8.91 9.82044e-15 0
M  V30 873 O 152.319 -10.1726 -0.733694 0
M  V30 874 O 152.889 -8.73148 1.23936 0
M  V30 875 O 152.349 -7.66872 -0.971405 0
M  V30 876 C 151.409 -7.42309 -2.04641 0
M  V30 877 C 152.139 -6.86059 -3.24661 0
M  V30 878 O 152.349 -5.42847 -3.03646 0
M  V30 879 C 153.539 -7.41196 -3.50753 0
M  V30 880 O 153.929 -7.27073 -4.86816 0
M  V30 881 C 154.419 -6.5273 -2.63741 0
M  V30 882 C 153.709 -5.1842 -2.73198 0
M  V30 883 N 153.759 -4.38762 -1.4784 0
M  V30 884 H 150.92 -8.36803 -2.32493 0
M  V30 885 H 150.65 -6.70197 -1.71129 0
M  V30 886 H 151.517 -7.03551 -4.13168 0
M  V30 887 P 155.479 -7.20834 -5.23717 0
M  V30 888 O 155.699 -7.7993 -6.57351 0
M  V30 889 O 156.269 -7.79328 -4.13004 0
M  V30 890 O 155.729 -5.63315 -5.29344 0
M  V30 891 C 154.789 -4.80193 -6.01798 0
M  V30 892 C 155.519 -3.64202 -6.65911 0
M  V30 893 O 155.729 -2.60694 -5.64732 0
M  V30 894 C 156.919 -3.93473 -7.1943 0
M  V30 895 O 157.309 -3.02071 -8.21205 0
M  V30 896 C 157.799 -3.73047 -5.97036 0
M  V30 897 C 157.089 -2.58828 -5.25741 0
M  V30 898 N 157.139 -2.6801 -3.77422 0
M  V30 899 C 157.289 -1.50443 -3.07133 0
M  V30 900 O 157.379 -0.419406 -3.61576 0
M  V30 901 N 157.329 -1.6403 -1.69677 0
M  V30 902 C 157.239 -2.81206 -0.986255 0
M  V30 903 C 157.089 -3.99158 -1.80325 0
M  V30 904 C 157.039 -3.89779 -3.1476 0
M  V30 905 H 154.299 -5.40332 -6.79951 0
M  V30 906 H 154.03 -4.41549 -5.32301 0
M  V30 907 H 154.897 -3.26331 -7.47797 0
M  V30 908 H 157.552 -1.6395 -5.56554 0
M  V30 909 H 157.831 -4.63439 -5.3432 0
M  V30 910 H 158.823 -3.44728 -6.25838 0
M  V30 911 H 156.989 -4.96652 -7.57263 0
M  V30 912 H 156.918 -4.80159 -3.74441 0
M  V30 913 P 158.859 -2.75334 -8.47391 0
M  V30 914 O 159.079 -2.44619 -9.90336 0
M  V30 915 O 159.649 -3.87776 -7.92294 0
M  V30 916 O 159.109 -1.4459 -7.59357 0
M  V30 917 C 158.169 -0.347653 -7.69315 0
M  V30 918 C 158.899 0.96767 -7.52806 0
M  V30 919 O 159.109 1.21055 -6.10208 0
M  V30 920 C 160.299 1.04557 -8.13408 0
M  V30 921 O 160.689 2.38311 -8.41922 0
M  V30 922 C 161.179 0.491279 -7.02284 0
M  V30 923 C 160.469 0.996264 -5.77469 0
M  V30 924 N 160.519 0.0501916 -4.62973 0
M  V30 925 C 160.439 -1.31969 -4.65661 0
M  V30 926 N 160.509 -1.86649 -3.48119 0
M  V30 927 C 160.659 -0.792089 -2.62406 0
M  V30 928 C 160.789 -0.705684 -1.2207 0
M  V30 929 N 160.799 -1.76207 -0.413762 0
M  V30 930 N 160.909 0.518981 -0.685754 0
M  V30 931 C 160.899 1.57595 -1.49174 0
M  V30 932 N 160.779 1.62909 -2.80066 0
M  V30 933 C 160.659 0.388195 -3.3073 0
M  V30 934 H 157.681 -0.374765 -8.67791 0
M  V30 935 H 157.409 -0.443613 -6.90476 0
M  V30 936 H 158.277 1.75559 -7.96891 0
M  V30 937 H 160.932 1.94563 -5.46818 0
M  V30 938 H 161.212 -0.608651 -7.04676 0
M  V30 939 H 162.203 0.889796 -7.09039 0
M  V30 940 H 160.369 0.433128 -9.04664 0
M  V30 941 H 160.328 -1.89246 -5.57664 0
M  V30 942 H 160.709 -2.71005 -0.804694 0
M  V30 943 H 160.898 -1.63189 0.603768 0
M  V30 944 H 161.006 2.53475 -0.997614 0
M  V30 945 P 162.239 2.75334 -8.47391 0
M  V30 946 O 162.459 3.84166 -9.4489 0
M  V30 947 O 163.029 1.51964 -8.6881 0
M  V30 948 O 162.489 3.29363 -6.99321 0
M  V30 949 C 161.549 4.23956 -6.42656 0
M  V30 950 C 162.279 5.20775 -5.52155 0
M  V30 951 O 162.489 4.56534 -4.22446 0
M  V30 952 C 163.679 5.62629 -5.96531 0
M  V30 953 O 164.069 6.87667 -5.41053 0
M  V30 954 C 164.559 4.52537 -5.39283 0
M  V30 955 C 163.849 4.20027 -4.08623 0
M  V30 956 N 163.899 2.7613 -3.71522 0
M  V30 957 C 164.049 2.45612 -2.37989 0
M  V30 958 O 164.139 3.30919 -1.51621 0
M  V30 959 N 164.089 1.10684 -2.08435 0
M  V30 960 C 163.999 0.0690084 -2.9792 0
M  V30 961 O 164.049 -1.10553 -2.59426 0
M  V30 962 C 163.849 0.481522 -4.35345 0
M  V30 963 C 163.739 -0.618778 -5.36443 0
M  V30 964 C 163.799 1.78906 -4.67968 0
M  V30 965 H 161.059 4.797 -7.24003 0
M  V30 966 H 160.79 3.69802 -5.84429 0
M  V30 967 H 161.657 6.10356 -5.41441 0
M  V30 968 H 164.312 4.78651 -3.27911 0
M  V30 969 H 164.591 3.64957 -6.05871 0
M  V30 970 H 165.583 4.8868 -5.2125 0
M  V30 971 H 163.749 5.66726 -7.06352 0
M  V30 972 H 163.678 2.07737 -5.72367 0
M  V30 973 H 164.708 -0.754375 -5.86871 0
M  V30 974 H 162.971 -0.359721 -6.10641 0
M  V30 975 H 163.459 -1.55533 -4.8581 0
M  V30 976 H 164.195 0.862651 -1.12037 0
M  V30 977 P 165.619 7.20834 -5.23717 0
M  V30 978 O 165.839 8.66104 -5.38572 0
M  V30 979 O 166.409 6.33544 -6.1349 0
M  V30 980 O 165.869 6.7751 -3.72168 0
M  V30 981 C 164.929 7.20825 -2.7076 0
M  V30 982 C 165.659 7.45864 -1.40599 0
M  V30 983 O 165.869 6.17651 -0.734225 0
M  V30 984 C 167.059 8.05808 -1.51899 0
M  V30 985 O 167.449 8.74358 -0.335205 0
M  V30 986 C 167.939 6.83093 -1.70294 0
M  V30 987 C 167.229 5.79992 -0.836974 0
M  V30 988 N 167.279 4.41864 -1.38293 0
M  V30 989 H 164.44 8.13644 -3.0377 0
M  V30 990 H 164.17 6.42788 -2.55485 0
M  V30 991 H 165.037 8.12039 -0.792769 0
M  V30 992 P 168.999 8.91 -1.09116e-14 0
M  V30 993 O 169.219 10.1736 0.733766 0
M  V30 994 O 169.789 8.73247 -1.2395 0
M  V30 995 O 169.249 7.66872 0.971405 0
M  V30 996 C 168.309 7.42309 2.04641 0
M  V30 997 C 169.039 6.86059 3.24661 0
M  V30 998 O 169.249 5.42847 3.03646 0
M  V30 999 C 170.439 7.41196 3.50753 0
M  V30 1000 O 170.829 7.27073 4.86816 0
M  V30 1001 C 171.319 6.5273 2.63741 0
M  V30 1002 C 170.609 5.1842 2.73198 0
M  V30 1003 N 170.659 4.38668 1.47808 0
M  V30 1004 C 170.809 3.00789 1.58511 0
M  V30 1005 O 170.899 2.50116 2.71298 0
M  V30 1006 N 170.859 2.29703 0.253698 0
M  V30 1007 C 170.759 2.84269 -0.750133 0
M  V30 1008 N 170.809 2.06951 -1.82612 0
M  V30 1009 C 170.609 4.25803 -0.889776 0
M  V30 1010 C 170.559 4.98326 0.259363 0
M  V30 1011 H 167.819 8.36707 2.32466 0
M  V30 1012 H 167.55 6.701 1.71105 0
M  V30 1013 H 168.417 7.03638 4.13219 0
M  V30 1014 H 171.072 4.59852 3.53955 0
M  V30 1015 H 171.351 6.88995 1.59871 0
M  V30 1016 H 172.343 6.46749 3.03687 0
M  V30 1017 H 170.509 8.46908 3.20714 0
M  V30 1018 H 170.437 6.06349 0.206238 0
M  V30 1019 H 170.539 4.73163 -1.86796 0
M  V30 1020 H 170.927 1.05099 -1.72271 0
M  V30 1021 H 170.73 2.48716 -2.76361 0
M  V30 1022 P 172.379 7.20834 5.23717 0
M  V30 1023 O 172.599 7.80006 6.57415 0
M  V30 1024 O 173.169 7.79416 4.13051 0
M  V30 1025 O 172.629 5.63315 5.29344 0
M  V30 1026 C 171.689 4.80318 6.01954 0
M  V30 1027 C 172.419 3.64202 6.65911 0
M  V30 1028 O 172.629 2.60736 5.64823 0
M  V30 1029 C 173.819 3.93521 7.19518 0
M  V30 1030 O 174.209 3.02071 8.21205 0
M  V30 1031 C 174.699 3.73047 5.97036 0
M  V30 1032 C 173.989 2.58828 5.25741 0
M  V30 1033 N 174.039 2.68068 3.77503 0
M  V30 1034 C 173.959 3.80474 2.99159 0
M  V30 1035 N 174.029 3.55622 1.71925 0
M  V30 1036 C 174.179 2.1832 1.65733 0
M  V30 1037 C 174.309 1.28842 0.572777 0
M  V30 1038 N 174.319 1.66875 -0.70098 0
M  V30 1039 N 174.429 -0.016788 0.859836 0
M  V30 1040 C 174.419 -0.398145 2.13316 0
M  V30 1041 N 174.299 0.328224 3.22333 0
M  V30 1042 C 174.179 1.62992 2.90383 0
M  V30 1043 H 171.201 5.40394 6.8003 0
M  V30 1044 H 170.929 4.41741 5.32532 0
M  V30 1045 H 171.797 3.26371 7.47889 0
M  V30 1046 H 174.452 1.64007 5.56746 0
M  V30 1047 H 174.732 4.63439 5.3432 0
M  V30 1048 H 175.723 3.44776 6.25925 0
M  V30 1049 H 173.889 4.96707 7.57347 0
M  V30 1050 H 173.848 4.8089 3.39924 0
M  V30 1051 H 174.229 2.66547 -0.941919 0
M  V30 1052 H 174.418 0.965341 -1.44766 0
M  V30 1053 H 174.526 -1.46427 2.29697 0
M  V30 1054 P 175.759 2.75334 8.47391 0
M  V30 1055 O 175.979 2.44571 9.90142 0
M  V30 1056 O 176.549 3.87688 7.92115 0
M  V30 1057 O 176.009 1.4459 7.59357 0
M  V30 1058 C 175.069 0.347608 7.69215 0
M  V30 1059 C 175.799 -0.96767 7.52806 0
M  V30 1060 O 176.009 -1.21036 6.1011 0
M  V30 1061 C 177.199 -1.04544 8.13308 0
M  V30 1062 O 177.589 -2.38311 8.41922 0
M  V30 1063 C 178.079 -0.491279 7.02284 0
M  V30 1064 C 177.369 -0.996264 5.77469 0
M  V30 1065 N 177.419 -0.0501916 4.62973 0
M  V30 1066 H 174.58 0.374722 8.67691 0
M  V30 1067 H 174.31 0.443485 6.90277 0
M  V30 1068 H 175.177 -1.75537 7.96793 0
M  V30 1069 P 179.139 -2.75334 8.47391 0
M  V30 1070 O 179.359 -3.84128 9.44797 0
M  V30 1071 O 179.929 -1.51947 8.68712 0
M  V30 1072 O 179.389 -3.29363 6.99321 0
M  V30 1073 C 178.449 -4.24011 6.4274 0
M  V30 1074 C 179.179 -5.20775 5.52155 0
M  V30 1075 O 179.389 -4.56534 4.22446 0
M  V30 1076 C 180.579 -5.62629 5.96531 0
M  V30 1077 O 180.969 -6.87667 5.41053 0
M  V30 1078 C 181.459 -4.52537 5.39283 0
M  V30 1079 C 180.749 -4.20027 4.08623 0
M  V30 1080 N 180.799 -2.76189 3.71603 0
M  V30 1081 H 177.96 -4.797 7.24003 0
M  V30 1082 H 177.69 -3.69856 5.84513 0
M  V30 1083 H 178.557 -6.10356 5.41441 0
M  V30 1084 P 182.519 -7.20834 5.23717 0
M  V30 1085 O 182.739 -8.66104 5.38572 0
M  V30 1086 O 183.309 -6.33544 6.1349 0
M  V30 1087 O 182.769 -6.7751 3.72168 0
M  V30 1088 C 181.829 -7.20825 2.7076 0
M  V30 1089 C 182.559 -7.45864 1.40599 0
M  V30 1090 O 182.769 -6.17651 0.734225 0
M  V30 1091 C 183.959 -8.05808 1.51899 0
M  V30 1092 O 184.349 -8.74358 0.335205 0
M  V30 1093 C 184.839 -6.83093 1.70294 0
M  V30 1094 C 184.129 -5.79992 0.836974 0
M  V30 1095 N 184.179 -4.41864 1.38293 0
M  V30 1096 H 181.34 -8.13644 3.0377 0
M  V30 1097 H 181.07 -6.42788 2.55485 0
M  V30 1098 H 181.937 -8.12039 0.792769 0
M  V30 1099 P 185.899 -8.91 -8.29613e-14 0
M  V30 1100 O 186.119 -10.1746 -0.733838 0
M  V30 1101 O 186.689 -8.73346 1.23964 0
M  V30 1102 O 186.149 -7.66872 -0.971405 0
M  V30 1103 C 185.209 -7.42405 -2.04668 0
M  V30 1104 C 185.939 -6.86059 -3.24661 0
M  V30 1105 O 186.149 -5.42934 -3.03695 0
M  V30 1106 C 187.339 -7.41287 -3.50796 0
M  V30 1107 O 187.729 -7.27073 -4.86816 0
M  V30 1108 C 188.219 -6.5273 -2.63741 0
M  V30 1109 C 187.509 -5.1842 -2.73198 0
M  V30 1110 N 187.559 -4.38762 -1.4784 0
M  V30 1111 C 187.479 -4.83651 -0.183876 0
M  V30 1112 N 187.549 -3.88759 0.699393 0
M  V30 1113 C 187.699 -2.7404 -0.0575568 0
M  V30 1114 C 187.829 -1.37902 0.293928 0
M  V30 1115 N 187.839 -0.938021 1.54797 0
M  V30 1116 N 187.949 -0.491817 -0.70549 0
M  V30 1117 C 187.939 -0.931735 -1.95979 0
M  V30 1118 N 187.819 -2.16017 -2.41481 0
M  V30 1119 C 187.699 -3.02547 -1.39121 0
M  V30 1120 H 184.721 -8.36899 -2.3252 0
M  V30 1121 H 184.449 -6.70391 -1.71179 0
M  V30 1122 H 185.317 -7.03638 -4.13219 0
M  V30 1123 H 187.972 -4.59931 -3.54016 0
M  V30 1124 H 188.252 -6.88995 -1.59871 0
M  V30 1125 H 189.243 -6.4684 -3.0373 0
M  V30 1126 H 187.409 -8.47002 -3.20749 0
M  V30 1127 H 187.368 -5.8885 0.0765548 0
M  V30 1128 H 187.749 -1.60276 2.32875 0
M  V30 1129 H 187.938 0.0699355 1.73859 0
M  V30 1130 H 188.046 -0.165507 -2.71897 0
M  V30 1131 P 189.279 -7.20834 -5.23717 0
M  V30 1132 O 189.499 -7.80006 -6.57415 0
M  V30 1133 O 190.069 -7.79416 -4.13051 0
M  V30 1134 O 189.529 -5.63315 -5.29344 0
M  V30 1135 C 188.589 -4.80318 -6.01954 0
M  V30 1136 C 189.319 -3.64202 -6.65911 0
M  V30 1137 O 189.529 -2.60736 -5.64823 0
M  V30 1138 C 190.719 -3.93521 -7.19518 0
M  V30 1139 O 191.109 -3.02071 -8.21205 0
M  V30 1140 C 191.599 -3.73047 -5.97036 0
M  V30 1141 C 190.889 -2.58828 -5.25741 0
M  V30 1142 N 190.939 -2.68068 -3.77503 0
M  V30 1143 H 188.101 -5.40394 -6.8003 0
M  V30 1144 H 187.829 -4.41741 -5.32532 0
M  V30 1145 H 188.697 -3.26371 -7.47889 0
M  V30 1146 H 191.352 -1.64007 -5.56746 0
M  V30 1147 H 191.632 -4.63439 -5.3432 0
M  V30 1148 H 192.623 -3.44776 -6.25925 0
M  V30 1149 H 190.789 -4.96707 -7.57347 0
M  V30 1150 P 192.659 -2.75334 -8.47391 0
M  V30 1151 O 192.879 -2.44571 -9.90142 0
M  V30 1152 O 193.449 -3.87688 -7.92115 0
M  V30 1153 O 192.909 -1.4459 -7.59357 0
M  V30 1154 C 191.969 -0.347608 -7.69215 0
M  V30 1155 C 192.699 0.96767 -7.52806 0
M  V30 1156 O 192.909 1.21036 -6.1011 0
M  V30 1157 C 194.099 1.04544 -8.13308 0
M  V30 1158 O 194.489 2.38311 -8.41922 0
M  V30 1159 C 194.979 0.491279 -7.02284 0
M  V30 1160 C 194.269 0.996264 -5.77469 0
M  V30 1161 N 194.319 0.0501916 -4.62973 0
M  V30 1162 H 191.48 -0.374722 -8.67691 0
M  V30 1163 H 191.21 -0.443485 -6.90277 0
M  V30 1164 H 192.077 1.75537 -7.96793 0
M  V30 1165 P 196.039 2.75334 -8.47391 0
M  V30 1166 O 196.259 3.84128 -9.44797 0
M  V30 1167 O 196.829 1.51947 -8.68712 0
M  V30 1168 O 196.289 3.29363 -6.99321 0
M  V30 1169 C 195.349 4.24011 -6.4274 0
M  V30 1170 C 196.079 5.20775 -5.52155 0
M  V30 1171 O 196.289 4.56534 -4.22446 0
M  V30 1172 C 197.479 5.62629 -5.96531 0
M  V30 1173 O 197.869 6.87667 -5.41053 0
M  V30 1174 C 198.359 4.52537 -5.39283 0
M  V30 1175 C 197.649 4.20027 -4.08623 0
M  V30 1176 N 197.699 2.76189 -3.71603 0
M  V30 1177 C 197.619 1.64862 -4.52822 0
M  V30 1178 N 197.699 0.512671 -3.88633 0
M  V30 1179 C 197.839 0.888083 -2.54977 0
M  V30 1180 C 197.969 0.094668 -1.38677 0
M  V30 1181 O 197.989 -1.13053 -1.28163 0
M  V30 1182 N 198.089 0.890102 -0.232633 0
M  V30 1183 C 198.089 2.26958 -0.21772 0
M  V30 1184 N 198.219 2.84626 0.97925 0
M  V30 1185 N 197.959 3.0178 -1.31033 0
M  V30 1186 C 197.839 2.26781 -2.43843 0
M  V30 1187 H 194.86 4.797 -7.24003 0
M  V30 1188 H 194.59 3.69856 -5.84513 0
M  V30 1189 H 195.457 6.10356 -5.41441 0
M  V30 1190 H 198.112 4.79061 -3.27488 0
M  V30 1191 H 198.391 3.64906 -6.05785 0
M  V30 1192 H 199.383 4.8868 -5.2125 0
M  V30 1193 H 197.549 5.66726 -7.06352 0
M  V30 1194 H 197.5 1.71169 -5.60966 0
M  V30 1195 H 198.182 0.419134 0.644739 0
M  V30 1196 H 198.219 3.87332 1.06098 0
M  V30 1197 H 198.32 2.26417 1.82483 0
M  V30 1198 P 199.419 7.20834 -5.23717 0
M  V30 1199 O 199.639 8.66104 -5.38572 0
M  V30 1200 O 200.209 6.33544 -6.1349 0
M  V30 1201 O 199.669 6.7751 -3.72168 0
M  V30 1202 C 198.729 7.20825 -2.7076 0
M  V30 1203 C 199.459 7.45864 -1.40599 0
M  V30 1204 O 199.669 6.17651 -0.734225 0
M  V30 1205 C 200.859 8.05808 -1.51899 0
M  V30 1206 O 201.249 8.74358 -0.335205 0
M  V30 1207 C 201.739 6.83093 -1.70294 0
M  V30 1208 C 201.029 5.79992 -0.836974 0
M  V30 1209 N 201.079 4.41864 -1.38293 0
M  V30 1210 H 198.24 8.13644 -3.0377 0
M  V30 1211 H 197.97 6.42788 -2.55485 0
M  V30 1212 H 198.837 8.12039 -0.792769 0
M  V30 1213 P 202.799 8.91 2.40144e-13 0
M  V30 1214 O 203.019 10.1726 0.733694 0
M  V30 1215 O 203.589 8.73148 -1.23936 0
M  V30 1216 O 203.049 7.66872 0.971405 0
M  V30 1217 C 202.109 7.42309 2.04641 0
M  V30 1218 C 202.839 6.86059 3.24661 0
M  V30 1219 O 203.049 5.42847 3.03646 0
M  V30 1220 C 204.239 7.41196 3.50753 0
M  V30 1221 O 204.629 7.27073 4.86816 0
M  V30 1222 C 205.119 6.5273 2.63741 0
M  V30 1223 C 204.409 5.1842 2.73198 0
M  V30 1224 N 204.459 4.38762 1.4784 0
M  V30 1225 C 204.379 4.81605 0.168631 0
M  V30 1226 N 204.459 3.85454 -0.713363 0
M  V30 1227 C 204.599 2.6994 0.0566958 0
M  V30 1228 C 204.729 1.34815 -0.338502 0
M  V30 1229 N 204.849 0.496304 0.77465 0
M  V30 1230 C 204.849 0.908403 2.09122 0
M  V30 1231 N 204.979 -0.0517805 3.00955 0
M  V30 1232 N 204.719 2.17875 2.46519 0
M  V30 1233 C 204.599 3.01988 1.4033 0
M  V30 1234 H 201.62 8.36803 2.32493 0
M  V30 1235 H 201.35 6.70197 1.71129 0
M  V30 1236 H 202.217 7.03551 4.13168 0
M  V30 1237 P 206.179 7.20834 5.23717 0
M  V30 1238 O 206.399 7.79853 6.57286 0
M  V30 1239 O 206.969 7.79239 4.12957 0
M  V30 1240 O 206.429 5.63315 5.29344 0
M  V30 1241 C 205.489 4.80255 6.01876 0
M  V30 1242 C 206.219 3.64202 6.65911 0
M  V30 1243 O 206.429 2.60694 5.64732 0
M  V30 1244 C 207.619 3.93473 7.1943 0
M  V30 1245 O 208.009 3.02071 8.21205 0
M  V30 1246 C 208.499 3.73047 5.97036 0
M  V30 1247 C 207.789 2.58828 5.25741 0
M  V30 1248 N 207.839 2.68068 3.77503 0
M  V30 1249 H 205 5.40332 6.79951 0
M  V30 1250 H 204.73 4.41613 5.32378 0
M  V30 1251 H 205.597 3.26331 7.47797 0
M  V30 1252 P 209.559 2.75334 8.47391 0
M  V30 1253 O 209.779 2.44595 9.90239 0
M  V30 1254 O 210.349 3.87732 7.92204 0
M  V30 1255 O 209.809 1.4459 7.59357 0
M  V30 1256 C 208.869 0.347563 7.69115 0
M  V30 1257 C 209.599 -0.96767 7.52806 0
M  V30 1258 O 209.809 -1.21036 6.1011 0
M  V30 1259 C 210.999 -1.04544 8.13308 0
M  V30 1260 O 211.389 -2.38311 8.41922 0
M  V30 1261 C 211.879 -0.491279 7.02284 0
M  V30 1262 C 211.169 -0.996264 5.77469 0
M  V30 1263 N 211.219 -0.0501808 4.62873 0
M  V30 1264 C 211.369 -0.588177 3.36904 0
M  V30 1265 O 211.459 -1.78598 3.17173 0
M  V30 1266 N 211.409 0.329694 2.33686 0
M  V30 1267 C 211.319 1.6953 2.45079 0
M  V30 1268 O 211.369 2.41926 1.44899 0
M  V30 1269 C 211.169 2.16933 3.80505 0
M  V30 1270 C 211.059 3.65373 3.97621 0
M  V30 1271 C 211.119 1.30326 4.83752 0
M  V30 1272 H 208.379 0.374722 8.67691 0
M  V30 1273 H 208.11 0.443421 6.90177 0
M  V30 1274 H 208.977 -1.75537 7.96793 0
M  V30 1275 H 211.632 -1.94496 5.46629 0
M  V30 1276 H 211.911 0.608651 7.04676 0
M  V30 1277 H 212.903 -0.889672 7.08939 0
M  V30 1278 H 211.069 -0.43308 9.04564 0
M  V30 1279 H 210.998 1.68366 5.8516 0
M  V30 1280 H 212.028 4.05985 4.30448 0
M  V30 1281 H 210.291 3.88028 4.72875 0
M  V30 1282 H 210.779 4.11381 3.01609 0
M  V30 1283 H 211.515 -0.0393617 1.41345 0
M  V30 1284 P 212.939 -2.75334 8.47391 0
M  V30 1285 O 213.159 -3.84128 9.44797 0
M  V30 1286 O 213.729 -1.51947 8.68712 0
M  V30 1287 O 213.189 -3.29363 6.99321 0
M  V30 1288 C 212.249 -4.24011 6.4274 0
M  V30 1289 C 212.979 -5.20775 5.52155 0
M  V30 1290 O 213.189 -4.56534 4.22446 0
M  V30 1291 C 214.379 -5.62629 5.96531 0
M  V30 1292 O 214.769 -6.87667 5.41053 0
M  V30 1293 C 215.259 -4.52537 5.39283 0
M  V30 1294 C 214.549 -4.20027 4.08623 0
M  V30 1295 N 214.599 -2.76189 3.71603 0
M  V30 1296 H 211.76 -4.797 7.24003 0
M  V30 1297 H 211.49 -3.69856 5.84513 0
M  V30 1298 H 212.357 -6.10356 5.41441 0
M  V30 1299 P 216.319 -7.20834 5.23717 0
M  V30 1300 O 216.539 -8.66104 5.38572 0
M  V30 1301 O 217.109 -6.33544 6.1349 0
M  V30 1302 O 216.569 -6.7751 3.72168 0
M  V30 1303 C 215.629 -7.20825 2.7076 0
M  V30 1304 C 216.359 -7.45864 1.40599 0
M  V30 1305 O 216.569 -6.17651 0.734225 0
M  V30 1306 C 217.759 -8.05808 1.51899 0
M  V30 1307 O 218.149 -8.74358 0.335205 0
M  V30 1308 C 218.639 -6.83093 1.70294 0
M  V30 1309 C 217.929 -5.79992 0.836974 0
M  V30 1310 N 217.979 -4.41864 1.38293 0
M  V30 1311 H 215.14 -8.13644 3.0377 0
M  V30 1312 H 214.87 -6.42788 2.55485 0
M  V30 1313 H 215.737 -8.12039 0.792769 0
M  V30 1314 P 219.699 -8.91 -3.97326e-13 0
M  V30 1315 O 219.919 -10.1746 -0.733838 0
M  V30 1316 O 220.489 -8.73346 1.23964 0
M  V30 1317 O 219.949 -7.66872 -0.971405 0
M  V30 1318 C 219.009 -7.42405 -2.04668 0
M  V30 1319 C 219.739 -6.86059 -3.24661 0
M  V30 1320 O 219.949 -5.42934 -3.03695 0
M  V30 1321 C 221.139 -7.41287 -3.50796 0
M  V30 1322 O 221.529 -7.27073 -4.86816 0
M  V30 1323 C 222.019 -6.5273 -2.63741 0
M  V30 1324 C 221.309 -5.1842 -2.73198 0
M  V30 1325 N 221.359 -4.38762 -1.4784 0
M  V30 1326 C 221.279 -4.83651 -0.183876 0
M  V30 1327 N 221.349 -3.88759 0.699393 0
M  V30 1328 C 221.499 -2.7404 -0.0575568 0
M  V30 1329 C 221.629 -1.37902 0.293928 0
M  V30 1330 N 221.639 -0.938021 1.54797 0
M  V30 1331 N 221.749 -0.491817 -0.70549 0
M  V30 1332 C 221.739 -0.931735 -1.95979 0
M  V30 1333 N 221.619 -2.16017 -2.41481 0
M  V30 1334 C 221.499 -3.02547 -1.39121 0
M  V30 1335 H 218.521 -8.36899 -2.3252 0
M  V30 1336 H 218.249 -6.70391 -1.71179 0
M  V30 1337 H 219.117 -7.03638 -4.13219 0
M  V30 1338 H 221.772 -4.59931 -3.54016 0
M  V30 1339 H 222.052 -6.88995 -1.59871 0
M  V30 1340 H 223.043 -6.4684 -3.0373 0
M  V30 1341 H 221.209 -8.47002 -3.20749 0
M  V30 1342 H 221.168 -5.8885 0.0765548 0
M  V30 1343 H 221.549 -1.60276 2.32875 0
M  V30 1344 H 221.738 0.0699355 1.73859 0
M  V30 1345 H 221.846 -0.165507 -2.71897 0
M  V30 1346 P 223.079 -7.20834 -5.23717 0
M  V30 1347 O 223.299 -7.79853 -6.57286 0
M  V30 1348 O 223.869 -7.79239 -4.12957 0
M  V30 1349 O 223.329 -5.63315 -5.29344 0
M  V30 1350 C 222.389 -4.80255 -6.01876 0
M  V30 1351 C 223.119 -3.64202 -6.65911 0
M  V30 1352 O 223.329 -2.60694 -5.64732 0
M  V30 1353 C 224.519 -3.93473 -7.1943 0
M  V30 1354 O 224.909 -3.02071 -8.21205 0
M  V30 1355 C 225.399 -3.73047 -5.97036 0
M  V30 1356 C 224.689 -2.58828 -5.25741 0
M  V30 1357 N 224.739 -2.68068 -3.77503 0
M  V30 1358 H 221.9 -5.40332 -6.79951 0
M  V30 1359 H 221.63 -4.41613 -5.32378 0
M  V30 1360 H 222.497 -3.26331 -7.47797 0
M  V30 1361 P 226.459 -2.75334 -8.47391 0
M  V30 1362 O 226.679 -2.44571 -9.90142 0
M  V30 1363 O 227.249 -3.87688 -7.92115 0
M  V30 1364 O 226.709 -1.4459 -7.59357 0
M  V30 1365 C 225.769 -0.347608 -7.69215 0
M  V30 1366 C 226.499 0.96767 -7.52806 0
M  V30 1367 O 226.709 1.21036 -6.1011 0
M  V30 1368 C 227.899 1.04544 -8.13308 0
M  V30 1369 O 228.289 2.38311 -8.41922 0
M  V30 1370 C 228.779 0.491279 -7.02284 0
M  V30 1371 C 228.069 0.996264 -5.77469 0
M  V30 1372 N 228.119 0.0501916 -4.62973 0
M  V30 1373 H 225.28 -0.374722 -8.67691 0
M  V30 1374 H 225.01 -0.443485 -6.90277 0
M  V30 1375 H 225.877 1.75537 -7.96793 0
M  V30 1376 P 229.839 2.75334 -8.47391 0
M  V30 1377 O 230.059 3.84128 -9.44797 0
M  V30 1378 O 230.629 1.51947 -8.68712 0
M  V30 1379 O 230.089 3.29363 -6.99321 0
M  V30 1380 C 229.149 4.24011 -6.4274 0
M  V30 1381 C 229.879 5.20775 -5.52155 0
M  V30 1382 O 230.089 4.56534 -4.22446 0
M  V30 1383 C 231.279 5.62629 -5.96531 0
M  V30 1384 O 231.669 6.87667 -5.41053 0
M  V30 1385 C 232.159 4.52537 -5.39283 0
M  V30 1386 C 231.449 4.20027 -4.08623 0
M  V30 1387 N 231.499 2.76189 -3.71603 0
M  V30 1388 H 228.66 4.797 -7.24003 0
M  V30 1389 H 228.39 3.69856 -5.84513 0
M  V30 1390 H 229.257 6.10356 -5.41441 0
M  V30 1391 P 233.219 7.20834 -5.23717 0
M  V30 1392 O 233.439 8.66104 -5.38572 0
M  V30 1393 O 234.009 6.33544 -6.1349 0
M  V30 1394 O 233.469 6.7751 -3.72168 0
M  V30 1395 C 232.529 7.20825 -2.7076 0
M  V30 1396 C 233.259 7.45864 -1.40599 0
M  V30 1397 O 233.469 6.17651 -0.734225 0
M  V30 1398 C 234.659 8.05808 -1.51899 0
M  V30 1399 O 235.049 8.74358 -0.335205 0
M  V30 1400 C 235.539 6.83093 -1.70294 0
M  V30 1401 C 234.829 5.79992 -0.836974 0
M  V30 1402 N 234.879 4.41864 -1.38293 0
M  V30 1403 H 232.04 8.13644 -3.0377 0
M  V30 1404 H 231.77 6.42788 -2.55485 0
M  V30 1405 H 232.637 8.12039 -0.792769 0
M  V30 1406 P 236.599 8.91 5.54508e-13 0
M  V30 1407 O 236.819 10.1726 0.733694 0
M  V30 1408 O 237.389 8.73148 -1.23936 0
M  V30 1409 O 236.849 7.66872 0.971405 0
M  V30 1410 C 235.909 7.42309 2.04641 0
M  V30 1411 C 236.639 6.86059 3.24661 0
M  V30 1412 O 236.849 5.42847 3.03646 0
M  V30 1413 C 238.039 7.41196 3.50753 0
M  V30 1414 O 238.429 7.27073 4.86816 0
M  V30 1415 C 238.919 6.5273 2.63741 0
M  V30 1416 C 238.209 5.1842 2.73198 0
M  V30 1417 N 238.259 4.38762 1.4784 0
M  V30 1418 H 235.42 8.36803 2.32493 0
M  V30 1419 H 235.15 6.70197 1.71129 0
M  V30 1420 H 236.017 7.03551 4.13168 0
M  V30 1421 P 239.979 7.20834 5.23717 0
M  V30 1422 O 240.199 7.80006 6.57415 0
M  V30 1423 O 240.769 7.79416 4.13051 0
M  V30 1424 O 240.229 5.63315 5.29344 0
M  V30 1425 C 239.289 4.80318 6.01954 0
M  V30 1426 C 240.019 3.64202 6.65911 0
M  V30 1427 O 240.229 2.60736 5.64823 0
M  V30 1428 C 241.419 3.93521 7.19518 0
M  V30 1429 O 241.809 3.02071 8.21205 0
M  V30 1430 C 242.299 3.73047 5.97036 0
M  V30 1431 C 241.589 2.58828 5.25741 0
M  V30 1432 N 241.639 2.68068 3.77503 0
M  V30 1433 C 241.559 3.80474 2.99159 0
M  V30 1434 N 241.629 3.55622 1.71925 0
M  V30 1435 C 241.779 2.1832 1.65733 0
M  V30 1436 C 241.909 1.28842 0.572777 0
M  V30 1437 N 241.919 1.66875 -0.70098 0
M  V30 1438 N 242.029 -0.016788 0.859836 0
M  V30 1439 C 242.019 -0.398145 2.13316 0
M  V30 1440 N 241.899 0.328224 3.22333 0
M  V30 1441 C 241.779 1.62992 2.90383 0
M  V30 1442 H 238.801 5.40394 6.8003 0
M  V30 1443 H 238.529 4.41741 5.32532 0
M  V30 1444 H 239.397 3.26371 7.47889 0
M  V30 1445 H 242.052 1.64007 5.56746 0
M  V30 1446 H 242.332 4.63439 5.3432 0
M  V30 1447 H 243.323 3.44776 6.25925 0
M  V30 1448 H 241.489 4.96707 7.57347 0
M  V30 1449 H 241.448 4.8089 3.39924 0
M  V30 1450 H 241.829 2.66547 -0.941919 0
M  V30 1451 H 242.018 0.965341 -1.44766 0
M  V30 1452 H 242.126 -1.46427 2.29697 0
M  V30 1453 P 243.359 2.75334 8.47391 0
M  V30 1454 O 243.579 2.44619 9.90336 0
M  V30 1455 O 244.149 3.87776 7.92294 0
M  V30 1456 O 243.609 1.4459 7.59357 0
M  V30 1457 C 242.669 0.347653 7.69315 0
M  V30 1458 C 243.399 -0.96767 7.52806 0
M  V30 1459 O 243.609 -1.21055 6.10208 0
M  V30 1460 C 244.799 -1.04557 8.13408 0
M  V30 1461 O 245.189 -2.38311 8.41922 0
M  V30 1462 C 245.679 -0.491279 7.02284 0
M  V30 1463 C 244.969 -0.996264 5.77469 0
M  V30 1464 N 245.019 -0.0501916 4.62973 0
M  V30 1465 H 242.181 0.374765 8.67791 0
M  V30 1466 H 241.909 0.443613 6.90476 0
M  V30 1467 H 242.777 -1.75559 7.96891 0
M  V30 1468 H 245.432 -1.94563 5.46818 0
M  V30 1469 H 245.712 0.608651 7.04676 0
M  V30 1470 H 246.703 -0.889796 7.09039 0
M  V30 1471 H 244.869 -0.433128 9.04664 0
M  V30 1472 P 246.739 -2.75334 8.47391 0
M  V30 1473 O 246.959 -3.84128 9.44797 0
M  V30 1474 O 247.529 -1.51947 8.68712 0
M  V30 1475 O 246.989 -3.29363 6.99321 0
M  V30 1476 C 246.049 -4.24011 6.4274 0
M  V30 1477 C 246.779 -5.20775 5.52155 0
M  V30 1478 O 246.989 -4.56534 4.22446 0
M  V30 1479 C 248.179 -5.62629 5.96531 0
M  V30 1480 O 248.569 -6.87667 5.41053 0
M  V30 1481 C 249.059 -4.52537 5.39283 0
M  V30 1482 C 248.349 -4.20027 4.08623 0
M  V30 1483 N 248.399 -2.76189 3.71603 0
M  V30 1484 H 245.56 -4.797 7.24003 0
M  V30 1485 H 245.29 -3.69856 5.84513 0
M  V30 1486 H 246.157 -6.10356 5.41441 0
M  V30 1487 P 250.119 -7.20834 5.23717 0
M  V30 1488 O 250.339 -8.66104 5.38572 0
M  V30 1489 O 250.909 -6.33544 6.1349 0
M  V30 1490 O 250.369 -6.7751 3.72168 0
M  V30 1491 C 249.429 -7.20825 2.7076 0
M  V30 1492 C 250.159 -7.45864 1.40599 0
M  V30 1493 O 250.369 -6.17651 0.734225 0
M  V30 1494 C 251.559 -8.05808 1.51899 0
M  V30 1495 O 251.949 -8.74358 0.335205 0
M  V30 1496 C 252.439 -6.83093 1.70294 0
M  V30 1497 C 251.729 -5.79992 0.836974 0
M  V30 1498 N 251.779 -4.41864 1.38293 0
M  V30 1499 H 248.94 -8.13644 3.0377 0
M  V30 1500 H 248.67 -6.42788 2.55485 0
M  V30 1501 H 249.537 -8.12039 0.792769 0
M  V30 1502 P 253.498 -8.91 -7.1169e-13 0
M  V30 1503 O 253.718 -10.1746 -0.733838 0
M  V30 1504 O 254.288 -8.73346 1.23964 0
M  V30 1505 O 253.748 -7.66872 -0.971405 0
M  V30 1506 C 252.808 -7.42405 -2.04668 0
M  V30 1507 C 253.538 -6.86059 -3.24661 0
M  V30 1508 O 253.748 -5.42934 -3.03695 0
M  V30 1509 C 254.938 -7.41287 -3.50796 0
M  V30 1510 O 255.328 -7.27073 -4.86816 0
M  V30 1511 C 255.818 -6.5273 -2.63741 0
M  V30 1512 C 255.108 -5.1842 -2.73198 0
M  V30 1513 N 255.158 -4.38762 -1.4784 0
M  V30 1514 H 252.32 -8.36899 -2.3252 0
M  V30 1515 H 252.048 -6.70391 -1.71179 0
M  V30 1516 H 252.916 -7.03638 -4.13219 0
M  V30 1517 H 255.571 -4.59931 -3.54016 0
M  V30 1518 H 255.851 -6.88995 -1.59871 0
M  V30 1519 H 256.842 -6.4684 -3.0373 0
M  V30 1520 H 255.008 -8.47002 -3.20749 0
M  V30 1521 P 256.878 -7.20834 -5.23717 0
M  V30 1522 O 257.098 -7.79853 -6.57286 0
M  V30 1523 O 257.668 -7.79239 -4.12957 0
M  V30 1524 O 257.128 -5.63315 -5.29344 0
M  V30 1525 C 256.188 -4.80255 -6.01876 0
M  V30 1526 C 256.918 -3.64202 -6.65911 0
M  V30 1527 O 257.128 -2.60694 -5.64732 0
M  V30 1528 C 258.318 -3.93473 -7.1943 0
M  V30 1529 O 258.708 -3.02071 -8.21205 0
M  V30 1530 C 259.198 -3.73047 -5.97036 0
M  V30 1531 C 258.488 -2.58828 -5.25741 0
M  V30 1532 N 258.538 -2.68068 -3.77503 0
M  V30 1533 H 255.699 -5.40332 -6.79951 0
M  V30 1534 H 255.429 -4.41613 -5.32378 0
M  V30 1535 H 256.296 -3.26331 -7.47797 0
M  V30 1536 P 260.258 -2.75334 -8.47391 0
M  V30 1537 O 260.478 -2.44571 -9.90142 0
M  V30 1538 O 261.048 -3.87688 -7.92115 0
M  V30 1539 O 260.508 -1.4459 -7.59357 0
M  V30 1540 C 259.568 -0.347608 -7.69215 0
M  V30 1541 C 260.298 0.96767 -7.52806 0
M  V30 1542 O 260.508 1.21036 -6.1011 0
M  V30 1543 C 261.698 1.04544 -8.13308 0
M  V30 1544 O 262.088 2.38311 -8.41922 0
M  V30 1545 C 262.578 0.491279 -7.02284 0
M  V30 1546 C 261.868 0.996264 -5.77469 0
M  V30 1547 N 261.918 0.0501916 -4.62973 0
M  V30 1548 H 259.079 -0.374722 -8.67691 0
M  V30 1549 H 258.809 -0.443485 -6.90277 0
M  V30 1550 H 259.676 1.75537 -7.96793 0
M  V30 1551 P 263.638 2.75334 -8.47391 0
M  V30 1552 O 263.858 3.84128 -9.44797 0
M  V30 1553 O 264.428 1.51947 -8.68712 0
M  V30 1554 O 263.888 3.29363 -6.99321 0
M  V30 1555 C 262.948 4.24011 -6.4274 0
M  V30 1556 C 263.678 5.20775 -5.52155 0
M  V30 1557 O 263.888 4.56534 -4.22446 0
M  V30 1558 C 265.078 5.62629 -5.96531 0
M  V30 1559 O 265.468 6.87667 -5.41053 0
M  V30 1560 C 265.958 4.52537 -5.39283 0
M  V30 1561 C 265.248 4.20027 -4.08623 0
M  V30 1562 N 265.298 2.76189 -3.71603 0
M  V30 1563 H 262.459 4.797 -7.24003 0
M  V30 1564 H 262.189 3.69856 -5.84513 0
M  V30 1565 H 263.056 6.10356 -5.41441 0
M  V30 1566 P 267.018 7.20834 -5.23717 0
M  V30 1567 O 267.238 8.66104 -5.38572 0
M  V30 1568 O 267.808 6.33544 -6.1349 0
M  V30 1569 O 267.268 6.7751 -3.72168 0
M  V30 1570 C 266.328 7.20825 -2.7076 0
M  V30 1571 C 267.058 7.45864 -1.40599 0
M  V30 1572 O 267.268 6.17651 -0.734225 0
M  V30 1573 C 268.458 8.05808 -1.51899 0
M  V30 1574 O 268.848 8.74358 -0.335205 0
M  V30 1575 C 269.338 6.83093 -1.70294 0
M  V30 1576 C 268.628 5.79992 -0.836974 0
M  V30 1577 N 268.678 4.41864 -1.38293 0
M  V30 1578 C 268.598 3.99538 -2.69438 0
M  V30 1579 N 268.678 2.69909 -2.84277 0
M  V30 1580 C 268.818 2.21719 -1.5408 0
M  V30 1581 C 268.948 0.891712 -1.06628 0
M  V30 1582 N 269.068 0.856846 0.334985 0
M  V30 1583 C 269.068 1.9641 1.15789 0
M  V30 1584 N 269.198 1.72708 2.46522 0
M  V30 1585 N 268.938 3.21165 0.713741 0
M  V30 1586 C 268.818 3.26797 -0.639748 0
M  V30 1587 H 265.839 8.13644 -3.0377 0
M  V30 1588 H 265.569 6.42788 -2.55485 0
M  V30 1589 H 266.436 8.12039 -0.792769 0
M  V30 1590 P 270.398 8.91 8.68872e-13 0
M  V30 1591 O 270.618 10.1726 0.733694 0
M  V30 1592 O 271.188 8.73148 -1.23936 0
M  V30 1593 O 270.648 7.66872 0.971405 0
M  V30 1594 C 269.708 7.42309 2.04641 0
M  V30 1595 C 270.438 6.86059 3.24661 0
M  V30 1596 O 270.648 5.42847 3.03646 0
M  V30 1597 C 271.838 7.41196 3.50753 0
M  V30 1598 O 272.228 7.27073 4.86816 0
M  V30 1599 C 272.718 6.5273 2.63741 0
M  V30 1600 C 272.008 5.1842 2.73198 0
M  V30 1601 N 272.058 4.38762 1.4784 0
M  V30 1602 H 269.219 8.36803 2.32493 0
M  V30 1603 H 268.949 6.70197 1.71129 0
M  V30 1604 H 269.816 7.03551 4.13168 0
M  V30 1605 P 273.778 7.20834 5.23717 0
M  V30 1606 O 273.998 7.79853 6.57286 0
M  V30 1607 O 274.568 7.79239 4.12957 0
M  V30 1608 O 274.028 5.63315 5.29344 0
M  V30 1609 C 273.088 4.80255 6.01876 0
M  V30 1610 C 273.818 3.64202 6.65911 0
M  V30 1611 O 274.028 2.60694 5.64732 0
M  V30 1612 C 275.218 3.93473 7.1943 0
M  V30 1613 O 275.608 3.02071 8.21205 0
M  V30 1614 C 276.098 3.73047 5.97036 0
M  V30 1615 C 275.388 2.58828 5.25741 0
M  V30 1616 N 275.438 2.68068 3.77503 0
M  V30 1617 H 272.599 5.40332 6.79951 0
M  V30 1618 H 272.329 4.41613 5.32378 0
M  V30 1619 H 273.196 3.26331 7.47797 0
M  V30 1620 P 277.158 2.75334 8.47391 0
M  V30 1621 O 277.378 2.44595 9.90239 0
M  V30 1622 O 277.948 3.87732 7.92204 0
M  V30 1623 O 277.408 1.4459 7.59357 0
M  V30 1624 C 276.468 0.347563 7.69115 0
M  V30 1625 C 277.198 -0.96767 7.52806 0
M  V30 1626 O 277.408 -1.21036 6.1011 0
M  V30 1627 C 278.598 -1.04544 8.13308 0
M  V30 1628 O 278.988 -2.38311 8.41922 0
M  V30 1629 C 279.478 -0.491279 7.02284 0
M  V30 1630 C 278.768 -0.996264 5.77469 0
M  V30 1631 N 278.818 -0.0501808 4.62873 0
M  V30 1632 C 278.968 -0.588177 3.36904 0
M  V30 1633 O 279.058 -1.78598 3.17173 0
M  V30 1634 N 279.008 0.329694 2.33686 0
M  V30 1635 C 278.918 1.6953 2.45079 0
M  V30 1636 O 278.968 2.41926 1.44899 0
M  V30 1637 C 278.768 2.16933 3.80505 0
M  V30 1638 C 278.658 3.65373 3.97621 0
M  V30 1639 C 278.718 1.30326 4.83752 0
M  V30 1640 H 275.978 0.374722 8.67691 0
M  V30 1641 H 275.709 0.443421 6.90177 0
M  V30 1642 H 276.576 -1.75537 7.96793 0
M  V30 1643 H 279.231 -1.94496 5.46629 0
M  V30 1644 H 279.51 0.608651 7.04676 0
M  V30 1645 H 280.502 -0.889672 7.08939 0
M  V30 1646 H 278.668 -0.43308 9.04564 0
M  V30 1647 H 278.597 1.68366 5.8516 0
M  V30 1648 H 279.627 4.05985 4.30448 0
M  V30 1649 H 277.89 3.88028 4.72875 0
M  V30 1650 H 278.378 4.11381 3.01609 0
M  V30 1651 H 279.114 -0.0393617 1.41345 0
M  V30 1652 P 280.538 -2.75334 8.47391 0
M  V30 1653 O 280.758 -3.84128 9.44797 0
M  V30 1654 O 281.328 -1.51947 8.68712 0
M  V30 1655 O 280.788 -3.29363 6.99321 0
M  V30 1656 C 279.848 -4.24011 6.4274 0
M  V30 1657 C 280.578 -5.20775 5.52155 0
M  V30 1658 O 280.788 -4.56534 4.22446 0
M  V30 1659 C 281.978 -5.62629 5.96531 0
M  V30 1660 O 282.368 -6.87667 5.41053 0
M  V30 1661 C 282.858 -4.52537 5.39283 0
M  V30 1662 C 282.148 -4.20027 4.08623 0
M  V30 1663 N 282.198 -2.76189 3.71603 0
M  V30 1664 H 279.359 -4.797 7.24003 0
M  V30 1665 H 279.089 -3.69856 5.84513 0
M  V30 1666 H 279.956 -6.10356 5.41441 0
M  V30 1667 P 283.918 -7.20834 5.23717 0
M  V30 1668 O 284.138 -8.66104 5.38572 0
M  V30 1669 O 284.708 -6.33544 6.1349 0
M  V30 1670 O 284.168 -6.7751 3.72168 0
M  V30 1671 C 283.228 -7.20825 2.7076 0
M  V30 1672 C 283.958 -7.45864 1.40599 0
M  V30 1673 O 284.168 -6.17651 0.734225 0
M  V30 1674 C 285.358 -8.05808 1.51899 0
M  V30 1675 O 285.748 -8.74358 0.335205 0
M  V30 1676 C 286.238 -6.83093 1.70294 0
M  V30 1677 C 285.528 -5.79992 0.836974 0
M  V30 1678 N 285.578 -4.41864 1.38293 0
M  V30 1679 H 282.739 -8.13644 3.0377 0
M  V30 1680 H 282.469 -6.42788 2.55485 0
M  V30 1681 H 283.336 -8.12039 0.792769 0
M  V30 1682 P 287.298 -8.91 -1.02605e-12 0
M  V30 1683 O 287.518 -10.1726 -0.733694 0
M  V30 1684 O 288.088 -8.73148 1.23936 0
M  V30 1685 O 287.548 -7.66872 -0.971405 0
M  V30 1686 C 286.608 -7.42309 -2.04641 0
M  V30 1687 C 287.338 -6.86059 -3.24661 0
M  V30 1688 O 287.548 -5.42847 -3.03646 0
M  V30 1689 C 288.738 -7.41196 -3.50753 0
M  V30 1690 O 289.128 -7.27073 -4.86816 0
M  V30 1691 C 289.618 -6.5273 -2.63741 0
M  V30 1692 C 288.908 -5.1842 -2.73198 0
M  V30 1693 N 288.958 -4.38762 -1.4784 0
M  V30 1694 H 286.119 -8.36803 -2.32493 0
M  V30 1695 H 285.849 -6.70197 -1.71129 0
M  V30 1696 H 286.716 -7.03551 -4.13168 0
M  V30 1697 P 290.678 -7.20834 -5.23717 0
M  V30 1698 O 290.898 -7.79853 -6.57286 0
M  V30 1699 O 291.468 -7.79239 -4.12957 0
M  V30 1700 O 290.928 -5.63315 -5.29344 0
M  V30 1701 C 289.988 -4.80255 -6.01876 0
M  V30 1702 C 290.718 -3.64202 -6.65911 0
M  V30 1703 O 290.928 -2.60694 -5.64732 0
M  V30 1704 C 292.118 -3.93473 -7.1943 0
M  V30 1705 O 292.508 -3.02071 -8.21205 0
M  V30 1706 C 292.998 -3.73047 -5.97036 0
M  V30 1707 C 292.288 -2.58828 -5.25741 0
M  V30 1708 N 292.338 -2.68068 -3.77503 0
M  V30 1709 H 289.499 -5.40332 -6.79951 0
M  V30 1710 H 289.229 -4.41613 -5.32378 0
M  V30 1711 H 290.096 -3.26331 -7.47797 0
M  V30 1712 P 294.058 -2.75334 -8.47391 0
M  V30 1713 O 294.278 -2.44619 -9.90336 0
M  V30 1714 O 294.848 -3.87776 -7.92294 0
M  V30 1715 O 294.308 -1.4459 -7.59357 0
M  V30 1716 C 293.368 -0.347653 -7.69315 0
M  V30 1717 C 294.098 0.96767 -7.52806 0
M  V30 1718 O 294.308 1.21055 -6.10208 0
M  V30 1719 C 295.498 1.04557 -8.13408 0
M  V30 1720 O 295.888 2.38311 -8.41922 0
M  V30 1721 C 296.378 0.491279 -7.02284 0
M  V30 1722 C 295.668 0.996264 -5.77469 0
M  V30 1723 N 295.718 0.0501916 -4.62973 0
M  V30 1724 C 295.638 -1.31969 -4.65661 0
M  V30 1725 N 295.708 -1.86649 -3.48119 0
M  V30 1726 C 295.858 -0.792089 -2.62406 0
M  V30 1727 C 295.988 -0.705684 -1.2207 0
M  V30 1728 N 295.998 -1.76207 -0.413762 0
M  V30 1729 N 296.108 0.518981 -0.685754 0
M  V30 1730 C 296.098 1.57595 -1.49174 0
M  V30 1731 N 295.978 1.62909 -2.80066 0
M  V30 1732 C 295.858 0.388195 -3.3073 0
M  V30 1733 H 292.88 -0.374765 -8.67791 0
M  V30 1734 H 292.608 -0.443613 -6.90476 0
M  V30 1735 H 293.476 1.75559 -7.96891 0
M  V30 1736 H 296.131 1.94563 -5.46818 0
M  V30 1737 H 296.411 -0.608651 -7.04676 0
M  V30 1738 H 297.402 0.889796 -7.09039 0
M  V30 1739 H 295.568 0.433128 -9.04664 0
M  V30 1740 H 295.527 -1.89246 -5.57664 0
M  V30 1741 H 295.908 -2.71005 -0.804694 0
M  V30 1742 H 296.097 -1.63189 0.603768 0
M  V30 1743 H 296.205 2.53475 -0.997614 0
M  V30 1744 P 297.438 2.75334 -8.47391 0
M  V30 1745 O 297.658 3.84128 -9.44797 0
M  V30 1746 O 298.228 1.51947 -8.68712 0
M  V30 1747 O 297.688 3.29363 -6.99321 0
M  V30 1748 C 296.748 4.24011 -6.4274 0
M  V30 1749 C 297.478 5.20775 -5.52155 0
M  V30 1750 O 297.688 4.56534 -4.22446 0
M  V30 1751 C 298.878 5.62629 -5.96531 0
M  V30 1752 O 299.268 6.87667 -5.41053 0
M  V30 1753 C 299.758 4.52537 -5.39283 0
M  V30 1754 C 299.048 4.20027 -4.08623 0
M  V30 1755 N 299.098 2.76189 -3.71603 0
M  V30 1756 H 296.259 4.797 -7.24003 0
M  V30 1757 H 295.989 3.69856 -5.84513 0
M  V30 1758 H 296.856 6.10356 -5.41441 0
M  V30 1759 P 300.818 7.20834 -5.23717 0
M  V30 1760 O 301.038 8.66104 -5.38572 0
M  V30 1761 O 301.608 6.33544 -6.1349 0
M  V30 1762 O 301.068 6.7751 -3.72168 0
M  V30 1763 C 300.128 7.20825 -2.7076 0
M  V30 1764 C 300.858 7.45864 -1.40599 0
M  V30 1765 O 301.068 6.17651 -0.734225 0
M  V30 1766 C 302.258 8.05808 -1.51899 0
M  V30 1767 O 302.648 8.74358 -0.335205 0
M  V30 1768 C 303.138 6.83093 -1.70294 0
M  V30 1769 C 302.428 5.79992 -0.836974 0
M  V30 1770 N 302.478 4.41864 -1.38293 0
M  V30 1771 H 299.639 8.13644 -3.0377 0
M  V30 1772 H 299.369 6.42788 -2.55485 0
M  V30 1773 H 300.236 8.12039 -0.792769 0
M  V30 1774 P 304.198 8.91 1.18324e-12 0
M  V30 1775 O 304.418 10.1746 0.733838 0
M  V30 1776 O 304.988 8.73346 -1.23964 0
M  V30 1777 O 304.448 7.66872 0.971405 0
M  V30 1778 C 303.508 7.42405 2.04668 0
M  V30 1779 C 304.238 6.86059 3.24661 0
M  V30 1780 O 304.448 5.42934 3.03695 0
M  V30 1781 C 305.638 7.41287 3.50796 0
M  V30 1782 O 306.028 7.27073 4.86816 0
M  V30 1783 C 306.518 6.5273 2.63741 0
M  V30 1784 C 305.808 5.1842 2.73198 0
M  V30 1785 N 305.858 4.38762 1.4784 0
M  V30 1786 C 305.778 4.83651 0.183876 0
M  V30 1787 N 305.848 3.88759 -0.699393 0
M  V30 1788 C 305.998 2.7404 0.0575568 0
M  V30 1789 C 306.128 1.37902 -0.293928 0
M  V30 1790 N 306.138 0.938021 -1.54797 0
M  V30 1791 N 306.248 0.491817 0.70549 0
M  V30 1792 C 306.238 0.931735 1.95979 0
M  V30 1793 N 306.118 2.16017 2.41481 0
M  V30 1794 C 305.998 3.02547 1.39121 0
M  V30 1795 H 303.02 8.36899 2.3252 0
M  V30 1796 H 302.748 6.70391 1.71179 0
M  V30 1797 H 303.616 7.03638 4.13219 0
M  V30 1798 H 306.271 4.59931 3.54016 0
M  V30 1799 H 306.551 6.88995 1.59871 0
M  V30 1800 H 307.542 6.4684 3.0373 0
M  V30 1801 H 305.708 8.47002 3.20749 0
M  V30 1802 H 305.667 5.8885 -0.0765548 0
M  V30 1803 H 306.048 1.60276 -2.32875 0
M  V30 1804 H 306.237 -0.0699355 -1.73859 0
M  V30 1805 H 306.345 0.165507 2.71897 0
M  V30 1806 P 307.578 7.20834 5.23717 0
M  V30 1807 O 307.798 7.7993 6.57351 0
M  V30 1808 O 308.368 7.79328 4.13004 0
M  V30 1809 O 307.828 5.63315 5.29344 0
M  V30 1810 C 306.888 4.80193 6.01798 0
M  V30 1811 C 307.618 3.64202 6.65911 0
M  V30 1812 O 307.828 2.60694 5.64732 0
M  V30 1813 C 309.018 3.93473 7.1943 0
M  V30 1814 O 309.408 3.02071 8.21205 0
M  V30 1815 C 309.898 3.73047 5.97036 0
M  V30 1816 C 309.188 2.58828 5.25741 0
M  V30 1817 N 309.238 2.6801 3.77422 0
M  V30 1818 C 309.388 1.50443 3.07133 0
M  V30 1819 O 309.478 0.419406 3.61576 0
M  V30 1820 N 309.428 1.6403 1.69677 0
M  V30 1821 C 309.338 2.81206 0.986255 0
M  V30 1822 C 309.188 3.99158 1.80325 0
M  V30 1823 C 309.138 3.89779 3.1476 0
M  V30 1824 H 306.398 5.40332 6.79951 0
M  V30 1825 H 306.129 4.41549 5.32301 0
M  V30 1826 H 306.996 3.26331 7.47797 0
M  V30 1827 H 309.651 1.6395 5.56554 0
M  V30 1828 H 309.93 4.63439 5.3432 0
M  V30 1829 H 310.922 3.44728 6.25838 0
M  V30 1830 H 309.088 4.96652 7.57263 0
M  V30 1831 H 309.017 4.80159 3.74441 0
M  V30 1832 P 310.958 2.75334 8.47391 0
M  V30 1833 O 311.178 2.44571 9.90142 0
M  V30 1834 O 311.748 3.87688 7.92115 0
M  V30 1835 O 311.208 1.4459 7.59357 0
M  V30 1836 C 310.268 0.347608 7.69215 0
M  V30 1837 C 310.998 -0.96767 7.52806 0
M  V30 1838 O 311.208 -1.21036 6.1011 0
M  V30 1839 C 312.398 -1.04544 8.13308 0
M  V30 1840 O 312.788 -2.38311 8.41922 0
M  V30 1841 C 313.278 -0.491279 7.02284 0
M  V30 1842 C 312.568 -0.996264 5.77469 0
M  V30 1843 N 312.618 -0.0501916 4.62973 0
M  V30 1844 C 312.538 1.32786 4.63244 0
M  V30 1845 N 312.618 1.86957 3.44545 0
M  V30 1846 C 312.758 0.780241 2.58481 0
M  V30 1847 C 312.888 0.738536 1.17757 0
M  V30 1848 N 313.008 -0.58337 0.711393 0
M  V30 1849 C 313.008 -1.70816 1.51017 0
M  V30 1850 N 313.138 -2.87826 0.880757 0
M  V30 1851 N 312.878 -1.67126 2.8339 0
M  V30 1852 C 312.758 -0.401421 3.30572 0
M  V30 1853 H 309.779 0.374722 8.67691 0
M  V30 1854 H 309.509 0.443485 6.90277 0
M  V30 1855 H 310.376 -1.75537 7.96793 0
M  V30 1856 P 314.338 -2.75334 8.47391 0
M  V30 1857 O 314.558 -3.84128 9.44797 0
M  V30 1858 O 315.128 -1.51947 8.68712 0
M  V30 1859 O 314.588 -3.29363 6.99321 0
M  V30 1860 C 313.648 -4.24011 6.4274 0
M  V30 1861 C 314.378 -5.20775 5.52155 0
M  V30 1862 O 314.588 -4.56534 4.22446 0
M  V30 1863 C 315.778 -5.62629 5.96531 0
M  V30 1864 O 316.168 -6.87667 5.41053 0
M  V30 1865 C 316.658 -4.52537 5.39283 0
M  V30 1866 C 315.948 -4.20027 4.08623 0
M  V30 1867 N 315.998 -2.76189 3.71603 0
M  V30 1868 C 315.918 -1.64862 4.52822 0
M  V30 1869 N 315.998 -0.512671 3.88633 0
M  V30 1870 C 316.138 -0.888083 2.54977 0
M  V30 1871 C 316.268 -0.094668 1.38677 0
M  V30 1872 N 316.388 -0.890102 0.232633 0
M  V30 1873 C 316.388 -2.26958 0.21772 0
M  V30 1874 N 316.518 -2.84626 -0.97925 0
M  V30 1875 N 316.258 -3.0178 1.31033 0
M  V30 1876 C 316.138 -2.26781 2.43843 0
M  V30 1877 H 313.159 -4.797 7.24003 0
M  V30 1878 H 312.889 -3.69856 5.84513 0
M  V30 1879 H 313.756 -6.10356 5.41441 0
M  V30 1880 P 317.718 -7.20834 5.23717 0
M  V30 1881 O 317.938 -8.66104 5.38572 0
M  V30 1882 O 318.508 -6.33544 6.1349 0
M  V30 1883 O 317.968 -6.7751 3.72168 0
M  V30 1884 C 317.028 -7.20825 2.7076 0
M  V30 1885 C 317.758 -7.45864 1.40599 0
M  V30 1886 O 317.968 -6.17651 0.734225 0
M  V30 1887 C 319.158 -8.05808 1.51899 0
M  V30 1888 O 319.548 -8.74358 0.335205 0
M  V30 1889 C 320.038 -6.83093 1.70294 0
M  V30 1890 C 319.328 -5.79992 0.836974 0
M  V30 1891 N 319.378 -4.41864 1.38293 0
M  V30 1892 H 316.539 -8.13644 3.0377 0
M  V30 1893 H 316.269 -6.42788 2.55485 0
M  V30 1894 H 317.136 -8.12039 0.792769 0
M  V30 1895 P 321.098 -8.91 -1.34042e-12 0
M  V30 1896 O 321.318 -10.1726 -0.733694 0
M  V30 1897 O 321.888 -8.73148 1.23936 0
M  V30 1898 O 321.348 -7.66872 -0.971405 0
M  V30 1899 C 320.408 -7.42309 -2.04641 0
M  V30 1900 C 321.138 -6.86059 -3.24661 0
M  V30 1901 O 321.348 -5.42847 -3.03646 0
M  V30 1902 C 322.538 -7.41196 -3.50753 0
M  V30 1903 O 322.928 -7.27073 -4.86816 0
M  V30 1904 C 323.418 -6.5273 -2.63741 0
M  V30 1905 C 322.708 -5.1842 -2.73198 0
M  V30 1906 N 322.758 -4.38762 -1.4784 0
M  V30 1907 H 319.919 -8.36803 -2.32493 0
M  V30 1908 H 319.649 -6.70197 -1.71129 0
M  V30 1909 H 320.516 -7.03551 -4.13168 0
M  V30 1910 P 324.478 -7.20834 -5.23717 0
M  V30 1911 O 324.698 -7.79853 -6.57286 0
M  V30 1912 O 325.268 -7.79239 -4.12957 0
M  V30 1913 O 324.728 -5.63315 -5.29344 0
M  V30 1914 C 323.788 -4.80255 -6.01876 0
M  V30 1915 C 324.518 -3.64202 -6.65911 0
M  V30 1916 O 324.728 -2.60694 -5.64732 0
M  V30 1917 C 325.918 -3.93473 -7.1943 0
M  V30 1918 O 326.308 -3.02071 -8.21205 0
M  V30 1919 C 326.798 -3.73047 -5.97036 0
M  V30 1920 C 326.088 -2.58828 -5.25741 0
M  V30 1921 N 326.138 -2.68068 -3.77503 0
M  V30 1922 H 323.299 -5.40332 -6.79951 0
M  V30 1923 H 323.029 -4.41613 -5.32378 0
M  V30 1924 H 323.896 -3.26331 -7.47797 0
M  V30 1925 P 327.858 -2.75334 -8.47391 0
M  V30 1926 O 328.078 -2.44571 -9.90142 0
M  V30 1927 O 328.648 -3.87688 -7.92115 0
M  V30 1928 O 328.108 -1.4459 -7.59357 0
M  V30 1929 C 327.168 -0.347608 -7.69215 0
M  V30 1930 C 327.898 0.96767 -7.52806 0
M  V30 1931 O 328.108 1.21036 -6.1011 0
M  V30 1932 C 329.298 1.04544 -8.13308 0
M  V30 1933 O 329.688 2.38311 -8.41922 0
M  V30 1934 C 330.178 0.491279 -7.02284 0
M  V30 1935 C 329.468 0.996264 -5.77469 0
M  V30 1936 N 329.518 0.0501916 -4.62973 0
M  V30 1937 C 329.438 -1.32786 -4.63244 0
M  V30 1938 N 329.518 -1.86957 -3.44545 0
M  V30 1939 C 329.658 -0.780241 -2.58481 0
M  V30 1940 C 329.788 -0.738536 -1.17757 0
M  V30 1941 O 329.808 -1.66794 -0.372349 0
M  V30 1942 N 329.908 0.58337 -0.711393 0
M  V30 1943 C 329.908 1.70816 -1.51017 0
M  V30 1944 N 330.038 2.87826 -0.880757 0
M  V30 1945 N 329.778 1.67126 -2.8339 0
M  V30 1946 C 329.658 0.401421 -3.30572 0
M  V30 1947 H 326.679 -0.374722 -8.67691 0
M  V30 1948 H 326.409 -0.443485 -6.90277 0
M  V30 1949 H 327.276 1.75537 -7.96793 0
M  V30 1950 H 329.931 1.95076 -5.46529 0
M  V30 1951 H 330.21 -0.608565 -7.04577 0
M  V30 1952 H 331.202 0.889672 -7.08939 0
M  V30 1953 H 329.368 0.43308 -9.04564 0
M  V30 1954 H 329.319 -1.91249 -5.54442 0
M  V30 1955 H 330.001 0.718054 0.275244 0
M  V30 1956 H 330.038 3.75721 -1.41832 0
M  V30 1957 H 330.139 2.90436 0.145468 0
M  V30 1958 P 331.238 2.75334 -8.47391 0
M  V30 1959 O 331.458 3.84128 -9.44797 0
M  V30 1960 O 332.028 1.51947 -8.68712 0
M  V30 1961 O 331.488 3.29363 -6.99321 0
M  V30 1962 C 330.548 4.24011 -6.4274 0
M  V30 1963 C 331.278 5.20775 -5.52155 0
M  V30 1964 O 331.488 4.56534 -4.22446 0
M  V30 1965 C 332.678 5.62629 -5.96531 0
M  V30 1966 O 333.068 6.87667 -5.41053 0
M  V30 1967 C 333.558 4.52537 -5.39283 0
M  V30 1968 C 332.848 4.20027 -4.08623 0
M  V30 1969 N 332.898 2.76189 -3.71603 0
M  V30 1970 H 330.059 4.797 -7.24003 0
M  V30 1971 H 329.789 3.69856 -5.84513 0
M  V30 1972 H 330.656 6.10356 -5.41441 0
M  V30 1973 P 334.618 7.20834 -5.23717 0
M  V30 1974 O 334.838 8.66104 -5.38572 0
M  V30 1975 O 335.408 6.33544 -6.1349 0
M  V30 1976 O 334.868 6.7751 -3.72168 0
M  V30 1977 C 333.928 7.20825 -2.7076 0
M  V30 1978 C 334.658 7.45864 -1.40599 0
M  V30 1979 O 334.868 6.17651 -0.734225 0
M  V30 1980 C 336.058 8.05808 -1.51899 0
M  V30 1981 O 336.448 8.74358 -0.335205 0
M  V30 1982 C 336.938 6.83093 -1.70294 0
M  V30 1983 C 336.228 5.79992 -0.836974 0
M  V30 1984 N 336.278 4.41864 -1.38293 0
M  V30 1985 H 333.439 8.13644 -3.0377 0
M  V30 1986 H 333.169 6.42788 -2.55485 0
M  V30 1987 H 334.036 8.12039 -0.792769 0
M  V30 1988 P 337.998 8.91 1.4976e-12 0
M  V30 1989 O 338.218 10.1726 0.733694 0
M  V30 1990 O 338.788 8.73148 -1.23936 0
M  V30 1991 O 338.248 7.66872 0.971405 0
M  V30 1992 C 337.308 7.42309 2.04641 0
M  V30 1993 C 338.038 6.86059 3.24661 0
M  V30 1994 O 338.248 5.42847 3.03646 0
M  V30 1995 C 339.438 7.41196 3.50753 0
M  V30 1996 O 339.828 7.27073 4.86816 0
M  V30 1997 C 340.318 6.5273 2.63741 0
M  V30 1998 C 339.608 5.1842 2.73198 0
M  V30 1999 N 339.658 4.38762 1.4784 0
M  V30 2000 H 336.819 8.36803 2.32493 0
M  V30 2001 H 336.549 6.70197 1.71129 0
M  V30 2002 H 337.416 7.03551 4.13168 0
M  V30 2003 P 341.378 7.20834 5.23717 0
M  V30 2004 O 341.598 7.80006 6.57415 0
M  V30 2005 O 342.168 7.79416 4.13051 0
M  V30 2006 O 341.628 5.63315 5.29344 0
M  V30 2007 C 340.688 4.80318 6.01954 0
M  V30 2008 C 341.418 3.64202 6.65911 0
M  V30 2009 O 341.628 2.60736 5.64823 0
M  V30 2010 C 342.818 3.93521 7.19518 0
M  V30 2011 O 343.208 3.02071 8.21205 0
M  V30 2012 C 343.698 3.73047 5.97036 0
M  V30 2013 C 342.988 2.58828 5.25741 0
M  V30 2014 N 343.038 2.68068 3.77503 0
M  V30 2015 C 342.958 3.80474 2.99159 0
M  V30 2016 N 343.028 3.55622 1.71925 0
M  V30 2017 C 343.178 2.1832 1.65733 0
M  V30 2018 C 343.308 1.28842 0.572777 0
M  V30 2019 N 343.318 1.66875 -0.70098 0
M  V30 2020 N 343.428 -0.016788 0.859836 0
M  V30 2021 C 343.418 -0.398145 2.13316 0
M  V30 2022 N 343.298 0.328224 3.22333 0
M  V30 2023 C 343.178 1.62992 2.90383 0
M  V30 2024 H 340.2 5.40394 6.8003 0
M  V30 2025 H 339.928 4.41741 5.32532 0
M  V30 2026 H 340.796 3.26371 7.47889 0
M  V30 2027 H 343.451 1.64007 5.56746 0
M  V30 2028 H 343.731 4.63439 5.3432 0
M  V30 2029 H 344.722 3.44776 6.25925 0
M  V30 2030 H 342.888 4.96707 7.57347 0
M  V30 2031 H 342.847 4.8089 3.39924 0
M  V30 2032 H 343.228 2.66547 -0.941919 0
M  V30 2033 H 343.417 0.965341 -1.44766 0
M  V30 2034 H 343.525 -1.46427 2.29697 0
M  V30 2035 P 344.758 2.75334 8.47391 0
M  V30 2036 O 344.978 2.44571 9.90142 0
M  V30 2037 O 345.548 3.87688 7.92115 0
M  V30 2038 O 345.008 1.4459 7.59357 0
M  V30 2039 C 344.068 0.347608 7.69215 0
M  V30 2040 C 344.798 -0.96767 7.52806 0
M  V30 2041 O 345.008 -1.21036 6.1011 0
M  V30 2042 C 346.198 -1.04544 8.13308 0
M  V30 2043 O 346.588 -2.38311 8.41922 0
M  V30 2044 C 347.078 -0.491279 7.02284 0
M  V30 2045 C 346.368 -0.996264 5.77469 0
M  V30 2046 N 346.418 -0.0501916 4.62973 0
M  V30 2047 H 343.579 0.374722 8.67691 0
M  V30 2048 H 343.309 0.443485 6.90277 0
M  V30 2049 H 344.176 -1.75537 7.96793 0
M  V30 2050 P 348.138 -2.75334 8.47391 0
M  V30 2051 O 348.358 -3.84128 9.44797 0
M  V30 2052 O 348.928 -1.51947 8.68712 0
M  V30 2053 O 348.388 -3.29363 6.99321 0
M  V30 2054 C 347.448 -4.24011 6.4274 0
M  V30 2055 C 348.178 -5.20775 5.52155 0
M  V30 2056 O 348.388 -4.56534 4.22446 0
M  V30 2057 C 349.578 -5.62629 5.96531 0
M  V30 2058 O 349.968 -6.87667 5.41053 0
M  V30 2059 C 350.458 -4.52537 5.39283 0
M  V30 2060 C 349.748 -4.20027 4.08623 0
M  V30 2061 N 349.798 -2.76189 3.71603 0
M  V30 2062 H 346.959 -4.797 7.24003 0
M  V30 2063 H 346.689 -3.69856 5.84513 0
M  V30 2064 H 347.556 -6.10356 5.41441 0
M  V30 2065 P 351.518 -7.20834 5.23717 0
M  V30 2066 O 351.738 -8.66104 5.38572 0
M  V30 2067 O 352.308 -6.33544 6.1349 0
M  V30 2068 O 351.768 -6.7751 3.72168 0
M  V30 2069 C 350.828 -7.20825 2.7076 0
M  V30 2070 C 351.558 -7.45864 1.40599 0
M  V30 2071 O 351.768 -6.17651 0.734225 0
M  V30 2072 C 352.958 -8.05808 1.51899 0
M  V30 2073 O 353.348 -8.74358 0.335205 0
M  V30 2074 C 353.838 -6.83093 1.70294 0
M  V30 2075 C 353.128 -5.79992 0.836974 0
M  V30 2076 N 353.178 -4.41864 1.38293 0
M  V30 2077 H 350.339 -8.13644 3.0377 0
M  V30 2078 H 350.069 -6.42788 2.55485 0
M  V30 2079 H 350.936 -8.12039 0.792769 0
M  V30 2080 P 354.898 -8.91 -1.65478e-12 0
M  V30 2081 O 355.118 -10.1726 -0.733694 0
M  V30 2082 O 355.688 -8.73148 1.23936 0
M  V30 2083 O 355.148 -7.66872 -0.971405 0
M  V30 2084 C 354.208 -7.42309 -2.04641 0
M  V30 2085 C 354.938 -6.86059 -3.24661 0
M  V30 2086 O 355.148 -5.42847 -3.03646 0
M  V30 2087 C 356.338 -7.41196 -3.50753 0
M  V30 2088 O 356.728 -7.27073 -4.86816 0
M  V30 2089 C 357.218 -6.5273 -2.63741 0
M  V30 2090 C 356.508 -5.1842 -2.73198 0
M  V30 2091 N 356.558 -4.38762 -1.4784 0
M  V30 2092 H 353.719 -8.36803 -2.32493 0
M  V30 2093 H 353.449 -6.70197 -1.71129 0
M  V30 2094 H 354.316 -7.03551 -4.13168 0
M  V30 2095 P 358.278 -7.20834 -5.23717 0
M  V30 2096 O 358.498 -7.79853 -6.57286 0
M  V30 2097 O 359.068 -7.79239 -4.12957 0
M  V30 2098 O 358.528 -5.63315 -5.29344 0
M  V30 2099 C 357.588 -4.80255 -6.01876 0
M  V30 2100 C 358.318 -3.64202 -6.65911 0
M  V30 2101 O 358.528 -2.60694 -5.64732 0
M  V30 2102 C 359.718 -3.93473 -7.1943 0
M  V30 2103 O 360.108 -3.02071 -8.21205 0
M  V30 2104 C 360.598 -3.73047 -5.97036 0
M  V30 2105 C 359.888 -2.58828 -5.25741 0
M  V30 2106 N 359.938 -2.68068 -3.77503 0
M  V30 2107 H 357.099 -5.40332 -6.79951 0
M  V30 2108 H 356.829 -4.41613 -5.32378 0
M  V30 2109 H 357.696 -3.26331 -7.47797 0
M  V30 2110 P 361.658 -2.75334 -8.47391 0
M  V30 2111 O 361.878 -2.44571 -9.90142 0
M  V30 2112 O 362.448 -3.87688 -7.92115 0
M  V30 2113 O 361.908 -1.4459 -7.59357 0
M  V30 2114 C 360.968 -0.347608 -7.69215 0
M  V30 2115 C 361.698 0.96767 -7.52806 0
M  V30 2116 O 361.908 1.21036 -6.1011 0
M  V30 2117 C 363.098 1.04544 -8.13308 0
M  V30 2118 O 363.488 2.38311 -8.41922 0
M  V30 2119 C 363.978 0.491279 -7.02284 0
M  V30 2120 C 363.268 0.996264 -5.77469 0
M  V30 2121 N 363.318 0.0501916 -4.62973 0
M  V30 2122 H 360.479 -0.374722 -8.67691 0
M  V30 2123 H 360.209 -0.443485 -6.90277 0
M  V30 2124 H 361.076 1.75537 -7.96793 0
M  V30 2125 P 365.038 2.75334 -8.47391 0
M  V30 2126 O 365.258 3.84128 -9.44797 0
M  V30 2127 O 365.828 1.51947 -8.68712 0
M  V30 2128 O 365.288 3.29363 -6.99321 0
M  V30 2129 C 364.348 4.24011 -6.4274 0
M  V30 2130 C 365.078 5.20775 -5.52155 0
M  V30 2131 O 365.288 4.56534 -4.22446 0
M  V30 2132 C 366.478 5.62629 -5.96531 0
M  V30 2133 O 366.868 6.87667 -5.41053 0
M  V30 2134 C 367.358 4.52537 -5.39283 0
M  V30 2135 C 366.648 4.20027 -4.08623 0
M  V30 2136 N 366.698 2.76189 -3.71603 0
M  V30 2137 H 363.859 4.797 -7.24003 0
M  V30 2138 H 363.589 3.69856 -5.84513 0
M  V30 2139 H 364.456 6.10356 -5.41441 0
M  V30 2140 P 368.418 7.20834 -5.23717 0
M  V30 2141 O 368.638 8.66104 -5.38572 0
M  V30 2142 O 369.208 6.33544 -6.1349 0
M  V30 2143 O 368.668 6.7751 -3.72168 0
M  V30 2144 C 367.728 7.20825 -2.7076 0
M  V30 2145 C 368.458 7.45864 -1.40599 0
M  V30 2146 O 368.668 6.17651 -0.734225 0
M  V30 2147 C 369.858 8.05808 -1.51899 0
M  V30 2148 O 370.248 8.74358 -0.335205 0
M  V30 2149 C 370.738 6.83093 -1.70294 0
M  V30 2150 C 370.028 5.79992 -0.836974 0
M  V30 2151 N 370.078 4.41864 -1.38293 0
M  V30 2152 H 367.239 8.13644 -3.0377 0
M  V30 2153 H 366.969 6.42788 -2.55485 0
M  V30 2154 H 367.836 8.12039 -0.792769 0
M  V30 2155 P 371.798 8.91 1.81197e-12 0
M  V30 2156 O 372.018 10.1726 0.733694 0
M  V30 2157 O 372.588 8.73148 -1.23936 0
M  V30 2158 O 372.048 7.66872 0.971405 0
M  V30 2159 C 371.108 7.42309 2.04641 0
M  V30 2160 C 371.838 6.86059 3.24661 0
M  V30 2161 O 372.048 5.42847 3.03646 0
M  V30 2162 C 373.238 7.41196 3.50753 0
M  V30 2163 O 373.628 7.27073 4.86816 0
M  V30 2164 C 374.118 6.5273 2.63741 0
M  V30 2165 C 373.408 5.1842 2.73198 0
M  V30 2166 N 373.458 4.38762 1.4784 0
M  V30 2167 H 370.619 8.36803 2.32493 0
M  V30 2168 H 370.349 6.70197 1.71129 0
M  V30 2169 H 371.216 7.03551 4.13168 0
M  V30 2170 P 375.178 7.20834 5.23717 0
M  V30 2171 O 375.398 7.79853 6.57286 0
M  V30 2172 O 375.968 7.79239 4.12957 0
M  V30 2173 O 375.428 5.63315 5.29344 0
M  V30 2174 C 374.488 4.80255 6.01876 0
M  V30 2175 C 375.218 3.64202 6.65911 0
M  V30 2176 O 375.428 2.60694 5.64732 0
M  V30 2177 C 376.618 3.93473 7.1943 0
M  V30 2178 O 377.008 3.02071 8.21205 0
M  V30 2179 C 377.498 3.73047 5.97036 0
M  V30 2180 C 376.788 2.58828 5.25741 0
M  V30 2181 N 376.838 2.68068 3.77503 0
M  V30 2182 H 373.999 5.40332 6.79951 0
M  V30 2183 H 373.729 4.41613 5.32378 0
M  V30 2184 H 374.596 3.26331 7.47797 0
M  V30 2185 P 378.558 2.75334 8.47391 0
M  V30 2186 O 378.778 2.44571 9.90142 0
M  V30 2187 O 379.348 3.87688 7.92115 0
M  V30 2188 O 378.808 1.4459 7.59357 0
M  V30 2189 C 377.868 0.347608 7.69215 0
M  V30 2190 C 378.598 -0.96767 7.52806 0
M  V30 2191 O 378.808 -1.21036 6.1011 0
M  V30 2192 C 379.998 -1.04544 8.13308 0
M  V30 2193 O 380.388 -2.38311 8.41922 0
M  V30 2194 C 380.878 -0.491279 7.02284 0
M  V30 2195 C 380.168 -0.996264 5.77469 0
M  V30 2196 N 380.218 -0.0501916 4.62973 0
M  V30 2197 H 377.379 0.374722 8.67691 0
M  V30 2198 H 377.109 0.443485 6.90277 0
M  V30 2199 H 377.976 -1.75537 7.96793 0
M  V30 2200 P 381.938 -2.75334 8.47391 0
M  V30 2201 O 382.158 -3.84166 9.4489 0
M  V30 2202 O 382.728 -1.51964 8.6881 0
M  V30 2203 O 382.188 -3.29363 6.99321 0
M  V30 2204 C 381.248 -4.23956 6.42656 0
M  V30 2205 C 381.978 -5.20775 5.52155 0
M  V30 2206 O 382.188 -4.56534 4.22446 0
M  V30 2207 C 383.378 -5.62629 5.96531 0
M  V30 2208 O 383.768 -6.87667 5.41053 0
M  V30 2209 C 384.258 -4.52537 5.39283 0
M  V30 2210 C 383.548 -4.20027 4.08623 0
M  V30 2211 N 383.598 -2.7613 3.71522 0
M  V30 2212 C 383.748 -2.45612 2.37989 0
M  V30 2213 O 383.838 -3.30919 1.51621 0
M  V30 2214 N 383.788 -1.10684 2.08435 0
M  V30 2215 C 383.698 -0.0690084 2.9792 0
M  V30 2216 O 383.748 1.10553 2.59426 0
M  V30 2217 C 383.548 -0.481522 4.35345 0
M  V30 2218 C 383.438 0.618778 5.36443 0
M  V30 2219 C 383.498 -1.78906 4.67968 0
M  V30 2220 H 380.758 -4.797 7.24003 0
M  V30 2221 H 380.489 -3.69802 5.84429 0
M  V30 2222 H 381.356 -6.10356 5.41441 0
M  V30 2223 H 384.011 -4.78651 3.27911 0
M  V30 2224 H 384.29 -3.64957 6.05871 0
M  V30 2225 H 385.282 -4.8868 5.2125 0
M  V30 2226 H 383.448 -5.66726 7.06352 0
M  V30 2227 H 383.377 -2.07737 5.72367 0
M  V30 2228 H 384.407 0.754375 5.86871 0
M  V30 2229 H 382.67 0.359721 6.10641 0
M  V30 2230 H 383.158 1.55533 4.8581 0
M  V30 2231 H 383.894 -0.862651 1.12037 0
M  V30 2232 P 385.318 -7.20834 5.23717 0
M  V30 2233 O 385.538 -8.66104 5.38572 0
M  V30 2234 O 386.108 -6.33544 6.1349 0
M  V30 2235 O 385.568 -6.7751 3.72168 0
M  V30 2236 C 384.628 -7.20825 2.7076 0
M  V30 2237 C 385.358 -7.45864 1.40599 0
M  V30 2238 O 385.568 -6.17651 0.734225 0
M  V30 2239 C 386.758 -8.05808 1.51899 0
M  V30 2240 O 387.148 -8.74358 0.335205 0
M  V30 2241 C 387.638 -6.83093 1.70294 0
M  V30 2242 C 386.928 -5.79992 0.836974 0
M  V30 2243 N 386.978 -4.41864 1.38293 0
M  V30 2244 H 384.139 -8.13644 3.0377 0
M  V30 2245 H 383.869 -6.42788 2.55485 0
M  V30 2246 H 384.736 -8.12039 0.792769 0
M  V30 2247 P 388.698 -8.91 -1.96915e-12 0
M  V30 2248 O 388.918 -10.1726 -0.733694 0
M  V30 2249 O 389.488 -8.73148 1.23936 0
M  V30 2250 O 388.948 -7.66872 -0.971405 0
M  V30 2251 C 388.008 -7.42309 -2.04641 0
M  V30 2252 C 388.738 -6.86059 -3.24661 0
M  V30 2253 O 388.948 -5.42847 -3.03646 0
M  V30 2254 C 390.138 -7.41196 -3.50753 0
M  V30 2255 O 390.528 -7.27073 -4.86816 0
M  V30 2256 C 391.018 -6.5273 -2.63741 0
M  V30 2257 C 390.308 -5.1842 -2.73198 0
M  V30 2258 N 390.358 -4.38762 -1.4784 0
M  V30 2259 H 387.519 -8.36803 -2.32493 0
M  V30 2260 H 387.249 -6.70197 -1.71129 0
M  V30 2261 H 388.116 -7.03551 -4.13168 0
M  V30 2262 P 392.078 -7.20834 -5.23717 0
M  V30 2263 O 392.298 -7.79853 -6.57286 0
M  V30 2264 O 392.868 -7.79239 -4.12957 0
M  V30 2265 O 392.328 -5.63315 -5.29344 0
M  V30 2266 C 391.388 -4.80255 -6.01876 0
M  V30 2267 C 392.118 -3.64202 -6.65911 0
M  V30 2268 O 392.328 -2.60694 -5.64732 0
M  V30 2269 C 393.518 -3.93473 -7.1943 0
M  V30 2270 O 393.908 -3.02071 -8.21205 0
M  V30 2271 C 394.398 -3.73047 -5.97036 0
M  V30 2272 C 393.688 -2.58828 -5.25741 0
M  V30 2273 N 393.738 -2.68068 -3.77503 0
M  V30 2274 H 390.899 -5.40332 -6.79951 0
M  V30 2275 H 390.629 -4.41613 -5.32378 0
M  V30 2276 H 391.496 -3.26331 -7.47797 0
M  V30 2277 P 395.458 -2.75334 -8.47391 0
M  V30 2278 O 395.678 -2.44571 -9.90142 0
M  V30 2279 O 396.248 -3.87688 -7.92115 0
M  V30 2280 O 395.708 -1.4459 -7.59357 0
M  V30 2281 C 394.768 -0.347608 -7.69215 0
M  V30 2282 C 395.498 0.96767 -7.52806 0
M  V30 2283 O 395.708 1.21036 -6.1011 0
M  V30 2284 C 396.898 1.04544 -8.13308 0
M  V30 2285 O 397.288 2.38311 -8.41922 0
M  V30 2286 C 397.778 0.491279 -7.02284 0
M  V30 2287 C 397.068 0.996264 -5.77469 0
M  V30 2288 N 397.118 0.0501916 -4.62973 0
M  V30 2289 H 394.279 -0.374722 -8.67691 0
M  V30 2290 H 394.009 -0.443485 -6.90277 0
M  V30 2291 H 394.876 1.75537 -7.96793 0
M  V30 2292 P 398.838 2.75334 -8.47391 0
M  V30 2293 O 399.058 3.84128 -9.44797 0
M  V30 2294 O 399.628 1.51947 -8.68712 0
M  V30 2295 O 399.088 3.29363 -6.99321 0
M  V30 2296 C 398.148 4.24011 -6.4274 0
M  V30 2297 C 398.878 5.20775 -5.52155 0
M  V30 2298 O 399.088 4.56534 -4.22446 0
M  V30 2299 C 400.278 5.62629 -5.96531 0
M  V30 2300 O 400.668 6.87667 -5.41053 0
M  V30 2301 C 401.158 4.52537 -5.39283 0
M  V30 2302 C 400.448 4.20027 -4.08623 0
M  V30 2303 N 400.498 2.76189 -3.71603 0
M  V30 2304 H 397.659 4.797 -7.24003 0
M  V30 2305 H 397.389 3.69856 -5.84513 0
M  V30 2306 H 398.256 6.10356 -5.41441 0
M  V30 2307 P 402.218 7.20834 -5.23717 0
M  V30 2308 O 402.438 8.66104 -5.38572 0
M  V30 2309 O 403.008 6.33544 -6.1349 0
M  V30 2310 O 402.468 6.7751 -3.72168 0
M  V30 2311 C 401.528 7.20825 -2.7076 0
M  V30 2312 C 402.258 7.45864 -1.40599 0
M  V30 2313 O 402.468 6.17651 -0.734225 0
M  V30 2314 C 403.658 8.05808 -1.51899 0
M  V30 2315 O 404.048 8.74358 -0.335205 0
M  V30 2316 C 404.538 6.83093 -1.70294 0
M  V30 2317 C 403.828 5.79992 -0.836974 0
M  V30 2318 N 403.878 4.41864 -1.38293 0
M  V30 2319 H 401.039 8.13644 -3.0377 0
M  V30 2320 H 400.769 6.42788 -2.55485 0
M  V30 2321 H 401.636 8.12039 -0.792769 0
M  V30 2322 P 405.598 8.91 2.12633e-12 0
M  V30 2323 O 405.818 10.1726 0.733694 0
M  V30 2324 O 406.388 8.73148 -1.23936 0
M  V30 2325 O 405.848 7.66872 0.971405 0
M  V30 2326 C 404.908 7.42309 2.04641 0
M  V30 2327 C 405.638 6.86059 3.24661 0
M  V30 2328 O 405.848 5.42847 3.03646 0
M  V30 2329 C 407.038 7.41196 3.50753 0
M  V30 2330 O 407.428 7.27073 4.86816 0
M  V30 2331 C 407.918 6.5273 2.63741 0
M  V30 2332 C 407.208 5.1842 2.73198 0
M  V30 2333 N 407.258 4.38762 1.4784 0
M  V30 2334 H 404.419 8.36803 2.32493 0
M  V30 2335 H 404.149 6.70197 1.71129 0
M  V30 2336 H 405.016 7.03551 4.13168 0
M  V30 2337 P 408.978 7.20834 5.23717 0
M  V30 2338 O 409.198 7.79853 6.57286 0
M  V30 2339 O 409.768 7.79239 4.12957 0
M  V30 2340 O 409.228 5.63315 5.29344 0
M  V30 2341 C 408.288 4.80255 6.01876 0
M  V30 2342 C 409.018 3.64202 6.65911 0
M  V30 2343 O 409.228 2.60694 5.64732 0
M  V30 2344 C 410.418 3.93473 7.1943 0
M  V30 2345 O 410.808 3.02071 8.21205 0
M  V30 2346 C 411.298 3.73047 5.97036 0
M  V30 2347 C 410.588 2.58828 5.25741 0
M  V30 2348 N 410.638 2.68068 3.77503 0
M  V30 2349 H 407.799 5.40332 6.79951 0
M  V30 2350 H 407.529 4.41613 5.32378 0
M  V30 2351 H 408.396 3.26331 7.47797 0
M  V30 2352 P 412.358 2.75334 8.47391 0
M  V30 2353 O 412.578 2.44571 9.90142 0
M  V30 2354 O 413.148 3.87688 7.92115 0
M  V30 2355 O 412.608 1.4459 7.59357 0
M  V30 2356 C 411.668 0.347608 7.69215 0
M  V30 2357 C 412.398 -0.96767 7.52806 0
M  V30 2358 O 412.608 -1.21036 6.1011 0
M  V30 2359 C 413.798 -1.04544 8.13308 0
M  V30 2360 O 414.188 -2.38311 8.41922 0
M  V30 2361 C 414.678 -0.491279 7.02284 0
M  V30 2362 C 413.968 -0.996264 5.77469 0
M  V30 2363 N 414.018 -0.0501916 4.62973 0
M  V30 2364 C 413.938 1.32786 4.63244 0
M  V30 2365 N 414.018 1.86957 3.44545 0
M  V30 2366 C 414.158 0.780241 2.58481 0
M  V30 2367 C 414.288 0.738536 1.17757 0
M  V30 2368 N 414.408 -0.58337 0.711393 0
M  V30 2369 C 414.408 -1.70816 1.51017 0
M  V30 2370 N 414.538 -2.87826 0.880757 0
M  V30 2371 N 414.278 -1.67126 2.8339 0
M  V30 2372 C 414.158 -0.401421 3.30572 0
M  V30 2373 H 411.179 0.374722 8.67691 0
M  V30 2374 H 410.909 0.443485 6.90277 0
M  V30 2375 H 411.776 -1.75537 7.96793 0
M  V30 2376 P 415.738 -2.75334 8.47391 0
M  V30 2377 O 415.958 -3.84128 9.44797 0
M  V30 2378 O 416.528 -1.51947 8.68712 0
M  V30 2379 O 415.988 -3.29363 6.99321 0
M  V30 2380 C 415.048 -4.24011 6.4274 0
M  V30 2381 C 415.778 -5.20775 5.52155 0
M  V30 2382 O 415.988 -4.56534 4.22446 0
M  V30 2383 C 417.178 -5.62629 5.96531 0
M  V30 2384 O 417.568 -6.87667 5.41053 0
M  V30 2385 C 418.058 -4.52537 5.39283 0
M  V30 2386 C 417.348 -4.20027 4.08623 0
M  V30 2387 N 417.398 -2.76189 3.71603 0
M  V30 2388 H 414.559 -4.797 7.24003 0
M  V30 2389 H 414.289 -3.69856 5.84513 0
M  V30 2390 H 415.156 -6.10356 5.41441 0
M  V30 2391 P 419.118 -7.20834 5.23717 0
M  V30 2392 O 419.338 -8.66104 5.38572 0
M  V30 2393 O 419.908 -6.33544 6.1349 0
M  V30 2394 O 419.368 -6.7751 3.72168 0
M  V30 2395 C 418.428 -7.20825 2.7076 0
M  V30 2396 C 419.158 -7.45864 1.40599 0
M  V30 2397 O 419.368 -6.17651 0.734225 0
M  V30 2398 C 420.558 -8.05808 1.51899 0
M  V30 2399 O 420.948 -8.74358 0.335205 0
M  V30 2400 C 421.438 -6.83093 1.70294 0
M  V30 2401 C 420.728 -5.79992 0.836974 0
M  V30 2402 N 420.778 -4.41864 1.38293 0
M  V30 2403 H 417.939 -8.13644 3.0377 0
M  V30 2404 H 417.669 -6.42788 2.55485 0
M  V30 2405 H 418.536 -8.12039 0.792769 0
M  V30 2406 P 422.497 -8.91 -2.28351e-12 0
M  V30 2407 O 422.717 -10.1726 -0.733694 0
M  V30 2408 O 423.287 -8.73148 1.23936 0
M  V30 2409 O 422.747 -7.66872 -0.971405 0
M  V30 2410 C 421.807 -7.42309 -2.04641 0
M  V30 2411 C 422.537 -6.86059 -3.24661 0
M  V30 2412 O 422.747 -5.42847 -3.03646 0
M  V30 2413 C 423.937 -7.41196 -3.50753 0
M  V30 2414 O 424.327 -7.27073 -4.86816 0
M  V30 2415 C 424.817 -6.5273 -2.63741 0
M  V30 2416 C 424.107 -5.1842 -2.73198 0
M  V30 2417 N 424.157 -4.38762 -1.4784 0
M  V30 2418 H 421.318 -8.36803 -2.32493 0
M  V30 2419 H 421.048 -6.70197 -1.71129 0
M  V30 2420 H 421.915 -7.03551 -4.13168 0
M  V30 2421 P 425.877 -7.20834 -5.23717 0
M  V30 2422 O 426.097 -7.79853 -6.57286 0
M  V30 2423 O 426.667 -7.79239 -4.12957 0
M  V30 2424 O 426.127 -5.63315 -5.29344 0
M  V30 2425 C 425.187 -4.80255 -6.01876 0
M  V30 2426 C 425.917 -3.64202 -6.65911 0
M  V30 2427 O 426.127 -2.60694 -5.64732 0
M  V30 2428 C 427.317 -3.93473 -7.1943 0
M  V30 2429 O 427.707 -3.02071 -8.21205 0
M  V30 2430 C 428.197 -3.73047 -5.97036 0
M  V30 2431 C 427.487 -2.58828 -5.25741 0
M  V30 2432 N 427.537 -2.68068 -3.77503 0
M  V30 2433 H 424.698 -5.40332 -6.79951 0
M  V30 2434 H 424.428 -4.41613 -5.32378 0
M  V30 2435 H 425.295 -3.26331 -7.47797 0
M  V30 2436 P 429.257 -2.75334 -8.47391 0
M  V30 2437 O 429.477 -2.44571 -9.90142 0
M  V30 2438 O 430.047 -3.87688 -7.92115 0
M  V30 2439 O 429.507 -1.4459 -7.59357 0
M  V30 2440 C 428.567 -0.347608 -7.69215 0
M  V30 2441 C 429.297 0.96767 -7.52806 0
M  V30 2442 O 429.507 1.21036 -6.1011 0
M  V30 2443 C 430.697 1.04544 -8.13308 0
M  V30 2444 O 431.087 2.38311 -8.41922 0
M  V30 2445 C 431.577 0.491279 -7.02284 0
M  V30 2446 C 430.867 0.996264 -5.77469 0
M  V30 2447 N 430.917 0.0501916 -4.62973 0
M  V30 2448 H 428.078 -0.374722 -8.67691 0
M  V30 2449 H 427.808 -0.443485 -6.90277 0
M  V30 2450 H 428.675 1.75537 -7.96793 0
M  V30 2451 P 432.637 2.75334 -8.47391 0
M  V30 2452 O 432.857 3.84128 -9.44797 0
M  V30 2453 O 433.427 1.51947 -8.68712 0
M  V30 2454 O 432.887 3.29363 -6.99321 0
M  V30 2455 C 431.947 4.24011 -6.4274 0
M  V30 2456 C 432.677 5.20775 -5.52155 0
M  V30 2457 O 432.887 4.56534 -4.22446 0
M  V30 2458 C 434.077 5.62629 -5.96531 0
M  V30 2459 O 434.467 6.87667 -5.41053 0
M  V30 2460 C 434.957 4.52537 -5.39283 0
M  V30 2461 C 434.247 4.20027 -4.08623 0
M  V30 2462 N 434.297 2.76189 -3.71603 0
M  V30 2463 H 431.458 4.797 -7.24003 0
M  V30 2464 H 431.188 3.69856 -5.84513 0
M  V30 2465 H 432.055 6.10356 -5.41441 0
M  V30 2466 P 436.017 7.20834 -5.23717 0
M  V30 2467 O 436.237 8.66104 -5.38572 0
M  V30 2468 O 436.807 6.33544 -6.1349 0
M  V30 2469 O 436.267 6.7751 -3.72168 0
M  V30 2470 C 435.327 7.20825 -2.7076 0
M  V30 2471 C 436.057 7.45864 -1.40599 0
M  V30 2472 O 436.267 6.17651 -0.734225 0
M  V30 2473 C 437.457 8.05808 -1.51899 0
M  V30 2474 O 437.847 8.74358 -0.335205 0
M  V30 2475 C 438.337 6.83093 -1.70294 0
M  V30 2476 C 437.627 5.79992 -0.836974 0
M  V30 2477 N 437.677 4.41864 -1.38293 0
M  V30 2478 H 434.838 8.13644 -3.0377 0
M  V30 2479 H 434.568 6.42788 -2.55485 0
M  V30 2480 H 435.435 8.12039 -0.792769 0
M  V30 2481 P 439.397 8.91 2.44069e-12 0
M  V30 2482 O 439.617 10.1726 0.733694 0
M  V30 2483 O 440.187 8.73148 -1.23936 0
M  V30 2484 O 439.647 7.66872 0.971405 0
M  V30 2485 C 438.707 7.42309 2.04641 0
M  V30 2486 C 439.437 6.86059 3.24661 0
M  V30 2487 O 439.647 5.42847 3.03646 0
M  V30 2488 C 440.837 7.41196 3.50753 0
M  V30 2489 O 441.227 7.27073 4.86816 0
M  V30 2490 C 441.717 6.5273 2.63741 0
M  V30 2491 C 441.007 5.1842 2.73198 0
M  V30 2492 N 441.057 4.38762 1.4784 0
M  V30 2493 H 438.218 8.36803 2.32493 0
M  V30 2494 H 437.948 6.70197 1.71129 0
M  V30 2495 H 438.815 7.03551 4.13168 0
M  V30 2496 P 442.777 7.20834 5.23717 0
M  V30 2497 O 442.997 7.79853 6.57286 0
M  V30 2498 O 443.567 7.79239 4.12957 0
M  V30 2499 O 443.027 5.63315 5.29344 0
M  V30 2500 C 442.087 4.80255 6.01876 0
M  V30 2501 C 442.817 3.64202 6.65911 0
M  V30 2502 O 443.027 2.60694 5.64732 0
M  V30 2503 C 444.217 3.93473 7.1943 0
M  V30 2504 O 444.607 3.02071 8.21205 0
M  V30 2505 C 445.097 3.73047 5.97036 0
M  V30 2506 C 444.387 2.58828 5.25741 0
M  V30 2507 N 444.437 2.68068 3.77503 0
M  V30 2508 H 441.598 5.40332 6.79951 0
M  V30 2509 H 441.328 4.41613 5.32378 0
M  V30 2510 H 442.195 3.26331 7.47797 0
M  V30 2511 P 446.157 2.75334 8.47391 0
M  V30 2512 O 446.377 2.44571 9.90142 0
M  V30 2513 O 446.947 3.87688 7.92115 0
M  V30 2514 O 446.407 1.4459 7.59357 0
M  V30 2515 C 445.467 0.347608 7.69215 0
M  V30 2516 C 446.197 -0.96767 7.52806 0
M  V30 2517 O 446.407 -1.21036 6.1011 0
M  V30 2518 C 447.597 -1.04544 8.13308 0
M  V30 2519 O 447.987 -2.38311 8.41922 0
M  V30 2520 C 448.477 -0.491279 7.02284 0
M  V30 2521 C 447.767 -0.996264 5.77469 0
M  V30 2522 N 447.817 -0.0501916 4.62973 0
M  V30 2523 C 447.737 1.32786 4.63244 0
M  V30 2524 N 447.817 1.86957 3.44545 0
M  V30 2525 C 447.957 0.780241 2.58481 0
M  V30 2526 C 448.087 0.738536 1.17757 0
M  V30 2527 N 448.207 -0.58337 0.711393 0
M  V30 2528 C 448.207 -1.70816 1.51017 0
M  V30 2529 N 448.337 -2.87826 0.880757 0
M  V30 2530 N 448.077 -1.67126 2.8339 0
M  V30 2531 C 447.957 -0.401421 3.30572 0
M  V30 2532 H 444.978 0.374722 8.67691 0
M  V30 2533 H 444.708 0.443485 6.90277 0
M  V30 2534 H 445.575 -1.75537 7.96793 0
M  V30 2535 P 449.537 -2.75334 8.47391 0
M  V30 2536 O 449.757 -3.84128 9.44797 0
M  V30 2537 O 450.327 -1.51947 8.68712 0
M  V30 2538 O 449.787 -3.29363 6.99321 0
M  V30 2539 C 448.847 -4.24011 6.4274 0
M  V30 2540 C 449.577 -5.20775 5.52155 0
M  V30 2541 O 449.787 -4.56534 4.22446 0
M  V30 2542 C 450.977 -5.62629 5.96531 0
M  V30 2543 O 451.367 -6.87667 5.41053 0
M  V30 2544 C 451.857 -4.52537 5.39283 0
M  V30 2545 C 451.147 -4.20027 4.08623 0
M  V30 2546 N 451.197 -2.76189 3.71603 0
M  V30 2547 H 448.358 -4.797 7.24003 0
M  V30 2548 H 448.088 -3.69856 5.84513 0
M  V30 2549 H 448.955 -6.10356 5.41441 0
M  V30 2550 P 452.917 -7.20834 5.23717 0
M  V30 2551 O 453.137 -8.66104 5.38572 0
M  V30 2552 O 453.707 -6.33544 6.1349 0
M  V30 2553 O 453.167 -6.7751 3.72168 0
M  V30 2554 C 452.227 -7.20825 2.7076 0
M  V30 2555 C 452.957 -7.45864 1.40599 0
M  V30 2556 O 453.167 -6.17651 0.734225 0
M  V30 2557 C 454.357 -8.05808 1.51899 0
M  V30 2558 O 454.747 -8.74358 0.335205 0
M  V30 2559 C 455.237 -6.83093 1.70294 0
M  V30 2560 C 454.527 -5.79992 0.836974 0
M  V30 2561 N 454.577 -4.41864 1.38293 0
M  V30 2562 H 451.738 -8.13644 3.0377 0
M  V30 2563 H 451.468 -6.42788 2.55485 0
M  V30 2564 H 452.335 -8.12039 0.792769 0
M  V30 2565 P 456.297 -8.91 -2.59788e-12 0
M  V30 2566 O 456.517 -10.1726 -0.733694 0
M  V30 2567 O 457.087 -8.73148 1.23936 0
M  V30 2568 O 456.547 -7.66872 -0.971405 0
M  V30 2569 C 455.607 -7.42309 -2.04641 0
M  V30 2570 C 456.337 -6.86059 -3.24661 0
M  V30 2571 O 456.547 -5.42847 -3.03646 0
M  V30 2572 C 457.737 -7.41196 -3.50753 0
M  V30 2573 O 458.127 -7.27073 -4.86816 0
M  V30 2574 C 458.617 -6.5273 -2.63741 0
M  V30 2575 C 457.907 -5.1842 -2.73198 0
M  V30 2576 N 457.957 -4.38762 -1.4784 0
M  V30 2577 H 455.118 -8.36803 -2.32493 0
M  V30 2578 H 454.848 -6.70197 -1.71129 0
M  V30 2579 H 455.715 -7.03551 -4.13168 0
M  V30 2580 P 459.677 -7.20834 -5.23717 0
M  V30 2581 O 459.897 -7.79853 -6.57286 0
M  V30 2582 O 460.467 -7.79239 -4.12957 0
M  V30 2583 O 459.927 -5.63315 -5.29344 0
M  V30 2584 C 458.987 -4.80255 -6.01876 0
M  V30 2585 C 459.717 -3.64202 -6.65911 0
M  V30 2586 O 459.927 -2.60694 -5.64732 0
M  V30 2587 C 461.117 -3.93473 -7.1943 0
M  V30 2588 O 461.507 -3.02071 -8.21205 0
M  V30 2589 C 461.997 -3.73047 -5.97036 0
M  V30 2590 C 461.287 -2.58828 -5.25741 0
M  V30 2591 N 461.337 -2.68068 -3.77503 0
M  V30 2592 H 458.498 -5.40332 -6.79951 0
M  V30 2593 H 458.228 -4.41613 -5.32378 0
M  V30 2594 H 459.095 -3.26331 -7.47797 0
M  V30 2595 P 463.057 -2.75334 -8.47391 0
M  V30 2596 O 463.277 -2.44571 -9.90142 0
M  V30 2597 O 463.847 -3.87688 -7.92115 0
M  V30 2598 O 463.307 -1.4459 -7.59357 0
M  V30 2599 C 462.367 -0.347608 -7.69215 0
M  V30 2600 C 463.097 0.96767 -7.52806 0
M  V30 2601 O 463.307 1.21036 -6.1011 0
M  V30 2602 C 464.497 1.04544 -8.13308 0
M  V30 2603 O 464.887 2.38311 -8.41922 0
M  V30 2604 C 465.377 0.491279 -7.02284 0
M  V30 2605 C 464.667 0.996264 -5.77469 0
M  V30 2606 N 464.717 0.0501916 -4.62973 0
M  V30 2607 H 461.878 -0.374722 -8.67691 0
M  V30 2608 H 461.608 -0.443485 -6.90277 0
M  V30 2609 H 462.475 1.75537 -7.96793 0
M  V30 2610 P 466.437 2.75334 -8.47391 0
M  V30 2611 O 466.657 3.84128 -9.44797 0
M  V30 2612 O 467.227 1.51947 -8.68712 0
M  V30 2613 O 466.687 3.29363 -6.99321 0
M  V30 2614 C 465.747 4.24011 -6.4274 0
M  V30 2615 C 466.477 5.20775 -5.52155 0
M  V30 2616 O 466.687 4.56534 -4.22446 0
M  V30 2617 C 467.877 5.62629 -5.96531 0
M  V30 2618 O 468.267 6.87667 -5.41053 0
M  V30 2619 C 468.757 4.52537 -5.39283 0
M  V30 2620 C 468.047 4.20027 -4.08623 0
M  V30 2621 N 468.097 2.76189 -3.71603 0
M  V30 2622 H 465.258 4.797 -7.24003 0
M  V30 2623 H 464.988 3.69856 -5.84513 0
M  V30 2624 H 465.855 6.10356 -5.41441 0
M  V30 2625 P 469.817 7.20834 -5.23717 0
M  V30 2626 O 470.037 8.66104 -5.38572 0
M  V30 2627 O 470.607 6.33544 -6.1349 0
M  V30 2628 O 470.067 6.7751 -3.72168 0
M  V30 2629 C 469.127 7.20825 -2.7076 0
M  V30 2630 C 469.857 7.45864 -1.40599 0
M  V30 2631 O 470.067 6.17651 -0.734225 0
M  V30 2632 C 471.257 8.05808 -1.51899 0
M  V30 2633 O 471.647 8.74358 -0.335205 0
M  V30 2634 C 472.137 6.83093 -1.70294 0
M  V30 2635 C 471.427 5.79992 -0.836974 0
M  V30 2636 N 471.477 4.41864 -1.38293 0
M  V30 2637 H 468.638 8.13644 -3.0377 0
M  V30 2638 H 468.368 6.42788 -2.55485 0
M  V30 2639 H 469.235 8.12039 -0.792769 0
M  V30 2640 P 473.197 8.91 2.75506e-12 0
M  V30 2641 O 473.417 10.1726 0.733694 0
M  V30 2642 O 473.987 8.73148 -1.23936 0
M  V30 2643 O 473.447 7.66872 0.971405 0
M  V30 2644 C 472.507 7.42309 2.04641 0
M  V30 2645 C 473.237 6.86059 3.24661 0
M  V30 2646 O 473.447 5.42847 3.03646 0
M  V30 2647 C 474.637 7.41196 3.50753 0
M  V30 2648 O 475.027 7.27073 4.86816 0
M  V30 2649 C 475.517 6.5273 2.63741 0
M  V30 2650 C 474.807 5.1842 2.73198 0
M  V30 2651 N 474.857 4.38762 1.4784 0
M  V30 2652 H 472.018 8.36803 2.32493 0
M  V30 2653 H 471.748 6.70197 1.71129 0
M  V30 2654 H 472.615 7.03551 4.13168 0
M  V30 2655 P 476.577 7.20834 5.23717 0
M  V30 2656 O 476.797 7.79853 6.57286 0
M  V30 2657 O 477.367 7.79239 4.12957 0
M  V30 2658 O 476.827 5.63315 5.29344 0
M  V30 2659 C 475.887 4.80255 6.01876 0
M  V30 2660 C 476.617 3.64202 6.65911 0
M  V30 2661 O 476.827 2.60694 5.64732 0
M  V30 2662 C 478.017 3.93473 7.1943 0
M  V30 2663 O 478.407 3.02071 8.21205 0
M  V30 2664 C 478.897 3.73047 5.97036 0
M  V30 2665 C 478.187 2.58828 5.25741 0
M  V30 2666 N 478.237 2.68068 3.77503 0
M  V30 2667 H 475.398 5.40332 6.79951 0
M  V30 2668 H 475.128 4.41613 5.32378 0
M  V30 2669 H 475.995 3.26331 7.47797 0
M  V30 2670 P 479.957 2.75334 8.47391 0
M  V30 2671 O 480.177 2.44571 9.90142 0
M  V30 2672 O 480.747 3.87688 7.92115 0
M  V30 2673 O 480.207 1.4459 7.59357 0
M  V30 2674 C 479.267 0.347608 7.69215 0
M  V30 2675 C 479.997 -0.96767 7.52806 0
M  V30 2676 O 480.207 -1.21036 6.1011 0
M  V30 2677 C 481.397 -1.04544 8.13308 0
M  V30 2678 O 481.787 -2.38311 8.41922 0
M  V30 2679 C 482.277 -0.491279 7.02284 0
M  V30 2680 C 481.567 -0.996264 5.77469 0
M  V30 2681 N 481.617 -0.0501916 4.62973 0
M  V30 2682 H 478.778 0.374722 8.67691 0
M  V30 2683 H 478.508 0.443485 6.90277 0
M  V30 2684 H 479.375 -1.75537 7.96793 0
M  V30 2685 P 483.337 -2.75334 8.47391 0
M  V30 2686 O 483.557 -3.84128 9.44797 0
M  V30 2687 O 484.127 -1.51947 8.68712 0
M  V30 2688 O 483.587 -3.29363 6.99321 0
M  V30 2689 C 482.647 -4.24011 6.4274 0
M  V30 2690 C 483.377 -5.20775 5.52155 0
M  V30 2691 O 483.587 -4.56534 4.22446 0
M  V30 2692 C 484.777 -5.62629 5.96531 0
M  V30 2693 O 485.167 -6.87667 5.41053 0
M  V30 2694 C 485.657 -4.52537 5.39283 0
M  V30 2695 C 484.947 -4.20027 4.08623 0
M  V30 2696 N 484.997 -2.76189 3.71603 0
M  V30 2697 H 482.158 -4.797 7.24003 0
M  V30 2698 H 481.888 -3.69856 5.84513 0
M  V30 2699 H 482.755 -6.10356 5.41441 0
M  V30 2700 P 486.717 -7.20834 5.23717 0
M  V30 2701 O 486.937 -8.66104 5.38572 0
M  V30 2702 O 487.507 -6.33544 6.1349 0
M  V30 2703 O 486.967 -6.7751 3.72168 0
M  V30 2704 C 486.027 -7.20825 2.7076 0
M  V30 2705 C 486.757 -7.45864 1.40599 0
M  V30 2706 O 486.967 -6.17651 0.734225 0
M  V30 2707 C 488.157 -8.05808 1.51899 0
M  V30 2708 O 488.547 -8.74358 0.335205 0
M  V30 2709 C 489.037 -6.83093 1.70294 0
M  V30 2710 C 488.327 -5.79992 0.836974 0
M  V30 2711 N 488.377 -4.41864 1.38293 0
M  V30 2712 H 485.538 -8.13644 3.0377 0
M  V30 2713 H 485.268 -6.42788 2.55485 0
M  V30 2714 H 486.135 -8.12039 0.792769 0
M  V30 2715 P 490.097 -8.91 -2.91224e-12 0
M  V30 2716 O 490.317 -10.1726 -0.733694 0
M  V30 2717 O 490.887 -8.73148 1.23936 0
M  V30 2718 O 490.347 -7.66872 -0.971405 0
M  V30 2719 C 489.407 -7.42309 -2.04641 0
M  V30 2720 C 490.137 -6.86059 -3.24661 0
M  V30 2721 O 490.347 -5.42847 -3.03646 0
M  V30 2722 C 491.537 -7.41196 -3.50753 0
M  V30 2723 O 491.927 -7.27073 -4.86816 0
M  V30 2724 C 492.417 -6.5273 -2.63741 0
M  V30 2725 C 491.707 -5.1842 -2.73198 0
M  V30 2726 N 491.757 -4.38762 -1.4784 0
M  V30 2727 H 488.918 -8.36803 -2.32493 0
M  V30 2728 H 488.648 -6.70197 -1.71129 0
M  V30 2729 H 489.515 -7.03551 -4.13168 0
M  V30 2730 P 493.477 -7.20834 -5.23717 0
M  V30 2731 O 493.697 -7.79853 -6.57286 0
M  V30 2732 O 494.267 -7.79239 -4.12957 0
M  V30 2733 O 493.727 -5.63315 -5.29344 0
M  V30 2734 C 492.787 -4.80255 -6.01876 0
M  V30 2735 C 493.517 -3.64202 -6.65911 0
M  V30 2736 O 493.727 -2.60694 -5.64732 0
M  V30 2737 C 494.917 -3.93473 -7.1943 0
M  V30 2738 O 495.307 -3.02071 -8.21205 0
M  V30 2739 C 495.797 -3.73047 -5.97036 0
M  V30 2740 C 495.087 -2.58828 -5.25741 0
M  V30 2741 N 495.137 -2.68068 -3.77503 0
M  V30 2742 H 492.298 -5.40332 -6.79951 0
M  V30 2743 H 492.028 -4.41613 -5.32378 0
M  V30 2744 H 492.895 -3.26331 -7.47797 0
M  V30 2745 H 495.176 -2.12276 -7.9008 0
M  V30 2746 H 499.198 5.66378 7.64073 0
M  V30 2747 O 499.078 5.84357 6.71818 0
M  V30 2748 P 497.637 6.144 6.45285 0
M  V30 2749 O 497.417 7.54673 6.86199 0
M  V30 2750 O 496.847 5.12391 7.179 0
M  V30 2751 O 497.387 5.99158 4.88404 0
M  V30 2752 C 498.327 6.60234 3.96415 0
M  V30 2753 C 497.597 7.08259 2.72856 0
M  V30 2754 O 497.387 5.9427 1.83651 0
M  V30 2755 C 496.197 7.64886 2.9555 0
M  V30 2756 O 495.807 8.53963 1.90717 0
M  V30 2757 C 495.317 6.4116 2.90739 0
M  V30 2758 C 496.027 5.55375 1.86963 0
M  V30 2759 N 495.977 4.09664 2.15742 0
M  V30 2760 H 498.816 7.45574 4.45629 0
M  V30 2761 H 499.088 5.86232 3.67314 0
M  V30 2762 H 498.22 7.84412 2.24479 0
M  V30 2763 P 494.257 8.7635 1.60911 0
M  V30 2764 O 494.037 10.1388 1.11561 0
M  V30 2765 O 493.467 8.36503 2.79617 0
M  V30 2766 O 494.007 7.71806 0.42951 0
M  V30 2767 C 494.947 7.67148 -0.673689 0
M  V30 2768 C 494.217 7.33374 -1.95559 0
M  V30 2769 O 494.007 5.88721 -2.00726 0
M  V30 2770 C 492.817 7.92526 -2.10483 0
M  V30 2771 O 492.427 8.02971 -3.47653 0
M  V30 2772 C 491.937 6.89602 -1.41652 0
M  V30 2773 C 492.647 5.59201 -1.75185 0
M  V30 2774 N 492.597 4.58301 -0.657969 0
M  V30 2775 H 495.436 8.65116 -0.777161 0
M  V30 2776 H 495.708 6.9022 -0.46725 0
M  V30 2777 H 494.84 7.66548 -2.79458 0
M  V30 2778 H 492.185 5.16165 -2.65183 0
M  V30 2779 H 491.905 7.06433 -0.329384 0
M  V30 2780 H 490.914 6.90926 -1.82021 0
M  V30 2781 H 492.748 8.90873 -1.62657 0
M  V30 2782 P 490.877 8.03563 -3.84925 0
M  V30 2783 O 490.657 8.85821 -5.0569 0
M  V30 2784 O 490.087 8.41101 -2.65469 0
M  V30 2785 O 490.627 6.4965 -4.18908 0
M  V30 2786 C 491.567 5.81037 -5.05421 0
M  V30 2787 C 490.837 4.78366 -5.89277 0
M  V30 2788 O 490.627 3.58302 -5.08433 0
M  V30 2789 C 489.437 5.17448 -6.36119 0
M  V30 2790 O 489.047 4.45271 -7.53232 0
M  V30 2791 C 488.557 4.74639 -5.19936 0
M  V30 2792 C 489.267 3.49432 -4.70418 0
M  V30 2793 N 489.217 3.31776 -3.22945 0
M  V30 2794 H 492.056 6.54213 -5.71376 0
M  V30 2795 H 492.328 5.30492 -4.44033 0
M  V30 2796 H 491.46 4.55889 -6.76652 0
M  V30 2797 P 487.497 4.23843 -7.83734 0
M  V30 2798 O 487.277 4.19407 -9.29784 0
M  V30 2799 O 486.707 5.24426 -7.09156 0
M  V30 2800 O 487.247 2.7935 -7.20758 0
M  V30 2801 C 488.187 1.7299 -7.50419 0
M  V30 2802 C 487.457 0.406376 -7.57911 0
M  V30 2803 O 487.247 -0.0897726 -6.21935 0
M  V30 2804 C 486.057 0.447224 -8.1878 0
M  V30 2805 O 485.667 -0.825065 -8.71101 0
M  V30 2806 C 485.177 0.783801 -6.99623 0
M  V30 2807 C 485.887 0.0619192 -5.85967 0
M  V30 2808 N 485.837 0.7859 -4.56281 0
M  V30 2809 H 488.676 1.93423 -8.4679 0
M  V30 2810 H 488.948 1.68181 -6.71046 0
M  V30 2811 H 488.08 -0.289041 -8.15388 0
M  V30 2812 P 484.117 -1.17771 -8.83182 0
M  V30 2813 O 483.897 -2.07206 -9.98732 0
M  V30 2814 O 483.327 0.0743816 -8.81969 0
M  V30 2815 O 483.867 -1.97652 -7.47304 0
M  V30 2816 C 484.807 -3.01133 -7.08783 0
M  V30 2817 C 484.077 -4.12613 -6.37049 0
M  V30 2818 O 483.867 -3.72827 -4.97879 0
M  V30 2819 C 482.677 -4.45085 -6.88694 0
M  V30 2820 O 482.287 -5.7877 -6.5624 0
M  V30 2821 C 481.797 -3.47817 -6.12078 0
M  V30 2822 C 482.507 -3.39414 -4.77697 0
M  V30 2823 N 482.457 -2.04615 -4.15333 0
M  V30 2824 H 485.296 -3.41248 -7.98759 0
M  V30 2825 H 485.568 -2.5837 -6.41742 0
M  V30 2826 H 484.7 -5.02657 -6.42673 0
M  V30 2827 P 480.737 -6.144 -6.45285 0
M  V30 2828 O 480.517 -7.54673 -6.86199 0
M  V30 2829 O 479.947 -5.12391 -7.179 0
M  V30 2830 O 480.487 -5.99158 -4.88404 0
M  V30 2831 C 481.427 -6.60234 -3.96415 0
M  V30 2832 C 480.697 -7.08259 -2.72856 0
M  V30 2833 O 480.487 -5.9427 -1.83651 0
M  V30 2834 C 479.297 -7.64886 -2.9555 0
M  V30 2835 O 478.907 -8.53963 -1.90717 0
M  V30 2836 C 478.417 -6.4116 -2.90739 0
M  V30 2837 C 479.127 -5.55375 -1.86963 0
M  V30 2838 N 479.077 -4.09664 -2.15742 0
M  V30 2839 H 481.916 -7.45574 -4.45629 0
M  V30 2840 H 482.188 -5.86232 -3.67314 0
M  V30 2841 H 481.32 -7.84412 -2.24479 0
M  V30 2842 P 477.357 -8.7635 -1.60911 0
M  V30 2843 O 477.137 -10.1388 -1.11561 0
M  V30 2844 O 476.567 -8.36503 -2.79617 0
M  V30 2845 O 477.107 -7.71806 -0.42951 0
M  V30 2846 C 478.047 -7.67148 0.673689 0
M  V30 2847 C 477.317 -7.33374 1.95559 0
M  V30 2848 O 477.107 -5.88721 2.00726 0
M  V30 2849 C 475.917 -7.92526 2.10483 0
M  V30 2850 O 475.527 -8.02971 3.47653 0
M  V30 2851 C 475.037 -6.89602 1.41652 0
M  V30 2852 C 475.747 -5.59201 1.75185 0
M  V30 2853 N 475.697 -4.58235 0.662552 0
M  V30 2854 H 478.536 -8.65116 0.777161 0
M  V30 2855 H 478.808 -6.90173 0.474152 0
M  V30 2856 H 477.94 -7.66548 2.79458 0
M  V30 2857 P 473.977 -8.03563 3.84925 0
M  V30 2858 O 473.757 -8.85821 5.0569 0
M  V30 2859 O 473.187 -8.41101 2.65469 0
M  V30 2860 O 473.727 -6.4965 4.18908 0
M  V30 2861 C 474.667 -5.81037 5.05421 0
M  V30 2862 C 473.937 -4.78366 5.89277 0
M  V30 2863 O 473.727 -3.58302 5.08433 0
M  V30 2864 C 472.537 -5.17448 6.36119 0
M  V30 2865 O 472.147 -4.45271 7.53232 0
M  V30 2866 C 471.657 -4.74639 5.19936 0
M  V30 2867 C 472.367 -3.49432 4.70418 0
M  V30 2868 N 472.317 -3.31776 3.22945 0
M  V30 2869 H 475.156 -6.54213 5.71376 0
M  V30 2870 H 475.428 -5.30492 4.44033 0
M  V30 2871 H 474.56 -4.55889 6.76652 0
M  V30 2872 P 470.597 -4.23843 7.83734 0
M  V30 2873 O 470.377 -4.19407 9.29784 0
M  V30 2874 O 469.807 -5.24426 7.09156 0
M  V30 2875 O 470.347 -2.7935 7.20758 0
M  V30 2876 C 471.287 -1.7299 7.50419 0
M  V30 2877 C 470.557 -0.406376 7.57911 0
M  V30 2878 O 470.347 0.0897726 6.21935 0
M  V30 2879 C 469.157 -0.447224 8.1878 0
M  V30 2880 O 468.767 0.825065 8.71101 0
M  V30 2881 C 468.277 -0.783801 6.99623 0
M  V30 2882 C 468.987 -0.0619192 5.85967 0
M  V30 2883 N 468.937 -0.7859 4.56281 0
M  V30 2884 H 471.776 -1.93423 8.4679 0
M  V30 2885 H 472.048 -1.68181 6.71046 0
M  V30 2886 H 471.18 0.289041 8.15388 0
M  V30 2887 P 467.217 1.17771 8.83182 0
M  V30 2888 O 466.997 2.07206 9.98732 0
M  V30 2889 O 466.427 -0.0743816 8.81969 0
M  V30 2890 O 466.967 1.97652 7.47304 0
M  V30 2891 C 467.907 3.01133 7.08783 0
M  V30 2892 C 467.177 4.12613 6.37049 0
M  V30 2893 O 466.967 3.72827 4.97879 0
M  V30 2894 C 465.777 4.45085 6.88694 0
M  V30 2895 O 465.387 5.7877 6.5624 0
M  V30 2896 C 464.897 3.47817 6.12078 0
M  V30 2897 C 465.607 3.39414 4.77697 0
M  V30 2898 N 465.557 2.04615 4.15333 0
M  V30 2899 H 468.396 3.41248 7.98759 0
M  V30 2900 H 468.668 2.5837 6.41742 0
M  V30 2901 H 467.8 5.02657 6.42673 0
M  V30 2902 P 463.837 6.144 6.45285 0
M  V30 2903 O 463.617 7.54673 6.86199 0
M  V30 2904 O 463.047 5.12391 7.179 0
M  V30 2905 O 463.587 5.99158 4.88404 0
M  V30 2906 C 464.527 6.60234 3.96415 0
M  V30 2907 C 463.797 7.08259 2.72856 0
M  V30 2908 O 463.587 5.9427 1.83651 0
M  V30 2909 C 462.397 7.64886 2.9555 0
M  V30 2910 O 462.007 8.53963 1.90717 0
M  V30 2911 C 461.517 6.4116 2.90739 0
M  V30 2912 C 462.227 5.55375 1.86963 0
M  V30 2913 N 462.177 4.09664 2.15742 0
M  V30 2914 H 465.016 7.45574 4.45629 0
M  V30 2915 H 465.288 5.86232 3.67314 0
M  V30 2916 H 464.42 7.84412 2.24479 0
M  V30 2917 P 460.457 8.7635 1.60911 0
M  V30 2918 O 460.237 10.1388 1.11561 0
M  V30 2919 O 459.667 8.36503 2.79617 0
M  V30 2920 O 460.207 7.71806 0.42951 0
M  V30 2921 C 461.147 7.67148 -0.673689 0
M  V30 2922 C 460.417 7.33374 -1.95559 0
M  V30 2923 O 460.207 5.88721 -2.00726 0
M  V30 2924 C 459.017 7.92526 -2.10483 0
M  V30 2925 O 458.627 8.02971 -3.47653 0
M  V30 2926 C 458.137 6.89602 -1.41652 0
M  V30 2927 C 458.847 5.59201 -1.75185 0
M  V30 2928 N 458.797 4.58235 -0.662552 0
M  V30 2929 H 461.636 8.65116 -0.777161 0
M  V30 2930 H 461.908 6.90173 -0.474152 0
M  V30 2931 H 461.04 7.66548 -2.79458 0
M  V30 2932 P 457.077 8.03563 -3.84925 0
M  V30 2933 O 456.857 8.85821 -5.0569 0
M  V30 2934 O 456.287 8.41101 -2.65469 0
M  V30 2935 O 456.827 6.4965 -4.18908 0
M  V30 2936 C 457.767 5.81037 -5.05421 0
M  V30 2937 C 457.037 4.78366 -5.89277 0
M  V30 2938 O 456.827 3.58302 -5.08433 0
M  V30 2939 C 455.637 5.17448 -6.36119 0
M  V30 2940 O 455.247 4.45271 -7.53232 0
M  V30 2941 C 454.757 4.74639 -5.19936 0
M  V30 2942 C 455.467 3.49432 -4.70418 0
M  V30 2943 N 455.417 3.31776 -3.22945 0
M  V30 2944 H 458.256 6.54213 -5.71376 0
M  V30 2945 H 458.528 5.30492 -4.44033 0
M  V30 2946 H 457.66 4.55889 -6.76652 0
M  V30 2947 P 453.697 4.23843 -7.83734 0
M  V30 2948 O 453.477 4.19407 -9.29784 0
M  V30 2949 O 452.907 5.24426 -7.09156 0
M  V30 2950 O 453.447 2.7935 -7.20758 0
M  V30 2951 C 454.387 1.7299 -7.50419 0
M  V30 2952 C 453.657 0.406376 -7.57911 0
M  V30 2953 O 453.447 -0.0897726 -6.21935 0
M  V30 2954 C 452.257 0.447224 -8.1878 0
M  V30 2955 O 451.867 -0.825065 -8.71101 0
M  V30 2956 C 451.377 0.783801 -6.99623 0
M  V30 2957 C 452.087 0.0619192 -5.85967 0
M  V30 2958 N 452.037 0.7859 -4.56281 0
M  V30 2959 H 454.876 1.93423 -8.4679 0
M  V30 2960 H 455.148 1.68181 -6.71046 0
M  V30 2961 H 454.28 -0.289041 -8.15388 0
M  V30 2962 P 450.317 -1.17771 -8.83182 0
M  V30 2963 O 450.097 -2.07206 -9.98732 0
M  V30 2964 O 449.527 0.0743816 -8.81969 0
M  V30 2965 O 450.067 -1.97652 -7.47304 0
M  V30 2966 C 451.007 -3.01055 -7.08599 0
M  V30 2967 C 450.277 -4.12613 -6.37049 0
M  V30 2968 O 450.067 -3.72827 -4.97879 0
M  V30 2969 C 448.877 -4.45719 -6.88164 0
M  V30 2970 O 448.487 -5.7877 -6.5624 0
M  V30 2971 C 447.997 -3.47768 -6.11991 0
M  V30 2972 C 448.707 -3.39356 -4.77615 0
M  V30 2973 N 448.657 -2.04571 -4.15244 0
M  V30 2974 C 448.507 -1.98587 -2.78314 0
M  V30 2975 O 448.417 -2.98134 -2.08835 0
M  V30 2976 N 448.467 -0.714467 -2.24925 0
M  V30 2977 C 448.557 0.470001 -2.94169 0
M  V30 2978 C 448.707 0.312541 -4.36783 0
M  V30 2979 C 448.757 -0.914512 -4.92583 0
M  V30 2980 H 451.498 -3.41169 -7.98575 0
M  V30 2981 H 451.767 -2.58295 -6.41556 0
M  V30 2982 H 450.9 -5.02657 -6.42673 0
M  V30 2983 H 448.245 -4.11637 -4.08885 0
M  V30 2984 H 447.966 -2.49626 -6.61679 0
M  V30 2985 H 446.974 -3.86566 -6.00778 0
M  V30 2986 H 448.808 -4.29943 -7.96918 0
M  V30 2987 H 448.879 -1.00937 -6.00374 0
M  V30 2988 P 446.937 -6.144 -6.45285 0
M  V30 2989 O 446.717 -7.54673 -6.86199 0
M  V30 2990 O 446.147 -5.12391 -7.179 0
M  V30 2991 O 446.687 -5.99158 -4.88404 0
M  V30 2992 C 447.627 -6.60234 -3.96415 0
M  V30 2993 C 446.897 -7.08259 -2.72856 0
M  V30 2994 O 446.687 -5.9427 -1.83651 0
M  V30 2995 C 445.497 -7.64886 -2.9555 0
M  V30 2996 O 445.107 -8.53963 -1.90717 0
M  V30 2997 C 444.617 -6.4116 -2.90739 0
M  V30 2998 C 445.327 -5.55375 -1.86963 0
M  V30 2999 N 445.277 -4.09664 -2.15742 0
M  V30 3000 H 448.116 -7.45574 -4.45629 0
M  V30 3001 H 448.388 -5.86232 -3.67314 0
M  V30 3002 H 447.52 -7.84412 -2.24479 0
M  V30 3003 P 443.557 -8.7635 -1.60911 0
M  V30 3004 O 443.337 -10.1388 -1.11561 0
M  V30 3005 O 442.767 -8.36503 -2.79617 0
M  V30 3006 O 443.307 -7.71806 -0.42951 0
M  V30 3007 C 444.247 -7.67148 0.673689 0
M  V30 3008 C 443.517 -7.33374 1.95559 0
M  V30 3009 O 443.307 -5.88721 2.00726 0
M  V30 3010 C 442.117 -7.92526 2.10483 0
M  V30 3011 O 441.727 -8.02971 3.47653 0
M  V30 3012 C 441.237 -6.89602 1.41652 0
M  V30 3013 C 441.947 -5.59201 1.75185 0
M  V30 3014 N 441.897 -4.58235 0.662552 0
M  V30 3015 H 444.736 -8.65116 0.777161 0
M  V30 3016 H 445.008 -6.90173 0.474152 0
M  V30 3017 H 444.14 -7.66548 2.79458 0
M  V30 3018 P 440.177 -8.03563 3.84925 0
M  V30 3019 O 439.957 -8.85821 5.0569 0
M  V30 3020 O 439.387 -8.41101 2.65469 0
M  V30 3021 O 439.927 -6.4965 4.18908 0
M  V30 3022 C 440.867 -5.81037 5.05421 0
M  V30 3023 C 440.137 -4.78366 5.89277 0
M  V30 3024 O 439.927 -3.58302 5.08433 0
M  V30 3025 C 438.737 -5.17448 6.36119 0
M  V30 3026 O 438.347 -4.45271 7.53232 0
M  V30 3027 C 437.857 -4.74639 5.19936 0
M  V30 3028 C 438.567 -3.49432 4.70418 0
M  V30 3029 N 438.517 -3.32099 3.22613 0
M  V30 3030 H 441.356 -6.54213 5.71376 0
M  V30 3031 H 441.628 -5.30936 4.43503 0
M  V30 3032 H 440.76 -4.55889 6.76652 0
M  V30 3033 H 438.105 -2.61715 5.17932 0
M  V30 3034 H 437.825 -5.52155 4.41878 0
M  V30 3035 H 436.834 -4.51981 5.53374 0
M  V30 3036 H 438.668 -6.25124 6.55234 0
M  V30 3037 P 436.797 -4.23843 7.83734 0
M  V30 3038 O 436.577 -4.19407 9.29784 0
M  V30 3039 O 436.007 -5.24426 7.09156 0
M  V30 3040 O 436.547 -2.7935 7.20758 0
M  V30 3041 C 437.487 -1.7299 7.50419 0
M  V30 3042 C 436.757 -0.406376 7.57911 0
M  V30 3043 O 436.547 0.0897726 6.21935 0
M  V30 3044 C 435.357 -0.447224 8.1878 0
M  V30 3045 O 434.967 0.825065 8.71101 0
M  V30 3046 C 434.477 -0.783801 6.99623 0
M  V30 3047 C 435.187 -0.0619192 5.85967 0
M  V30 3048 N 435.137 -0.7859 4.56281 0
M  V30 3049 H 437.976 -1.93423 8.4679 0
M  V30 3050 H 438.248 -1.68181 6.71046 0
M  V30 3051 H 437.38 0.289041 8.15388 0
M  V30 3052 P 433.417 1.17771 8.83182 0
M  V30 3053 O 433.197 2.07206 9.98732 0
M  V30 3054 O 432.627 -0.0743816 8.81969 0
M  V30 3055 O 433.167 1.97652 7.47304 0
M  V30 3056 C 434.107 3.01133 7.08783 0
M  V30 3057 C 433.377 4.12613 6.37049 0
M  V30 3058 O 433.167 3.72827 4.97879 0
M  V30 3059 C 431.977 4.45085 6.88694 0
M  V30 3060 O 431.587 5.7877 6.5624 0
M  V30 3061 C 431.097 3.47817 6.12078 0
M  V30 3062 C 431.807 3.39414 4.77697 0
M  V30 3063 N 431.757 2.04199 4.15538 0
M  V30 3064 H 434.596 3.41248 7.98759 0
M  V30 3065 H 434.868 2.57728 6.42 0
M  V30 3066 H 434 5.02657 6.42673 0
M  V30 3067 H 431.345 4.11708 4.08956 0
M  V30 3068 H 431.065 2.49626 6.61679 0
M  V30 3069 H 430.074 3.8662 6.00862 0
M  V30 3070 H 431.908 4.29991 7.97006 0
M  V30 3071 P 430.037 6.144 6.45285 0
M  V30 3072 O 429.817 7.54673 6.86199 0
M  V30 3073 O 429.247 5.12391 7.179 0
M  V30 3074 O 429.787 5.99158 4.88404 0
M  V30 3075 C 430.727 6.60234 3.96415 0
M  V30 3076 C 429.997 7.08259 2.72856 0
M  V30 3077 O 429.787 5.9427 1.83651 0
M  V30 3078 C 428.597 7.64886 2.9555 0
M  V30 3079 O 428.207 8.53963 1.90717 0
M  V30 3080 C 427.717 6.4116 2.90739 0
M  V30 3081 C 428.427 5.55375 1.86963 0
M  V30 3082 N 428.377 4.09664 2.15742 0
M  V30 3083 H 431.216 7.45574 4.45629 0
M  V30 3084 H 431.488 5.86232 3.67314 0
M  V30 3085 H 430.62 7.84412 2.24479 0
M  V30 3086 P 426.657 8.7635 1.60911 0
M  V30 3087 O 426.437 10.1388 1.11561 0
M  V30 3088 O 425.867 8.36503 2.79617 0
M  V30 3089 O 426.407 7.71806 0.42951 0
M  V30 3090 C 427.347 7.67148 -0.673689 0
M  V30 3091 C 426.617 7.33374 -1.95559 0
M  V30 3092 O 426.407 5.88721 -2.00726 0
M  V30 3093 C 425.217 7.92526 -2.10483 0
M  V30 3094 O 424.827 8.02971 -3.47653 0
M  V30 3095 C 424.337 6.89602 -1.41652 0
M  V30 3096 C 425.047 5.59201 -1.75185 0
M  V30 3097 N 424.997 4.58301 -0.657969 0
M  V30 3098 H 427.836 8.65116 -0.777161 0
M  V30 3099 H 428.108 6.9022 -0.46725 0
M  V30 3100 H 427.24 7.66548 -2.79458 0
M  V30 3101 H 424.585 5.16165 -2.65183 0
M  V30 3102 H 424.305 7.06433 -0.329384 0
M  V30 3103 H 423.314 6.90926 -1.82021 0
M  V30 3104 H 425.148 8.90873 -1.62657 0
M  V30 3105 P 423.278 8.03563 -3.84925 0
M  V30 3106 O 423.058 8.85821 -5.0569 0
M  V30 3107 O 422.488 8.41101 -2.65469 0
M  V30 3108 O 423.028 6.4965 -4.18908 0
M  V30 3109 C 423.968 5.81037 -5.05421 0
M  V30 3110 C 423.238 4.78366 -5.89277 0
M  V30 3111 O 423.028 3.58302 -5.08433 0
M  V30 3112 C 421.838 5.17448 -6.36119 0
M  V30 3113 O 421.448 4.45271 -7.53232 0
M  V30 3114 C 420.958 4.74639 -5.19936 0
M  V30 3115 C 421.668 3.49432 -4.70418 0
M  V30 3116 N 421.618 3.31776 -3.22945 0
M  V30 3117 H 424.457 6.54213 -5.71376 0
M  V30 3118 H 424.729 5.30492 -4.44033 0
M  V30 3119 H 423.861 4.55889 -6.76652 0
M  V30 3120 P 419.898 4.23843 -7.83734 0
M  V30 3121 O 419.678 4.19407 -9.29784 0
M  V30 3122 O 419.108 5.24426 -7.09156 0
M  V30 3123 O 419.648 2.7935 -7.20758 0
M  V30 3124 C 420.588 1.7299 -7.50419 0
M  V30 3125 C 419.858 0.406376 -7.57911 0
M  V30 3126 O 419.648 -0.0897726 -6.21935 0
M  V30 3127 C 418.458 0.447224 -8.1878 0
M  V30 3128 O 418.068 -0.825065 -8.71101 0
M  V30 3129 C 417.578 0.783801 -6.99623 0
M  V30 3130 C 418.288 0.0619192 -5.85967 0
M  V30 3131 N 418.238 0.790462 -4.56202 0
M  V30 3132 H 421.077 1.93423 -8.4679 0
M  V30 3133 H 421.349 1.68852 -6.70877 0
M  V30 3134 H 420.481 -0.289041 -8.15388 0
M  V30 3135 H 417.826 -0.927006 -5.72848 0
M  V30 3136 H 417.546 1.86973 -6.82036 0
M  V30 3137 H 416.555 0.403953 -7.13357 0
M  V30 3138 H 418.389 1.20599 -8.97534 0
M  V30 3139 P 416.518 -1.17771 -8.83182 0
M  V30 3140 O 416.298 -2.07206 -9.98732 0
M  V30 3141 O 415.728 0.0743816 -8.81969 0
M  V30 3142 O 416.268 -1.97652 -7.47304 0
M  V30 3143 C 417.208 -3.01055 -7.08599 0
M  V30 3144 C 416.478 -4.12613 -6.37049 0
M  V30 3145 O 416.268 -3.72827 -4.97879 0
M  V30 3146 C 415.078 -4.45719 -6.88164 0
M  V30 3147 O 414.688 -5.7877 -6.5624 0
M  V30 3148 C 414.198 -3.47768 -6.11991 0
M  V30 3149 C 414.908 -3.39356 -4.77615 0
M  V30 3150 N 414.858 -2.04571 -4.15244 0
M  V30 3151 C 414.708 -1.98587 -2.78314 0
M  V30 3152 O 414.618 -2.98134 -2.08835 0
M  V30 3153 N 414.668 -0.714467 -2.24925 0
M  V30 3154 C 414.758 0.470001 -2.94169 0
M  V30 3155 C 414.908 0.312541 -4.36783 0
M  V30 3156 C 414.958 -0.914512 -4.92583 0
M  V30 3157 H 417.699 -3.41169 -7.98575 0
M  V30 3158 H 417.968 -2.58295 -6.41556 0
M  V30 3159 H 417.101 -5.02657 -6.42673 0
M  V30 3160 H 414.446 -4.11637 -4.08885 0
M  V30 3161 H 414.167 -2.49626 -6.61679 0
M  V30 3162 H 413.175 -3.86566 -6.00778 0
M  V30 3163 H 415.009 -4.29943 -7.96918 0
M  V30 3164 H 415.08 -1.00937 -6.00374 0
M  V30 3165 P 413.138 -6.144 -6.45285 0
M  V30 3166 O 412.918 -7.54673 -6.86199 0
M  V30 3167 O 412.348 -5.12391 -7.179 0
M  V30 3168 O 412.888 -5.99158 -4.88404 0
M  V30 3169 C 413.828 -6.60234 -3.96415 0
M  V30 3170 C 413.098 -7.08259 -2.72856 0
M  V30 3171 O 412.888 -5.9427 -1.83651 0
M  V30 3172 C 411.698 -7.64886 -2.9555 0
M  V30 3173 O 411.308 -8.53963 -1.90717 0
M  V30 3174 C 410.818 -6.4116 -2.90739 0
M  V30 3175 C 411.528 -5.55375 -1.86963 0
M  V30 3176 N 411.478 -4.09448 -2.16152 0
M  V30 3177 H 414.317 -7.45574 -4.45629 0
M  V30 3178 H 414.589 -5.85864 -3.679 0
M  V30 3179 H 413.721 -7.84412 -2.24479 0
M  V30 3180 H 411.066 -5.73457 -0.888562 0
M  V30 3181 H 410.786 -5.90877 -3.88583 0
M  V30 3182 H 409.795 -6.6596 -2.58858 0
M  V30 3183 H 411.629 -8.16339 -3.92049 0
M  V30 3184 P 409.758 -8.7635 -1.60911 0
M  V30 3185 O 409.538 -10.1388 -1.11561 0
M  V30 3186 O 408.968 -8.36503 -2.79617 0
M  V30 3187 O 409.508 -7.71806 -0.42951 0
M  V30 3188 C 410.448 -7.67148 0.673689 0
M  V30 3189 C 409.718 -7.33374 1.95559 0
M  V30 3190 O 409.508 -5.88721 2.00726 0
M  V30 3191 C 408.318 -7.92526 2.10483 0
M  V30 3192 O 407.928 -8.02971 3.47653 0
M  V30 3193 C 407.438 -6.89602 1.41652 0
M  V30 3194 C 408.148 -5.59201 1.75185 0
M  V30 3195 N 408.098 -4.58301 0.657969 0
M  V30 3196 H 410.937 -8.65116 0.777161 0
M  V30 3197 H 411.209 -6.9022 0.46725 0
M  V30 3198 H 410.341 -7.66548 2.79458 0
M  V30 3199 H 407.686 -5.16165 2.65183 0
M  V30 3200 H 407.406 -7.06433 0.329384 0
M  V30 3201 H 406.415 -6.90926 1.82021 0
M  V30 3202 H 408.249 -8.90873 1.62657 0
M  V30 3203 P 406.378 -8.03563 3.84925 0
M  V30 3204 O 406.158 -8.85821 5.0569 0
M  V30 3205 O 405.588 -8.41101 2.65469 0
M  V30 3206 O 406.128 -6.4965 4.18908 0
M  V30 3207 C 407.068 -5.81037 5.05421 0
M  V30 3208 C 406.338 -4.78366 5.89277 0
M  V30 3209 O 406.128 -3.58302 5.08433 0
M  V30 3210 C 404.938 -5.17448 6.36119 0
M  V30 3211 O 404.548 -4.45271 7.53232 0
M  V30 3212 C 404.058 -4.74639 5.19936 0
M  V30 3213 C 404.768 -3.49432 4.70418 0
M  V30 3214 N 404.718 -3.32099 3.22613 0
M  V30 3215 H 407.557 -6.54213 5.71376 0
M  V30 3216 H 407.829 -5.30936 4.43503 0
M  V30 3217 H 406.961 -4.55889 6.76652 0
M  V30 3218 H 404.306 -2.61715 5.17932 0
M  V30 3219 H 404.026 -5.52155 4.41878 0
M  V30 3220 H 403.035 -4.51981 5.53374 0
M  V30 3221 H 404.869 -6.25124 6.55234 0
M  V30 3222 P 402.998 -4.23843 7.83734 0
M  V30 3223 O 402.778 -4.19407 9.29784 0
M  V30 3224 O 402.208 -5.24426 7.09156 0
M  V30 3225 O 402.748 -2.7935 7.20758 0
M  V30 3226 C 403.688 -1.7299 7.50419 0
M  V30 3227 C 402.958 -0.406376 7.57911 0
M  V30 3228 O 402.748 0.0897726 6.21935 0
M  V30 3229 C 401.558 -0.447224 8.1878 0
M  V30 3230 O 401.168 0.825065 8.71101 0
M  V30 3231 C 400.678 -0.783801 6.99623 0
M  V30 3232 C 401.388 -0.0619192 5.85967 0
M  V30 3233 N 401.338 -0.7859 4.56281 0
M  V30 3234 H 404.177 -1.93423 8.4679 0
M  V30 3235 H 404.449 -1.68181 6.71046 0
M  V30 3236 H 403.581 0.289041 8.15388 0
M  V30 3237 P 399.618 1.17771 8.83182 0
M  V30 3238 O 399.398 2.07206 9.98732 0
M  V30 3239 O 398.828 -0.0743816 8.81969 0
M  V30 3240 O 399.368 1.97652 7.47304 0
M  V30 3241 C 400.308 3.01133 7.08783 0
M  V30 3242 C 399.578 4.12613 6.37049 0
M  V30 3243 O 399.368 3.72827 4.97879 0
M  V30 3244 C 398.178 4.45085 6.88694 0
M  V30 3245 O 397.788 5.7877 6.5624 0
M  V30 3246 C 397.298 3.47817 6.12078 0
M  V30 3247 C 398.008 3.39414 4.77697 0
M  V30 3248 N 397.958 2.04615 4.15333 0
M  V30 3249 H 400.797 3.41248 7.98759 0
M  V30 3250 H 401.069 2.5837 6.41742 0
M  V30 3251 H 400.201 5.02657 6.42673 0
M  V30 3252 P 396.238 6.144 6.45285 0
M  V30 3253 O 396.018 7.54673 6.86199 0
M  V30 3254 O 395.448 5.12391 7.179 0
M  V30 3255 O 395.988 5.99158 4.88404 0
M  V30 3256 C 396.928 6.60234 3.96415 0
M  V30 3257 C 396.198 7.08259 2.72856 0
M  V30 3258 O 395.988 5.9427 1.83651 0
M  V30 3259 C 394.798 7.64886 2.9555 0
M  V30 3260 O 394.408 8.53963 1.90717 0
M  V30 3261 C 393.918 6.4116 2.90739 0
M  V30 3262 C 394.628 5.55375 1.86963 0
M  V30 3263 N 394.578 4.09664 2.15742 0
M  V30 3264 H 397.417 7.45574 4.45629 0
M  V30 3265 H 397.689 5.86232 3.67314 0
M  V30 3266 H 396.821 7.84412 2.24479 0
M  V30 3267 P 392.858 8.7635 1.60911 0
M  V30 3268 O 392.638 10.1388 1.11561 0
M  V30 3269 O 392.068 8.36503 2.79617 0
M  V30 3270 O 392.608 7.71806 0.42951 0
M  V30 3271 C 393.548 7.67148 -0.673689 0
M  V30 3272 C 392.818 7.33374 -1.95559 0
M  V30 3273 O 392.608 5.88721 -2.00726 0
M  V30 3274 C 391.418 7.92526 -2.10483 0
M  V30 3275 O 391.028 8.02971 -3.47653 0
M  V30 3276 C 390.538 6.89602 -1.41652 0
M  V30 3277 C 391.248 5.59201 -1.75185 0
M  V30 3278 N 391.198 4.58301 -0.657969 0
M  V30 3279 H 394.037 8.65116 -0.777161 0
M  V30 3280 H 394.309 6.9022 -0.46725 0
M  V30 3281 H 393.441 7.66548 -2.79458 0
M  V30 3282 H 390.786 5.16165 -2.65183 0
M  V30 3283 H 390.506 7.06433 -0.329384 0
M  V30 3284 H 389.515 6.90926 -1.82021 0
M  V30 3285 H 391.349 8.90873 -1.62657 0
M  V30 3286 P 389.478 8.03563 -3.84925 0
M  V30 3287 O 389.258 8.85821 -5.0569 0
M  V30 3288 O 388.688 8.41101 -2.65469 0
M  V30 3289 O 389.228 6.4965 -4.18908 0
M  V30 3290 C 390.168 5.81037 -5.05421 0
M  V30 3291 C 389.438 4.78366 -5.89277 0
M  V30 3292 O 389.228 3.58302 -5.08433 0
M  V30 3293 C 388.038 5.17448 -6.36119 0
M  V30 3294 O 387.648 4.45271 -7.53232 0
M  V30 3295 C 387.158 4.74639 -5.19936 0
M  V30 3296 C 387.868 3.49432 -4.70418 0
M  V30 3297 N 387.818 3.32099 -3.22613 0
M  V30 3298 H 390.657 6.54213 -5.71376 0
M  V30 3299 H 390.929 5.30936 -4.43503 0
M  V30 3300 H 390.061 4.55889 -6.76652 0
M  V30 3301 H 387.406 2.61715 -5.17932 0
M  V30 3302 H 387.126 5.52155 -4.41878 0
M  V30 3303 H 386.135 4.51981 -5.53374 0
M  V30 3304 H 387.969 6.25124 -6.55234 0
M  V30 3305 P 386.098 4.23843 -7.83734 0
M  V30 3306 O 385.878 4.19407 -9.29784 0
M  V30 3307 O 385.308 5.24426 -7.09156 0
M  V30 3308 O 385.848 2.7935 -7.20758 0
M  V30 3309 C 386.788 1.7299 -7.50419 0
M  V30 3310 C 386.058 0.406376 -7.57911 0
M  V30 3311 O 385.848 -0.0897726 -6.21935 0
M  V30 3312 C 384.658 0.447224 -8.1878 0
M  V30 3313 O 384.268 -0.825065 -8.71101 0
M  V30 3314 C 383.778 0.783801 -6.99623 0
M  V30 3315 C 384.488 0.0619192 -5.85967 0
M  V30 3316 N 384.438 0.790462 -4.56202 0
M  V30 3317 C 384.518 2.13895 -4.34171 0
M  V30 3318 N 384.448 2.46449 -3.08687 0
M  V30 3319 C 384.298 1.2525 -2.43697 0
M  V30 3320 C 384.168 0.914535 -1.07318 0
M  V30 3321 N 384.158 1.80782 -0.0887348 0
M  V30 3322 N 384.048 -0.386745 -0.768133 0
M  V30 3323 C 384.058 -1.28096 -1.75159 0
M  V30 3324 N 384.178 -1.09708 -3.04861 0
M  V30 3325 C 384.298 0.214857 -3.32306 0
M  V30 3326 H 387.277 1.93423 -8.4679 0
M  V30 3327 H 387.549 1.68852 -6.70877 0
M  V30 3328 H 386.681 -0.289041 -8.15388 0
M  V30 3329 H 384.026 -0.927006 -5.72848 0
M  V30 3330 H 383.746 1.86973 -6.82036 0
M  V30 3331 H 382.755 0.403953 -7.13357 0
M  V30 3332 H 384.589 1.20599 -8.97534 0
M  V30 3333 H 384.63 2.86846 -5.14318 0
M  V30 3334 H 384.249 2.81082 -0.302037 0
M  V30 3335 H 384.06 1.49688 0.889064 0
M  V30 3336 H 383.952 -2.31317 -1.43855 0
M  V30 3337 P 382.718 -1.17771 -8.83182 0
M  V30 3338 O 382.498 -2.07206 -9.98732 0
M  V30 3339 O 381.928 0.0743816 -8.81969 0
M  V30 3340 O 382.468 -1.97652 -7.47304 0
M  V30 3341 C 383.408 -3.01133 -7.08783 0
M  V30 3342 C 382.678 -4.12613 -6.37049 0
M  V30 3343 O 382.468 -3.72827 -4.97879 0
M  V30 3344 C 381.278 -4.45085 -6.88694 0
M  V30 3345 O 380.888 -5.7877 -6.5624 0
M  V30 3346 C 380.398 -3.47817 -6.12078 0
M  V30 3347 C 381.108 -3.39414 -4.77697 0
M  V30 3348 N 381.058 -2.04199 -4.15538 0
M  V30 3349 H 383.897 -3.41248 -7.98759 0
M  V30 3350 H 384.169 -2.57728 -6.42 0
M  V30 3351 H 383.301 -5.02657 -6.42673 0
M  V30 3352 H 380.646 -4.11708 -4.08956 0
M  V30 3353 H 380.366 -2.49626 -6.61679 0
M  V30 3354 H 379.375 -3.8662 -6.00862 0
M  V30 3355 H 381.209 -4.29991 -7.97006 0
M  V30 3356 P 379.338 -6.144 -6.45285 0
M  V30 3357 O 379.118 -7.54673 -6.86199 0
M  V30 3358 O 378.548 -5.12391 -7.179 0
M  V30 3359 O 379.088 -5.99158 -4.88404 0
M  V30 3360 C 380.028 -6.60234 -3.96415 0
M  V30 3361 C 379.298 -7.08259 -2.72856 0
M  V30 3362 O 379.088 -5.9427 -1.83651 0
M  V30 3363 C 377.898 -7.64886 -2.9555 0
M  V30 3364 O 377.508 -8.53963 -1.90717 0
M  V30 3365 C 377.018 -6.4116 -2.90739 0
M  V30 3366 C 377.728 -5.55375 -1.86963 0
M  V30 3367 N 377.678 -4.09448 -2.16152 0
M  V30 3368 H 380.517 -7.45574 -4.45629 0
M  V30 3369 H 380.789 -5.85864 -3.679 0
M  V30 3370 H 379.921 -7.84412 -2.24479 0
M  V30 3371 H 377.266 -5.73457 -0.888562 0
M  V30 3372 H 376.986 -5.90877 -3.88583 0
M  V30 3373 H 375.995 -6.6596 -2.58858 0
M  V30 3374 H 377.829 -8.16339 -3.92049 0
M  V30 3375 P 375.958 -8.7635 -1.60911 0
M  V30 3376 O 375.738 -10.1388 -1.11561 0
M  V30 3377 O 375.168 -8.36503 -2.79617 0
M  V30 3378 O 375.708 -7.71806 -0.42951 0
M  V30 3379 C 376.648 -7.67148 0.673689 0
M  V30 3380 C 375.918 -7.33374 1.95559 0
M  V30 3381 O 375.708 -5.88721 2.00726 0
M  V30 3382 C 374.518 -7.92526 2.10483 0
M  V30 3383 O 374.128 -8.02971 3.47653 0
M  V30 3384 C 373.638 -6.89602 1.41652 0
M  V30 3385 C 374.348 -5.59201 1.75185 0
M  V30 3386 N 374.298 -4.58301 0.657969 0
M  V30 3387 H 377.137 -8.65116 0.777161 0
M  V30 3388 H 377.409 -6.9022 0.46725 0
M  V30 3389 H 376.541 -7.66548 2.79458 0
M  V30 3390 H 373.886 -5.16165 2.65183 0
M  V30 3391 H 373.606 -7.06433 0.329384 0
M  V30 3392 H 372.615 -6.90926 1.82021 0
M  V30 3393 H 374.449 -8.90873 1.62657 0
M  V30 3394 P 372.578 -8.03563 3.84925 0
M  V30 3395 O 372.358 -8.85821 5.0569 0
M  V30 3396 O 371.788 -8.41101 2.65469 0
M  V30 3397 O 372.328 -6.4965 4.18908 0
M  V30 3398 C 373.268 -5.81037 5.05421 0
M  V30 3399 C 372.538 -4.78366 5.89277 0
M  V30 3400 O 372.328 -3.58302 5.08433 0
M  V30 3401 C 371.138 -5.17448 6.36119 0
M  V30 3402 O 370.748 -4.45271 7.53232 0
M  V30 3403 C 370.258 -4.74639 5.19936 0
M  V30 3404 C 370.968 -3.49432 4.70418 0
M  V30 3405 N 370.918 -3.32099 3.22613 0
M  V30 3406 H 373.757 -6.54213 5.71376 0
M  V30 3407 H 374.029 -5.30936 4.43503 0
M  V30 3408 H 373.161 -4.55889 6.76652 0
M  V30 3409 H 370.506 -2.61715 5.17932 0
M  V30 3410 H 370.226 -5.52155 4.41878 0
M  V30 3411 H 369.235 -4.51981 5.53374 0
M  V30 3412 H 371.069 -6.25124 6.55234 0
M  V30 3413 P 369.198 -4.23843 7.83734 0
M  V30 3414 O 368.978 -4.19407 9.29784 0
M  V30 3415 O 368.408 -5.24426 7.09156 0
M  V30 3416 O 368.948 -2.7935 7.20758 0
M  V30 3417 C 369.888 -1.7299 7.50419 0
M  V30 3418 C 369.158 -0.406376 7.57911 0
M  V30 3419 O 368.948 0.0897726 6.21935 0
M  V30 3420 C 367.758 -0.447224 8.1878 0
M  V30 3421 O 367.368 0.825065 8.71101 0
M  V30 3422 C 366.878 -0.783801 6.99623 0
M  V30 3423 C 367.588 -0.0619192 5.85967 0
M  V30 3424 N 367.538 -0.790462 4.56202 0
M  V30 3425 H 370.377 -1.93423 8.4679 0
M  V30 3426 H 370.649 -1.68852 6.70877 0
M  V30 3427 H 369.781 0.289041 8.15388 0
M  V30 3428 H 367.126 0.927006 5.72848 0
M  V30 3429 H 366.846 -1.86973 6.82036 0
M  V30 3430 H 365.855 -0.403953 7.13357 0
M  V30 3431 H 367.689 -1.20599 8.97534 0
M  V30 3432 P 365.818 1.17771 8.83182 0
M  V30 3433 O 365.598 2.07206 9.98732 0
M  V30 3434 O 365.028 -0.0743816 8.81969 0
M  V30 3435 O 365.568 1.97652 7.47304 0
M  V30 3436 C 366.508 3.01133 7.08783 0
M  V30 3437 C 365.778 4.12613 6.37049 0
M  V30 3438 O 365.568 3.72827 4.97879 0
M  V30 3439 C 364.378 4.45085 6.88694 0
M  V30 3440 O 363.988 5.7877 6.5624 0
M  V30 3441 C 363.498 3.47817 6.12078 0
M  V30 3442 C 364.208 3.39414 4.77697 0
M  V30 3443 N 364.158 2.04199 4.15538 0
M  V30 3444 H 366.997 3.41248 7.98759 0
M  V30 3445 H 367.269 2.57728 6.42 0
M  V30 3446 H 366.401 5.02657 6.42673 0
M  V30 3447 H 363.746 4.11708 4.08956 0
M  V30 3448 H 363.466 2.49626 6.61679 0
M  V30 3449 H 362.475 3.8662 6.00862 0
M  V30 3450 H 364.309 4.29991 7.97006 0
M  V30 3451 P 362.438 6.144 6.45285 0
M  V30 3452 O 362.218 7.54673 6.86199 0
M  V30 3453 O 361.648 5.12391 7.179 0
M  V30 3454 O 362.188 5.99158 4.88404 0
M  V30 3455 C 363.128 6.60234 3.96415 0
M  V30 3456 C 362.398 7.08259 2.72856 0
M  V30 3457 O 362.188 5.9427 1.83651 0
M  V30 3458 C 360.998 7.64886 2.9555 0
M  V30 3459 O 360.608 8.53963 1.90717 0
M  V30 3460 C 360.118 6.4116 2.90739 0
M  V30 3461 C 360.828 5.55375 1.86963 0
M  V30 3462 N 360.778 4.09448 2.16152 0
M  V30 3463 H 363.617 7.45574 4.45629 0
M  V30 3464 H 363.889 5.85864 3.679 0
M  V30 3465 H 363.021 7.84412 2.24479 0
M  V30 3466 H 360.366 5.73457 0.888562 0
M  V30 3467 H 360.086 5.90877 3.88583 0
M  V30 3468 H 359.095 6.6596 2.58858 0
M  V30 3469 H 360.929 8.16339 3.92049 0
M  V30 3470 P 359.058 8.7635 1.60911 0
M  V30 3471 O 358.838 10.1388 1.11561 0
M  V30 3472 O 358.268 8.36503 2.79617 0
M  V30 3473 O 358.808 7.71806 0.42951 0
M  V30 3474 C 359.748 7.67148 -0.673689 0
M  V30 3475 C 359.018 7.33374 -1.95559 0
M  V30 3476 O 358.808 5.88721 -2.00726 0
M  V30 3477 C 357.618 7.92526 -2.10483 0
M  V30 3478 O 357.228 8.02971 -3.47653 0
M  V30 3479 C 356.738 6.89602 -1.41652 0
M  V30 3480 C 357.448 5.59201 -1.75185 0
M  V30 3481 N 357.398 4.58301 -0.657969 0
M  V30 3482 H 360.237 8.65116 -0.777161 0
M  V30 3483 H 360.509 6.9022 -0.46725 0
M  V30 3484 H 359.641 7.66548 -2.79458 0
M  V30 3485 H 356.986 5.16165 -2.65183 0
M  V30 3486 H 356.706 7.06433 -0.329384 0
M  V30 3487 H 355.715 6.90926 -1.82021 0
M  V30 3488 H 357.549 8.90873 -1.62657 0
M  V30 3489 P 355.678 8.03563 -3.84925 0
M  V30 3490 O 355.458 8.85821 -5.0569 0
M  V30 3491 O 354.888 8.41101 -2.65469 0
M  V30 3492 O 355.428 6.4965 -4.18908 0
M  V30 3493 C 356.368 5.81037 -5.05421 0
M  V30 3494 C 355.638 4.78366 -5.89277 0
M  V30 3495 O 355.428 3.58302 -5.08433 0
M  V30 3496 C 354.238 5.17448 -6.36119 0
M  V30 3497 O 353.848 4.45271 -7.53232 0
M  V30 3498 C 353.358 4.74639 -5.19936 0
M  V30 3499 C 354.068 3.49432 -4.70418 0
M  V30 3500 N 354.018 3.31776 -3.22945 0
M  V30 3501 H 356.857 6.54213 -5.71376 0
M  V30 3502 H 357.129 5.30492 -4.44033 0
M  V30 3503 H 356.261 4.55889 -6.76652 0
M  V30 3504 P 352.298 4.23843 -7.83734 0
M  V30 3505 O 352.078 4.19407 -9.29784 0
M  V30 3506 O 351.508 5.24426 -7.09156 0
M  V30 3507 O 352.048 2.7935 -7.20758 0
M  V30 3508 C 352.988 1.7299 -7.50419 0
M  V30 3509 C 352.258 0.406376 -7.57911 0
M  V30 3510 O 352.048 -0.0897726 -6.21935 0
M  V30 3511 C 350.858 0.447224 -8.1878 0
M  V30 3512 O 350.468 -0.825065 -8.71101 0
M  V30 3513 C 349.978 0.783801 -6.99623 0
M  V30 3514 C 350.688 0.0619192 -5.85967 0
M  V30 3515 N 350.638 0.7859 -4.56281 0
M  V30 3516 H 353.477 1.93423 -8.4679 0
M  V30 3517 H 353.749 1.68181 -6.71046 0
M  V30 3518 H 352.881 -0.289041 -8.15388 0
M  V30 3519 P 348.918 -1.17771 -8.83182 0
M  V30 3520 O 348.698 -2.07206 -9.98732 0
M  V30 3521 O 348.128 0.0743816 -8.81969 0
M  V30 3522 O 348.668 -1.97652 -7.47304 0
M  V30 3523 C 349.608 -3.01133 -7.08783 0
M  V30 3524 C 348.878 -4.12613 -6.37049 0
M  V30 3525 O 348.668 -3.72827 -4.97879 0
M  V30 3526 C 347.478 -4.45085 -6.88694 0
M  V30 3527 O 347.088 -5.7877 -6.5624 0
M  V30 3528 C 346.598 -3.47817 -6.12078 0
M  V30 3529 C 347.308 -3.39414 -4.77697 0
M  V30 3530 N 347.258 -2.04199 -4.15538 0
M  V30 3531 H 350.097 -3.41248 -7.98759 0
M  V30 3532 H 350.369 -2.57728 -6.42 0
M  V30 3533 H 349.501 -5.02657 -6.42673 0
M  V30 3534 H 346.846 -4.11708 -4.08956 0
M  V30 3535 H 346.566 -2.49626 -6.61679 0
M  V30 3536 H 345.575 -3.8662 -6.00862 0
M  V30 3537 H 347.409 -4.29991 -7.97006 0
M  V30 3538 P 345.538 -6.144 -6.45285 0
M  V30 3539 O 345.318 -7.54673 -6.86199 0
M  V30 3540 O 344.748 -5.12391 -7.179 0
M  V30 3541 O 345.288 -5.99158 -4.88404 0
M  V30 3542 C 346.228 -6.60062 -3.96313 0
M  V30 3543 C 345.498 -7.08259 -2.72856 0
M  V30 3544 O 345.288 -5.9427 -1.83651 0
M  V30 3545 C 344.098 -7.65087 -2.94749 0
M  V30 3546 O 343.708 -8.53963 -1.90717 0
M  V30 3547 C 343.218 -6.41069 -2.90698 0
M  V30 3548 C 343.928 -5.5528 -1.86931 0
M  V30 3549 N 343.878 -4.09575 -2.15696 0
M  V30 3550 C 343.728 -3.24249 -1.08435 0
M  V30 3551 O 343.638 -3.63946 0.0628747 0
M  V30 3552 N 343.688 -1.90009 -1.39973 0
M  V30 3553 C 343.778 -1.34884 -2.65614 0
M  V30 3554 O 343.728 -0.123716 -2.81728 0
M  V30 3555 C 343.928 -2.3145 -3.71736 0
M  V30 3556 C 344.038 -1.75913 -5.10438 0
M  V30 3557 C 343.978 -3.63518 -3.44754 0
M  V30 3558 H 346.719 -7.45402 -4.45526 0
M  V30 3559 H 346.988 -5.86062 -3.67208 0
M  V30 3560 H 346.121 -7.84412 -2.24479 0
M  V30 3561 H 343.466 -5.73358 -0.888409 0
M  V30 3562 H 343.187 -5.90877 -3.88583 0
M  V30 3563 H 342.195 -6.65867 -2.58821 0
M  V30 3564 H 344.029 -8.16248 -3.92006 0
M  V30 3565 H 344.1 -4.34551 -4.26383 0
M  V30 3566 H 343.07 -1.85471 -5.61775 0
M  V30 3567 H 344.807 -2.31364 -5.66257 0
M  V30 3568 H 344.319 -0.695936 -5.05229 0
M  V30 3569 H 343.583 -1.26277 -0.63625 0
M  V30 3570 P 342.158 -8.7635 -1.60911 0
M  V30 3571 O 341.938 -10.1388 -1.11561 0
M  V30 3572 O 341.368 -8.36503 -2.79617 0
M  V30 3573 O 341.908 -7.71806 -0.42951 0
M  V30 3574 C 342.848 -7.67148 0.673689 0
M  V30 3575 C 342.118 -7.33374 1.95559 0
M  V30 3576 O 341.908 -5.88721 2.00726 0
M  V30 3577 C 340.718 -7.92526 2.10483 0
M  V30 3578 O 340.328 -8.02971 3.47653 0
M  V30 3579 C 339.838 -6.89602 1.41652 0
M  V30 3580 C 340.548 -5.59201 1.75185 0
M  V30 3581 N 340.498 -4.58235 0.662552 0
M  V30 3582 H 343.337 -8.65116 0.777161 0
M  V30 3583 H 343.609 -6.90173 0.474152 0
M  V30 3584 H 342.741 -7.66548 2.79458 0
M  V30 3585 P 338.778 -8.03563 3.84925 0
M  V30 3586 O 338.558 -8.85821 5.0569 0
M  V30 3587 O 337.988 -8.41101 2.65469 0
M  V30 3588 O 338.528 -6.4965 4.18908 0
M  V30 3589 C 339.468 -5.81037 5.05421 0
M  V30 3590 C 338.738 -4.78366 5.89277 0
M  V30 3591 O 338.528 -3.58302 5.08433 0
M  V30 3592 C 337.338 -5.17448 6.36119 0
M  V30 3593 O 336.948 -4.45271 7.53232 0
M  V30 3594 C 336.458 -4.74639 5.19936 0
M  V30 3595 C 337.168 -3.49432 4.70418 0
M  V30 3596 N 337.118 -3.32099 3.22613 0
M  V30 3597 H 339.957 -6.54213 5.71376 0
M  V30 3598 H 340.229 -5.30936 4.43503 0
M  V30 3599 H 339.361 -4.55889 6.76652 0
M  V30 3600 H 336.706 -2.61715 5.17932 0
M  V30 3601 H 336.426 -5.52155 4.41878 0
M  V30 3602 H 335.435 -4.51981 5.53374 0
M  V30 3603 H 337.269 -6.25124 6.55234 0
M  V30 3604 P 335.398 -4.23843 7.83734 0
M  V30 3605 O 335.178 -4.19407 9.29784 0
M  V30 3606 O 334.608 -5.24426 7.09156 0
M  V30 3607 O 335.148 -2.7935 7.20758 0
M  V30 3608 C 336.088 -1.7299 7.50419 0
M  V30 3609 C 335.358 -0.406376 7.57911 0
M  V30 3610 O 335.148 0.0897726 6.21935 0
M  V30 3611 C 333.958 -0.447224 8.1878 0
M  V30 3612 O 333.568 0.825065 8.71101 0
M  V30 3613 C 333.078 -0.783801 6.99623 0
M  V30 3614 C 333.788 -0.0619192 5.85967 0
M  V30 3615 N 333.738 -0.790462 4.56202 0
M  V30 3616 H 336.577 -1.93423 8.4679 0
M  V30 3617 H 336.849 -1.68852 6.70877 0
M  V30 3618 H 335.981 0.289041 8.15388 0
M  V30 3619 H 333.326 0.927006 5.72848 0
M  V30 3620 H 333.046 -1.86973 6.82036 0
M  V30 3621 H 332.055 -0.403953 7.13357 0
M  V30 3622 H 333.889 -1.20599 8.97534 0
M  V30 3623 P 332.018 1.17771 8.83182 0
M  V30 3624 O 331.798 2.07206 9.98732 0
M  V30 3625 O 331.228 -0.0743816 8.81969 0
M  V30 3626 O 331.768 1.97678 7.474 0
M  V30 3627 C 332.708 3.01133 7.08783 0
M  V30 3628 C 331.978 4.1203 6.37546 0
M  V30 3629 O 331.768 3.72887 4.9796 0
M  V30 3630 C 330.578 4.45085 6.88694 0
M  V30 3631 O 330.188 5.78836 6.56315 0
M  V30 3632 C 329.698 3.47817 6.12078 0
M  V30 3633 C 330.408 3.39414 4.77697 0
M  V30 3634 N 330.358 2.04615 4.15333 0
M  V30 3635 C 330.208 1.96929 2.77162 0
M  V30 3636 O 330.118 3.02017 2.12006 0
M  V30 3637 N 330.158 0.55485 2.24237 0
M  V30 3638 C 330.258 -0.367808 2.9169 0
M  V30 3639 N 330.208 -1.53426 2.29427 0
M  V30 3640 C 330.408 -0.319148 4.33828 0
M  V30 3641 C 330.458 0.920672 4.90433 0
M  V30 3642 H 333.198 3.41209 7.98667 0
M  V30 3643 H 333.468 2.5837 6.41742 0
M  V30 3644 H 332.601 5.02718 6.42752 0
M  V30 3645 H 329.946 4.11779 4.09026 0
M  V30 3646 H 329.666 2.49661 6.61772 0
M  V30 3647 H 328.675 3.86674 6.00946 0
M  V30 3648 H 330.509 4.29991 7.97006 0
M  V30 3649 H 330.581 1.00589 5.98303 0
M  V30 3650 H 330.479 -1.22639 4.93799 0
M  V30 3651 H 330.091 -1.56819 1.27167 0
M  V30 3652 H 330.287 -2.41062 2.83063 0
M  V30 3653 P 328.638 6.144 6.45285 0
M  V30 3654 O 328.418 7.54673 6.86199 0
M  V30 3655 O 327.848 5.12391 7.179 0
M  V30 3656 O 328.388 5.99158 4.88404 0
M  V30 3657 C 329.328 6.60234 3.96415 0
M  V30 3658 C 328.598 7.08259 2.72856 0
M  V30 3659 O 328.388 5.9427 1.83651 0
M  V30 3660 C 327.198 7.64886 2.9555 0
M  V30 3661 O 326.808 8.53963 1.90717 0
M  V30 3662 C 326.318 6.4116 2.90739 0
M  V30 3663 C 327.028 5.55375 1.86963 0
M  V30 3664 N 326.978 4.09448 2.16152 0
M  V30 3665 H 329.817 7.45574 4.45629 0
M  V30 3666 H 330.089 5.85864 3.679 0
M  V30 3667 H 329.221 7.84412 2.24479 0
M  V30 3668 H 326.566 5.73457 0.888562 0
M  V30 3669 H 326.286 5.90877 3.88583 0
M  V30 3670 H 325.295 6.6596 2.58858 0
M  V30 3671 H 327.129 8.16339 3.92049 0
M  V30 3672 P 325.258 8.7635 1.60911 0
M  V30 3673 O 325.038 10.1388 1.11561 0
M  V30 3674 O 324.468 8.36503 2.79617 0
M  V30 3675 O 325.008 7.71806 0.42951 0
M  V30 3676 C 325.948 7.67148 -0.673689 0
M  V30 3677 C 325.218 7.33374 -1.95559 0
M  V30 3678 O 325.008 5.88721 -2.00726 0
M  V30 3679 C 323.818 7.92526 -2.10483 0
M  V30 3680 O 323.428 8.02971 -3.47653 0
M  V30 3681 C 322.938 6.89602 -1.41652 0
M  V30 3682 C 323.648 5.59201 -1.75185 0
M  V30 3683 N 323.598 4.58235 -0.662552 0
M  V30 3684 H 326.437 8.65116 -0.777161 0
M  V30 3685 H 326.709 6.90173 -0.474152 0
M  V30 3686 H 325.841 7.66548 -2.79458 0
M  V30 3687 P 321.878 8.03563 -3.84925 0
M  V30 3688 O 321.658 8.85821 -5.0569 0
M  V30 3689 O 321.088 8.41101 -2.65469 0
M  V30 3690 O 321.628 6.4965 -4.18908 0
M  V30 3691 C 322.568 5.81037 -5.05421 0
M  V30 3692 C 321.838 4.78366 -5.89277 0
M  V30 3693 O 321.628 3.58302 -5.08433 0
M  V30 3694 C 320.438 5.17448 -6.36119 0
M  V30 3695 O 320.048 4.45271 -7.53232 0
M  V30 3696 C 319.558 4.74639 -5.19936 0
M  V30 3697 C 320.268 3.49432 -4.70418 0
M  V30 3698 N 320.218 3.31776 -3.22945 0
M  V30 3699 H 323.057 6.54213 -5.71376 0
M  V30 3700 H 323.329 5.30492 -4.44033 0
M  V30 3701 H 322.461 4.55889 -6.76652 0
M  V30 3702 P 318.498 4.23843 -7.83734 0
M  V30 3703 O 318.278 4.19407 -9.29784 0
M  V30 3704 O 317.708 5.24426 -7.09156 0
M  V30 3705 O 318.248 2.7935 -7.20758 0
M  V30 3706 C 319.188 1.72945 -7.50224 0
M  V30 3707 C 318.458 0.406376 -7.57911 0
M  V30 3708 O 318.248 -0.0897726 -6.21935 0
M  V30 3709 C 317.058 0.438983 -8.18724 0
M  V30 3710 O 316.668 -0.825065 -8.71101 0
M  V30 3711 C 316.178 0.783689 -6.99524 0
M  V30 3712 C 316.888 0.0619086 -5.85867 0
M  V30 3713 N 316.838 0.78573 -4.56183 0
M  V30 3714 C 316.688 0.0292889 -3.41887 0
M  V30 3715 O 316.598 -1.18445 -3.4419 0
M  V30 3716 N 316.648 0.744061 -2.23964 0
M  V30 3717 C 316.738 2.10932 -2.10362 0
M  V30 3718 C 316.888 2.8202 -3.34994 0
M  V30 3719 C 316.938 2.15547 -4.52261 0
M  V30 3720 H 319.679 1.93379 -8.46595 0
M  V30 3721 H 319.948 1.68132 -6.70852 0
M  V30 3722 H 319.081 -0.289041 -8.15388 0
M  V30 3723 H 316.426 -0.926847 -5.72749 0
M  V30 3724 H 316.147 1.86973 -6.82036 0
M  V30 3725 H 315.155 0.403896 -7.13257 0
M  V30 3726 H 316.989 1.20585 -8.97435 0
M  V30 3727 H 317.06 2.71231 -5.45042 0
M  V30 3728 P 315.118 -1.17771 -8.83182 0
M  V30 3729 O 314.898 -2.07206 -9.98732 0
M  V30 3730 O 314.328 0.0743816 -8.81969 0
M  V30 3731 O 314.868 -1.97652 -7.47304 0
M  V30 3732 C 315.808 -3.01055 -7.08599 0
M  V30 3733 C 315.078 -4.12613 -6.37049 0
M  V30 3734 O 314.868 -3.72827 -4.97879 0
M  V30 3735 C 313.678 -4.45719 -6.88164 0
M  V30 3736 O 313.288 -5.7877 -6.5624 0
M  V30 3737 C 312.798 -3.47768 -6.11991 0
M  V30 3738 C 313.508 -3.39356 -4.77615 0
M  V30 3739 N 313.458 -2.04571 -4.15244 0
M  V30 3740 C 313.308 -1.98587 -2.78314 0
M  V30 3741 O 313.218 -2.98134 -2.08835 0
M  V30 3742 N 313.268 -0.714467 -2.24925 0
M  V30 3743 C 313.358 0.470001 -2.94169 0
M  V30 3744 C 313.508 0.312541 -4.36783 0
M  V30 3745 C 313.558 -0.914512 -4.92583 0
M  V30 3746 H 316.299 -3.41169 -7.98575 0
M  V30 3747 H 316.568 -2.58295 -6.41556 0
M  V30 3748 H 315.701 -5.02657 -6.42673 0
M  V30 3749 H 313.046 -4.11637 -4.08885 0
M  V30 3750 H 312.767 -2.49626 -6.61679 0
M  V30 3751 H 311.775 -3.86566 -6.00778 0
M  V30 3752 H 313.609 -4.29943 -7.96918 0
M  V30 3753 H 313.68 -1.00937 -6.00374 0
M  V30 3754 P 311.738 -6.144 -6.45285 0
M  V30 3755 O 311.518 -7.54673 -6.86199 0
M  V30 3756 O 310.948 -5.12391 -7.179 0
M  V30 3757 O 311.488 -5.99158 -4.88404 0
M  V30 3758 C 312.428 -6.60234 -3.96415 0
M  V30 3759 C 311.698 -7.08259 -2.72856 0
M  V30 3760 O 311.488 -5.9427 -1.83651 0
M  V30 3761 C 310.298 -7.64886 -2.9555 0
M  V30 3762 O 309.908 -8.53963 -1.90717 0
M  V30 3763 C 309.418 -6.4116 -2.90739 0
M  V30 3764 C 310.128 -5.55375 -1.86963 0
M  V30 3765 N 310.078 -4.09664 -2.15742 0
M  V30 3766 C 310.158 -3.44381 -3.37233 0
M  V30 3767 N 310.078 -2.14131 -3.28347 0
M  V30 3768 C 309.938 -1.90247 -1.91588 0
M  V30 3769 C 309.808 -0.683992 -1.20892 0
M  V30 3770 N 309.688 -0.903396 0.173998 0
M  V30 3771 C 309.688 -2.14171 0.784879 0
M  V30 3772 N 309.558 -2.1435 2.11317 0
M  V30 3773 N 309.818 -3.28784 0.119316 0
M  V30 3774 C 309.938 -3.0977 -1.22194 0
M  V30 3775 H 312.917 -7.45574 -4.45629 0
M  V30 3776 H 313.189 -5.86232 -3.67314 0
M  V30 3777 H 312.321 -7.84412 -2.24479 0
M  V30 3778 P 308.358 -8.7635 -1.60911 0
M  V30 3779 O 308.138 -10.1388 -1.11561 0
M  V30 3780 O 307.568 -8.36503 -2.79617 0
M  V30 3781 O 308.108 -7.71806 -0.42951 0
M  V30 3782 C 309.048 -7.66948 0.673514 0
M  V30 3783 C 308.318 -7.33374 1.95559 0
M  V30 3784 O 308.108 -5.88721 2.00726 0
M  V30 3785 C 306.918 -7.92218 2.1125 0
M  V30 3786 O 306.528 -8.02971 3.47653 0
M  V30 3787 C 306.038 -6.89504 1.41631 0
M  V30 3788 C 306.748 -5.59106 1.75155 0
M  V30 3789 N 306.698 -4.58136 0.662409 0
M  V30 3790 C 306.548 -3.26059 1.02863 0
M  V30 3791 O 306.458 -2.90743 2.19009 0
M  V30 3792 N 306.508 -2.35995 -0.0155585 0
M  V30 3793 C 306.598 -2.65248 -1.35603 0
M  V30 3794 O 306.548 -1.75605 -2.20651 0
M  V30 3795 C 306.748 -4.05747 -1.64698 0
M  V30 3796 C 306.858 -4.42345 -3.09553 0
M  V30 3797 C 306.798 -4.96734 -0.652411 0
M  V30 3798 H 309.539 -8.64917 0.776982 0
M  V30 3799 H 309.808 -6.89974 0.474015 0
M  V30 3800 H 308.941 -7.66548 2.79458 0
M  V30 3801 H 306.286 -5.16076 2.65138 0
M  V30 3802 H 306.007 -7.06433 0.329384 0
M  V30 3803 H 305.015 -6.90829 1.81996 0
M  V30 3804 H 306.849 -8.90774 1.62639 0
M  V30 3805 H 306.92 -6.02181 -0.895285 0
M  V30 3806 H 305.89 -4.80252 -3.45468 0
M  V30 3807 H 307.627 -5.20015 -3.22119 0
M  V30 3808 H 307.139 -3.53269 -3.67833 0
M  V30 3809 H 306.403 -1.39558 0.227499 0
M  V30 3810 P 304.978 -8.03563 3.84925 0
M  V30 3811 O 304.758 -8.85821 5.0569 0
M  V30 3812 O 304.188 -8.41101 2.65469 0
M  V30 3813 O 304.728 -6.4965 4.18908 0
M  V30 3814 C 305.668 -5.81037 5.05421 0
M  V30 3815 C 304.938 -4.78366 5.89277 0
M  V30 3816 O 304.728 -3.58302 5.08433 0
M  V30 3817 C 303.538 -5.17448 6.36119 0
M  V30 3818 O 303.148 -4.45271 7.53232 0
M  V30 3819 C 302.658 -4.74639 5.19936 0
M  V30 3820 C 303.368 -3.49432 4.70418 0
M  V30 3821 N 303.318 -3.31776 3.22945 0
M  V30 3822 H 306.157 -6.54213 5.71376 0
M  V30 3823 H 306.429 -5.30492 4.44033 0
M  V30 3824 H 305.561 -4.55889 6.76652 0
M  V30 3825 P 301.598 -4.23843 7.83734 0
M  V30 3826 O 301.378 -4.19407 9.29784 0
M  V30 3827 O 300.808 -5.24426 7.09156 0
M  V30 3828 O 301.348 -2.7935 7.20758 0
M  V30 3829 C 302.288 -1.7299 7.50419 0
M  V30 3830 C 301.558 -0.406376 7.57911 0
M  V30 3831 O 301.348 0.0897726 6.21935 0
M  V30 3832 C 300.158 -0.447224 8.1878 0
M  V30 3833 O 299.768 0.825065 8.71101 0
M  V30 3834 C 299.278 -0.783801 6.99623 0
M  V30 3835 C 299.988 -0.0619192 5.85967 0
M  V30 3836 N 299.938 -0.7859 4.56281 0
M  V30 3837 H 302.777 -1.93423 8.4679 0
M  V30 3838 H 303.049 -1.68181 6.71046 0
M  V30 3839 H 302.181 0.289041 8.15388 0
M  V30 3840 P 298.218 1.17771 8.83182 0
M  V30 3841 O 297.998 2.07206 9.98732 0
M  V30 3842 O 297.428 -0.0743816 8.81969 0
M  V30 3843 O 297.968 1.97652 7.47304 0
M  V30 3844 C 298.908 3.01055 7.08599 0
M  V30 3845 C 298.178 4.12613 6.37049 0
M  V30 3846 O 297.968 3.72827 4.97879 0
M  V30 3847 C 296.778 4.45719 6.88164 0
M  V30 3848 O 296.388 5.7877 6.5624 0
M  V30 3849 C 295.898 3.47768 6.11991 0
M  V30 3850 C 296.608 3.39356 4.77615 0
M  V30 3851 N 296.558 2.04571 4.15244 0
M  V30 3852 C 296.408 1.98587 2.78314 0
M  V30 3853 O 296.318 2.98134 2.08835 0
M  V30 3854 N 296.368 0.714467 2.24925 0
M  V30 3855 C 296.458 -0.470001 2.94169 0
M  V30 3856 O 296.408 -1.55587 2.35195 0
M  V30 3857 C 296.608 -0.312541 4.36783 0
M  V30 3858 C 296.718 -1.57711 5.16352 0
M  V30 3859 C 296.658 0.914512 4.92583 0
M  V30 3860 H 299.399 3.41169 7.98575 0
M  V30 3861 H 299.668 2.58295 6.41556 0
M  V30 3862 H 298.801 5.02657 6.42673 0
M  V30 3863 H 296.146 4.11637 4.08885 0
M  V30 3864 H 295.867 2.49626 6.61679 0
M  V30 3865 H 294.875 3.86566 6.00778 0
M  V30 3866 H 296.709 4.29943 7.96918 0
M  V30 3867 H 296.78 1.00937 6.00374 0
M  V30 3868 H 295.75 -1.80153 5.63503 0
M  V30 3869 H 297.487 -1.4566 5.94104 0
M  V30 3870 H 296.999 -2.40664 4.49645 0
M  V30 3871 H 296.263 0.647622 1.25697 0
M  V30 3872 P 294.838 6.144 6.45285 0
M  V30 3873 O 294.618 7.54673 6.86199 0
M  V30 3874 O 294.048 5.12391 7.179 0
M  V30 3875 O 294.588 5.99158 4.88404 0
M  V30 3876 C 295.528 6.60234 3.96415 0
M  V30 3877 C 294.798 7.08259 2.72856 0
M  V30 3878 O 294.588 5.9427 1.83651 0
M  V30 3879 C 293.398 7.64886 2.9555 0
M  V30 3880 O 293.008 8.53963 1.90717 0
M  V30 3881 C 292.518 6.4116 2.90739 0
M  V30 3882 C 293.228 5.55375 1.86963 0
M  V30 3883 N 293.178 4.09664 2.15742 0
M  V30 3884 H 296.017 7.45574 4.45629 0
M  V30 3885 H 296.289 5.86232 3.67314 0
M  V30 3886 H 295.421 7.84412 2.24479 0
M  V30 3887 P 291.458 8.7635 1.60911 0
M  V30 3888 O 291.238 10.1388 1.11561 0
M  V30 3889 O 290.668 8.36503 2.79617 0
M  V30 3890 O 291.208 7.71806 0.42951 0
M  V30 3891 C 292.148 7.67148 -0.673689 0
M  V30 3892 C 291.418 7.33374 -1.95559 0
M  V30 3893 O 291.208 5.88721 -2.00726 0
M  V30 3894 C 290.018 7.92526 -2.10483 0
M  V30 3895 O 289.628 8.02971 -3.47653 0
M  V30 3896 C 289.138 6.89602 -1.41652 0
M  V30 3897 C 289.848 5.59201 -1.75185 0
M  V30 3898 N 289.798 4.58301 -0.657969 0
M  V30 3899 H 292.637 8.65116 -0.777161 0
M  V30 3900 H 292.909 6.9022 -0.46725 0
M  V30 3901 H 292.041 7.66548 -2.79458 0
M  V30 3902 H 289.386 5.16165 -2.65183 0
M  V30 3903 H 289.106 7.06433 -0.329384 0
M  V30 3904 H 288.115 6.90926 -1.82021 0
M  V30 3905 H 289.949 8.90873 -1.62657 0
M  V30 3906 P 288.078 8.03563 -3.84925 0
M  V30 3907 O 287.858 8.85821 -5.0569 0
M  V30 3908 O 287.288 8.41101 -2.65469 0
M  V30 3909 O 287.828 6.4965 -4.18908 0
M  V30 3910 C 288.768 5.81037 -5.05421 0
M  V30 3911 C 288.038 4.78366 -5.89277 0
M  V30 3912 O 287.828 3.58302 -5.08433 0
M  V30 3913 C 286.638 5.17448 -6.36119 0
M  V30 3914 O 286.248 4.45271 -7.53232 0
M  V30 3915 C 285.758 4.74639 -5.19936 0
M  V30 3916 C 286.468 3.49432 -4.70418 0
M  V30 3917 N 286.418 3.31776 -3.22945 0
M  V30 3918 H 289.257 6.54213 -5.71376 0
M  V30 3919 H 289.529 5.30492 -4.44033 0
M  V30 3920 H 288.661 4.55889 -6.76652 0
M  V30 3921 P 284.698 4.23843 -7.83734 0
M  V30 3922 O 284.478 4.19407 -9.29784 0
M  V30 3923 O 283.908 5.24426 -7.09156 0
M  V30 3924 O 284.448 2.7935 -7.20758 0
M  V30 3925 C 285.388 1.7299 -7.50419 0
M  V30 3926 C 284.658 0.406376 -7.57911 0
M  V30 3927 O 284.448 -0.0897726 -6.21935 0
M  V30 3928 C 283.258 0.447224 -8.1878 0
M  V30 3929 O 282.868 -0.825065 -8.71101 0
M  V30 3930 C 282.378 0.783801 -6.99623 0
M  V30 3931 C 283.088 0.0619192 -5.85967 0
M  V30 3932 N 283.038 0.7859 -4.56281 0
M  V30 3933 H 285.877 1.93423 -8.4679 0
M  V30 3934 H 286.149 1.68181 -6.71046 0
M  V30 3935 H 285.281 -0.289041 -8.15388 0
M  V30 3936 P 281.318 -1.17771 -8.83182 0
M  V30 3937 O 281.098 -2.07206 -9.98732 0
M  V30 3938 O 280.528 0.0743816 -8.81969 0
M  V30 3939 O 281.068 -1.97652 -7.47304 0
M  V30 3940 C 282.008 -3.01133 -7.08783 0
M  V30 3941 C 281.278 -4.12613 -6.37049 0
M  V30 3942 O 281.068 -3.72827 -4.97879 0
M  V30 3943 C 279.878 -4.45085 -6.88694 0
M  V30 3944 O 279.488 -5.7877 -6.5624 0
M  V30 3945 C 278.998 -3.47817 -6.12078 0
M  V30 3946 C 279.708 -3.39414 -4.77697 0
M  V30 3947 N 279.658 -2.04199 -4.15538 0
M  V30 3948 C 279.738 -0.821545 -4.76977 0
M  V30 3949 N 279.668 0.1794 -3.94592 0
M  V30 3950 C 279.518 -0.419121 -2.70776 0
M  V30 3951 C 279.388 0.109072 -1.40577 0
M  V30 3952 N 279.378 1.4104 -1.1344 0
M  V30 3953 N 279.268 -0.764381 -0.39411 0
M  V30 3954 C 279.278 -2.06587 -0.664135 0
M  V30 3955 N 279.398 -2.67948 -1.82153 0
M  V30 3956 C 279.518 -1.77942 -2.8147 0
M  V30 3957 H 282.497 -3.41248 -7.98759 0
M  V30 3958 H 282.769 -2.57728 -6.42 0
M  V30 3959 H 281.901 -5.02657 -6.42673 0
M  V30 3960 H 279.246 -4.11708 -4.08956 0
M  V30 3961 H 278.966 -2.49626 -6.61679 0
M  V30 3962 H 277.975 -3.8662 -6.00862 0
M  V30 3963 H 279.809 -4.29991 -7.97006 0
M  V30 3964 H 279.85 -0.702451 -5.84696 0
M  V30 3965 H 279.469 2.09647 -1.89651 0
M  V30 3966 H 279.28 1.73358 -0.160575 0
M  V30 3967 H 279.172 -2.71695 0.195838 0
M  V30 3968 P 277.938 -6.144 -6.45285 0
M  V30 3969 O 277.718 -7.54673 -6.86199 0
M  V30 3970 O 277.148 -5.12391 -7.179 0
M  V30 3971 O 277.688 -5.99158 -4.88404 0
M  V30 3972 C 278.628 -6.60234 -3.96415 0
M  V30 3973 C 277.898 -7.08259 -2.72856 0
M  V30 3974 O 277.688 -5.9427 -1.83651 0
M  V30 3975 C 276.498 -7.64886 -2.9555 0
M  V30 3976 O 276.108 -8.53963 -1.90717 0
M  V30 3977 C 275.618 -6.4116 -2.90739 0
M  V30 3978 C 276.328 -5.55375 -1.86963 0
M  V30 3979 N 276.278 -4.09664 -2.15742 0
M  V30 3980 H 279.117 -7.45574 -4.45629 0
M  V30 3981 H 279.389 -5.86232 -3.67314 0
M  V30 3982 H 278.521 -7.84412 -2.24479 0
M  V30 3983 P 274.558 -8.7635 -1.60911 0
M  V30 3984 O 274.338 -10.1388 -1.11561 0
M  V30 3985 O 273.768 -8.36503 -2.79617 0
M  V30 3986 O 274.308 -7.71806 -0.42951 0
M  V30 3987 C 275.248 -7.67148 0.673689 0
M  V30 3988 C 274.518 -7.33374 1.95559 0
M  V30 3989 O 274.308 -5.88721 2.00726 0
M  V30 3990 C 273.118 -7.92526 2.10483 0
M  V30 3991 O 272.728 -8.02971 3.47653 0
M  V30 3992 C 272.238 -6.89602 1.41652 0
M  V30 3993 C 272.948 -5.59201 1.75185 0
M  V30 3994 N 272.898 -4.58235 0.662552 0
M  V30 3995 H 275.737 -8.65116 0.777161 0
M  V30 3996 H 276.009 -6.90173 0.474152 0
M  V30 3997 H 275.141 -7.66548 2.79458 0
M  V30 3998 P 271.178 -8.03563 3.84925 0
M  V30 3999 O 270.958 -8.85821 5.0569 0
M  V30 4000 O 270.388 -8.41101 2.65469 0
M  V30 4001 O 270.928 -6.4965 4.18908 0
M  V30 4002 C 271.868 -5.80886 5.05289 0
M  V30 4003 C 271.138 -4.78366 5.89277 0
M  V30 4004 O 270.928 -3.58302 5.08433 0
M  V30 4005 C 269.738 -5.16748 6.36559 0
M  V30 4006 O 269.348 -4.45271 7.53232 0
M  V30 4007 C 268.858 -4.74572 5.19863 0
M  V30 4008 C 269.568 -3.49373 4.70338 0
M  V30 4009 N 269.518 -3.31704 3.22876 0
M  V30 4010 C 269.368 -2.03326 2.74871 0
M  V30 4011 O 269.278 -1.06486 3.48076 0
M  V30 4012 N 269.328 -1.91838 1.37456 0
M  V30 4013 C 269.418 -2.94295 0.462035 0
M  V30 4014 C 269.568 -4.25064 1.05249 0
M  V30 4015 C 269.618 -4.40214 2.39192 0
M  V30 4016 H 272.359 -6.54063 5.71245 0
M  V30 4017 H 272.628 -5.30339 4.43905 0
M  V30 4018 H 271.761 -4.55889 6.76652 0
M  V30 4019 H 269.106 -2.6167 5.17842 0
M  V30 4020 H 268.827 -5.52155 4.41878 0
M  V30 4021 H 267.835 -4.51918 5.53297 0
M  V30 4022 H 269.669 -6.25055 6.55162 0
M  V30 4023 H 269.74 -5.39798 2.81523 0
M  V30 4024 P 267.798 -4.23843 7.83734 0
M  V30 4025 O 267.578 -4.19407 9.29784 0
M  V30 4026 O 267.008 -5.24426 7.09156 0
M  V30 4027 O 267.548 -2.7935 7.20758 0
M  V30 4028 C 268.488 -1.7299 7.50419 0
M  V30 4029 C 267.758 -0.406376 7.57911 0
M  V30 4030 O 267.548 0.0897726 6.21935 0
M  V30 4031 C 266.358 -0.447224 8.1878 0
M  V30 4032 O 265.968 0.825065 8.71101 0
M  V30 4033 C 265.478 -0.783801 6.99623 0
M  V30 4034 C 266.188 -0.0619192 5.85967 0
M  V30 4035 N 266.138 -0.7859 4.56281 0
M  V30 4036 H 268.977 -1.93423 8.4679 0
M  V30 4037 H 269.249 -1.68181 6.71046 0
M  V30 4038 H 268.381 0.289041 8.15388 0
M  V30 4039 P 264.418 1.17771 8.83182 0
M  V30 4040 O 264.198 2.07206 9.98732 0
M  V30 4041 O 263.628 -0.0743816 8.81969 0
M  V30 4042 O 264.168 1.97652 7.47304 0
M  V30 4043 C 265.108 3.01133 7.08783 0
M  V30 4044 C 264.378 4.12613 6.37049 0
M  V30 4045 O 264.168 3.72827 4.97879 0
M  V30 4046 C 262.978 4.45085 6.88694 0
M  V30 4047 O 262.588 5.7877 6.5624 0
M  V30 4048 C 262.098 3.47817 6.12078 0
M  V30 4049 C 262.808 3.39414 4.77697 0
M  V30 4050 N 262.758 2.04615 4.15333 0
M  V30 4051 H 265.597 3.41248 7.98759 0
M  V30 4052 H 265.869 2.5837 6.41742 0
M  V30 4053 H 265.001 5.02657 6.42673 0
M  V30 4054 P 261.038 6.144 6.45285 0
M  V30 4055 O 260.818 7.54673 6.86199 0
M  V30 4056 O 260.248 5.12391 7.179 0
M  V30 4057 O 260.788 5.99158 4.88404 0
M  V30 4058 C 261.728 6.60234 3.96415 0
M  V30 4059 C 260.998 7.08259 2.72856 0
M  V30 4060 O 260.788 5.9427 1.83651 0
M  V30 4061 C 259.598 7.64886 2.9555 0
M  V30 4062 O 259.208 8.53963 1.90717 0
M  V30 4063 C 258.718 6.4116 2.90739 0
M  V30 4064 C 259.428 5.55375 1.86963 0
M  V30 4065 N 259.378 4.09664 2.15742 0
M  V30 4066 H 262.217 7.45574 4.45629 0
M  V30 4067 H 262.489 5.86232 3.67314 0
M  V30 4068 H 261.621 7.84412 2.24479 0
M  V30 4069 P 257.658 8.7635 1.60911 0
M  V30 4070 O 257.438 10.1388 1.11561 0
M  V30 4071 O 256.868 8.36503 2.79617 0
M  V30 4072 O 257.408 7.71806 0.42951 0
M  V30 4073 C 258.348 7.67148 -0.673689 0
M  V30 4074 C 257.618 7.33374 -1.95559 0
M  V30 4075 O 257.408 5.88721 -2.00726 0
M  V30 4076 C 256.218 7.92526 -2.10483 0
M  V30 4077 O 255.828 8.02971 -3.47653 0
M  V30 4078 C 255.338 6.89602 -1.41652 0
M  V30 4079 C 256.048 5.59201 -1.75185 0
M  V30 4080 N 255.998 4.58235 -0.662552 0
M  V30 4081 H 258.837 8.65116 -0.777161 0
M  V30 4082 H 259.109 6.90173 -0.474152 0
M  V30 4083 H 258.241 7.66548 -2.79458 0
M  V30 4084 P 254.279 8.03563 -3.84925 0
M  V30 4085 O 254.059 8.85821 -5.0569 0
M  V30 4086 O 253.489 8.41101 -2.65469 0
M  V30 4087 O 254.029 6.4965 -4.18908 0
M  V30 4088 C 254.969 5.81037 -5.05421 0
M  V30 4089 C 254.239 4.78366 -5.89277 0
M  V30 4090 O 254.029 3.58302 -5.08433 0
M  V30 4091 C 252.839 5.17448 -6.36119 0
M  V30 4092 O 252.449 4.45271 -7.53232 0
M  V30 4093 C 251.959 4.74639 -5.19936 0
M  V30 4094 C 252.669 3.49432 -4.70418 0
M  V30 4095 N 252.619 3.31776 -3.22945 0
M  V30 4096 H 255.458 6.54213 -5.71376 0
M  V30 4097 H 255.73 5.30492 -4.44033 0
M  V30 4098 H 254.862 4.55889 -6.76652 0
M  V30 4099 P 250.899 4.23843 -7.83734 0
M  V30 4100 O 250.679 4.19407 -9.29784 0
M  V30 4101 O 250.109 5.24426 -7.09156 0
M  V30 4102 O 250.649 2.7935 -7.20758 0
M  V30 4103 C 251.589 1.7299 -7.50419 0
M  V30 4104 C 250.859 0.406376 -7.57911 0
M  V30 4105 O 250.649 -0.0897726 -6.21935 0
M  V30 4106 C 249.459 0.447224 -8.1878 0
M  V30 4107 O 249.069 -0.825065 -8.71101 0
M  V30 4108 C 248.579 0.783801 -6.99623 0
M  V30 4109 C 249.289 0.0619192 -5.85967 0
M  V30 4110 N 249.239 0.7859 -4.56281 0
M  V30 4111 H 252.078 1.93423 -8.4679 0
M  V30 4112 H 252.35 1.68181 -6.71046 0
M  V30 4113 H 251.482 -0.289041 -8.15388 0
M  V30 4114 P 247.519 -1.17771 -8.83182 0
M  V30 4115 O 247.299 -2.07206 -9.98732 0
M  V30 4116 O 246.729 0.0743816 -8.81969 0
M  V30 4117 O 247.269 -1.97652 -7.47304 0
M  V30 4118 C 248.209 -3.01133 -7.08783 0
M  V30 4119 C 247.479 -4.12613 -6.37049 0
M  V30 4120 O 247.269 -3.72827 -4.97879 0
M  V30 4121 C 246.079 -4.45085 -6.88694 0
M  V30 4122 O 245.689 -5.7877 -6.5624 0
M  V30 4123 C 245.199 -3.47817 -6.12078 0
M  V30 4124 C 245.909 -3.39414 -4.77697 0
M  V30 4125 N 245.859 -2.04615 -4.15333 0
M  V30 4126 H 248.698 -3.41248 -7.98759 0
M  V30 4127 H 248.97 -2.5837 -6.41742 0
M  V30 4128 H 248.102 -5.02657 -6.42673 0
M  V30 4129 P 244.139 -6.144 -6.45285 0
M  V30 4130 O 243.919 -7.54673 -6.86199 0
M  V30 4131 O 243.349 -5.12391 -7.179 0
M  V30 4132 O 243.889 -5.99158 -4.88404 0
M  V30 4133 C 244.829 -6.60062 -3.96313 0
M  V30 4134 C 244.099 -7.08259 -2.72856 0
M  V30 4135 O 243.889 -5.9427 -1.83651 0
M  V30 4136 C 242.699 -7.65087 -2.94749 0
M  V30 4137 O 242.309 -8.53963 -1.90717 0
M  V30 4138 C 241.819 -6.41069 -2.90698 0
M  V30 4139 C 242.529 -5.5528 -1.86931 0
M  V30 4140 N 242.479 -4.09575 -2.15696 0
M  V30 4141 C 242.329 -3.24249 -1.08435 0
M  V30 4142 O 242.239 -3.63946 0.0628747 0
M  V30 4143 N 242.289 -1.90009 -1.39973 0
M  V30 4144 C 242.379 -1.34884 -2.65614 0
M  V30 4145 O 242.329 -0.123716 -2.81728 0
M  V30 4146 C 242.529 -2.3145 -3.71736 0
M  V30 4147 C 242.639 -1.75913 -5.10438 0
M  V30 4148 C 242.579 -3.63518 -3.44754 0
M  V30 4149 H 245.32 -7.45402 -4.45526 0
M  V30 4150 H 245.589 -5.86062 -3.67208 0
M  V30 4151 H 244.722 -7.84412 -2.24479 0
M  V30 4152 H 242.067 -5.73358 -0.888409 0
M  V30 4153 H 241.788 -5.90877 -3.88583 0
M  V30 4154 H 240.796 -6.65867 -2.58821 0
M  V30 4155 H 242.63 -8.16248 -3.92006 0
M  V30 4156 H 242.701 -4.34551 -4.26383 0
M  V30 4157 H 241.671 -1.85471 -5.61775 0
M  V30 4158 H 243.408 -2.31364 -5.66257 0
M  V30 4159 H 242.92 -0.695936 -5.05229 0
M  V30 4160 H 242.184 -1.26277 -0.63625 0
M  V30 4161 P 240.759 -8.7635 -1.60911 0
M  V30 4162 O 240.539 -10.1388 -1.11561 0
M  V30 4163 O 239.969 -8.36503 -2.79617 0
M  V30 4164 O 240.509 -7.71806 -0.42951 0
M  V30 4165 C 241.449 -7.67148 0.673689 0
M  V30 4166 C 240.719 -7.33374 1.95559 0
M  V30 4167 O 240.509 -5.88721 2.00726 0
M  V30 4168 C 239.319 -7.92526 2.10483 0
M  V30 4169 O 238.929 -8.02971 3.47653 0
M  V30 4170 C 238.439 -6.89602 1.41652 0
M  V30 4171 C 239.149 -5.59201 1.75185 0
M  V30 4172 N 239.099 -4.58301 0.657969 0
M  V30 4173 H 241.938 -8.65116 0.777161 0
M  V30 4174 H 242.21 -6.9022 0.46725 0
M  V30 4175 H 241.342 -7.66548 2.79458 0
M  V30 4176 H 238.687 -5.16165 2.65183 0
M  V30 4177 H 238.407 -7.06433 0.329384 0
M  V30 4178 H 237.416 -6.90926 1.82021 0
M  V30 4179 H 239.25 -8.90873 1.62657 0
M  V30 4180 P 237.379 -8.03563 3.84925 0
M  V30 4181 O 237.159 -8.85821 5.0569 0
M  V30 4182 O 236.589 -8.41101 2.65469 0
M  V30 4183 O 237.129 -6.4965 4.18908 0
M  V30 4184 C 238.069 -5.81037 5.05421 0
M  V30 4185 C 237.339 -4.78366 5.89277 0
M  V30 4186 O 237.129 -3.58302 5.08433 0
M  V30 4187 C 235.939 -5.17448 6.36119 0
M  V30 4188 O 235.549 -4.45271 7.53232 0
M  V30 4189 C 235.059 -4.74639 5.19936 0
M  V30 4190 C 235.769 -3.49432 4.70418 0
M  V30 4191 N 235.719 -3.31776 3.22945 0
M  V30 4192 H 238.558 -6.54213 5.71376 0
M  V30 4193 H 238.83 -5.30492 4.44033 0
M  V30 4194 H 237.962 -4.55889 6.76652 0
M  V30 4195 P 233.999 -4.23843 7.83734 0
M  V30 4196 O 233.779 -4.19407 9.29784 0
M  V30 4197 O 233.209 -5.24426 7.09156 0
M  V30 4198 O 233.749 -2.7935 7.20758 0
M  V30 4199 C 234.689 -1.7299 7.50419 0
M  V30 4200 C 233.959 -0.406376 7.57911 0
M  V30 4201 O 233.749 0.0897726 6.21935 0
M  V30 4202 C 232.559 -0.447224 8.1878 0
M  V30 4203 O 232.169 0.825065 8.71101 0
M  V30 4204 C 231.679 -0.783801 6.99623 0
M  V30 4205 C 232.389 -0.0619192 5.85967 0
M  V30 4206 N 232.339 -0.7859 4.56281 0
M  V30 4207 H 235.178 -1.93423 8.4679 0
M  V30 4208 H 235.45 -1.68181 6.71046 0
M  V30 4209 H 234.582 0.289041 8.15388 0
M  V30 4210 P 230.619 1.17771 8.83182 0
M  V30 4211 O 230.399 2.07206 9.98732 0
M  V30 4212 O 229.829 -0.0743816 8.81969 0
M  V30 4213 O 230.369 1.97652 7.47304 0
M  V30 4214 C 231.309 3.01133 7.08783 0
M  V30 4215 C 230.579 4.12613 6.37049 0
M  V30 4216 O 230.369 3.72827 4.97879 0
M  V30 4217 C 229.179 4.45085 6.88694 0
M  V30 4218 O 228.789 5.7877 6.5624 0
M  V30 4219 C 228.299 3.47817 6.12078 0
M  V30 4220 C 229.009 3.39414 4.77697 0
M  V30 4221 N 228.959 2.04199 4.15538 0
M  V30 4222 H 231.798 3.41248 7.98759 0
M  V30 4223 H 232.07 2.57728 6.42 0
M  V30 4224 H 231.202 5.02657 6.42673 0
M  V30 4225 H 228.547 4.11708 4.08956 0
M  V30 4226 H 228.267 2.49626 6.61679 0
M  V30 4227 H 227.276 3.8662 6.00862 0
M  V30 4228 H 229.11 4.29991 7.97006 0
M  V30 4229 P 227.239 6.144 6.45285 0
M  V30 4230 O 227.019 7.54673 6.86199 0
M  V30 4231 O 226.449 5.12391 7.179 0
M  V30 4232 O 226.989 5.99158 4.88404 0
M  V30 4233 C 227.929 6.60234 3.96415 0
M  V30 4234 C 227.199 7.08259 2.72856 0
M  V30 4235 O 226.989 5.9427 1.83651 0
M  V30 4236 C 225.799 7.64886 2.9555 0
M  V30 4237 O 225.409 8.53963 1.90717 0
M  V30 4238 C 224.919 6.4116 2.90739 0
M  V30 4239 C 225.629 5.55375 1.86963 0
M  V30 4240 N 225.579 4.09448 2.16152 0
M  V30 4241 H 228.418 7.45574 4.45629 0
M  V30 4242 H 228.69 5.85864 3.679 0
M  V30 4243 H 227.822 7.84412 2.24479 0
M  V30 4244 H 225.167 5.73457 0.888562 0
M  V30 4245 H 224.887 5.90877 3.88583 0
M  V30 4246 H 223.896 6.6596 2.58858 0
M  V30 4247 H 225.73 8.16339 3.92049 0
M  V30 4248 P 223.859 8.7635 1.60911 0
M  V30 4249 O 223.639 10.1388 1.11561 0
M  V30 4250 O 223.069 8.36503 2.79617 0
M  V30 4251 O 223.609 7.71806 0.42951 0
M  V30 4252 C 224.549 7.66948 -0.673514 0
M  V30 4253 C 223.819 7.33374 -1.95559 0
M  V30 4254 O 223.609 5.88721 -2.00726 0
M  V30 4255 C 222.419 7.92218 -2.1125 0
M  V30 4256 O 222.029 8.02971 -3.47653 0
M  V30 4257 C 221.539 6.89504 -1.41631 0
M  V30 4258 C 222.249 5.59106 -1.75155 0
M  V30 4259 N 222.199 4.58136 -0.662409 0
M  V30 4260 C 222.049 3.26059 -1.02863 0
M  V30 4261 O 221.959 2.90743 -2.19009 0
M  V30 4262 N 222.009 2.35995 0.0155585 0
M  V30 4263 C 222.099 2.65248 1.35603 0
M  V30 4264 O 222.049 1.75605 2.20651 0
M  V30 4265 C 222.249 4.05747 1.64698 0
M  V30 4266 C 222.359 4.42345 3.09553 0
M  V30 4267 C 222.299 4.96734 0.652411 0
M  V30 4268 H 225.04 8.64917 -0.776982 0
M  V30 4269 H 225.309 6.89974 -0.474015 0
M  V30 4270 H 224.442 7.66548 -2.79458 0
M  V30 4271 H 221.787 5.16076 -2.65138 0
M  V30 4272 H 221.508 7.06433 -0.329384 0
M  V30 4273 H 220.516 6.90829 -1.81996 0
M  V30 4274 H 222.35 8.90774 -1.62639 0
M  V30 4275 H 222.421 6.02181 0.895285 0
M  V30 4276 H 221.391 4.80252 3.45468 0
M  V30 4277 H 223.128 5.20015 3.22119 0
M  V30 4278 H 222.64 3.53269 3.67833 0
M  V30 4279 H 221.904 1.39558 -0.227499 0
M  V30 4280 P 220.479 8.03563 -3.84925 0
M  V30 4281 O 220.259 8.85821 -5.0569 0
M  V30 4282 O 219.689 8.41101 -2.65469 0
M  V30 4283 O 220.229 6.4965 -4.18908 0
M  V30 4284 C 221.169 5.81037 -5.05421 0
M  V30 4285 C 220.439 4.78366 -5.89277 0
M  V30 4286 O 220.229 3.58302 -5.08433 0
M  V30 4287 C 219.039 5.17448 -6.36119 0
M  V30 4288 O 218.649 4.45271 -7.53232 0
M  V30 4289 C 218.159 4.74639 -5.19936 0
M  V30 4290 C 218.869 3.49432 -4.70418 0
M  V30 4291 N 218.819 3.31776 -3.22945 0
M  V30 4292 H 221.658 6.54213 -5.71376 0
M  V30 4293 H 221.93 5.30492 -4.44033 0
M  V30 4294 H 221.062 4.55889 -6.76652 0
M  V30 4295 P 217.099 4.23843 -7.83734 0
M  V30 4296 O 216.879 4.19407 -9.29784 0
M  V30 4297 O 216.309 5.24426 -7.09156 0
M  V30 4298 O 216.849 2.7935 -7.20758 0
M  V30 4299 C 217.789 1.7299 -7.50419 0
M  V30 4300 C 217.059 0.406376 -7.57911 0
M  V30 4301 O 216.849 -0.0897726 -6.21935 0
M  V30 4302 C 215.659 0.447224 -8.1878 0
M  V30 4303 O 215.269 -0.825065 -8.71101 0
M  V30 4304 C 214.779 0.783801 -6.99623 0
M  V30 4305 C 215.489 0.0619192 -5.85967 0
M  V30 4306 N 215.439 0.7859 -4.56281 0
M  V30 4307 H 218.278 1.93423 -8.4679 0
M  V30 4308 H 218.55 1.68181 -6.71046 0
M  V30 4309 H 217.682 -0.289041 -8.15388 0
M  V30 4310 P 213.719 -1.17771 -8.83182 0
M  V30 4311 O 213.499 -2.07206 -9.98732 0
M  V30 4312 O 212.929 0.0743816 -8.81969 0
M  V30 4313 O 213.469 -1.97652 -7.47304 0
M  V30 4314 C 214.409 -3.01133 -7.08783 0
M  V30 4315 C 213.679 -4.12613 -6.37049 0
M  V30 4316 O 213.469 -3.72827 -4.97879 0
M  V30 4317 C 212.279 -4.45085 -6.88694 0
M  V30 4318 O 211.889 -5.7877 -6.5624 0
M  V30 4319 C 211.399 -3.47817 -6.12078 0
M  V30 4320 C 212.109 -3.39414 -4.77697 0
M  V30 4321 N 212.059 -2.04199 -4.15538 0
M  V30 4322 C 212.139 -0.821545 -4.76977 0
M  V30 4323 N 212.069 0.1794 -3.94592 0
M  V30 4324 C 211.919 -0.419121 -2.70776 0
M  V30 4325 C 211.789 0.109072 -1.40577 0
M  V30 4326 N 211.779 1.4104 -1.1344 0
M  V30 4327 N 211.669 -0.764381 -0.39411 0
M  V30 4328 C 211.679 -2.06587 -0.664135 0
M  V30 4329 N 211.799 -2.67948 -1.82153 0
M  V30 4330 C 211.919 -1.77942 -2.8147 0
M  V30 4331 H 214.898 -3.41248 -7.98759 0
M  V30 4332 H 215.17 -2.57728 -6.42 0
M  V30 4333 H 214.302 -5.02657 -6.42673 0
M  V30 4334 H 211.647 -4.11708 -4.08956 0
M  V30 4335 H 211.367 -2.49626 -6.61679 0
M  V30 4336 H 210.376 -3.8662 -6.00862 0
M  V30 4337 H 212.21 -4.29991 -7.97006 0
M  V30 4338 H 212.251 -0.702451 -5.84696 0
M  V30 4339 H 211.87 2.09647 -1.89651 0
M  V30 4340 H 211.681 1.73358 -0.160575 0
M  V30 4341 H 211.573 -2.71695 0.195838 0
M  V30 4342 P 210.339 -6.144 -6.45285 0
M  V30 4343 O 210.119 -7.54673 -6.86199 0
M  V30 4344 O 209.549 -5.12391 -7.179 0
M  V30 4345 O 210.089 -5.99158 -4.88404 0
M  V30 4346 C 211.029 -6.60234 -3.96415 0
M  V30 4347 C 210.299 -7.08259 -2.72856 0
M  V30 4348 O 210.089 -5.9427 -1.83651 0
M  V30 4349 C 208.899 -7.64886 -2.9555 0
M  V30 4350 O 208.509 -8.53963 -1.90717 0
M  V30 4351 C 208.019 -6.4116 -2.90739 0
M  V30 4352 C 208.729 -5.55375 -1.86963 0
M  V30 4353 N 208.679 -4.09448 -2.16152 0
M  V30 4354 H 211.518 -7.45574 -4.45629 0
M  V30 4355 H 211.79 -5.85864 -3.679 0
M  V30 4356 H 210.922 -7.84412 -2.24479 0
M  V30 4357 H 208.267 -5.73457 -0.888562 0
M  V30 4358 H 207.987 -5.90877 -3.88583 0
M  V30 4359 H 206.996 -6.6596 -2.58858 0
M  V30 4360 H 208.83 -8.16339 -3.92049 0
M  V30 4361 P 206.959 -8.7635 -1.60911 0
M  V30 4362 O 206.739 -10.1388 -1.11561 0
M  V30 4363 O 206.169 -8.36503 -2.79617 0
M  V30 4364 O 206.709 -7.71806 -0.42951 0
M  V30 4365 C 207.649 -7.66948 0.673514 0
M  V30 4366 C 206.919 -7.33374 1.95559 0
M  V30 4367 O 206.709 -5.88721 2.00726 0
M  V30 4368 C 205.519 -7.92218 2.1125 0
M  V30 4369 O 205.129 -8.02971 3.47653 0
M  V30 4370 C 204.639 -6.89504 1.41631 0
M  V30 4371 C 205.349 -5.59106 1.75155 0
M  V30 4372 N 205.299 -4.58136 0.662409 0
M  V30 4373 C 205.149 -3.26059 1.02863 0
M  V30 4374 O 205.059 -2.90743 2.19009 0
M  V30 4375 N 205.109 -2.35995 -0.0155585 0
M  V30 4376 C 205.199 -2.65248 -1.35603 0
M  V30 4377 C 205.349 -4.05747 -1.64698 0
M  V30 4378 C 205.399 -4.96734 -0.652411 0
M  V30 4379 H 208.14 -8.64917 0.776982 0
M  V30 4380 H 208.409 -6.89974 0.474015 0
M  V30 4381 H 207.542 -7.66548 2.79458 0
M  V30 4382 H 204.887 -5.16076 2.65138 0
M  V30 4383 H 204.608 -7.06433 0.329384 0
M  V30 4384 H 203.616 -6.90829 1.81996 0
M  V30 4385 H 205.45 -8.90774 1.62639 0
M  V30 4386 H 205.521 -6.02181 -0.895285 0
M  V30 4387 P 203.579 -8.03563 3.84925 0
M  V30 4388 O 203.359 -8.85821 5.0569 0
M  V30 4389 O 202.789 -8.41101 2.65469 0
M  V30 4390 O 203.329 -6.4965 4.18908 0
M  V30 4391 C 204.269 -5.81037 5.05421 0
M  V30 4392 C 203.539 -4.78366 5.89277 0
M  V30 4393 O 203.329 -3.58302 5.08433 0
M  V30 4394 C 202.139 -5.17448 6.36119 0
M  V30 4395 O 201.749 -4.45271 7.53232 0
M  V30 4396 C 201.259 -4.74639 5.19936 0
M  V30 4397 C 201.969 -3.49432 4.70418 0
M  V30 4398 N 201.919 -3.32099 3.22613 0
M  V30 4399 H 204.758 -6.54213 5.71376 0
M  V30 4400 H 205.03 -5.30936 4.43503 0
M  V30 4401 H 204.162 -4.55889 6.76652 0
M  V30 4402 H 201.507 -2.61715 5.17932 0
M  V30 4403 H 201.227 -5.52155 4.41878 0
M  V30 4404 H 200.236 -4.51981 5.53374 0
M  V30 4405 H 202.07 -6.25124 6.55234 0
M  V30 4406 P 200.199 -4.23843 7.83734 0
M  V30 4407 O 199.979 -4.19407 9.29784 0
M  V30 4408 O 199.409 -5.24426 7.09156 0
M  V30 4409 O 199.949 -2.79386 7.20852 0
M  V30 4410 C 200.889 -1.7299 7.50419 0
M  V30 4411 C 200.159 -0.41401 7.5797 0
M  V30 4412 O 199.949 0.089787 6.22035 0
M  V30 4413 C 198.759 -0.447224 8.1878 0
M  V30 4414 O 198.369 0.825159 8.71201 0
M  V30 4415 C 197.879 -0.783801 6.99623 0
M  V30 4416 C 198.589 -0.0619192 5.85967 0
M  V30 4417 N 198.539 -0.7859 4.56281 0
M  V30 4418 C 198.389 -0.0359258 3.39981 0
M  V30 4419 O 198.299 1.19723 3.49038 0
M  V30 4420 N 198.339 -0.869151 2.14025 0
M  V30 4421 C 198.439 -2.01207 2.14363 0
M  V30 4422 N 198.389 -2.58978 0.954287 0
M  V30 4423 C 198.589 -2.80817 3.32215 0
M  V30 4424 C 198.639 -2.13785 4.50884 0
M  V30 4425 H 201.379 -1.93401 8.46693 0
M  V30 4426 H 201.649 -1.68181 6.71046 0
M  V30 4427 H 200.782 0.289076 8.15488 0
M  V30 4428 H 198.127 0.927166 5.72947 0
M  V30 4429 H 197.847 -1.87 6.82132 0
M  V30 4430 H 196.856 -0.404009 7.13457 0
M  V30 4431 H 198.69 -1.20599 8.97534 0
M  V30 4432 H 198.762 -2.70295 5.43162 0
M  V30 4433 H 198.66 -3.89465 3.27406 0
M  V30 4434 H 198.272 -2.01616 0.107046 0
M  V30 4435 H 198.468 -3.61403 0.873101 0
M  V30 4436 P 196.819 1.17771 8.83182 0
M  V30 4437 O 196.599 2.07206 9.98732 0
M  V30 4438 O 196.029 -0.0743816 8.81969 0
M  V30 4439 O 196.569 1.97652 7.47304 0
M  V30 4440 C 197.509 3.01133 7.08783 0
M  V30 4441 C 196.779 4.12613 6.37049 0
M  V30 4442 O 196.569 3.72827 4.97879 0
M  V30 4443 C 195.379 4.45085 6.88694 0
M  V30 4444 O 194.989 5.7877 6.5624 0
M  V30 4445 C 194.499 3.47817 6.12078 0
M  V30 4446 C 195.209 3.39414 4.77697 0
M  V30 4447 N 195.159 2.04199 4.15538 0
M  V30 4448 H 197.998 3.41248 7.98759 0
M  V30 4449 H 198.27 2.57728 6.42 0
M  V30 4450 H 197.402 5.02657 6.42673 0
M  V30 4451 H 194.747 4.11708 4.08956 0
M  V30 4452 H 194.467 2.49626 6.61679 0
M  V30 4453 H 193.476 3.8662 6.00862 0
M  V30 4454 H 195.31 4.29991 7.97006 0
M  V30 4455 P 193.439 6.144 6.45285 0
M  V30 4456 O 193.219 7.54673 6.86199 0
M  V30 4457 O 192.649 5.12391 7.179 0
M  V30 4458 O 193.189 5.99158 4.88404 0
M  V30 4459 C 194.129 6.60234 3.96415 0
M  V30 4460 C 193.399 7.08259 2.72856 0
M  V30 4461 O 193.189 5.9427 1.83651 0
M  V30 4462 C 191.999 7.64886 2.9555 0
M  V30 4463 O 191.609 8.53963 1.90717 0
M  V30 4464 C 191.119 6.4116 2.90739 0
M  V30 4465 C 191.829 5.55375 1.86963 0
M  V30 4466 N 191.779 4.09664 2.15742 0
M  V30 4467 H 194.618 7.45574 4.45629 0
M  V30 4468 H 194.89 5.86232 3.67314 0
M  V30 4469 H 194.022 7.84412 2.24479 0
M  V30 4470 P 190.059 8.7635 1.60911 0
M  V30 4471 O 189.839 10.1388 1.11561 0
M  V30 4472 O 189.269 8.36503 2.79617 0
M  V30 4473 O 189.809 7.71806 0.42951 0
M  V30 4474 C 190.749 7.66948 -0.673514 0
M  V30 4475 C 190.019 7.33374 -1.95559 0
M  V30 4476 O 189.809 5.88721 -2.00726 0
M  V30 4477 C 188.619 7.92218 -2.1125 0
M  V30 4478 O 188.229 8.02971 -3.47653 0
M  V30 4479 C 187.739 6.89504 -1.41631 0
M  V30 4480 C 188.449 5.59106 -1.75155 0
M  V30 4481 N 188.399 4.58136 -0.662409 0
M  V30 4482 C 188.249 3.26059 -1.02863 0
M  V30 4483 O 188.159 2.90743 -2.19009 0
M  V30 4484 N 188.209 2.35995 0.0155585 0
M  V30 4485 C 188.299 2.65248 1.35603 0
M  V30 4486 O 188.249 1.75605 2.20651 0
M  V30 4487 C 188.449 4.05747 1.64698 0
M  V30 4488 C 188.559 4.42345 3.09553 0
M  V30 4489 C 188.499 4.96734 0.652411 0
M  V30 4490 H 191.24 8.64917 -0.776982 0
M  V30 4491 H 191.509 6.89974 -0.474015 0
M  V30 4492 H 190.642 7.66548 -2.79458 0
M  V30 4493 H 187.987 5.16076 -2.65138 0
M  V30 4494 H 187.708 7.06433 -0.329384 0
M  V30 4495 H 186.716 6.90829 -1.81996 0
M  V30 4496 H 188.55 8.90774 -1.62639 0
M  V30 4497 H 188.621 6.02181 0.895285 0
M  V30 4498 H 187.591 4.80252 3.45468 0
M  V30 4499 H 189.328 5.20015 3.22119 0
M  V30 4500 H 188.84 3.53269 3.67833 0
M  V30 4501 H 188.104 1.39558 -0.227499 0
M  V30 4502 P 186.679 8.03563 -3.84925 0
M  V30 4503 O 186.459 8.85821 -5.0569 0
M  V30 4504 O 185.889 8.41101 -2.65469 0
M  V30 4505 O 186.429 6.4965 -4.18908 0
M  V30 4506 C 187.369 5.81037 -5.05421 0
M  V30 4507 C 186.639 4.78366 -5.89277 0
M  V30 4508 O 186.429 3.58302 -5.08433 0
M  V30 4509 C 185.239 5.17448 -6.36119 0
M  V30 4510 O 184.849 4.45271 -7.53232 0
M  V30 4511 C 184.359 4.74639 -5.19936 0
M  V30 4512 C 185.069 3.49432 -4.70418 0
M  V30 4513 N 185.019 3.31776 -3.22945 0
M  V30 4514 H 187.858 6.54213 -5.71376 0
M  V30 4515 H 188.13 5.30492 -4.44033 0
M  V30 4516 H 187.262 4.55889 -6.76652 0
M  V30 4517 P 183.299 4.23843 -7.83734 0
M  V30 4518 O 183.079 4.19407 -9.29784 0
M  V30 4519 O 182.509 5.24426 -7.09156 0
M  V30 4520 O 183.049 2.7935 -7.20758 0
M  V30 4521 C 183.989 1.7299 -7.50419 0
M  V30 4522 C 183.259 0.406376 -7.57911 0
M  V30 4523 O 183.049 -0.0897726 -6.21935 0
M  V30 4524 C 181.859 0.447224 -8.1878 0
M  V30 4525 O 181.469 -0.825065 -8.71101 0
M  V30 4526 C 180.979 0.783801 -6.99623 0
M  V30 4527 C 181.689 0.0619192 -5.85967 0
M  V30 4528 N 181.639 0.7859 -4.56281 0
M  V30 4529 H 184.478 1.93423 -8.4679 0
M  V30 4530 H 184.75 1.68181 -6.71046 0
M  V30 4531 H 183.882 -0.289041 -8.15388 0
M  V30 4532 P 179.919 -1.17771 -8.83182 0
M  V30 4533 O 179.699 -2.07206 -9.98732 0
M  V30 4534 O 179.129 0.0743816 -8.81969 0
M  V30 4535 O 179.669 -1.97652 -7.47304 0
M  V30 4536 C 180.609 -3.01133 -7.08783 0
M  V30 4537 C 179.879 -4.12613 -6.37049 0
M  V30 4538 O 179.669 -3.72827 -4.97879 0
M  V30 4539 C 178.479 -4.45085 -6.88694 0
M  V30 4540 O 178.089 -5.7877 -6.5624 0
M  V30 4541 C 177.599 -3.47817 -6.12078 0
M  V30 4542 C 178.309 -3.39414 -4.77697 0
M  V30 4543 N 178.259 -2.04615 -4.15333 0
M  V30 4544 H 181.098 -3.41248 -7.98759 0
M  V30 4545 H 181.37 -2.5837 -6.41742 0
M  V30 4546 H 180.502 -5.02657 -6.42673 0
M  V30 4547 P 176.539 -6.144 -6.45285 0
M  V30 4548 O 176.319 -7.54673 -6.86199 0
M  V30 4549 O 175.749 -5.12391 -7.179 0
M  V30 4550 O 176.289 -5.99158 -4.88404 0
M  V30 4551 C 177.229 -6.60062 -3.96313 0
M  V30 4552 C 176.499 -7.08259 -2.72856 0
M  V30 4553 O 176.289 -5.9427 -1.83651 0
M  V30 4554 C 175.099 -7.65087 -2.94749 0
M  V30 4555 O 174.709 -8.53963 -1.90717 0
M  V30 4556 C 174.219 -6.41069 -2.90698 0
M  V30 4557 C 174.929 -5.5528 -1.86931 0
M  V30 4558 N 174.879 -4.09575 -2.15696 0
M  V30 4559 C 174.729 -3.24249 -1.08435 0
M  V30 4560 O 174.639 -3.63946 0.0628747 0
M  V30 4561 N 174.689 -1.90009 -1.39973 0
M  V30 4562 C 174.779 -1.34884 -2.65614 0
M  V30 4563 O 174.729 -0.123716 -2.81728 0
M  V30 4564 C 174.929 -2.3145 -3.71736 0
M  V30 4565 C 175.039 -1.75913 -5.10438 0
M  V30 4566 C 174.979 -3.63518 -3.44754 0
M  V30 4567 H 177.72 -7.45402 -4.45526 0
M  V30 4568 H 177.989 -5.86062 -3.67208 0
M  V30 4569 H 177.122 -7.84412 -2.24479 0
M  V30 4570 H 174.467 -5.73358 -0.888409 0
M  V30 4571 H 174.188 -5.90877 -3.88583 0
M  V30 4572 H 173.196 -6.65867 -2.58821 0
M  V30 4573 H 175.03 -8.16248 -3.92006 0
M  V30 4574 H 175.101 -4.34551 -4.26383 0
M  V30 4575 H 174.071 -1.85471 -5.61775 0
M  V30 4576 H 175.808 -2.31364 -5.66257 0
M  V30 4577 H 175.32 -0.695936 -5.05229 0
M  V30 4578 H 174.584 -1.26277 -0.63625 0
M  V30 4579 P 173.159 -8.7635 -1.60911 0
M  V30 4580 O 172.939 -10.1388 -1.11561 0
M  V30 4581 O 172.369 -8.36503 -2.79617 0
M  V30 4582 O 172.909 -7.71806 -0.42951 0
M  V30 4583 C 173.849 -7.67148 0.673689 0
M  V30 4584 C 173.119 -7.33374 1.95559 0
M  V30 4585 O 172.909 -5.88721 2.00726 0
M  V30 4586 C 171.719 -7.92526 2.10483 0
M  V30 4587 O 171.329 -8.02971 3.47653 0
M  V30 4588 C 170.839 -6.89602 1.41652 0
M  V30 4589 C 171.549 -5.59201 1.75185 0
M  V30 4590 N 171.499 -4.58235 0.662552 0
M  V30 4591 C 171.579 -4.7683 -0.704049 0
M  V30 4592 N 171.499 -3.66233 -1.39775 0
M  V30 4593 C 171.359 -2.66526 -0.431739 0
M  V30 4594 C 171.229 -1.26394 -0.575992 0
M  V30 4595 O 171.209 -0.589894 -1.60503 0
M  V30 4596 N 171.109 -0.62859 0.67177 0
M  V30 4597 C 171.109 -1.27134 1.89385 0
M  V30 4598 N 170.979 -0.492035 2.96951 0
M  V30 4599 N 171.239 -2.58978 2.02907 0
M  V30 4600 C 171.359 -3.22433 0.832218 0
M  V30 4601 H 174.338 -8.65116 0.777161 0
M  V30 4602 H 174.61 -6.90173 0.474152 0
M  V30 4603 H 173.742 -7.66548 2.79458 0
M  V30 4604 H 171.087 -5.16254 2.65229 0
M  V30 4605 H 170.807 -7.06532 0.329431 0
M  V30 4606 H 169.816 -6.91023 1.82047 0
M  V30 4607 H 171.65 -8.90971 1.62675 0
M  V30 4608 H 171.699 -5.74954 -1.16305 0
M  V30 4609 H 171.017 0.366713 0.674793 0
M  V30 4610 H 170.98 -0.908532 3.91188 0
M  V30 4611 H 170.879 0.528253 2.85758 0
M  V30 4612 P 169.779 -8.03563 3.84925 0
M  V30 4613 O 169.559 -8.85821 5.0569 0
M  V30 4614 O 168.989 -8.41101 2.65469 0
M  V30 4615 O 169.529 -6.4965 4.18908 0
M  V30 4616 C 170.469 -5.81037 5.05421 0
M  V30 4617 C 169.739 -4.78366 5.89277 0
M  V30 4618 O 169.529 -3.58302 5.08433 0
M  V30 4619 C 168.339 -5.17448 6.36119 0
M  V30 4620 O 167.949 -4.45271 7.53232 0
M  V30 4621 C 167.459 -4.74639 5.19936 0
M  V30 4622 C 168.169 -3.49432 4.70418 0
M  V30 4623 N 168.119 -3.32099 3.22613 0
M  V30 4624 H 170.958 -6.54213 5.71376 0
M  V30 4625 H 171.23 -5.30936 4.43503 0
M  V30 4626 H 170.362 -4.55889 6.76652 0
M  V30 4627 H 167.707 -2.61715 5.17932 0
M  V30 4628 H 167.427 -5.52155 4.41878 0
M  V30 4629 H 166.436 -4.51981 5.53374 0
M  V30 4630 H 168.27 -6.25124 6.55234 0
M  V30 4631 P 166.399 -4.23843 7.83734 0
M  V30 4632 O 166.179 -4.19407 9.29784 0
M  V30 4633 O 165.609 -5.24426 7.09156 0
M  V30 4634 O 166.149 -2.7935 7.20758 0
M  V30 4635 C 167.089 -1.7299 7.50419 0
M  V30 4636 C 166.359 -0.406376 7.57911 0
M  V30 4637 O 166.149 0.0897726 6.21935 0
M  V30 4638 C 164.959 -0.447224 8.1878 0
M  V30 4639 O 164.569 0.825065 8.71101 0
M  V30 4640 C 164.079 -0.783801 6.99623 0
M  V30 4641 C 164.789 -0.0619192 5.85967 0
M  V30 4642 N 164.739 -0.790462 4.56202 0
M  V30 4643 C 164.819 -2.13895 4.34171 0
M  V30 4644 N 164.749 -2.46449 3.08687 0
M  V30 4645 C 164.599 -1.2525 2.43697 0
M  V30 4646 C 164.469 -0.914535 1.07318 0
M  V30 4647 N 164.459 -1.80782 0.0887348 0
M  V30 4648 N 164.349 0.386745 0.768133 0
M  V30 4649 C 164.359 1.28096 1.75159 0
M  V30 4650 N 164.479 1.09708 3.04861 0
M  V30 4651 C 164.599 -0.214857 3.32306 0
M  V30 4652 H 167.578 -1.93423 8.4679 0
M  V30 4653 H 167.85 -1.68852 6.70877 0
M  V30 4654 H 166.982 0.289041 8.15388 0
M  V30 4655 H 164.327 0.927006 5.72848 0
M  V30 4656 H 164.047 -1.86973 6.82036 0
M  V30 4657 H 163.056 -0.403953 7.13357 0
M  V30 4658 H 164.89 -1.20599 8.97534 0
M  V30 4659 H 164.931 -2.86846 5.14318 0
M  V30 4660 H 164.55 -2.81082 0.302037 0
M  V30 4661 H 164.361 -1.49688 -0.889064 0
M  V30 4662 H 164.253 2.31317 1.43855 0
M  V30 4663 P 163.019 1.17771 8.83182 0
M  V30 4664 O 162.799 2.07206 9.98732 0
M  V30 4665 O 162.229 -0.0743816 8.81969 0
M  V30 4666 O 162.769 1.97652 7.47304 0
M  V30 4667 C 163.709 3.01055 7.08599 0
M  V30 4668 C 162.979 4.12613 6.37049 0
M  V30 4669 O 162.769 3.72827 4.97879 0
M  V30 4670 C 161.579 4.45719 6.88164 0
M  V30 4671 O 161.189 5.7877 6.5624 0
M  V30 4672 C 160.699 3.47768 6.11991 0
M  V30 4673 C 161.409 3.39356 4.77615 0
M  V30 4674 N 161.359 2.04571 4.15244 0
M  V30 4675 C 161.209 1.98587 2.78314 0
M  V30 4676 O 161.119 2.98134 2.08835 0
M  V30 4677 N 161.169 0.714467 2.24925 0
M  V30 4678 C 161.259 -0.470001 2.94169 0
M  V30 4679 O 161.209 -1.55587 2.35195 0
M  V30 4680 C 161.409 -0.312541 4.36783 0
M  V30 4681 C 161.519 -1.57711 5.16352 0
M  V30 4682 C 161.459 0.914512 4.92583 0
M  V30 4683 H 164.2 3.41169 7.98575 0
M  V30 4684 H 164.469 2.58295 6.41556 0
M  V30 4685 H 163.602 5.02657 6.42673 0
M  V30 4686 H 160.947 4.11637 4.08885 0
M  V30 4687 H 160.668 2.49626 6.61679 0
M  V30 4688 H 159.676 3.86566 6.00778 0
M  V30 4689 H 161.51 4.29943 7.96918 0
M  V30 4690 H 161.581 1.00937 6.00374 0
M  V30 4691 H 160.551 -1.80153 5.63503 0
M  V30 4692 H 162.288 -1.4566 5.94104 0
M  V30 4693 H 161.8 -2.40664 4.49645 0
M  V30 4694 H 161.064 0.647622 1.25697 0
M  V30 4695 P 159.639 6.144 6.45285 0
M  V30 4696 O 159.419 7.54673 6.86199 0
M  V30 4697 O 158.849 5.12391 7.179 0
M  V30 4698 O 159.389 5.99158 4.88404 0
M  V30 4699 C 160.329 6.60234 3.96415 0
M  V30 4700 C 159.599 7.08259 2.72856 0
M  V30 4701 O 159.389 5.9427 1.83651 0
M  V30 4702 C 158.199 7.64886 2.9555 0
M  V30 4703 O 157.809 8.53963 1.90717 0
M  V30 4704 C 157.319 6.4116 2.90739 0
M  V30 4705 C 158.029 5.55375 1.86963 0
M  V30 4706 N 157.979 4.09664 2.15742 0
M  V30 4707 C 158.059 3.44381 3.37233 0
M  V30 4708 N 157.979 2.14131 3.28347 0
M  V30 4709 C 157.839 1.90247 1.91588 0
M  V30 4710 C 157.709 0.683992 1.20892 0
M  V30 4711 N 157.589 0.903396 -0.173998 0
M  V30 4712 C 157.589 2.14171 -0.784879 0
M  V30 4713 N 157.459 2.1435 -2.11317 0
M  V30 4714 N 157.719 3.28784 -0.119316 0
M  V30 4715 C 157.839 3.0977 1.22194 0
M  V30 4716 H 160.818 7.45574 4.45629 0
M  V30 4717 H 161.09 5.86232 3.67314 0
M  V30 4718 H 160.222 7.84412 2.24479 0
M  V30 4719 P 156.259 8.7635 1.60911 0
M  V30 4720 O 156.039 10.1388 1.11561 0
M  V30 4721 O 155.469 8.36503 2.79617 0
M  V30 4722 O 156.009 7.71806 0.42951 0
M  V30 4723 C 156.949 7.67148 -0.673689 0
M  V30 4724 C 156.219 7.33374 -1.95559 0
M  V30 4725 O 156.009 5.88721 -2.00726 0
M  V30 4726 C 154.819 7.92526 -2.10483 0
M  V30 4727 O 154.429 8.02971 -3.47653 0
M  V30 4728 C 153.939 6.89602 -1.41652 0
M  V30 4729 C 154.649 5.59201 -1.75185 0
M  V30 4730 N 154.599 4.58235 -0.662552 0
M  V30 4731 H 157.438 8.65116 -0.777161 0
M  V30 4732 H 157.71 6.90173 -0.474152 0
M  V30 4733 H 156.842 7.66548 -2.79458 0
M  V30 4734 P 152.879 8.03563 -3.84925 0
M  V30 4735 O 152.659 8.85821 -5.0569 0
M  V30 4736 O 152.089 8.41101 -2.65469 0
M  V30 4737 O 152.629 6.4965 -4.18908 0
M  V30 4738 C 153.569 5.81037 -5.05421 0
M  V30 4739 C 152.839 4.78366 -5.89277 0
M  V30 4740 O 152.629 3.58302 -5.08433 0
M  V30 4741 C 151.439 5.17448 -6.36119 0
M  V30 4742 O 151.049 4.45271 -7.53232 0
M  V30 4743 C 150.559 4.74639 -5.19936 0
M  V30 4744 C 151.269 3.49432 -4.70418 0
M  V30 4745 N 151.219 3.31776 -3.22945 0
M  V30 4746 H 154.058 6.54213 -5.71376 0
M  V30 4747 H 154.33 5.30492 -4.44033 0
M  V30 4748 H 153.462 4.55889 -6.76652 0
M  V30 4749 P 149.499 4.23843 -7.83734 0
M  V30 4750 O 149.279 4.19407 -9.29784 0
M  V30 4751 O 148.709 5.24426 -7.09156 0
M  V30 4752 O 149.249 2.7935 -7.20758 0
M  V30 4753 C 150.189 1.7299 -7.50419 0
M  V30 4754 C 149.459 0.406376 -7.57911 0
M  V30 4755 O 149.249 -0.0897726 -6.21935 0
M  V30 4756 C 148.059 0.447224 -8.1878 0
M  V30 4757 O 147.669 -0.825065 -8.71101 0
M  V30 4758 C 147.179 0.783801 -6.99623 0
M  V30 4759 C 147.889 0.0619192 -5.85967 0
M  V30 4760 N 147.839 0.7859 -4.56281 0
M  V30 4761 H 150.678 1.93423 -8.4679 0
M  V30 4762 H 150.95 1.68181 -6.71046 0
M  V30 4763 H 150.082 -0.289041 -8.15388 0
M  V30 4764 P 146.119 -1.17771 -8.83182 0
M  V30 4765 O 145.899 -2.07206 -9.98732 0
M  V30 4766 O 145.329 0.0743816 -8.81969 0
M  V30 4767 O 145.869 -1.97652 -7.47304 0
M  V30 4768 C 146.809 -3.01133 -7.08783 0
M  V30 4769 C 146.079 -4.12613 -6.37049 0
M  V30 4770 O 145.869 -3.72827 -4.97879 0
M  V30 4771 C 144.679 -4.45085 -6.88694 0
M  V30 4772 O 144.289 -5.7877 -6.5624 0
M  V30 4773 C 143.799 -3.47817 -6.12078 0
M  V30 4774 C 144.509 -3.39414 -4.77697 0
M  V30 4775 N 144.459 -2.04615 -4.15333 0
M  V30 4776 H 147.298 -3.41248 -7.98759 0
M  V30 4777 H 147.57 -2.5837 -6.41742 0
M  V30 4778 H 146.702 -5.02657 -6.42673 0
M  V30 4779 P 142.739 -6.144 -6.45285 0
M  V30 4780 O 142.519 -7.54673 -6.86199 0
M  V30 4781 O 141.949 -5.12391 -7.179 0
M  V30 4782 O 142.489 -5.99158 -4.88404 0
M  V30 4783 C 143.429 -6.60234 -3.96415 0
M  V30 4784 C 142.699 -7.08259 -2.72856 0
M  V30 4785 O 142.489 -5.9427 -1.83651 0
M  V30 4786 C 141.299 -7.64886 -2.9555 0
M  V30 4787 O 140.909 -8.53963 -1.90717 0
M  V30 4788 C 140.419 -6.4116 -2.90739 0
M  V30 4789 C 141.129 -5.55375 -1.86963 0
M  V30 4790 N 141.079 -4.09448 -2.16152 0
M  V30 4791 H 143.918 -7.45574 -4.45629 0
M  V30 4792 H 144.19 -5.85864 -3.679 0
M  V30 4793 H 143.322 -7.84412 -2.24479 0
M  V30 4794 H 140.667 -5.73457 -0.888562 0
M  V30 4795 H 140.387 -5.90877 -3.88583 0
M  V30 4796 H 139.396 -6.6596 -2.58858 0
M  V30 4797 H 141.23 -8.16339 -3.92049 0
M  V30 4798 P 139.359 -8.7635 -1.60911 0
M  V30 4799 O 139.139 -10.1388 -1.11561 0
M  V30 4800 O 138.569 -8.36503 -2.79617 0
M  V30 4801 O 139.109 -7.71806 -0.42951 0
M  V30 4802 C 140.049 -7.66948 0.673514 0
M  V30 4803 C 139.319 -7.33374 1.95559 0
M  V30 4804 O 139.109 -5.88721 2.00726 0
M  V30 4805 C 137.919 -7.92218 2.1125 0
M  V30 4806 O 137.529 -8.02971 3.47653 0
M  V30 4807 C 137.039 -6.89504 1.41631 0
M  V30 4808 C 137.749 -5.59106 1.75155 0
M  V30 4809 N 137.699 -4.58136 0.662409 0
M  V30 4810 C 137.549 -3.26059 1.02863 0
M  V30 4811 O 137.459 -2.90743 2.19009 0
M  V30 4812 N 137.509 -2.35995 -0.0155585 0
M  V30 4813 C 137.599 -2.65248 -1.35603 0
M  V30 4814 O 137.549 -1.75605 -2.20651 0
M  V30 4815 C 137.749 -4.05747 -1.64698 0
M  V30 4816 C 137.859 -4.42345 -3.09553 0
M  V30 4817 C 137.799 -4.96734 -0.652411 0
M  V30 4818 H 140.54 -8.64917 0.776982 0
M  V30 4819 H 140.809 -6.89974 0.474015 0
M  V30 4820 H 139.942 -7.66548 2.79458 0
M  V30 4821 H 137.287 -5.16076 2.65138 0
M  V30 4822 H 137.008 -7.06433 0.329384 0
M  V30 4823 H 136.016 -6.90829 1.81996 0
M  V30 4824 H 137.85 -8.90774 1.62639 0
M  V30 4825 H 137.921 -6.02181 -0.895285 0
M  V30 4826 H 136.891 -4.80252 -3.45468 0
M  V30 4827 H 138.628 -5.20015 -3.22119 0
M  V30 4828 H 138.14 -3.53269 -3.67833 0
M  V30 4829 H 137.404 -1.39558 0.227499 0
M  V30 4830 P 135.979 -8.03563 3.84925 0
M  V30 4831 O 135.759 -8.85821 5.0569 0
M  V30 4832 O 135.189 -8.41101 2.65469 0
M  V30 4833 O 135.729 -6.4965 4.18908 0
M  V30 4834 C 136.669 -5.80886 5.05289 0
M  V30 4835 C 135.939 -4.78366 5.89277 0
M  V30 4836 O 135.729 -3.58302 5.08433 0
M  V30 4837 C 134.539 -5.16748 6.36559 0
M  V30 4838 O 134.149 -4.45271 7.53232 0
M  V30 4839 C 133.659 -4.74572 5.19863 0
M  V30 4840 C 134.369 -3.49373 4.70338 0
M  V30 4841 N 134.319 -3.31704 3.22876 0
M  V30 4842 C 134.169 -2.03326 2.74871 0
M  V30 4843 O 134.079 -1.06486 3.48076 0
M  V30 4844 N 134.129 -1.91838 1.37456 0
M  V30 4845 C 134.219 -2.94295 0.462035 0
M  V30 4846 O 134.169 -2.71763 -0.752928 0
M  V30 4847 C 134.369 -4.25064 1.05249 0
M  V30 4848 C 134.479 -5.39815 0.095697 0
M  V30 4849 C 134.419 -4.40214 2.39192 0
M  V30 4850 H 137.16 -6.54063 5.71245 0
M  V30 4851 H 137.429 -5.30339 4.43905 0
M  V30 4852 H 136.562 -4.55889 6.76652 0
M  V30 4853 H 133.907 -2.6167 5.17842 0
M  V30 4854 H 133.628 -5.52155 4.41878 0
M  V30 4855 H 132.636 -4.51918 5.53297 0
M  V30 4856 H 134.47 -6.25055 6.55162 0
M  V30 4857 H 134.541 -5.39798 2.81523 0
M  V30 4858 H 133.511 -5.91593 0.0279582 0
M  V30 4859 H 135.248 -6.10038 0.450573 0
M  V30 4860 H 134.76 -5.02007 -0.89937 0
M  V30 4861 H 134.024 -0.995326 1.00435 0
M  V30 4862 P 132.599 -4.23843 7.83734 0
M  V30 4863 O 132.379 -4.19407 9.29784 0
M  V30 4864 O 131.809 -5.24426 7.09156 0
M  V30 4865 O 132.349 -2.7935 7.20758 0
M  V30 4866 C 133.289 -1.72945 7.50224 0
M  V30 4867 C 132.559 -0.406376 7.57911 0
M  V30 4868 O 132.349 0.0897726 6.21935 0
M  V30 4869 C 131.159 -0.438983 8.18724 0
M  V30 4870 O 130.769 0.825065 8.71101 0
M  V30 4871 C 130.279 -0.783689 6.99524 0
M  V30 4872 C 130.989 -0.0619086 5.85867 0
M  V30 4873 N 130.939 -0.78573 4.56183 0
M  V30 4874 C 130.789 -0.0292889 3.41887 0
M  V30 4875 O 130.699 1.18445 3.4419 0
M  V30 4876 N 130.749 -0.744061 2.23964 0
M  V30 4877 C 130.839 -2.10932 2.10362 0
M  V30 4878 C 130.989 -2.8202 3.34994 0
M  V30 4879 C 131.039 -2.15547 4.52261 0
M  V30 4880 H 133.78 -1.93379 8.46595 0
M  V30 4881 H 134.049 -1.68132 6.70852 0
M  V30 4882 H 133.182 0.289041 8.15388 0
M  V30 4883 H 130.527 0.926847 5.72749 0
M  V30 4884 H 130.248 -1.86973 6.82036 0
M  V30 4885 H 129.256 -0.403896 7.13257 0
M  V30 4886 H 131.09 -1.20585 8.97435 0
M  V30 4887 H 131.161 -2.71231 5.45042 0
M  V30 4888 P 129.219 1.17771 8.83182 0
M  V30 4889 O 128.999 2.07206 9.98732 0
M  V30 4890 O 128.429 -0.0743816 8.81969 0
M  V30 4891 O 128.969 1.97652 7.47304 0
M  V30 4892 C 129.909 3.01133 7.08783 0
M  V30 4893 C 129.179 4.12613 6.37049 0
M  V30 4894 O 128.969 3.72827 4.97879 0
M  V30 4895 C 127.779 4.45085 6.88694 0
M  V30 4896 O 127.389 5.7877 6.5624 0
M  V30 4897 C 126.899 3.47817 6.12078 0
M  V30 4898 C 127.609 3.39414 4.77697 0
M  V30 4899 N 127.559 2.04199 4.15538 0
M  V30 4900 H 130.398 3.41248 7.98759 0
M  V30 4901 H 130.67 2.57728 6.42 0
M  V30 4902 H 129.802 5.02657 6.42673 0
M  V30 4903 H 127.147 4.11708 4.08956 0
M  V30 4904 H 126.867 2.49626 6.61679 0
M  V30 4905 H 125.876 3.8662 6.00862 0
M  V30 4906 H 127.71 4.29991 7.97006 0
M  V30 4907 P 125.839 6.144 6.45285 0
M  V30 4908 O 125.619 7.54673 6.86199 0
M  V30 4909 O 125.049 5.12391 7.179 0
M  V30 4910 O 125.589 5.99158 4.88404 0
M  V30 4911 C 126.529 6.60234 3.96415 0
M  V30 4912 C 125.799 7.08259 2.72856 0
M  V30 4913 O 125.589 5.9427 1.83651 0
M  V30 4914 C 124.399 7.64886 2.9555 0
M  V30 4915 O 124.009 8.53963 1.90717 0
M  V30 4916 C 123.519 6.4116 2.90739 0
M  V30 4917 C 124.229 5.55375 1.86963 0
M  V30 4918 N 124.179 4.09664 2.15742 0
M  V30 4919 H 127.018 7.45574 4.45629 0
M  V30 4920 H 127.29 5.86232 3.67314 0
M  V30 4921 H 126.422 7.84412 2.24479 0
M  V30 4922 P 122.459 8.7635 1.60911 0
M  V30 4923 O 122.239 10.1388 1.11561 0
M  V30 4924 O 121.669 8.36503 2.79617 0
M  V30 4925 O 122.209 7.71806 0.42951 0
M  V30 4926 C 123.149 7.66948 -0.673514 0
M  V30 4927 C 122.419 7.33374 -1.95559 0
M  V30 4928 O 122.209 5.88721 -2.00726 0
M  V30 4929 C 121.019 7.92218 -2.1125 0
M  V30 4930 O 120.629 8.02971 -3.47653 0
M  V30 4931 C 120.139 6.89504 -1.41631 0
M  V30 4932 C 120.849 5.59106 -1.75155 0
M  V30 4933 N 120.799 4.58136 -0.662409 0
M  V30 4934 C 120.649 3.26059 -1.02863 0
M  V30 4935 O 120.559 2.90743 -2.19009 0
M  V30 4936 N 120.609 2.35995 0.0155585 0
M  V30 4937 C 120.699 2.65248 1.35603 0
M  V30 4938 O 120.649 1.75605 2.20651 0
M  V30 4939 C 120.849 4.05747 1.64698 0
M  V30 4940 C 120.959 4.42345 3.09553 0
M  V30 4941 C 120.899 4.96734 0.652411 0
M  V30 4942 H 123.64 8.64917 -0.776982 0
M  V30 4943 H 123.909 6.89974 -0.474015 0
M  V30 4944 H 123.042 7.66548 -2.79458 0
M  V30 4945 H 120.387 5.16076 -2.65138 0
M  V30 4946 H 120.108 7.06433 -0.329384 0
M  V30 4947 H 119.116 6.90829 -1.81996 0
M  V30 4948 H 120.95 8.90774 -1.62639 0
M  V30 4949 H 121.021 6.02181 0.895285 0
M  V30 4950 H 119.991 4.80252 3.45468 0
M  V30 4951 H 121.728 5.20015 3.22119 0
M  V30 4952 H 121.24 3.53269 3.67833 0
M  V30 4953 H 120.504 1.39558 -0.227499 0
M  V30 4954 P 119.079 8.03563 -3.84925 0
M  V30 4955 O 118.859 8.85821 -5.0569 0
M  V30 4956 O 118.289 8.41101 -2.65469 0
M  V30 4957 O 118.829 6.4965 -4.18908 0
M  V30 4958 C 119.769 5.81037 -5.05421 0
M  V30 4959 C 119.039 4.78366 -5.89277 0
M  V30 4960 O 118.829 3.58302 -5.08433 0
M  V30 4961 C 117.639 5.17448 -6.36119 0
M  V30 4962 O 117.249 4.45271 -7.53232 0
M  V30 4963 C 116.759 4.74639 -5.19936 0
M  V30 4964 C 117.469 3.49432 -4.70418 0
M  V30 4965 N 117.419 3.32099 -3.22613 0
M  V30 4966 H 120.258 6.54213 -5.71376 0
M  V30 4967 H 120.53 5.30936 -4.43503 0
M  V30 4968 H 119.662 4.55889 -6.76652 0
M  V30 4969 H 117.007 2.61715 -5.17932 0
M  V30 4970 H 116.727 5.52155 -4.41878 0
M  V30 4971 H 115.736 4.51981 -5.53374 0
M  V30 4972 H 117.57 6.25124 -6.55234 0
M  V30 4973 P 115.699 4.23843 -7.83734 0
M  V30 4974 O 115.479 4.19407 -9.29784 0
M  V30 4975 O 114.909 5.24426 -7.09156 0
M  V30 4976 O 115.449 2.7935 -7.20758 0
M  V30 4977 C 116.389 1.72945 -7.50224 0
M  V30 4978 C 115.659 0.406376 -7.57911 0
M  V30 4979 O 115.449 -0.0897726 -6.21935 0
M  V30 4980 C 114.259 0.438983 -8.18724 0
M  V30 4981 O 113.869 -0.825065 -8.71101 0
M  V30 4982 C 113.379 0.783689 -6.99524 0
M  V30 4983 C 114.089 0.0619086 -5.85867 0
M  V30 4984 N 114.039 0.78573 -4.56183 0
M  V30 4985 C 113.889 0.0292889 -3.41887 0
M  V30 4986 O 113.799 -1.18445 -3.4419 0
M  V30 4987 N 113.849 0.744061 -2.23964 0
M  V30 4988 C 113.939 2.10932 -2.10362 0
M  V30 4989 C 114.089 2.8202 -3.34994 0
M  V30 4990 C 114.139 2.15547 -4.52261 0
M  V30 4991 H 116.88 1.93379 -8.46595 0
M  V30 4992 H 117.149 1.68132 -6.70852 0
M  V30 4993 H 116.282 -0.289041 -8.15388 0
M  V30 4994 H 113.627 -0.926847 -5.72749 0
M  V30 4995 H 113.348 1.86973 -6.82036 0
M  V30 4996 H 112.356 0.403896 -7.13257 0
M  V30 4997 H 114.19 1.20585 -8.97435 0
M  V30 4998 H 114.261 2.71231 -5.45042 0
M  V30 4999 P 112.319 -1.17771 -8.83182 0
M  V30 5000 O 112.099 -2.07206 -9.98732 0
M  V30 5001 O 111.529 0.0743816 -8.81969 0
M  V30 5002 O 112.069 -1.97652 -7.47304 0
M  V30 5003 C 113.009 -3.01055 -7.08599 0
M  V30 5004 C 112.279 -4.12613 -6.37049 0
M  V30 5005 O 112.069 -3.72827 -4.97879 0
M  V30 5006 C 110.879 -4.45719 -6.88164 0
M  V30 5007 O 110.489 -5.7877 -6.5624 0
M  V30 5008 C 109.999 -3.47768 -6.11991 0
M  V30 5009 C 110.709 -3.39356 -4.77615 0
M  V30 5010 N 110.659 -2.04571 -4.15244 0
M  V30 5011 C 110.509 -1.98587 -2.78314 0
M  V30 5012 O 110.419 -2.98134 -2.08835 0
M  V30 5013 N 110.469 -0.714467 -2.24925 0
M  V30 5014 C 110.559 0.470001 -2.94169 0
M  V30 5015 O 110.509 1.55587 -2.35195 0
M  V30 5016 C 110.709 0.312541 -4.36783 0
M  V30 5017 C 110.819 1.57711 -5.16352 0
M  V30 5018 C 110.759 -0.914512 -4.92583 0
M  V30 5019 H 113.5 -3.41169 -7.98575 0
M  V30 5020 H 113.769 -2.58295 -6.41556 0
M  V30 5021 H 112.902 -5.02657 -6.42673 0
M  V30 5022 H 110.247 -4.11637 -4.08885 0
M  V30 5023 H 109.968 -2.49626 -6.61679 0
M  V30 5024 H 108.976 -3.86566 -6.00778 0
M  V30 5025 H 110.81 -4.29943 -7.96918 0
M  V30 5026 H 110.881 -1.00937 -6.00374 0
M  V30 5027 H 109.851 1.80153 -5.63503 0
M  V30 5028 H 111.588 1.4566 -5.94104 0
M  V30 5029 H 111.1 2.40664 -4.49645 0
M  V30 5030 H 110.364 -0.647622 -1.25697 0
M  V30 5031 P 108.939 -6.144 -6.45285 0
M  V30 5032 O 108.719 -7.54673 -6.86199 0
M  V30 5033 O 108.149 -5.12391 -7.179 0
M  V30 5034 O 108.689 -5.99158 -4.88404 0
M  V30 5035 C 109.629 -6.60234 -3.96415 0
M  V30 5036 C 108.899 -7.08259 -2.72856 0
M  V30 5037 O 108.689 -5.9427 -1.83651 0
M  V30 5038 C 107.499 -7.64886 -2.9555 0
M  V30 5039 O 107.109 -8.53963 -1.90717 0
M  V30 5040 C 106.619 -6.4116 -2.90739 0
M  V30 5041 C 107.329 -5.55375 -1.86963 0
M  V30 5042 N 107.279 -4.09664 -2.15742 0
M  V30 5043 H 110.118 -7.45574 -4.45629 0
M  V30 5044 H 110.39 -5.86232 -3.67314 0
M  V30 5045 H 109.522 -7.84412 -2.24479 0
M  V30 5046 P 105.559 -8.7635 -1.60911 0
M  V30 5047 O 105.339 -10.1388 -1.11561 0
M  V30 5048 O 104.769 -8.36503 -2.79617 0
M  V30 5049 O 105.309 -7.71806 -0.42951 0
M  V30 5050 C 106.249 -7.67148 0.673689 0
M  V30 5051 C 105.519 -7.33374 1.95559 0
M  V30 5052 O 105.309 -5.88721 2.00726 0
M  V30 5053 C 104.119 -7.92526 2.10483 0
M  V30 5054 O 103.729 -8.02971 3.47653 0
M  V30 5055 C 103.239 -6.89602 1.41652 0
M  V30 5056 C 103.949 -5.59201 1.75185 0
M  V30 5057 N 103.899 -4.58301 0.657969 0
M  V30 5058 H 106.738 -8.65116 0.777161 0
M  V30 5059 H 107.01 -6.9022 0.46725 0
M  V30 5060 H 106.142 -7.66548 2.79458 0
M  V30 5061 H 103.487 -5.16165 2.65183 0
M  V30 5062 H 103.207 -7.06433 0.329384 0
M  V30 5063 H 102.216 -6.90926 1.82021 0
M  V30 5064 H 104.05 -8.90873 1.62657 0
M  V30 5065 P 102.179 -8.03563 3.84925 0
M  V30 5066 O 101.959 -8.85821 5.0569 0
M  V30 5067 O 101.389 -8.41101 2.65469 0
M  V30 5068 O 101.929 -6.4965 4.18908 0
M  V30 5069 C 102.869 -5.81037 5.05421 0
M  V30 5070 C 102.139 -4.78366 5.89277 0
M  V30 5071 O 101.929 -3.58302 5.08433 0
M  V30 5072 C 100.739 -5.17448 6.36119 0
M  V30 5073 O 100.349 -4.45271 7.53232 0
M  V30 5074 C 99.8594 -4.74639 5.19936 0
M  V30 5075 C 100.569 -3.49432 4.70418 0
M  V30 5076 N 100.519 -3.32099 3.22613 0
M  V30 5077 H 103.358 -6.54213 5.71376 0
M  V30 5078 H 103.63 -5.30936 4.43503 0
M  V30 5079 H 102.762 -4.55889 6.76652 0
M  V30 5080 H 100.107 -2.61715 5.17932 0
M  V30 5081 H 99.8274 -5.52155 4.41878 0
M  V30 5082 H 98.8364 -4.51981 5.53374 0
M  V30 5083 H 100.67 -6.25124 6.55234 0
M  V30 5084 P 98.7994 -4.23843 7.83734 0
M  V30 5085 O 98.5794 -4.19407 9.29784 0
M  V30 5086 O 98.0094 -5.24426 7.09156 0
M  V30 5087 O 98.5494 -2.7935 7.20758 0
M  V30 5088 C 99.4894 -1.7299 7.50419 0
M  V30 5089 C 98.7594 -0.406376 7.57911 0
M  V30 5090 O 98.5494 0.0897726 6.21935 0
M  V30 5091 C 97.3594 -0.447224 8.1878 0
M  V30 5092 O 96.9694 0.825065 8.71101 0
M  V30 5093 C 96.4794 -0.783801 6.99623 0
M  V30 5094 C 97.1894 -0.0619192 5.85967 0
M  V30 5095 N 97.1394 -0.7859 4.56281 0
M  V30 5096 H 99.9784 -1.93423 8.4679 0
M  V30 5097 H 100.25 -1.68181 6.71046 0
M  V30 5098 H 99.3824 0.289041 8.15388 0
M  V30 5099 P 95.4195 1.17771 8.83182 0
M  V30 5100 O 95.1995 2.07206 9.98732 0
M  V30 5101 O 94.6295 -0.0743816 8.81969 0
M  V30 5102 O 95.1695 1.97652 7.47304 0
M  V30 5103 C 96.1095 3.01133 7.08783 0
M  V30 5104 C 95.3795 4.12613 6.37049 0
M  V30 5105 O 95.1695 3.72827 4.97879 0
M  V30 5106 C 93.9795 4.45085 6.88694 0
M  V30 5107 O 93.5895 5.7877 6.5624 0
M  V30 5108 C 93.0995 3.47817 6.12078 0
M  V30 5109 C 93.8095 3.39414 4.77697 0
M  V30 5110 N 93.7595 2.04615 4.15333 0
M  V30 5111 H 96.5985 3.41248 7.98759 0
M  V30 5112 H 96.8705 2.5837 6.41742 0
M  V30 5113 H 96.0025 5.02657 6.42673 0
M  V30 5114 P 92.0395 6.144 6.45285 0
M  V30 5115 O 91.8195 7.54673 6.86199 0
M  V30 5116 O 91.2495 5.12391 7.179 0
M  V30 5117 O 91.7895 5.99158 4.88404 0
M  V30 5118 C 92.7295 6.60234 3.96415 0
M  V30 5119 C 91.9995 7.08259 2.72856 0
M  V30 5120 O 91.7895 5.9427 1.83651 0
M  V30 5121 C 90.5995 7.64886 2.9555 0
M  V30 5122 O 90.2095 8.53963 1.90717 0
M  V30 5123 C 89.7195 6.4116 2.90739 0
M  V30 5124 C 90.4295 5.55375 1.86963 0
M  V30 5125 N 90.3795 4.09664 2.15742 0
M  V30 5126 H 93.2185 7.45574 4.45629 0
M  V30 5127 H 93.4905 5.86232 3.67314 0
M  V30 5128 H 92.6225 7.84412 2.24479 0
M  V30 5129 P 88.6595 8.7635 1.60911 0
M  V30 5130 O 88.4395 10.1388 1.11561 0
M  V30 5131 O 87.8695 8.36503 2.79617 0
M  V30 5132 O 88.4095 7.71906 0.429565 0
M  V30 5133 C 89.3495 7.67148 -0.673689 0
M  V30 5134 C 88.6195 7.33666 -1.94851 0
M  V30 5135 O 88.4095 5.88816 -2.00759 0
M  V30 5136 C 87.2195 7.92526 -2.10483 0
M  V30 5137 O 86.8295 8.03063 -3.47693 0
M  V30 5138 C 86.3395 6.89602 -1.41652 0
M  V30 5139 C 87.0495 5.59201 -1.75185 0
M  V30 5140 N 86.9995 4.58235 -0.662552 0
M  V30 5141 C 86.8495 3.24451 -1.01643 0
M  V30 5142 O 86.7595 2.94958 -2.21722 0
M  V30 5143 N 86.7995 2.30408 0.165238 0
M  V30 5144 C 86.8995 2.66048 1.25118 0
M  V30 5145 N 86.8495 1.70787 2.16813 0
M  V30 5146 C 87.0495 4.02732 1.64413 0
M  V30 5147 C 87.0995 4.9488 0.63991 0
M  V30 5148 H 89.8395 8.65017 -0.777072 0
M  V30 5149 H 90.1095 6.90173 -0.474152 0
M  V30 5150 H 89.2425 7.66642 -2.79492 0
M  V30 5151 H 86.5875 5.16254 -2.65229 0
M  V30 5152 H 86.3075 7.06532 -0.329431 0
M  V30 5153 H 85.3165 6.91023 -1.82047 0
M  V30 5154 H 87.1505 8.90873 -1.62657 0
M  V30 5155 H 87.2225 6.00104 0.892197 0
M  V30 5156 H 87.1205 4.31733 2.69229 0
M  V30 5157 H 86.7325 0.724835 1.8844 0
M  V30 5158 H 86.9285 1.94716 3.16734 0
M  V30 5159 P 85.2795 8.03563 -3.84925 0
M  V30 5160 O 85.0595 8.85821 -5.0569 0
M  V30 5161 O 84.4895 8.41101 -2.65469 0
M  V30 5162 O 85.0295 6.4965 -4.18908 0
M  V30 5163 C 85.9695 5.81037 -5.05421 0
M  V30 5164 C 85.2395 4.78366 -5.89277 0
M  V30 5165 O 85.0295 3.58302 -5.08433 0
M  V30 5166 C 83.8395 5.17448 -6.36119 0
M  V30 5167 O 83.4495 4.45271 -7.53232 0
M  V30 5168 C 82.9595 4.74639 -5.19936 0
M  V30 5169 C 83.6695 3.49432 -4.70418 0
M  V30 5170 N 83.6195 3.32099 -3.22613 0
M  V30 5171 H 86.4585 6.54213 -5.71376 0
M  V30 5172 H 86.7305 5.30936 -4.43503 0
M  V30 5173 H 85.8625 4.55889 -6.76652 0
M  V30 5174 H 83.2075 2.61715 -5.17932 0
M  V30 5175 H 82.9275 5.52155 -4.41878 0
M  V30 5176 H 81.9365 4.51981 -5.53374 0
M  V30 5177 H 83.7705 6.25124 -6.55234 0
M  V30 5178 P 81.8995 4.23843 -7.83734 0
M  V30 5179 O 81.6795 4.19407 -9.29784 0
M  V30 5180 O 81.1095 5.24426 -7.09156 0
M  V30 5181 O 81.6495 2.7935 -7.20758 0
M  V30 5182 C 82.5895 1.7299 -7.50419 0
M  V30 5183 C 81.8595 0.406376 -7.57911 0
M  V30 5184 O 81.6495 -0.0897726 -6.21935 0
M  V30 5185 C 80.4595 0.447224 -8.1878 0
M  V30 5186 O 80.0695 -0.825065 -8.71101 0
M  V30 5187 C 79.5795 0.783801 -6.99623 0
M  V30 5188 C 80.2895 0.0619192 -5.85967 0
M  V30 5189 N 80.2395 0.7859 -4.56281 0
M  V30 5190 H 83.0785 1.93423 -8.4679 0
M  V30 5191 H 83.3505 1.68181 -6.71046 0
M  V30 5192 H 82.4825 -0.289041 -8.15388 0
M  V30 5193 P 78.5196 -1.17771 -8.83182 0
M  V30 5194 O 78.2996 -2.07206 -9.98732 0
M  V30 5195 O 77.7296 0.0743816 -8.81969 0
M  V30 5196 O 78.2696 -1.97652 -7.47304 0
M  V30 5197 C 79.2096 -3.01133 -7.08783 0
M  V30 5198 C 78.4796 -4.12613 -6.37049 0
M  V30 5199 O 78.2696 -3.72827 -4.97879 0
M  V30 5200 C 77.0796 -4.45085 -6.88694 0
M  V30 5201 O 76.6896 -5.7877 -6.5624 0
M  V30 5202 C 76.1996 -3.47817 -6.12078 0
M  V30 5203 C 76.9096 -3.39414 -4.77697 0
M  V30 5204 N 76.8596 -2.04615 -4.15333 0
M  V30 5205 H 79.6986 -3.41248 -7.98759 0
M  V30 5206 H 79.9706 -2.5837 -6.41742 0
M  V30 5207 H 79.1026 -5.02657 -6.42673 0
M  V30 5208 P 75.1396 -6.144 -6.45285 0
M  V30 5209 O 74.9196 -7.54673 -6.86199 0
M  V30 5210 O 74.3496 -5.12391 -7.179 0
M  V30 5211 O 74.8896 -5.99158 -4.88404 0
M  V30 5212 C 75.8296 -6.60062 -3.96313 0
M  V30 5213 C 75.0996 -7.08259 -2.72856 0
M  V30 5214 O 74.8896 -5.9427 -1.83651 0
M  V30 5215 C 73.6996 -7.65087 -2.94749 0
M  V30 5216 O 73.3096 -8.53963 -1.90717 0
M  V30 5217 C 72.8196 -6.41069 -2.90698 0
M  V30 5218 C 73.5296 -5.5528 -1.86931 0
M  V30 5219 N 73.4796 -4.09575 -2.15696 0
M  V30 5220 C 73.3296 -3.24249 -1.08435 0
M  V30 5221 O 73.2396 -3.63946 0.0628747 0
M  V30 5222 N 73.2896 -1.90009 -1.39973 0
M  V30 5223 C 73.3796 -1.34884 -2.65614 0
M  V30 5224 O 73.3296 -0.123716 -2.81728 0
M  V30 5225 C 73.5296 -2.3145 -3.71736 0
M  V30 5226 C 73.6396 -1.75913 -5.10438 0
M  V30 5227 C 73.5796 -3.63518 -3.44754 0
M  V30 5228 H 76.3206 -7.45402 -4.45526 0
M  V30 5229 H 76.5896 -5.86062 -3.67208 0
M  V30 5230 H 75.7226 -7.84412 -2.24479 0
M  V30 5231 H 73.0676 -5.73358 -0.888409 0
M  V30 5232 H 72.7886 -5.90877 -3.88583 0
M  V30 5233 H 71.7966 -6.65867 -2.58821 0
M  V30 5234 H 73.6306 -8.16248 -3.92006 0
M  V30 5235 H 73.7016 -4.34551 -4.26383 0
M  V30 5236 H 72.6716 -1.85471 -5.61775 0
M  V30 5237 H 74.4086 -2.31364 -5.66257 0
M  V30 5238 H 73.9206 -0.695936 -5.05229 0
M  V30 5239 H 73.1846 -1.26277 -0.63625 0
M  V30 5240 P 71.7596 -8.7635 -1.60911 0
M  V30 5241 O 71.5396 -10.1388 -1.11561 0
M  V30 5242 O 70.9696 -8.36503 -2.79617 0
M  V30 5243 O 71.5096 -7.71806 -0.42951 0
M  V30 5244 C 72.4496 -7.67148 0.673689 0
M  V30 5245 C 71.7196 -7.33374 1.95559 0
M  V30 5246 O 71.5096 -5.88721 2.00726 0
M  V30 5247 C 70.3196 -7.92526 2.10483 0
M  V30 5248 O 69.9296 -8.02971 3.47653 0
M  V30 5249 C 69.4396 -6.89602 1.41652 0
M  V30 5250 C 70.1496 -5.59201 1.75185 0
M  V30 5251 N 70.0996 -4.58235 0.662552 0
M  V30 5252 H 72.9386 -8.65116 0.777161 0
M  V30 5253 H 73.2106 -6.90173 0.474152 0
M  V30 5254 H 72.3426 -7.66548 2.79458 0
M  V30 5255 P 68.3796 -8.03563 3.84925 0
M  V30 5256 O 68.1596 -8.85821 5.0569 0
M  V30 5257 O 67.5896 -8.41101 2.65469 0
M  V30 5258 O 68.1296 -6.4965 4.18908 0
M  V30 5259 C 69.0696 -5.81037 5.05421 0
M  V30 5260 C 68.3396 -4.78366 5.89277 0
M  V30 5261 O 68.1296 -3.58302 5.08433 0
M  V30 5262 C 66.9396 -5.17448 6.36119 0
M  V30 5263 O 66.5496 -4.45271 7.53232 0
M  V30 5264 C 66.0596 -4.74639 5.19936 0
M  V30 5265 C 66.7696 -3.49432 4.70418 0
M  V30 5266 N 66.7196 -3.32099 3.22613 0
M  V30 5267 H 69.5586 -6.54213 5.71376 0
M  V30 5268 H 69.8306 -5.30936 4.43503 0
M  V30 5269 H 68.9626 -4.55889 6.76652 0
M  V30 5270 H 66.3076 -2.61715 5.17932 0
M  V30 5271 H 66.0276 -5.52155 4.41878 0
M  V30 5272 H 65.0366 -4.51981 5.53374 0
M  V30 5273 H 66.8706 -6.25124 6.55234 0
M  V30 5274 P 64.9996 -4.23843 7.83734 0
M  V30 5275 O 64.7796 -4.19407 9.29784 0
M  V30 5276 O 64.2096 -5.24426 7.09156 0
M  V30 5277 O 64.7496 -2.7935 7.20758 0
M  V30 5278 C 65.6896 -1.7299 7.50419 0
M  V30 5279 C 64.9596 -0.406376 7.57911 0
M  V30 5280 O 64.7496 0.0897726 6.21935 0
M  V30 5281 C 63.5596 -0.447224 8.1878 0
M  V30 5282 O 63.1696 0.825065 8.71101 0
M  V30 5283 C 62.6796 -0.783801 6.99623 0
M  V30 5284 C 63.3896 -0.0619192 5.85967 0
M  V30 5285 N 63.3396 -0.7859 4.56281 0
M  V30 5286 H 66.1786 -1.93423 8.4679 0
M  V30 5287 H 66.4506 -1.68181 6.71046 0
M  V30 5288 H 65.5826 0.289041 8.15388 0
M  V30 5289 P 61.6197 1.17771 8.83182 0
M  V30 5290 O 61.3997 2.07206 9.98732 0
M  V30 5291 O 60.8297 -0.0743816 8.81969 0
M  V30 5292 O 61.3697 1.97652 7.47304 0
M  V30 5293 C 62.3097 3.01133 7.08783 0
M  V30 5294 C 61.5797 4.12613 6.37049 0
M  V30 5295 O 61.3697 3.72827 4.97879 0
M  V30 5296 C 60.1797 4.45085 6.88694 0
M  V30 5297 O 59.7897 5.7877 6.5624 0
M  V30 5298 C 59.2997 3.47817 6.12078 0
M  V30 5299 C 60.0097 3.39414 4.77697 0
M  V30 5300 N 59.9597 2.04615 4.15333 0
M  V30 5301 H 62.7987 3.41248 7.98759 0
M  V30 5302 H 63.0707 2.5837 6.41742 0
M  V30 5303 H 62.2027 5.02657 6.42673 0
M  V30 5304 P 58.2397 6.144 6.45285 0
M  V30 5305 O 58.0197 7.54673 6.86199 0
M  V30 5306 O 57.4497 5.12391 7.179 0
M  V30 5307 O 57.9897 5.99158 4.88404 0
M  V30 5308 C 58.9297 6.60062 3.96313 0
M  V30 5309 C 58.1997 7.08259 2.72856 0
M  V30 5310 O 57.9897 5.9427 1.83651 0
M  V30 5311 C 56.7997 7.65087 2.94749 0
M  V30 5312 O 56.4097 8.53963 1.90717 0
M  V30 5313 C 55.9197 6.41069 2.90698 0
M  V30 5314 C 56.6297 5.5528 1.86931 0
M  V30 5315 N 56.5797 4.09575 2.15696 0
M  V30 5316 C 56.4297 3.24249 1.08435 0
M  V30 5317 O 56.3397 3.63946 -0.0628747 0
M  V30 5318 N 56.3897 1.90009 1.39973 0
M  V30 5319 C 56.4797 1.34884 2.65614 0
M  V30 5320 C 56.6297 2.3145 3.71736 0
M  V30 5321 C 56.6797 3.63518 3.44754 0
M  V30 5322 H 59.4207 7.45402 4.45526 0
M  V30 5323 H 59.6897 5.86062 3.67208 0
M  V30 5324 H 58.8227 7.84412 2.24479 0
M  V30 5325 H 56.1677 5.73358 0.888409 0
M  V30 5326 H 55.8887 5.90877 3.88583 0
M  V30 5327 H 54.8967 6.65867 2.58821 0
M  V30 5328 H 56.7307 8.16248 3.92006 0
M  V30 5329 H 56.8017 4.34551 4.26383 0
M  V30 5330 P 54.8597 8.7635 1.60911 0
M  V30 5331 O 54.6397 10.1388 1.11561 0
M  V30 5332 O 54.0697 8.36503 2.79617 0
M  V30 5333 O 54.6097 7.71806 0.42951 0
M  V30 5334 C 55.5497 7.67148 -0.673689 0
M  V30 5335 C 54.8197 7.33374 -1.95559 0
M  V30 5336 O 54.6097 5.88721 -2.00726 0
M  V30 5337 C 53.4197 7.92526 -2.10483 0
M  V30 5338 O 53.0297 8.02971 -3.47653 0
M  V30 5339 C 52.5397 6.89602 -1.41652 0
M  V30 5340 C 53.2497 5.59201 -1.75185 0
M  V30 5341 N 53.1997 4.58301 -0.657969 0
M  V30 5342 C 53.2797 4.79019 0.692603 0
M  V30 5343 N 53.2097 3.69736 1.38998 0
M  V30 5344 C 53.0597 2.70474 0.438135 0
M  V30 5345 C 52.9297 1.30327 0.538142 0
M  V30 5346 N 52.9197 0.64304 1.69192 0
M  V30 5347 N 52.8097 0.611027 -0.605183 0
M  V30 5348 C 52.8197 1.27002 -1.75953 0
M  V30 5349 N 52.9397 2.56038 -1.98546 0
M  V30 5350 C 53.0597 3.22681 -0.822541 0
M  V30 5351 H 56.0387 8.65116 -0.777161 0
M  V30 5352 H 56.3107 6.9022 -0.46725 0
M  V30 5353 H 55.4427 7.66548 -2.79458 0
M  V30 5354 H 52.7877 5.16165 -2.65183 0
M  V30 5355 H 52.5077 7.06433 -0.329384 0
M  V30 5356 H 51.5167 6.90926 -1.82021 0
M  V30 5357 H 53.3507 8.90873 -1.62657 0
M  V30 5358 H 53.3917 5.77785 1.13874 0
M  V30 5359 H 53.0107 1.15585 2.57991 0
M  V30 5360 H 52.8217 -0.382989 1.69835 0
M  V30 5361 H 52.7137 0.653331 -2.64449 0
M  V30 5362 P 51.4797 8.03563 -3.84925 0
M  V30 5363 O 51.2597 8.85821 -5.0569 0
M  V30 5364 O 50.6897 8.41101 -2.65469 0
M  V30 5365 O 51.2297 6.4965 -4.18908 0
M  V30 5366 C 52.1697 5.81037 -5.05421 0
M  V30 5367 C 51.4397 4.78366 -5.89277 0
M  V30 5368 O 51.2297 3.58302 -5.08433 0
M  V30 5369 C 50.0397 5.17448 -6.36119 0
M  V30 5370 O 49.6497 4.45271 -7.53232 0
M  V30 5371 C 49.1597 4.74639 -5.19936 0
M  V30 5372 C 49.8697 3.49432 -4.70418 0
M  V30 5373 N 49.8197 3.31776 -3.22945 0
M  V30 5374 H 52.6587 6.54213 -5.71376 0
M  V30 5375 H 52.9307 5.30492 -4.44033 0
M  V30 5376 H 52.0627 4.55889 -6.76652 0
M  V30 5377 P 48.0997 4.23843 -7.83734 0
M  V30 5378 O 47.8797 4.19407 -9.29784 0
M  V30 5379 O 47.3097 5.24426 -7.09156 0
M  V30 5380 O 47.8497 2.7935 -7.20758 0
M  V30 5381 C 48.7897 1.7299 -7.50419 0
M  V30 5382 C 48.0597 0.406376 -7.57911 0
M  V30 5383 O 47.8497 -0.0897726 -6.21935 0
M  V30 5384 C 46.6597 0.447224 -8.1878 0
M  V30 5385 O 46.2697 -0.825065 -8.71101 0
M  V30 5386 C 45.7797 0.783801 -6.99623 0
M  V30 5387 C 46.4897 0.0619192 -5.85967 0
M  V30 5388 N 46.4397 0.7859 -4.56281 0
M  V30 5389 H 49.2787 1.93423 -8.4679 0
M  V30 5390 H 49.5507 1.68181 -6.71046 0
M  V30 5391 H 48.6827 -0.289041 -8.15388 0
M  V30 5392 P 44.7198 -1.17771 -8.83182 0
M  V30 5393 O 44.4998 -2.07206 -9.98732 0
M  V30 5394 O 43.9298 0.0743816 -8.81969 0
M  V30 5395 O 44.4698 -1.97652 -7.47304 0
M  V30 5396 C 45.4098 -3.01055 -7.08599 0
M  V30 5397 C 44.6798 -4.12613 -6.37049 0
M  V30 5398 O 44.4698 -3.72827 -4.97879 0
M  V30 5399 C 43.2798 -4.45719 -6.88164 0
M  V30 5400 O 42.8898 -5.7877 -6.5624 0
M  V30 5401 C 42.3998 -3.47768 -6.11991 0
M  V30 5402 C 43.1098 -3.39356 -4.77615 0
M  V30 5403 N 43.0598 -2.04571 -4.15244 0
M  V30 5404 C 42.9098 -1.98587 -2.78314 0
M  V30 5405 O 42.8198 -2.98134 -2.08835 0
M  V30 5406 N 42.8698 -0.714467 -2.24925 0
M  V30 5407 C 42.9598 0.470001 -2.94169 0
M  V30 5408 O 42.9098 1.55587 -2.35195 0
M  V30 5409 C 43.1098 0.312541 -4.36783 0
M  V30 5410 C 43.2198 1.57711 -5.16352 0
M  V30 5411 C 43.1598 -0.914512 -4.92583 0
M  V30 5412 H 45.9008 -3.41169 -7.98575 0
M  V30 5413 H 46.1698 -2.58295 -6.41556 0
M  V30 5414 H 45.3028 -5.02657 -6.42673 0
M  V30 5415 H 42.6478 -4.11637 -4.08885 0
M  V30 5416 H 42.3688 -2.49626 -6.61679 0
M  V30 5417 H 41.3768 -3.86566 -6.00778 0
M  V30 5418 H 43.2108 -4.29943 -7.96918 0
M  V30 5419 H 43.2818 -1.00937 -6.00374 0
M  V30 5420 H 42.2518 1.80153 -5.63503 0
M  V30 5421 H 43.9888 1.4566 -5.94104 0
M  V30 5422 H 43.5008 2.40664 -4.49645 0
M  V30 5423 H 42.7648 -0.647622 -1.25697 0
M  V30 5424 P 41.3398 -6.144 -6.45285 0
M  V30 5425 O 41.1198 -7.54673 -6.86199 0
M  V30 5426 O 40.5498 -5.12391 -7.179 0
M  V30 5427 O 41.0898 -5.99158 -4.88404 0
M  V30 5428 C 42.0298 -6.60234 -3.96415 0
M  V30 5429 C 41.2998 -7.08259 -2.72856 0
M  V30 5430 O 41.0898 -5.9427 -1.83651 0
M  V30 5431 C 39.8998 -7.64886 -2.9555 0
M  V30 5432 O 39.5098 -8.53963 -1.90717 0
M  V30 5433 C 39.0198 -6.4116 -2.90739 0
M  V30 5434 C 39.7298 -5.55375 -1.86963 0
M  V30 5435 N 39.6798 -4.09664 -2.15742 0
M  V30 5436 H 42.5188 -7.45574 -4.45629 0
M  V30 5437 H 42.7908 -5.86232 -3.67314 0
M  V30 5438 H 41.9228 -7.84412 -2.24479 0
M  V30 5439 P 37.9598 -8.7635 -1.60911 0
M  V30 5440 O 37.7398 -10.1388 -1.11561 0
M  V30 5441 O 37.1698 -8.36503 -2.79617 0
M  V30 5442 O 37.7098 -7.71806 -0.42951 0
M  V30 5443 C 38.6498 -7.67148 0.673689 0
M  V30 5444 C 37.9198 -7.33374 1.95559 0
M  V30 5445 O 37.7098 -5.88721 2.00726 0
M  V30 5446 C 36.5198 -7.92526 2.10483 0
M  V30 5447 O 36.1298 -8.02971 3.47653 0
M  V30 5448 C 35.6398 -6.89602 1.41652 0
M  V30 5449 C 36.3498 -5.59201 1.75185 0
M  V30 5450 N 36.2998 -4.58235 0.662552 0
M  V30 5451 H 39.1388 -8.65116 0.777161 0
M  V30 5452 H 39.4108 -6.90173 0.474152 0
M  V30 5453 H 38.5428 -7.66548 2.79458 0
M  V30 5454 P 34.5798 -8.03563 3.84925 0
M  V30 5455 O 34.3598 -8.85821 5.0569 0
M  V30 5456 O 33.7898 -8.41101 2.65469 0
M  V30 5457 O 34.3298 -6.4965 4.18908 0
M  V30 5458 C 35.2698 -5.81037 5.05421 0
M  V30 5459 C 34.5398 -4.78366 5.89277 0
M  V30 5460 O 34.3298 -3.58302 5.08433 0
M  V30 5461 C 33.1398 -5.17448 6.36119 0
M  V30 5462 O 32.7498 -4.45271 7.53232 0
M  V30 5463 C 32.2598 -4.74639 5.19936 0
M  V30 5464 C 32.9698 -3.49432 4.70418 0
M  V30 5465 N 32.9198 -3.31776 3.22945 0
M  V30 5466 H 35.7588 -6.54213 5.71376 0
M  V30 5467 H 36.0308 -5.30492 4.44033 0
M  V30 5468 H 35.1628 -4.55889 6.76652 0
M  V30 5469 P 31.1998 -4.23843 7.83734 0
M  V30 5470 O 30.9798 -4.19407 9.29784 0
M  V30 5471 O 30.4098 -5.24426 7.09156 0
M  V30 5472 O 30.9498 -2.7935 7.20758 0
M  V30 5473 C 31.8898 -1.7299 7.50419 0
M  V30 5474 C 31.1598 -0.406376 7.57911 0
M  V30 5475 O 30.9498 0.0897726 6.21935 0
M  V30 5476 C 29.7598 -0.447224 8.1878 0
M  V30 5477 O 29.3698 0.825065 8.71101 0
M  V30 5478 C 28.8798 -0.783801 6.99623 0
M  V30 5479 C 29.5898 -0.0619192 5.85967 0
M  V30 5480 N 29.5398 -0.7859 4.56281 0
M  V30 5481 H 32.3788 -1.93423 8.4679 0
M  V30 5482 H 32.6508 -1.68181 6.71046 0
M  V30 5483 H 31.7828 0.289041 8.15388 0
M  V30 5484 P 27.8199 1.17771 8.83182 0
M  V30 5485 O 27.5999 2.07206 9.98732 0
M  V30 5486 O 27.0299 -0.0743816 8.81969 0
M  V30 5487 O 27.5699 1.97652 7.47304 0
M  V30 5488 C 28.5099 3.01133 7.08783 0
M  V30 5489 C 27.7799 4.12613 6.37049 0
M  V30 5490 O 27.5699 3.72827 4.97879 0
M  V30 5491 C 26.3799 4.45085 6.88694 0
M  V30 5492 O 25.9899 5.7877 6.5624 0
M  V30 5493 C 25.4999 3.47817 6.12078 0
M  V30 5494 C 26.2099 3.39414 4.77697 0
M  V30 5495 N 26.1599 2.04615 4.15333 0
M  V30 5496 H 28.9989 3.41248 7.98759 0
M  V30 5497 H 29.2709 2.5837 6.41742 0
M  V30 5498 H 28.4029 5.02657 6.42673 0
M  V30 5499 P 24.4399 6.144 6.45285 0
M  V30 5500 O 24.2199 7.54673 6.86199 0
M  V30 5501 O 23.6499 5.12391 7.179 0
M  V30 5502 O 24.1899 5.99158 4.88404 0
M  V30 5503 C 25.1299 6.60234 3.96415 0
M  V30 5504 C 24.3999 7.08259 2.72856 0
M  V30 5505 O 24.1899 5.9427 1.83651 0
M  V30 5506 C 22.9999 7.64886 2.9555 0
M  V30 5507 O 22.6099 8.53963 1.90717 0
M  V30 5508 C 22.1199 6.4116 2.90739 0
M  V30 5509 C 22.8299 5.55375 1.86963 0
M  V30 5510 N 22.7799 4.09448 2.16152 0
M  V30 5511 H 25.6189 7.45574 4.45629 0
M  V30 5512 H 25.8909 5.85864 3.679 0
M  V30 5513 H 25.0229 7.84412 2.24479 0
M  V30 5514 H 22.3679 5.73457 0.888562 0
M  V30 5515 H 22.0879 5.90877 3.88583 0
M  V30 5516 H 21.0969 6.6596 2.58858 0
M  V30 5517 H 22.9309 8.16339 3.92049 0
M  V30 5518 P 21.0599 8.7635 1.60911 0
M  V30 5519 O 20.8399 10.1388 1.11561 0
M  V30 5520 O 20.2699 8.36503 2.79617 0
M  V30 5521 O 20.8099 7.71806 0.42951 0
M  V30 5522 C 21.7499 7.67148 -0.673689 0
M  V30 5523 C 21.0199 7.33374 -1.95559 0
M  V30 5524 O 20.8099 5.88721 -2.00726 0
M  V30 5525 C 19.6199 7.92526 -2.10483 0
M  V30 5526 O 19.2299 8.02971 -3.47653 0
M  V30 5527 C 18.7399 6.89602 -1.41652 0
M  V30 5528 C 19.4499 5.59201 -1.75185 0
M  V30 5529 N 19.3999 4.58235 -0.662552 0
M  V30 5530 H 22.2389 8.65116 -0.777161 0
M  V30 5531 H 22.5109 6.90173 -0.474152 0
M  V30 5532 H 21.6429 7.66548 -2.79458 0
M  V30 5533 P 17.6799 8.03563 -3.84925 0
M  V30 5534 O 17.4599 8.85821 -5.0569 0
M  V30 5535 O 16.8899 8.41101 -2.65469 0
M  V30 5536 O 17.4299 6.4965 -4.18908 0
M  V30 5537 C 18.3699 5.81037 -5.05421 0
M  V30 5538 C 17.6399 4.78366 -5.89277 0
M  V30 5539 O 17.4299 3.58302 -5.08433 0
M  V30 5540 C 16.2399 5.17448 -6.36119 0
M  V30 5541 O 15.8499 4.45271 -7.53232 0
M  V30 5542 C 15.3599 4.74639 -5.19936 0
M  V30 5543 C 16.0699 3.49432 -4.70418 0
M  V30 5544 N 16.0199 3.31776 -3.22945 0
M  V30 5545 H 18.8589 6.54213 -5.71376 0
M  V30 5546 H 19.1309 5.30492 -4.44033 0
M  V30 5547 H 18.2629 4.55889 -6.76652 0
M  V30 5548 P 14.2999 4.23843 -7.83734 0
M  V30 5549 O 14.0799 4.19407 -9.29784 0
M  V30 5550 O 13.5099 5.24426 -7.09156 0
M  V30 5551 O 14.0499 2.7935 -7.20758 0
M  V30 5552 C 14.9899 1.72945 -7.50224 0
M  V30 5553 C 14.2599 0.406376 -7.57911 0
M  V30 5554 O 14.0499 -0.0897726 -6.21935 0
M  V30 5555 C 12.8599 0.438983 -8.18724 0
M  V30 5556 O 12.4699 -0.825065 -8.71101 0
M  V30 5557 C 11.9799 0.783689 -6.99524 0
M  V30 5558 C 12.6899 0.0619086 -5.85867 0
M  V30 5559 N 12.6399 0.78573 -4.56183 0
M  V30 5560 C 12.4899 0.0292889 -3.41887 0
M  V30 5561 O 12.3999 -1.18445 -3.4419 0
M  V30 5562 N 12.4499 0.744061 -2.23964 0
M  V30 5563 C 12.5399 2.10932 -2.10362 0
M  V30 5564 C 12.6899 2.8202 -3.34994 0
M  V30 5565 C 12.7399 2.15547 -4.52261 0
M  V30 5566 H 15.4809 1.93379 -8.46595 0
M  V30 5567 H 15.7499 1.68132 -6.70852 0
M  V30 5568 H 14.8829 -0.289041 -8.15388 0
M  V30 5569 H 12.2279 -0.926847 -5.72749 0
M  V30 5570 H 11.9489 1.86973 -6.82036 0
M  V30 5571 H 10.9569 0.403896 -7.13257 0
M  V30 5572 H 12.7909 1.20585 -8.97435 0
M  V30 5573 H 12.8619 2.71231 -5.45042 0
M  V30 5574 P 10.92 -1.17771 -8.83182 0
M  V30 5575 O 10.7 -2.07206 -9.98732 0
M  V30 5576 O 10.13 0.0743816 -8.81969 0
M  V30 5577 O 10.67 -1.97652 -7.47304 0
M  V30 5578 C 11.61 -3.01133 -7.08783 0
M  V30 5579 C 10.88 -4.12613 -6.37049 0
M  V30 5580 O 10.67 -3.72827 -4.97879 0
M  V30 5581 C 9.47996 -4.45085 -6.88694 0
M  V30 5582 O 9.08996 -5.7877 -6.5624 0
M  V30 5583 C 8.59996 -3.47817 -6.12078 0
M  V30 5584 C 9.30996 -3.39414 -4.77697 0
M  V30 5585 N 9.25996 -2.04615 -4.15333 0
M  V30 5586 H 12.099 -3.41248 -7.98759 0
M  V30 5587 H 12.371 -2.5837 -6.41742 0
M  V30 5588 H 11.503 -5.02657 -6.42673 0
M  V30 5589 P 7.53998 -6.144 -6.45285 0
M  V30 5590 O 7.31998 -7.54673 -6.86199 0
M  V30 5591 O 6.74998 -5.12391 -7.179 0
M  V30 5592 O 7.28998 -5.99158 -4.88404 0
M  V30 5593 C 8.22998 -6.60062 -3.96313 0
M  V30 5594 C 7.49998 -7.08259 -2.72856 0
M  V30 5595 O 7.28998 -5.9427 -1.83651 0
M  V30 5596 C 6.09998 -7.65087 -2.94749 0
M  V30 5597 O 5.70998 -8.53963 -1.90717 0
M  V30 5598 C 5.21998 -6.41069 -2.90698 0
M  V30 5599 C 5.92998 -5.5528 -1.86931 0
M  V30 5600 N 5.87998 -4.09575 -2.15696 0
M  V30 5601 C 5.72998 -3.24249 -1.08435 0
M  V30 5602 O 5.63998 -3.63946 0.0628747 0
M  V30 5603 N 5.68998 -1.90009 -1.39973 0
M  V30 5604 C 5.77998 -1.34884 -2.65614 0
M  V30 5605 O 5.72998 -0.123716 -2.81728 0
M  V30 5606 C 5.92998 -2.3145 -3.71736 0
M  V30 5607 C 6.03998 -1.75913 -5.10438 0
M  V30 5608 C 5.97998 -3.63518 -3.44754 0
M  V30 5609 H 8.72098 -7.45402 -4.45526 0
M  V30 5610 H 8.98998 -5.86062 -3.67208 0
M  V30 5611 H 8.12298 -7.84412 -2.24479 0
M  V30 5612 H 5.46798 -5.73358 -0.888409 0
M  V30 5613 H 5.18898 -5.90877 -3.88583 0
M  V30 5614 H 4.19698 -6.65867 -2.58821 0
M  V30 5615 H 6.03098 -8.16248 -3.92006 0
M  V30 5616 H 6.10198 -4.34551 -4.26383 0
M  V30 5617 H 5.07198 -1.85471 -5.61775 0
M  V30 5618 H 6.80898 -2.31364 -5.66257 0
M  V30 5619 H 6.32098 -0.695936 -5.05229 0
M  V30 5620 H 5.58498 -1.26277 -0.63625 0
M  V30 5621 P 4.16 -8.7635 -1.60911 0
M  V30 5622 O 3.94 -10.1388 -1.11561 0
M  V30 5623 O 3.37 -8.36503 -2.79617 0
M  V30 5624 O 3.91 -7.71806 -0.42951 0
M  V30 5625 C 4.85 -7.67148 0.673689 0
M  V30 5626 C 4.12 -7.33374 1.95559 0
M  V30 5627 O 3.91 -5.88721 2.00726 0
M  V30 5628 C 2.72 -7.92526 2.10483 0
M  V30 5629 O 2.33 -8.02971 3.47653 0
M  V30 5630 C 1.84 -6.89602 1.41652 0
M  V30 5631 C 2.55 -5.59201 1.75185 0
M  V30 5632 N 2.5 -4.58235 0.662552 0
M  V30 5633 H 5.339 -8.65116 0.777161 0
M  V30 5634 H 5.611 -6.90173 0.474152 0
M  V30 5635 H 4.743 -7.66548 2.79458 0
M  V30 5636 H 1.613 -8.66322 3.55694 0
M  V30 END ATOM
M  V30 BEGIN BOND
M  V30 END BOND
M  V30 END CTAB
M  END
$$$$
