drugbank_target|Q07806 Penicillin-binding protein 1A (DB00430; DB01329; DB14879)
 OpenBabel12092120363D

  0  0  0     0  0            999 V3000
M  V30 BEGIN CTAB
M  V30 COUNTS 12793 12940 0 0 0
M  V30 BEGIN ATOM
M  V30 1 H -0.908 1.98254 -0.117106 0
M  V30 2 N 0 1.576 0 0
M  V30 3 C 0.933 2.03868 1.02534 0
M  V30 4 C 1.911 0.928543 1.3348 0
M  V30 5 O 3.095 1.19667 1.45644 0
M  V30 6 C 0.222 2.43627 2.35294 0
M  V30 7 C -0.732 3.65373 2.2001 0
M  V30 8 S 0.101 5.13292 1.52614 0
M  V30 9 C 1.257 5.56322 2.86805 0
M  V30 10 H 1.49 2.90518 0.631377 0
M  V30 11 H -0.977 1.52953 0.210867 0
M  V30 12 H 0.981 2.67203 3.11629 0
M  V30 13 H -0.358 1.57376 2.7183 0
M  V30 14 H -1.165 3.90944 3.18086 0
M  V30 15 H -1.563 3.418 1.51819 0
M  V30 16 H 0.729 5.58782 3.83104 0
M  V30 17 H 1.672 6.56266 2.65933 0
M  V30 18 H 2.08 4.83886 2.90714 0
M  V30 19 N 1.4781 -0.272755 1.55222 0
M  V30 20 C 2.8941 -0.619959 1.47067 0
M  V30 21 C 3.0941 -1.895 0.684978 0
M  V30 22 O 2.1501 -2.51675 0.203931 0
M  V30 23 C 3.4631 -0.746693 2.91282 0
M  V30 24 C 5.0111 -0.840731 3.01497 0
M  V30 25 C 5.4861 -0.99924 4.46967 0
M  V30 26 N 6.9771 -1.06476 4.50796 0
M  V30 27 C 7.7121 -1.20621 5.6057 0
M  V30 28 N 7.2081 -1.31483 6.80209 0
M  V30 29 N 9.0011 -1.23733 5.48312 0
M  V30 30 H 1.1521 0.564606 2.04758 0
M  V30 31 H 3.4151 0.191177 0.928523 0
M  V30 32 H 3.1211 0.119753 3.51496 0
M  V30 33 H 2.9951 -1.6269 3.40311 0
M  V30 34 H 5.3821 -1.69764 2.41379 0
M  V30 35 H 5.4631 0.0640874 2.5572 0
M  V30 36 H 5.1071 -0.146984 5.07687 0
M  V30 37 H 5.0371 -1.91871 4.90401 0
M  V30 38 H 7.5281 -0.993196 3.64615 0
M  V30 39 H 7.8411 -1.42111 7.59621 0
M  V30 40 H 6.1861 -1.28487 6.8302 0
M  V30 41 H 9.3771 -1.14877 4.53785 0
M  V30 42 H 9.5501 -1.34412 6.33906 0
M  V30 43 N 2.9562 -1.48159 -0.537278 0
M  V30 44 C 3.8862 -1.65029 -1.6519 0
M  V30 45 C 4.8672 -0.499281 -1.62607 0
M  V30 46 O 6.0522 -0.730972 -1.79918 0
M  V30 47 C 3.1822 -1.68303 -3.03795 0
M  V30 48 C 2.1362 -2.8283 -3.21234 0
M  V30 49 C 1.4622 -2.71189 -4.60826 0
M  V30 50 C 2.7622 -4.24211 -3.04701 0
M  V30 51 H 4.4562 -2.58341 -1.51328 0
M  V30 52 H 2.0022 -1.24325 -0.726585 0
M  V30 53 H 3.9552 -1.78693 -3.81637 0
M  V30 54 H 2.6792 -0.715635 -3.18663 0
M  V30 55 H 1.3382 -2.71983 -2.45807 0
M  V30 56 H 0.9862 -1.72435 -4.7252 0
M  V30 57 H 0.6862 -3.48035 -4.7344 0
M  V30 58 H 2.2102 -2.83537 -5.40777 0
M  V30 59 H 3.6242 -4.3593 -3.72341 0
M  V30 60 H 2.0212 -5.01998 -3.28813 0
M  V30 61 H 3.0912 -4.41184 -2.01209 0
M  V30 62 N 4.4343 0.785586 -1.36625 0
M  V30 63 C 5.3643 1.91259 -1.33949 0
M  V30 64 C 6.3453 1.68795 -0.210325 0
M  V30 65 O 7.5303 1.89854 -0.408561 0
M  V30 66 C 4.6603 3.28339 -1.13186 0
M  V30 67 C 3.6143 3.65335 -2.22967 0
M  V30 68 C 2.9403 5.00806 -1.87342 0
M  V30 69 C 4.2403 3.7352 -3.65075 0
M  V30 70 H 5.9343 1.93755 -2.28253 0
M  V30 71 H 3.4803 0.930788 -1.09874 0
M  V30 72 H 5.4333 4.06804 -1.09948 0
M  V30 73 H 4.1573 3.2624 -0.153332 0
M  V30 74 H 2.8163 2.89169 -2.25337 0
M  V30 75 H 2.4643 4.95233 -0.880545 0
M  V30 76 H 2.1643 5.26529 -2.60846 0
M  V30 77 H 3.6883 5.81687 -1.85667 0
M  V30 78 H 5.1023 4.42168 -3.64911 0
M  V30 79 H 3.4993 4.10731 -4.37516 0
M  V30 80 H 4.5693 2.74527 -3.99703 0
M  V30 81 N 5.9124 1.20967 1.01018 0
M  V30 82 C 6.8594 0.964281 2.09691 0
M  V30 83 C 7.8294 -0.107853 1.65749 0
M  V30 84 O 9.0144 0.0381987 1.90762 0
M  V30 85 C 6.1544 0.52943 3.41015 0
M  V30 86 C 5.2674 1.67043 3.98398 0
M  V30 87 C 4.4024 1.18525 5.17808 0
M  V30 88 C 3.4414 2.29892 5.67288 0
M  V30 89 N 2.5784 1.82546 6.77954 0
M  V30 90 H 7.4184 1.89463 2.30017 0
M  V30 91 H 4.9554 0.944289 1.1279 0
M  V30 92 H 6.9134 0.258588 4.16398 0
M  V30 93 H 5.5434 -0.363919 3.20742 0
M  V30 94 H 4.5954 2.05603 3.20049 0
M  V30 95 H 5.9074 2.50877 4.31117 0
M  V30 96 H 5.0614 0.870762 6.00419 0
M  V30 97 H 3.8004 0.316887 4.86669 0
M  V30 98 H 2.8054 2.6215 4.83278 0
M  V30 99 H 4.0304 3.17216 6.00459 0
M  V30 100 H 1.9764 0.980454 6.48632 0
M  V30 101 H 1.8934 2.59956 7.09901 0
M  V30 102 H 3.1614 1.54115 7.64113 0
M  V30 103 N 7.3905 -1.2043 1.01659 0
M  V30 104 C 8.6375 -1.89797 0.705917 0
M  V30 105 C 8.9655 -1.78848 -0.764439 0
M  V30 106 O 8.2205 -1.16694 -1.57102 0
M  V30 107 C 8.5195 -3.40464 1.08714 0
M  V30 108 C 8.1855 -3.71614 2.5537 0
M  V30 109 C 6.8475 -3.79826 2.95441 0
M  V30 110 C 9.1995 -3.85915 3.50313 0
M  V30 111 C 6.5275 -3.99797 4.29394 0
M  V30 112 C 8.8795 -4.07396 4.83954 0
M  V30 113 C 7.5435 -4.13837 5.23732 0
M  V30 114 H 6.8135 -0.694518 0.258313 0
M  V30 115 H 9.4605 -1.42691 1.27717 0
M  V30 116 H 7.7655 -3.89385 0.434309 0
M  V30 117 H 9.4625 -3.92433 0.824461 0
M  V30 118 H 6.0525 -3.65822 2.23321 0
M  V30 119 H 10.2365 -3.78926 3.20513 0
M  V30 120 H 5.4925 -4.03018 4.59768 0
M  V30 121 H 9.6665 -4.17404 5.57447 0
M  V30 122 H 7.2935 -4.29064 6.27541 0
M  V30 123 N 8.8686 -0.792821 -1.36206 0
M  V30 124 C 9.7986 -0.207853 -2.32573 0
M  V30 125 C 10.7796 0.659055 -1.56813 0
M  V30 126 O 11.9646 0.592176 -1.84951 0
M  V30 127 C 9.0946 0.655449 -3.41059 0
M  V30 128 C 8.0486 -0.111842 -4.27854 0
M  V30 129 C 7.3746 0.872274 -5.27537 0
M  V30 130 C 8.6746 -1.30299 -5.05786 0
M  V30 131 H 10.3686 -1.01294 -2.81744 0
M  V30 132 H 7.9146 -0.48854 -1.3546 0
M  V30 133 H 9.8676 1.07464 -4.07467 0
M  V30 134 H 8.5916 1.49328 -2.90463 0
M  V30 135 H 7.2506 -0.512053 -3.63006 0
M  V30 136 H 6.8986 1.70523 -4.73214 0
M  V30 137 H 6.5986 0.363291 -5.86476 0
M  V30 138 H 8.1226 1.28996 -5.96818 0
M  V30 139 H 9.5366 -0.959379 -5.65216 0
M  V30 140 H 7.9336 -1.7455 -5.74154 0
M  V30 141 H 9.0036 -2.09663 -4.37229 0
M  V30 142 N 10.3467 1.47872 -0.545128 0
M  V30 143 C 11.5927 2.03385 -0.0247951 0
M  V30 144 C 11.9477 1.41325 1.30556 0
M  V30 145 O 11.2407 0.5552 1.8338 0
M  V30 146 C 11.4347 3.57131 0.13867 0
M  V30 147 C 11.2637 4.34097 -1.17429 0
M  V30 148 C 10.0337 4.74458 -1.73831 0
M  V30 149 C 12.2317 4.6998 -2.08861 0
M  V30 150 N 10.2137 5.3602 -2.99258 0
M  V30 151 C 11.5847 5.31719 -3.18866 0
M  V30 152 C 13.6397 4.5191 -2.09003 0
M  V30 153 C 12.3427 5.77295 -4.29096 0
M  V30 154 C 14.3687 4.98477 -3.18237 0
M  V30 155 C 13.7307 5.60253 -4.26961 0
M  V30 156 H 9.8297 0.780339 -0.050943 0
M  V30 157 H 12.4137 1.80507 -0.729753 0
M  V30 158 H 10.5847 3.79802 0.812733 0
M  V30 159 H 12.3167 3.99282 0.659976 0
M  V30 160 H 9.0717 4.56037 -1.2778 0
M  V30 161 H 9.4957 5.71355 -3.63157 0
M  V30 162 H 14.1377 4.03516 -1.26234 0
M  V30 163 H 11.8557 6.24687 -5.12633 0
M  V30 164 H 15.4417 4.86274 -3.1942 0
M  V30 165 H 14.3217 5.95631 -5.10091 0
M  V30 166 N 11.8248 0.280983 1.55075 0
M  V30 167 C 13.0708 -0.327573 2.00745 0
M  V30 168 C 13.4258 -1.53045 1.16598 0
M  V30 169 O 12.7188 -1.90221 0.229451 0
M  V30 170 C 12.9128 -0.754656 3.49342 0
M  V30 171 C 12.7418 0.40529 4.4787 0
M  V30 172 C 11.5118 0.890947 4.97383 0
M  V30 173 C 13.7098 1.24371 4.99035 0
M  V30 174 N 11.6918 2.01975 5.79724 0
M  V30 175 C 13.0628 2.22031 5.7888 0
M  V30 176 C 15.1178 1.27638 4.81262 0
M  V30 177 C 13.8208 3.22709 6.42846 0
M  V30 178 C 15.8468 2.27164 5.46031 0
M  V30 179 C 15.2088 3.23556 6.25692 0
M  V30 180 H 11.3078 -0.0848774 0.77738 0
M  V30 181 H 13.8918 0.406342 1.90413 0
M  V30 182 H 12.0628 -1.45778 3.60005 0
M  V30 183 H 13.7948 -1.34105 3.81835 0
M  V30 184 H 10.5498 0.469262 4.71269 0
M  V30 185 H 10.9738 2.58794 6.25584 0
M  V30 186 H 15.6158 0.544936 4.19274 0
M  V30 187 H 13.3338 3.96784 7.0398 0
M  V30 188 H 16.9198 2.30441 5.34217 0
M  V30 189 H 15.7998 3.99309 6.74924 0
M  V30 190 N 13.3029 -1.57598 0.00835791 0
M  V30 191 C 14.5309 -1.95214 -0.68549 0
M  V30 192 C 14.9459 -0.883706 -1.66841 0
M  V30 193 O 14.3029 0.136565 -1.81988 0
M  V30 194 C 14.3539 -3.32865 -1.41007 0
M  V30 195 O 14.0749 -4.35609 -0.466552 0
M  V30 196 C 15.5759 -3.84991 -2.19765 0
M  V30 197 H 12.7959 -0.643422 -0.190392 0
M  V30 198 H 15.3399 -2.04406 0.0619607 0
M  V30 199 H 13.4949 -3.24956 -2.10908 0
M  V30 200 H 13.9089 -5.15288 -0.978699 0
M  V30 201 H 15.3829 -4.8371 -2.65948 0
M  V30 202 H 15.8599 -3.18137 -3.02796 0
M  V30 203 H 16.4659 -3.96103 -1.54864 0
M  V30 204 N 14.781 0.264519 -1.55364 0
M  V30 205 C 16.021 1.00254 -1.78125 0
M  V30 206 C 16.385 1.83187 -0.575017 0
M  V30 207 O 17.586 2.60029 -0.681042 0
M  V30 208 C 15.857 1.85478 -3.05504 0
M  V30 209 S 17.416 2.6543 -3.49417 0
M  V30 210 H 14.234 0.337522 -0.625779 0
M  V30 211 H 16.836 0.272111 -1.93597 0
M  V30 212 H 15.54 1.23491 -3.9138 0
M  V30 213 H 15.071 2.62827 -2.92721 0
M  V30 214 H 17.086 3.87958 -3.09359 0
M  V30 215 N 16.2591 1.48442 0.529413 0
M  V30 216 C 17.5051 1.5672 1.28711 0
M  V30 217 C 17.8381 0.2406 1.92704 0
M  V30 218 O 17.1131 -0.753454 1.79313 0
M  V30 219 C 17.3961 2.70587 2.37603 0
M  V30 220 C 17.2491 4.12953 1.78297 0
M  V30 221 C 18.5681 2.80212 3.39366 0
M  V30 222 H 15.6871 0.570474 0.466613 0
M  V30 223 H 18.3291 1.80617 0.589706 0
M  V30 224 H 16.4791 2.50342 2.97088 0
M  V30 225 H 18.1511 4.44639 1.22858 0
M  V30 226 H 16.3941 4.19927 1.0883 0
M  V30 227 H 17.0651 4.88448 2.57144 0
M  V30 228 H 19.5411 2.98553 2.89836 0
M  V30 229 H 18.4171 3.61611 4.12951 0
M  V30 230 H 18.6781 1.88393 3.99951 0
M  V30 231 N 17.7372 -0.778329 1.37039 0
M  V30 232 C 18.9652 -1.56734 1.35063 0
M  V30 233 C 19.3802 -1.88686 -0.0655597 0
M  V30 234 O 18.7372 -1.5096 -1.02554 0
M  V30 235 C 18.7882 -2.88163 2.18276 0
M  V30 236 O 18.5092 -2.57583 3.54376 0
M  V30 237 C 20.0102 -3.82422 2.24206 0
M  V30 238 H 17.2302 -0.485778 0.462883 0
M  V30 239 H 19.7742 -0.965185 1.8029 0
M  V30 240 H 17.9292 -3.44818 1.76576 0
M  V30 241 H 18.3432 -3.41699 3.97922 0
M  V30 242 H 19.8172 -4.71667 2.86765 0
M  V30 243 H 20.2942 -4.21078 1.24861 0
M  V30 244 H 20.9002 -3.31697 2.6619 0
M  V30 245 N 19.2153 -1.21501 -1.00376 0
M  V30 246 C 20.1453 -0.999478 -2.11028 0
M  V30 247 C 21.1263 0.0759671 -1.6993 0
M  V30 248 O 22.3113 -0.0841106 -1.94018 0
M  V30 249 C 19.4413 -0.564709 -3.42678 0
M  V30 250 C 18.3953 -1.58486 -3.97576 0
M  V30 251 C 17.7213 -1.00628 -5.25146 0
M  V30 252 C 19.0213 -2.97204 -4.29496 0
M  V30 253 H 20.7153 -1.92495 -2.29317 0
M  V30 254 H 18.2613 -0.92693 -1.102 0
M  V30 255 H 20.2143 -0.401091 -4.19487 0
M  V30 256 H 18.9383 0.396411 -3.24185 0
M  V30 257 H 17.5973 -1.73606 -3.22888 0
M  V30 258 H 17.2453 -0.0368439 -5.02987 0
M  V30 259 H 16.9453 -1.68771 -5.62841 0
M  V30 260 H 18.4693 -0.854015 -6.04598 0
M  V30 261 H 19.8833 -2.8552 -4.97143 0
M  V30 262 H 18.2803 -3.62372 -4.78338 0
M  V30 263 H 19.3503 -3.47956 -3.3772 0
M  V30 264 N 20.6934 1.19889 -1.02296 0
M  V30 265 C 21.9424 1.88743 -0.711257 0
M  V30 266 C 22.2554 1.80112 0.762817 0
M  V30 267 O 23.4614 2.44161 1.18733 0
M  V30 268 C 21.9174 3.38525 -1.22185 0
M  V30 269 C 21.5254 3.55727 -2.72328 0
M  V30 270 C 23.2694 4.12893 -0.985864 0
M  V30 271 C 21.1764 4.99369 -3.16835 0
M  V30 272 H 20.1064 0.706885 -0.262353 0
M  V30 273 H 22.7574 1.35586 -1.23648 0
M  V30 274 H 21.1394 3.91044 -0.624571 0
M  V30 275 H 22.3134 3.13564 -3.3766 0
M  V30 276 H 20.6284 2.94739 -2.9414 0
M  V30 277 H 23.2254 5.18813 -1.29374 0
M  V30 278 H 23.5684 4.16228 0.0775055 0
M  V30 279 H 24.1014 3.66494 -1.54684 0
M  V30 280 H 20.8404 5.01193 -4.22476 0
M  V30 281 H 20.3604 5.42317 -2.56228 0
M  V30 282 H 22.0394 5.67988 -3.09837 0
M  V30 283 N 22.1715 0.800033 1.35784 0
M  V30 284 C 23.4115 0.382891 2.00782 0
M  V30 285 C 23.7755 -1.02891 1.62103 0
M  V30 286 O 24.9765 -1.54771 2.19771 0
M  V30 287 C 23.2475 0.553299 3.53091 0
M  V30 288 S 24.8065 0.225608 4.3822 0
M  V30 289 H 21.6245 0.145737 0.695904 0
M  V30 290 H 24.2265 1.04085 1.65489 0
M  V30 291 H 22.9305 1.58091 3.78729 0
M  V30 292 H 22.4615 -0.120214 3.93216 0
M  V30 293 H 24.4765 -0.969074 4.86645 0
M  V30 294 N 23.6496 -1.47581 0.552962 0
M  V30 295 C 24.8976 -2.02082 0.0272703 0
M  V30 296 C 25.2186 -1.4301 -1.32563 0
M  V30 297 O 24.4886 -0.603745 -1.86365 0
M  V30 298 H 23.0686 -0.746966 0.00709182 0
M  V30 299 H 25.7306 -1.81033 0.722008 0
M  V30 300 H 24.8266 -3.12034 -0.0639951 0
M  V30 301 N 25.1277 -0.289203 -1.54924 0
M  V30 302 C 26.3737 0.323998 -2.00195 0
M  V30 303 C 26.7067 1.54441 -1.17735 0
M  V30 304 O 25.9817 1.92875 -0.250878 0
M  V30 305 C 26.2647 0.692276 -3.53383 0
M  V30 306 C 26.1177 -0.536457 -4.46589 0
M  V30 307 C 27.4367 1.52335 -4.12895 0
M  V30 308 H 24.5557 0.116289 -0.727768 0
M  V30 309 H 27.1977 -0.398954 -1.85764 0
M  V30 310 H 25.3477 1.30822 -3.65811 0
M  V30 311 H 27.0197 -1.17499 -4.46085 0
M  V30 312 H 25.2627 -1.17192 -4.1767 0
M  V30 313 H 25.9337 -0.234806 -5.515 0
M  V30 314 H 28.4097 1.00302 -4.0383 0
M  V30 315 H 27.2857 1.74982 -5.20262 0
M  V30 316 H 27.5467 2.50886 -3.64018 0
M  V30 317 N 26.6058 1.57591 -0.0167156 0
M  V30 318 C 27.5358 2.12496 0.967858 0
M  V30 319 C 28.5168 1.03807 1.34752 0
M  V30 320 O 29.7018 1.31577 1.42833 0
M  V30 321 C 26.8318 2.64194 2.25431 0
M  V30 322 C 25.7858 3.77559 2.01576 0
M  V30 323 C 25.1118 4.15636 3.36379 0
M  V30 324 C 26.4118 5.04151 1.36489 0
M  V30 325 H 28.1058 2.95013 0.510643 0
M  V30 326 H 25.6518 1.41915 0.244181 0
M  V30 327 H 27.6048 3.01236 2.94678 0
M  V30 328 H 26.3288 1.78821 2.73296 0
M  V30 329 H 24.9878 3.40937 1.34751 0
M  V30 330 H 24.6358 3.27263 3.81979 0
M  V30 331 H 24.3358 4.92022 3.21229 0
M  V30 332 H 25.8598 4.5525 4.06915 0
M  V30 333 H 27.2738 5.38857 1.95718 0
M  V30 334 H 25.6708 5.85453 1.31776 0
M  V30 335 H 26.7408 4.83733 0.336219 0
M  V30 336 N 28.0839 -0.256276 1.55502 0
M  V30 337 C 29.0139 -1.32102 1.92539 0
M  V30 338 C 29.9949 -1.50684 0.789194 0
M  V30 339 O 31.1799 -1.63449 1.04872 0
M  V30 340 C 28.3099 -2.67752 2.21192 0
M  V30 341 C 27.2639 -2.63878 3.36975 0
M  V30 342 C 26.5899 -4.03236 3.51147 0
M  V30 343 C 27.8899 -2.21682 4.72921 0
M  V30 344 H 29.5839 -1.01351 2.81724 0
M  V30 345 H 27.1299 -0.486105 1.35547 0
M  V30 346 H 29.0829 -3.42365 2.45691 0
M  V30 347 H 27.8069 -3.0012 1.28824 0
M  V30 348 H 26.4659 -1.91722 3.12471 0
M  V30 349 H 26.1139 -4.32854 2.56216 0
M  V30 350 H 25.8139 -4.01535 4.29003 0
M  V30 351 H 27.3379 -4.79563 3.77957 0
M  V30 352 H 28.7519 -2.86023 4.96854 0
M  V30 353 H 27.1489 -2.3111 5.53812 0
M  V30 354 H 28.2189 -1.16833 4.70615 0
M  V30 355 N 29.562 -1.4872 -0.521534 0
M  V30 356 C 30.787 -1.61101 -1.30618 0
M  V30 357 C 31.212 -0.274611 -1.86085 0
M  V30 358 O 30.57 0.754937 -1.64834 0
M  V30 359 C 30.618 -2.66709 -2.4269 0
M  V30 360 O 29.722 -2.24456 -3.45967 0
M  V30 361 H 29.063 -0.539921 -0.386499 0
M  V30 362 H 31.593 -1.94767 -0.626645 0
M  V30 363 H 31.603 -2.88245 -2.88754 0
M  V30 364 H 30.278 -3.63727 -2.01682 0
M  V30 365 H 28.855 -2.13168 -3.05964 0
M  V30 366 N 31.0401 0.771051 -1.3745 0
M  V30 367 C 32.2871 1.52963 -1.32697 0
M  V30 368 C 32.6151 1.94299 0.0883274 0
M  V30 369 O 31.8701 1.64397 1.0617 0
M  V30 370 C 32.1691 2.80676 -2.2126 0
M  V30 371 C 31.8351 2.58389 -3.69521 0
M  V30 372 C 30.4971 2.52019 -4.09927 0
M  V30 373 C 32.8491 2.38469 -4.63446 0
M  V30 374 C 30.1771 2.23721 -5.42371 0
M  V30 375 C 32.5291 2.11694 -5.96128 0
M  V30 376 C 31.1931 2.03769 -6.35637 0
M  V30 377 H 30.4631 0.559732 -0.485573 0
M  V30 378 H 33.1101 0.888083 -1.69662 0
M  V30 379 H 31.4151 3.49392 -1.77291 0
M  V30 380 H 33.1121 3.38557 -2.14895 0
M  V30 381 H 29.7021 2.6421 -3.37478 0
M  V30 382 H 33.8861 2.4238 -4.33089 0
M  V30 383 H 29.1421 2.16081 -5.71943 0
M  V30 384 H 33.3161 1.9528 -6.6846 0
M  V30 385 H 30.9431 1.81606 -7.38189 0
M  V30 386 N 32.5182 1.22032 0.997298 0
M  V30 387 C 33.7432 1.06921 1.77715 0
M  V30 388 C 34.1682 -0.376226 1.84299 0
M  V30 389 O 33.5262 -1.27165 1.29223 0
M  V30 390 C 33.5742 1.67996 3.19076 0
M  V30 391 O 32.6782 0.930653 4.01762 0
M  V30 392 H 32.0192 0.375814 0.547412 0
M  V30 393 H 34.5492 1.61737 1.25309 0
M  V30 394 H 34.5592 1.72538 3.69723 0
M  V30 395 H 33.2342 2.73182 3.13599 0
M  V30 396 H 31.8112 0.960917 3.60307 0
M  V30 397 N 33.9963 -1.19345 1.0293 0
M  V30 398 C 35.2443 -1.88665 0.724574 0
M  V30 399 C 35.5653 -1.80036 -0.749144 0
M  V30 400 O 34.8353 -1.2111 -1.53978 0
M  V30 401 H 33.4153 -0.698406 0.265025 0
M  V30 402 H 36.0773 -1.44885 1.30362 0
M  V30 403 H 35.1733 -2.94987 1.01926 0
M  V30 404 N 35.4744 -0.807222 -1.35358 0
M  V30 405 C 36.4374 -0.223665 -2.28106 0
M  V30 406 C 37.4374 0.589354 -1.4961 0
M  V30 407 O 38.6274 0.407745 -1.69361 0
M  V30 408 C 35.7594 0.688149 -3.33882 0
M  V30 409 H 36.9524 -1.04169 -2.81227 0
M  V30 410 H 34.5054 -0.577921 -1.45223 0
M  V30 411 H 35.2404 1.52984 -2.85948 0
M  V30 412 H 35.0254 0.10687 -3.91954 0
M  V30 413 H 36.5154 1.09075 -4.03104 0
M  V30 414 N 36.9525 1.47285 -0.560781 0
M  V30 415 C 38.1825 2.06555 -0.0429638 0
M  V30 416 C 38.5905 1.41339 1.25777 0
M  V30 417 O 37.9335 0.505182 1.76617 0
M  V30 418 C 37.9955 3.58827 0.219887 0
M  V30 419 C 37.6595 4.46105 -0.991944 0
M  V30 420 C 38.6565 4.84 -1.89843 0
M  V30 421 C 36.3415 4.87567 -1.20762 0
M  V30 422 C 38.3355 5.6216 -3.00425 0
M  V30 423 C 36.0225 5.65491 -2.31653 0
M  V30 424 C 37.0205 6.02699 -3.21315 0
M  V30 425 O 36.7085 6.79052 -4.30283 0
M  V30 426 H 36.4405 0.674537 -0.0444468 0
M  V30 427 H 38.9945 1.90225 -0.774818 0
M  V30 428 H 37.2245 3.73383 1.00609 0
M  V30 429 H 38.9135 4.00103 0.683522 0
M  V30 430 H 39.6795 4.52564 -1.74387 0
M  V30 431 H 35.5585 4.5807 -0.518893 0
M  V30 432 H 39.1025 5.9112 -3.70436 0
M  V30 433 H 34.9995 5.9634 -2.47081 0
M  V30 434 H 35.7675 6.9745 -4.28376 0
M  V30 435 N 38.4306 0.297415 1.54768 0
M  V30 436 C 39.3606 -0.573494 2.26348 0
M  V30 437 C 40.3416 -1.14085 1.26169 0
M  V30 438 O 41.5266 -1.17086 1.54934 0
M  V30 439 C 38.6566 -1.74716 3.00153 0
M  V30 440 C 37.6106 -1.31032 4.07449 0
M  V30 441 C 36.9366 -2.56887 4.68949 0
M  V30 442 C 38.2366 -0.444183 5.20408 0
M  V30 443 H 39.9306 0.0235131 2.99391 0
M  V30 444 H 37.4766 0.0127488 1.43994 0
M  V30 445 H 39.4296 -2.3625 3.48947 0
M  V30 446 H 38.1536 -2.37035 2.24682 0
M  V30 447 H 36.8126 -0.718066 3.59499 0
M  V30 448 H 36.4606 -3.17512 3.90122 0
M  V30 449 H 36.1606 -2.2836 5.41411 0
M  V30 450 H 37.6846 -3.19229 5.20505 0
M  V30 451 H 39.0986 -0.9651 5.65118 0
M  V30 452 H 37.4956 -0.252846 5.99567 0
M  V30 453 H 38.5656 0.531609 4.81977 0
M  V30 454 N 39.9087 -1.5758 0.0250728 0
M  V30 455 C 41.1387 -1.95646 -0.663783 0
M  V30 456 C 41.5467 -0.899935 -1.66427 0
M  V30 457 O 40.8897 0.127191 -1.83259 0
M  V30 458 C 40.9517 -3.29835 -1.43 0
M  V30 459 C 40.6157 -4.53197 -0.588305 0
M  V30 460 C 41.6127 -5.19726 0.13469 0
M  V30 461 C 39.2977 -4.99529 -0.526897 0
M  V30 462 C 41.2917 -6.30902 0.90781 0
M  V30 463 C 38.9787 -6.10589 0.24993 0
M  V30 464 C 39.9767 -6.76134 0.965994 0
M  V30 465 O 39.6647 -7.85062 1.7301 0
M  V30 466 H 39.3967 -0.649282 -0.188174 0
M  V30 467 H 41.9507 -2.05245 0.0799006 0
M  V30 468 H 40.1807 -3.16716 -2.21873 0
M  V30 469 H 41.8697 -3.52833 -2.00658 0
M  V30 470 H 42.6357 -4.84904 0.0965562 0
M  V30 471 H 38.5147 -4.48319 -1.07381 0
M  V30 472 H 42.0587 -6.81995 1.46724 0
M  V30 473 H 37.9557 -6.44849 0.289795 0
M  V30 474 H 38.7237 -8.01708 1.64944 0
M  V30 475 N 41.3868 0.248026 -1.55636 0
M  V30 476 C 42.3168 1.31079 -1.93237 0
M  V30 477 C 43.2978 1.50264 -0.797174 0
M  V30 478 O 44.4828 1.62891 -1.05737 0
M  V30 479 C 41.6128 2.66575 -2.22609 0
M  V30 480 C 40.5668 2.62087 -3.3837 0
M  V30 481 C 39.8928 4.01369 -3.53281 0
M  V30 482 C 41.1928 2.19171 -4.7409 0
M  V30 483 H 42.8868 0.998556 -2.82257 0
M  V30 484 H 40.4328 0.47891 -1.35803 0
M  V30 485 H 42.3858 3.41057 -2.47503 0
M  V30 486 H 41.1098 2.99432 -1.30414 0
M  V30 487 H 39.7688 1.90063 -3.13483 0
M  V30 488 H 39.4168 4.31489 -2.58508 0
M  V30 489 H 39.1168 3.99254 -4.31127 0
M  V30 490 H 40.6408 4.77552 -3.80495 0
M  V30 491 H 42.0548 2.83384 -4.98363 0
M  V30 492 H 40.4518 2.2817 -5.5503 0
M  V30 493 H 41.5218 1.14336 -4.71227 0
M  V30 494 N 42.8649 1.48995 0.513639 0
M  V30 495 C 44.0899 1.61792 1.29762 0
M  V30 496 C 44.5149 0.284475 1.85936 0
M  V30 497 O 43.8729 -0.746185 1.65232 0
M  V30 498 C 43.9209 2.67993 2.41272 0
M  V30 499 O 43.0249 2.26287 3.44772 0
M  V30 500 H 42.3659 0.541963 0.38363 0
M  V30 501 H 44.8959 1.95097 0.616307 0
M  V30 502 H 44.9059 2.89772 2.87221 0
M  V30 503 H 43.5809 3.64791 1.9975 0
M  V30 504 H 42.1579 2.14788 3.04829 0
M  V30 505 N 44.343 -0.763751 1.37857 0
M  V30 506 C 45.754 -1.3405 1.29952 0
M  V30 507 C 46.105 -1.96138 -0.0492898 0
M  V30 508 O 45.23 -1.94372 -0.951239 0
M  V30 509 C 45.825 -2.43729 2.35333 0
M  V30 510 C 44.384 -2.97151 2.31037 0
M  V30 511 C 43.531 -1.70438 2.18738 0
M  V30 512 H 46.482 -0.563396 1.48363 0
M  V30 513 H 46.503 -3.23412 2.00462 0
M  V30 514 H 46.015 -1.9851 3.33489 0
M  V30 515 H 44.116 -3.46724 1.3643 0
M  V30 516 H 44.229 -3.52221 3.24772 0
M  V30 517 H 42.593 -1.93673 1.65418 0
M  V30 518 H 43.376 -1.27312 3.18821 0
M  V30 519 N 45.8211 -1.22559 -0.990812 0
M  V30 520 C 47.0461 -1.07862 -1.77145 0
M  V30 521 C 47.4711 0.366447 -1.84496 0
M  V30 522 O 46.8291 1.26478 -1.29896 0
M  V30 523 C 46.8771 -1.69686 -3.18181 0
M  V30 524 O 45.9811 -0.951946 -4.01263 0
M  V30 525 H 45.3221 -0.378712 -0.545411 0
M  V30 526 H 47.8521 -1.62399 -1.2445 0
M  V30 527 H 47.8621 -1.74496 -3.68802 0
M  V30 528 H 46.5371 -2.74841 -3.12146 0
M  V30 529 H 45.1141 -0.980011 -3.59792 0
M  V30 530 N 47.2992 1.18797 -1.03562 0
M  V30 531 C 48.2292 2.24472 -0.643019 0
M  V30 532 C 49.2102 1.66433 0.351283 0
M  V30 533 O 50.3952 1.92803 0.232505 0
M  V30 534 C 47.5252 3.473 4.24935e-05 0
M  V30 535 C 46.4792 4.18055 -0.917257 0
M  V30 536 C 45.8052 5.34519 -0.138941 0
M  V30 537 C 47.1052 4.72109 -2.23407 0
M  V30 538 H 48.7992 2.57566 -1.52643 0
M  V30 539 H 46.3452 1.23806 -0.735394 0
M  V30 540 H 48.2982 4.20426 0.286383 0
M  V30 541 H 47.0222 3.13424 0.918299 0
M  V30 542 H 45.6812 3.46821 -1.1879 0
M  V30 543 H 45.3292 4.96891 0.781562 0
M  V30 544 H 45.0292 5.82794 -0.750005 0
M  V30 545 H 46.5532 6.10438 0.1405 0
M  V30 546 H 47.9672 5.36955 -2.00879 0
M  V30 547 H 46.3642 5.30897 -2.79765 0
M  V30 548 H 47.4342 3.89807 -2.88407 0
M  V30 549 N 48.7773 0.814389 1.34928 0
M  V30 550 C 50.1883 0.458364 1.80986 0
M  V30 551 C 50.5393 -1.02042 1.67577 0
M  V30 552 O 49.6643 -1.79352 1.21086 0
M  V30 553 C 50.2593 0.825212 3.28597 0
M  V30 554 C 48.8183 0.521677 3.72767 0
M  V30 555 C 47.9653 1.04668 2.56788 0
M  V30 556 H 50.9163 1.00533 1.22795 0
M  V30 557 H 50.9373 0.12571 3.80292 0
M  V30 558 H 50.4493 1.90154 3.38324 0
M  V30 559 H 48.5503 -0.545589 3.68584 0
M  V30 560 H 48.6633 1.05977 4.67232 0
M  V30 561 H 47.0273 0.468622 2.50352 0
M  V30 562 H 47.8103 2.12927 2.6929 0
M  V30 563 N 50.2554 -1.46986 0.568584 0
M  V30 564 C 51.4804 -2.07335 0.0520528 0
M  V30 565 C 51.9054 -1.41675 -1.23733 0
M  V30 566 O 51.2634 -0.495623 -1.74394 0
M  V30 567 C 51.3114 -3.60417 -0.11501 0
M  V30 568 O 50.4154 -3.95309 -1.17492 0
M  V30 569 H 49.7564 -0.661597 0.0564385 0
M  V30 570 H 52.2864 -1.88837 0.787507 0
M  V30 571 H 52.2964 -4.06698 -0.325644 0
M  V30 572 H 50.9714 -4.07601 0.826675 0
M  V30 573 H 49.5484 -3.60757 -0.943869 0
M  V30 574 N 51.7335 -0.305618 -1.54608 0
M  V30 575 C 52.9795 0.302746 -2.00528 0
M  V30 576 C 53.3125 1.53184 -1.19367 0
M  V30 577 O 52.5875 1.92598 -0.271321 0
M  V30 578 C 52.8705 0.654756 -3.54097 0
M  V30 579 C 52.7235 -0.583793 -4.45995 0
M  V30 580 C 54.0425 1.47947 -4.14487 0
M  V30 581 H 51.1615 0.108564 -0.72896 0
M  V30 582 H 53.8035 -0.418634 -1.85331 0
M  V30 583 H 51.9535 1.26935 -3.67178 0
M  V30 584 H 53.6255 -1.22224 -4.44814 0
M  V30 585 H 51.8685 -1.21615 -4.16404 0
M  V30 586 H 52.5395 -0.293287 -5.5122 0
M  V30 587 H 55.0155 0.96013 -4.04871 0
M  V30 588 H 53.8915 1.69454 -5.22088 0
M  V30 589 H 54.1525 2.47011 -3.66658 0
M  V30 590 N 53.2116 1.57565 -0.0334293 0
M  V30 591 C 54.1216 2.13943 0.962572 0
M  V30 592 C 55.1376 1.09276 1.35406 0
M  V30 593 O 56.3136 1.41355 1.4346 0
M  V30 594 C 53.3786 2.65887 2.22497 0
M  V30 595 C 52.4396 3.85286 1.8935 0
M  V30 596 C 51.6726 4.34743 3.09571 0
M  V30 597 O 51.8956 3.83352 4.22371 0
M  V30 598 O 50.8296 5.26538 2.91618 0
M  V30 599 H 54.6556 2.99333 0.513169 0
M  V30 600 H 52.2406 1.4822 0.18743 0
M  V30 601 H 54.1226 2.99346 2.96598 0
M  V30 602 H 52.7976 1.83578 2.6661 0
M  V30 603 H 51.7046 3.56746 1.1262 0
M  V30 604 H 53.0376 4.68771 1.5005 0
M  V30 605 N 54.6897 -0.239769 1.55765 0
M  V30 606 C 55.6527 -1.28038 1.90103 0
M  V30 607 C 56.6527 -1.40723 0.778055 0
M  V30 608 O 57.8427 -1.39301 1.04599 0
M  V30 609 C 54.9747 -2.65702 2.13577 0
M  V30 610 H 56.1677 -0.988048 2.83157 0
M  V30 611 H 53.7207 -0.479382 1.48767 0
M  V30 612 H 54.4557 -3.00063 1.23015 0
M  V30 613 H 54.2407 -2.57875 2.95369 0
M  V30 614 H 55.7307 -3.40828 2.41301 0
M  V30 615 N 56.1678 -1.49265 -0.50573 0
M  V30 616 C 57.0978 -1.68495 -1.61653 0
M  V30 617 C 58.0788 -0.53366 -1.61512 0
M  V30 618 O 59.2638 -0.76897 -1.78327 0
M  V30 619 C 56.3938 -1.74709 -3.00157 0
M  V30 620 C 55.3478 -2.89581 -3.15162 0
M  V30 621 C 54.6738 -2.80903 -4.5497 0
M  V30 622 C 55.9738 -4.30578 -2.95634 0
M  V30 623 H 57.6678 -2.61493 -1.45814 0
M  V30 624 H 55.2138 -1.25838 -0.70005 0
M  V30 625 H 57.1668 -1.86748 -3.77761 0
M  V30 626 H 55.8908 -0.783067 -3.17074 0
M  V30 627 H 54.5498 -2.77136 -2.39982 0
M  V30 628 H 54.1978 -1.82419 -4.68756 0
M  V30 629 H 53.8978 -3.57999 -4.65951 0
M  V30 630 H 55.4218 -2.94944 -5.34641 0
M  V30 631 H 56.8358 -4.4373 -3.63011 0
M  V30 632 H 55.2328 -5.0886 -3.18091 0
M  V30 633 H 56.3028 -4.45352 -1.91806 0
M  V30 634 N 57.6459 0.756429 -1.3826 0
M  V30 635 C 59.0619 1.0591 -1.19395 0
M  V30 636 C 59.2619 2.01459 -0.0406567 0
M  V30 637 O 58.3179 2.44909 0.614467 0
M  V30 638 C 59.6309 1.64191 -2.51916 0
M  V30 639 C 61.1789 1.76376 -2.58574 0
M  V30 640 C 61.6539 2.38069 -3.91264 0
M  V30 641 N 63.1449 2.45503 -3.92788 0
M  V30 642 C 63.8799 2.94126 -4.92217 0
M  V30 643 N 63.3759 3.42805 -6.02043 0
M  V30 644 N 65.1689 2.9314 -4.7961 0
M  V30 645 H 57.3199 0.122313 -2.12048 0
M  V30 646 H 59.5829 0.116892 -0.940766 0
M  V30 647 H 59.2889 1.01451 -3.3675 0
M  V30 648 H 59.1629 2.6329 -2.70108 0
M  V30 649 H 61.5499 2.38244 -1.74137 0
M  V30 650 H 61.6309 0.759894 -2.44252 0
M  V30 651 H 61.2749 1.76835 -4.76121 0
M  V30 652 H 61.2049 3.39091 -4.02895 0
M  V30 653 H 63.6959 2.1107 -3.13461 0
M  V30 654 H 64.0089 3.78354 -6.73846 0
M  V30 655 H 62.3539 3.4087 -6.05667 0
M  V30 656 H 65.5449 2.54419 -3.92923 0
M  V30 657 H 65.7179 3.30721 -5.5725 0
M  V30 658 N 59.124 1.23083 0.984299 0
M  V30 659 C 60.072 1.00593 2.09723 0
M  V30 660 C 61.066 -0.0538014 1.69315 0
M  V30 661 O 62.272 0.0993719 1.79725 0
M  V30 662 H 58.647 0.30817 0.685956 0
M  V30 663 H 60.618 1.95012 2.2586 0
M  V30 664 C 59.367 0.609601 3.42314 0
M  V30 665 H 58.69 1.41675 3.73856 0
M  V30 666 H 60.13 0.491726 4.21139 0
M  V30 667 C 58.589 -0.681745 3.2993 0
M  V30 668 O 59.119 -1.73192 3.62446 0
M  V30 669 N 57.325 -0.656178 2.83095 0
M  V30 670 H 56.872 0.198759 2.56832 0
M  V30 671 H 56.83 -1.52044 2.75191 0
M  V30 672 N 60.6021 -1.18246 1.0419 0
M  V30 673 C 61.8481 -1.88536 0.747122 0
M  V30 674 C 62.1811 -1.80223 -0.723409 0
M  V30 675 O 61.4561 -1.20337 -1.52804 0
M  V30 676 C 61.7391 -3.38968 1.21544 0
M  V30 677 C 61.5921 -3.56084 2.74816 0
M  V30 678 C 62.9111 -4.32648 0.806482 0
M  V30 679 H 60.0301 -0.684619 0.272883 0
M  V30 680 H 62.6721 -1.39113 1.29413 0
M  V30 681 H 60.8221 -3.8119 0.750081 0
M  V30 682 H 62.4941 -3.22946 3.29399 0
M  V30 683 H 60.7371 -2.98699 3.14582 0
M  V30 684 H 61.4081 -4.61639 3.02644 0
M  V30 685 H 63.8841 -3.98211 1.20695 0
M  V30 686 H 62.7601 -5.36462 1.1619 0
M  V30 687 H 63.0211 -4.41146 -0.29029 0
M  V30 688 N 62.0802 -0.821533 -1.34494 0
M  V30 689 C 63.0122 -0.199946 -2.28326 0
M  V30 690 C 64.0252 0.609377 -1.50965 0
M  V30 691 O 65.2142 0.439285 -1.7301 0
M  V30 692 C 62.3142 0.738431 -3.30757 0
M  V30 693 C 61.4872 -0.0277632 -4.37391 0
M  V30 694 C 60.5462 0.831332 -5.19591 0
M  V30 695 O 59.5722 0.276822 -5.68526 0
M  V30 696 N 60.7742 2.15132 -5.39165 0
M  V30 697 H 63.5392 -1.00609 -2.82308 0
M  V30 698 H 61.1002 -0.678366 -1.47003 0
M  V30 699 H 63.0922 1.31773 -3.82646 0
M  V30 700 H 61.6622 1.44533 -2.7718 0
M  V30 701 H 60.8822 -0.788359 -3.86236 0
M  V30 702 H 62.1702 -0.555251 -5.05761 0
M  V30 703 H 61.5682 2.62559 -5.01078 0
M  V30 704 H 60.1252 2.6795 -5.94177 0
M  V30 705 N 63.5583 1.46682 -0.576371 0
M  V30 706 C 64.4883 2.33028 0.148397 0
M  V30 707 C 65.4693 1.44961 0.889956 0
M  V30 708 O 66.6543 1.73789 0.866662 0
M  V30 709 C 63.7843 3.27117 1.1667 0
M  V30 710 C 62.7383 4.24575 0.540386 0
M  V30 711 C 62.0643 5.08126 1.6647 0
M  V30 712 C 63.3643 5.19722 -0.518331 0
M  V30 713 H 65.0583 2.93875 -0.572509 0
M  V30 714 H 62.6043 1.41315 -0.276768 0
M  V30 715 H 64.5573 3.86374 1.68204 0
M  V30 716 H 63.2813 2.64364 1.9178 0
M  V30 717 H 61.9403 3.66571 0.0461769 0
M  V30 718 H 61.5883 4.41762 2.40531 0
M  V30 719 H 61.2883 5.74122 1.25131 0
M  V30 720 H 62.8123 5.70246 2.18293 0
M  V30 721 H 64.2263 5.73232 -0.0883058 0
M  V30 722 H 62.6233 5.94026 -0.851679 0
M  V30 723 H 63.6933 4.64037 -1.40703 0
M  V30 724 N 65.0364 0.313813 1.54444 0
M  V30 725 C 65.9684 -0.590425 2.21465 0
M  V30 726 C 66.9814 -1.08753 1.21147 0
M  V30 727 O 68.1704 -1.00278 1.4767 0
M  V30 728 C 65.2704 -1.82179 2.85769 0
M  V30 729 C 64.4434 -1.46502 4.12136 0
M  V30 730 C 63.5024 -2.55288 4.60124 0
M  V30 731 O 62.5284 -2.19842 5.25032 0
M  V30 732 N 63.7304 -3.86053 4.33525 0
M  V30 733 H 66.4954 -0.0166033 2.99695 0
M  V30 734 H 64.0564 0.136578 1.61323 0
M  V30 735 H 66.0484 -2.54328 3.14801 0
M  V30 736 H 64.6184 -2.30369 2.11303 0
M  V30 737 H 63.8384 -0.575595 3.89975 0
M  V30 738 H 65.1264 -1.20221 4.94393 0
M  V30 739 H 64.5244 -4.17654 3.81552 0
M  V30 740 H 63.0814 -4.54461 4.67235 0
M  V30 741 N 66.5145 -1.57545 0.0417849 0
M  V30 742 C 67.7635 -1.91494 -0.633492 0
M  V30 743 C 68.0765 -0.921084 -1.72556 0
M  V30 744 O 69.2825 -1.15228 -2.45835 0
M  V30 745 C 67.7385 -3.40072 -1.17808 0
M  V30 746 C 67.3465 -4.47843 -0.118633 0
M  V30 747 C 69.0905 -3.8307 -1.82915 0
M  V30 748 C 66.9975 -5.87529 -0.675578 0
M  V30 749 H 65.9275 -0.714653 -0.24039 0
M  V30 750 H 68.5785 -1.83175 0.109148 0
M  V30 751 H 66.9605 -3.43364 -1.97274 0
M  V30 752 H 68.1345 -4.56128 0.654494 0
M  V30 753 H 66.4495 -4.14128 0.434414 0
M  V30 754 H 69.0465 -4.84794 -2.25563 0
M  V30 755 H 69.3895 -3.1881 -2.67705 0
M  V30 756 H 69.9225 -3.82255 -1.10119 0
M  V30 757 H 66.6615 -6.55362 0.134475 0
M  V30 758 H 66.1815 -5.82824 -1.4169 0
M  V30 759 H 67.8605 -6.36491 -1.1614 0
M  V30 760 N 67.9926 0.231505 -1.5589 0
M  V30 761 C 69.4036 0.799327 -1.68724 0
M  V30 762 C 69.7546 1.85398 -0.642022 0
M  V30 763 O 68.8796 2.1539 0.208784 0
M  V30 764 C 69.4746 1.45664 -3.05888 0
M  V30 765 C 68.0336 1.97197 -3.20609 0
M  V30 766 C 67.1806 0.828552 -2.64632 0
M  V30 767 H 70.1316 0.00702616 -1.58698 0
M  V30 768 H 70.1526 2.32517 -3.01191 0
M  V30 769 H 69.6646 0.688808 -3.81939 0
M  V30 770 H 67.7656 2.76813 -2.4941 0
M  V30 771 H 67.8786 2.15878 -4.27707 0
M  V30 772 H 66.2426 1.23321 -2.22854 0
M  V30 773 H 67.0256 0.0735544 -3.43221 0
M  V30 774 N 69.4707 1.49531 0.497807 0
M  V30 775 C 70.4007 1.6935 1.60757 0
M  V30 776 C 71.3817 0.542218 1.61227 0
M  V30 777 O 72.5667 0.778417 1.77917 0
M  V30 778 C 69.6967 1.76298 2.99226 0
M  V30 779 C 68.6507 2.91248 3.13622 0
M  V30 780 C 67.9767 2.83312 4.53474 0
M  V30 781 C 69.2767 4.3214 2.93346 0
M  V30 782 H 70.9707 2.62263 1.44425 0
M  V30 783 H 68.5167 1.26208 0.693367 0
M  V30 784 H 70.4697 1.88749 3.76765 0
M  V30 785 H 69.1937 0.799871 3.16654 0
M  V30 786 H 67.8527 2.78404 2.38509 0
M  V30 787 H 67.5007 1.84902 4.67782 0
M  V30 788 H 67.2007 3.60465 4.64046 0
M  V30 789 H 68.7247 2.97775 5.33069 0
M  V30 790 H 70.1387 4.45649 3.60652 0
M  V30 791 H 68.5357 5.1054 3.15387 0
M  V30 792 H 69.6057 4.46363 1.89441 0
M  V30 793 N 70.9488 -0.749086 1.3866 0
M  V30 794 C 71.8958 -1.86291 1.36251 0
M  V30 795 C 72.8658 -1.64578 0.224347 0
M  V30 796 O 74.0508 -1.86181 0.417279 0
M  V30 797 C 71.1908 -3.23644 1.19786 0
M  V30 798 C 70.3038 -3.57158 2.43027 0
M  V30 799 C 69.4388 -4.83838 2.19258 0
M  V30 800 C 68.4778 -5.10152 3.38247 0
M  V30 801 N 67.6148 -6.28029 3.13884 0
M  V30 802 H 72.4548 -1.87685 2.3147 0
M  V30 803 H 69.9918 -0.917287 1.14997 0
M  V30 804 H 71.9498 -4.0291 1.08254 0
M  V30 805 H 70.5798 -3.21566 0.282031 0
M  V30 806 H 69.6318 -2.72701 2.65214 0
M  V30 807 H 70.9438 -3.7253 3.31697 0
M  V30 808 H 70.0978 -5.71057 2.04888 0
M  V30 809 H 68.8368 -4.70614 1.2796 0
M  V30 810 H 67.8418 -4.21401 3.53131 0
M  V30 811 H 69.0668 -5.25271 4.30427 0
M  V30 812 H 67.0128 -6.1612 2.25238 0
M  V30 813 H 66.9298 -6.43922 3.96106 0
M  V30 814 H 68.1978 -7.18124 3.03179 0
M  V30 815 N 72.4269 -1.23603 -0.977757 0
M  V30 816 C 73.6729 -1.07129 -1.72195 0
M  V30 817 C 74.0059 0.390501 -1.90233 0
M  V30 818 O 73.2809 1.28902 -1.45653 0
M  V30 819 C 73.5639 -1.80031 -3.11867 0
M  V30 820 C 73.4169 -3.33899 -3.01383 0
M  V30 821 C 74.7359 -1.56492 -4.11337 0
M  V30 822 H 71.8549 -0.390571 -0.624999 0
M  V30 823 H 74.4969 -1.52142 -1.13811 0
M  V30 824 H 72.6469 -1.41768 -3.6171 0
M  V30 825 H 74.3189 -3.81699 -2.59043 0
M  V30 826 H 72.5619 -3.62796 -2.37827 0
M  V30 827 H 73.2329 -3.801 -4.00285 0
M  V30 828 H 75.7089 -1.89757 -3.70313 0
M  V30 829 H 74.5849 -2.09973 -5.07151 0
M  V30 830 H 74.8459 -0.500874 -4.39254 0
M  V30 831 N 73.905 1.17692 -1.04816 0
M  V30 832 C 75.135 1.91508 -0.775128 0
M  V30 833 C 75.543 1.76844 0.67253 0
M  V30 834 O 74.886 1.10057 1.47082 0
M  V30 835 C 74.948 3.43167 -1.0713 0
M  V30 836 C 74.612 3.81612 -2.51438 0
M  V30 837 C 75.609 3.84772 -3.49638 0
M  V30 838 C 73.294 4.12687 -2.86348 0
M  V30 839 C 75.288 4.18469 -4.80794 0
M  V30 840 C 72.975 4.46053 -4.17708 0
M  V30 841 C 73.973 4.48921 -5.14741 0
M  V30 842 O 73.661 4.81504 -6.43746 0
M  V30 843 H 73.393 0.614575 -0.281555 0
M  V30 844 H 75.947 1.50206 -1.40098 0
M  V30 845 H 74.177 3.84745 -0.388342 0
M  V30 846 H 75.866 3.98239 -0.784883 0
M  V30 847 H 76.632 3.60893 -3.24008 0
M  V30 848 H 72.511 4.09627 -2.11486 0
M  V30 849 H 76.055 4.20623 -5.56527 0
M  V30 850 H 71.952 4.69393 -4.43103 0
M  V30 851 H 72.72 4.99377 -6.4851 0
M  V30 852 N 75.3831 0.828654 1.34056 0
M  V30 853 C 76.6081 0.431637 2.02859 0
M  V30 854 C 77.0331 -0.956339 1.61975 0
M  V30 855 O 76.3911 -1.62338 0.807228 0
M  V30 856 C 76.4391 0.548323 3.56407 0
M  V30 857 O 75.5431 -0.429556 4.10157 0
M  V30 858 H 74.8841 0.176886 0.640006 0
M  V30 859 H 77.4141 1.12066 1.71179 0
M  V30 860 H 77.4241 0.426196 4.05768 0
M  V30 861 H 76.0991 1.5606 3.8551 0
M  V30 862 H 74.6761 -0.265836 3.71951 0
M  V30 863 N 76.8612 -1.46375 0.584142 0
M  V30 864 C 77.7712 -2.34115 -0.150728 0
M  V30 865 C 78.7872 -1.49838 -0.884567 0
M  V30 866 O 79.9632 -1.82704 -0.847429 0
M  V30 867 C 77.0282 -3.2705 -1.15062 0
M  V30 868 C 76.0892 -4.27228 -0.421293 0
M  V30 869 C 75.3222 -5.15722 -1.37355 0
M  V30 870 O 75.5452 -5.07176 -2.61014 0
M  V30 871 O 74.4792 -5.95383 -0.883355 0
M  V30 872 H 78.3052 -2.98309 0.569708 0
M  V30 873 H 75.8902 -1.45373 0.344535 0
M  V30 874 H 77.7722 -3.84381 -1.72712 0
M  V30 875 H 76.4472 -2.65451 -1.8525 0
M  V30 876 H 75.3542 -3.7358 0.197085 0
M  V30 877 H 76.6872 -4.91616 0.239641 0
M  V30 878 N 78.3393 -0.321999 -1.54275 0
M  V30 879 C 79.6163 0.335232 -1.92706 0
M  V30 880 C 79.9963 1.70006 -1.25145 0
M  V30 881 O 79.3443 2.25067 -0.394596 0
M  V30 882 C 79.5543 0.429008 -3.46353 0
M  V30 883 C 80.9023 0.690029 -4.18956 0
M  V30 884 O 81.9263 0.511992 -3.52501 0
M  V30 885 O 80.7853 1.03338 -5.36641 0
M  V30 886 H 77.8793 0.191143 -0.804608 0
M  V30 887 H 80.4253 -0.3716 -1.65581 0
M  V30 888 H 79.1973 -0.529611 -3.87699 0
M  V30 889 H 78.8203 1.18348 -3.79578 0
M  V30 890 N 79.8174 1.5752 -0.0501392 0
M  V30 891 C 81.0654 1.9227 0.622642 0
M  V30 892 C 81.3864 0.929083 1.71444 0
M  V30 893 O 80.6564 -0.0262186 1.95882 0
M  V30 894 H 79.2364 0.709739 0.232981 0
M  V30 895 H 81.8984 1.94628 -0.102898 0
M  V30 896 H 80.9944 2.93479 1.06191 0
M  V30 897 N 81.2955 -0.223234 1.56011 0
M  V30 898 C 82.2425 -1.27664 1.92277 0
M  V30 899 C 83.2125 -1.46659 0.779763 0
M  V30 900 O 84.3975 -1.60256 1.03551 0
M  V30 901 C 81.5375 -2.62234 2.24338 0
M  V30 902 C 80.6505 -2.51051 3.51564 0
M  V30 903 C 79.7855 -3.78133 3.7308 0
M  V30 904 C 78.8245 -3.61665 4.93827 0
M  V30 905 N 77.9615 -4.80693 5.11741 0
M  V30 906 H 82.8015 -0.960358 2.82101 0
M  V30 907 H 80.3385 -0.462901 1.39627 0
M  V30 908 H 82.2965 -3.40596 2.40936 0
M  V30 909 H 80.9265 -2.91961 1.3769 0
M  V30 910 H 79.9785 -1.64132 3.43169 0
M  V30 911 H 81.2905 -2.34803 4.40079 0
M  V30 912 H 80.4445 -4.64938 3.89766 0
M  V30 913 H 79.1835 -3.97304 2.82844 0
M  V30 914 H 78.1885 -2.73244 4.77093 0
M  V30 915 H 79.4135 -3.43966 5.85546 0
M  V30 916 H 77.3595 -5.00181 4.24446 0
M  V30 917 H 77.2765 -4.67165 5.94384 0
M  V30 918 H 78.5445 -5.6893 5.3286 0
M  V30 919 N 82.7736 -1.49793 -0.48987 0
M  V30 920 C 83.7036 -1.70201 -1.59856 0
M  V30 921 C 84.6846 -0.55076 -1.60937 0
M  V30 922 O 85.8696 -0.787841 -1.77501 0
M  V30 923 C 82.9996 -1.77882 -2.98287 0
M  V30 924 C 81.9536 -2.92907 -3.12073 0
M  V30 925 C 81.2796 -2.85712 -4.51965 0
M  V30 926 C 82.5796 -4.3369 -2.91051 0
M  V30 927 H 84.2736 -2.63025 -1.43032 0
M  V30 928 H 81.8196 -1.26574 -0.686664 0
M  V30 929 H 83.7726 -1.90744 -3.75759 0
M  V30 930 H 82.4966 -0.816653 -3.16225 0
M  V30 931 H 81.1556 -2.79665 -2.37029 0
M  V30 932 H 80.8036 -1.8738 -4.66795 0
M  V30 933 H 80.5036 -3.62921 -4.62128 0
M  V30 934 H 82.0276 -3.00598 -5.31482 0
M  V30 935 H 83.4416 -4.47555 -3.58284 0
M  V30 936 H 81.8386 -5.12205 -3.12675 0
M  V30 937 H 82.9086 -4.47362 -1.87071 0
M  V30 938 N 84.2517 0.741722 -1.39055 0
M  V30 939 C 85.5007 1.49656 -1.35225 0
M  V30 940 C 85.8137 1.95533 0.0512708 0
M  V30 941 O 87.0197 2.7067 0.212138 0
M  V30 942 C 85.4757 2.70389 -2.37525 0
M  V30 943 C 85.0837 2.31489 -3.83558 0
M  V30 944 C 86.8277 3.48236 -2.42759 0
M  V30 945 C 84.7347 3.48903 -4.77515 0
M  V30 946 H 83.6647 0.56197 -0.502699 0
M  V30 947 H 86.3157 0.809727 -1.64668 0
M  V30 948 H 84.6977 3.41113 -2.01142 0
M  V30 949 H 85.8717 1.68354 -4.28945 0
M  V30 950 H 84.1867 1.66749 -3.81554 0
M  V30 951 H 86.7837 4.35558 -3.1015 0
M  V30 952 H 87.1267 3.90229 -1.45008 0
M  V30 953 H 87.6597 2.84535 -2.78002 0
M  V30 954 H 84.3987 3.11966 -5.76504 0
M  V30 955 H 83.9187 4.11041 -4.36813 0
M  V30 956 H 85.5977 4.15328 -4.96096 0
M  V30 957 N 85.7298 1.2412 0.971189 0
M  V30 958 C 86.9548 1.10667 1.75407 0
M  V30 959 C 87.3798 -0.337048 1.85056 0
M  V30 960 O 86.7378 -1.24396 1.31892 0
M  V30 961 C 86.7858 1.74726 3.15441 0
M  V30 962 O 85.8898 1.01566 3.99697 0
M  V30 963 H 85.2308 0.387341 0.539317 0
M  V30 964 H 87.7608 1.64358 1.2185 0
M  V30 965 H 87.7708 1.80341 3.6598 0
M  V30 966 H 86.4458 2.79773 3.07734 0
M  V30 967 H 85.0228 1.03713 3.58187 0
M  V30 968 N 87.2079 -1.17134 1.05439 0
M  V30 969 C 88.1179 -2.24878 0.668365 0
M  V30 970 C 89.1339 -1.71186 -0.311687 0
M  V30 971 O 90.3099 -2.00738 -0.163161 0
M  V30 972 C 87.3749 -3.46662 0.051648 0
M  V30 973 C 86.4359 -4.15429 1.08246 0
M  V30 974 C 85.6689 -5.31399 0.495082 0
M  V30 975 O 85.8919 -5.66153 -0.694743 0
M  V30 976 O 84.8259 -5.89187 1.23056 0
M  V30 977 H 88.6519 -2.60189 1.56637 0
M  V30 978 H 86.2369 -1.24482 0.826104 0
M  V30 979 H 88.1189 -4.20394 -0.290966 0
M  V30 980 H 86.7939 -3.13142 -0.819971 0
M  V30 981 H 85.7009 -3.43704 1.47711 0
M  V30 982 H 87.0339 -4.52982 1.92532 0
M  V30 983 N 88.686 -0.835752 -1.33615 0
M  V30 984 C 89.933 -0.429959 -1.97883 0
M  V30 985 C 90.261 1.01006 -1.66217 0
M  V30 986 O 89.516 1.72047 -0.93265 0
M  V30 987 C 89.815 -0.593925 -3.52431 0
M  V30 988 C 89.481 -2.00158 -4.04039 0
M  V30 989 C 88.143 -2.38662 -4.17844 0
M  V30 990 C 90.495 -2.92117 -4.31644 0
M  V30 991 C 87.823 -3.68435 -4.56588 0
M  V30 992 C 90.175 -4.21368 -4.71838 0
M  V30 993 C 88.839 -4.59833 -4.83849 0
M  V30 994 H 88.109 -0.157333 -0.724104 0
M  V30 995 H 90.756 -1.06217 -1.59343 0
M  V30 996 H 89.061 0.121619 -3.91611 0
M  V30 997 H 90.758 -0.260282 -4.00154 0
M  V30 998 H 87.348 -1.69252 -3.93766 0
M  V30 999 H 91.532 -2.63608 -4.20505 0
M  V30 1000 H 86.788 -3.98046 -4.64079 0
M  V30 1001 H 90.962 -4.92703 -4.92155 0
M  V30 1002 H 88.589 -5.60438 -5.13627 0
M  V30 1003 N 90.1641 1.46063 -0.591896 0
M  V30 1004 C 91.4121 2.01938 -0.0808391 0
M  V30 1005 C 91.7331 1.46475 1.28725 0
M  V30 1006 O 91.0031 0.652944 1.84698 0
M  V30 1007 H 89.5831 0.746516 -0.0268938 0
M  V30 1008 H 92.2451 1.79055 -0.769752 0
M  V30 1009 H 91.3411 3.12094 -0.0187578 0
M  V30 1010 N 91.6422 0.330177 1.54103 0
M  V30 1011 C 92.5522 -0.541534 2.28264 0
M  V30 1012 C 93.5682 -1.12351 1.32866 0
M  V30 1013 O 94.7442 -1.14206 1.65888 0
M  V30 1014 C 91.8092 -1.68322 3.03098 0
M  V30 1015 C 90.8702 -1.13238 4.14096 0
M  V30 1016 C 90.1032 -2.21966 4.85352 0
M  V30 1017 O 90.3262 -3.42437 4.56172 0
M  V30 1018 O 89.2602 -1.87013 5.7211 0
M  V30 1019 H 93.0862 0.060938 3.03639 0
M  V30 1020 H 90.6712 0.09565 1.49093 0
M  V30 1021 H 92.5532 -2.34777 3.49939 0
M  V30 1022 H 91.2282 -2.27176 2.30593 0
M  V30 1023 H 90.1352 -0.432736 3.71589 0
M  V30 1024 H 91.4682 -0.588898 4.88664 0
M  V30 1025 N 93.1203 -1.57491 0.0584922 0
M  V30 1026 C 94.0533 -2.07533 -0.948969 0
M  V30 1027 C 95.0313 -0.977444 -1.29942 0
M  V30 1028 O 96.2153 -1.2499 -1.41102 0
M  V30 1029 C 93.3423 -2.52192 -2.2609 0
M  V30 1030 C 92.3883 -3.73287 -2.06298 0
M  V30 1031 S 93.2213 -5.18603 -1.33459 0
M  V30 1032 C 94.3773 -5.66583 -2.65959 0
M  V30 1033 H 94.6103 -2.92662 -0.523118 0
M  V30 1034 H 92.1433 -1.53631 -0.153954 0
M  V30 1035 H 94.1013 -2.78585 -3.01498 0
M  V30 1036 H 92.7623 -1.67356 -2.65802 0
M  V30 1037 H 91.9553 -4.0248 -3.03357 0
M  V30 1038 H 91.5573 -3.47199 -1.39029 0
M  V30 1039 H 93.8493 -5.72616 -3.62101 0
M  V30 1040 H 94.7923 -6.65684 -2.41393 0
M  V30 1041 H 95.2003 -4.94342 -2.72554 0
M  V30 1042 N 94.5984 0.214957 -1.56127 0
M  V30 1043 C 96.0144 0.564948 -1.49267 0
M  V30 1044 C 96.2144 1.86827 -0.754838 0
M  V30 1045 O 95.2704 2.50745 -0.297198 0
M  V30 1046 C 96.5834 0.638071 -2.93852 0
M  V30 1047 C 98.1314 0.728253 -3.0441 0
M  V30 1048 C 98.6064 0.832663 -4.50367 0
M  V30 1049 N 100.097 0.896712 -4.54437 0
M  V30 1050 C 100.832 0.997324 -5.6466 0
M  V30 1051 N 100.328 1.06147 -6.8462 0
M  V30 1052 N 102.121 1.03297 -5.52527 0
M  V30 1053 H 94.2724 -0.640211 -2.02522 0
M  V30 1054 H 96.5354 -0.225507 -0.920788 0
M  V30 1055 H 96.2414 -0.250126 -3.50809 0
M  V30 1056 H 96.1154 1.49947 -3.46115 0
M  V30 1057 H 98.5024 1.60689 -2.47514 0
M  V30 1058 H 98.5834 -0.158952 -2.55306 0
M  V30 1059 H 98.2274 -0.0415417 -5.07883 0
M  V30 1060 H 98.1574 1.73538 -4.97184 0
M  V30 1061 H 100.648 0.857188 -3.6805 0
M  V30 1062 H 100.961 1.1382 -7.64372 0
M  V30 1063 H 99.3064 1.03049 -6.87318 0
M  V30 1064 H 102.497 0.979558 -4.57736 0
M  V30 1065 H 102.67 1.10793 -6.38458 0
M  V30 1066 N 96.0765 1.50051 0.48192 0
M  V30 1067 C 97.4925 1.37237 0.814756 0
M  V30 1068 C 97.6925 0.420109 1.97072 0
M  V30 1069 O 96.7485 -0.141246 2.52105 0
M  V30 1070 C 98.0615 2.78375 1.13701 0
M  V30 1071 C 99.6095 2.87213 1.2441 0
M  V30 1072 C 100.084 4.29161 1.59954 0
M  V30 1073 N 101.575 4.32061 1.66967 0
M  V30 1074 C 102.31 5.38879 1.95952 0
M  V30 1075 N 101.806 6.55918 2.23031 0
M  V30 1076 N 103.599 5.26312 1.97363 0
M  V30 1077 H 95.7505 2.10546 -0.28005 0
M  V30 1078 H 98.0135 0.945921 -0.0627454 0
M  V30 1079 H 97.7195 3.49845 0.360787 0
M  V30 1080 H 97.5935 3.14941 2.07586 0
M  V30 1081 H 99.9805 2.15969 2.01101 0
M  V30 1082 H 100.061 2.54204 0.285299 0
M  V30 1083 H 99.7055 5.00938 0.838067 0
M  V30 1084 H 99.6355 4.59648 2.56966 0
M  V30 1085 H 102.126 3.47661 1.48123 0
M  V30 1086 H 102.439 7.33139 2.44391 0
M  V30 1087 H 100.784 6.59112 2.20447 0
M  V30 1088 H 103.975 4.33876 1.75697 0
M  V30 1089 H 104.148 6.09649 2.19618 0
M  V30 1090 N 97.5546 -0.734337 1.39446 0
M  V30 1091 C 98.7826 -1.52358 1.39981 0
M  V30 1092 C 99.1976 -1.88799 -0.0054975 0
M  V30 1093 O 98.5546 -1.54146 -0.976998 0
M  V30 1094 C 98.6056 -2.81072 2.27333 0
M  V30 1095 O 98.3266 -2.46178 3.62392 0
M  V30 1096 C 99.8276 -3.75096 2.36259 0
M  V30 1097 H 97.0476 -0.470806 0.478103 0
M  V30 1098 H 99.5916 -0.907339 1.83269 0
M  V30 1099 H 97.7466 -3.39026 1.87457 0
M  V30 1100 H 98.1606 -3.28866 4.08592 0
M  V30 1101 H 99.6346 -4.62305 3.01626 0
M  V30 1102 H 100.112 -4.16892 1.38194 0
M  V30 1103 H 100.718 -3.23061 2.76608 0
M  V30 1104 N 99.0327 -1.24633 -0.964593 0
M  V30 1105 C 100.444 -1.08045 -1.5226 0
M  V30 1106 C 100.795 0.347116 -1.93105 0
M  V30 1107 O 99.9197 1.23588 -1.77637 0
M  V30 1108 C 100.515 -1.95514 -2.76695 0
M  V30 1109 C 99.0737 -1.8314 -3.28841 0
M  V30 1110 C 98.2207 -1.90262 -2.01732 0
M  V30 1111 H 101.172 -1.38064 -0.782553 0
M  V30 1112 H 101.193 -1.48925 -3.50145 0
M  V30 1113 H 100.705 -2.99407 -2.46936 0
M  V30 1114 H 98.8057 -0.82092 -3.63444 0
M  V30 1115 H 98.9187 -2.67406 -3.97531 0
M  V30 1116 H 97.2827 -1.34027 -2.16584 0
M  V30 1117 H 98.0657 -2.9574 -1.74334 0
M  V30 1118 N 100.511 1.16574 -1.06058 0
M  V30 1119 C 101.76 1.86385 -0.770944 0
M  V30 1120 C 102.073 1.82448 0.705129 0
M  V30 1121 O 103.279 2.47815 1.10905 0
M  V30 1122 C 101.735 3.34466 -1.32893 0
M  V30 1123 C 101.343 3.46883 -2.83507 0
M  V30 1124 C 103.087 4.09548 -1.11672 0
M  V30 1125 C 100.994 4.89036 -3.32562 0
M  V30 1126 H 99.9238 0.698181 -0.284709 0
M  V30 1127 H 102.575 1.31583 -1.27899 0
M  V30 1128 H 100.957 3.88859 -0.748662 0
M  V30 1129 H 102.131 3.02663 -3.47465 0
M  V30 1130 H 100.446 2.85232 -3.03368 0
M  V30 1131 H 103.043 5.14434 -1.45814 0
M  V30 1132 H 103.386 4.16264 -0.0549535 0
M  V30 1133 H 103.919 3.61387 -1.66265 0
M  V30 1134 H 100.658 4.87499 -4.38207 0
M  V30 1135 H 100.178 5.3389 -2.73351 0
M  V30 1136 H 101.857 5.57843 -3.2775 0
M  V30 1137 N 101.989 0.842826 1.3317 0
M  V30 1138 C 103.405 0.531128 1.50503 0
M  V30 1139 C 103.605 -0.940734 1.78192 0
M  V30 1140 O 102.661 -1.72436 1.84451 0
M  V30 1141 C 103.974 1.40789 2.65705 0
M  V30 1142 C 105.522 1.40708 2.79589 0
M  V30 1143 C 105.997 2.26878 3.97857 0
M  V30 1144 N 107.488 2.24609 4.05099 0
M  V30 1145 C 108.223 2.88019 4.95815 0
M  V30 1146 N 107.719 3.60496 5.9162 0
M  V30 1147 N 109.512 2.77469 4.88843 0
M  V30 1148 H 101.663 1.79557 1.1346 0
M  V30 1149 H 103.926 0.766267 0.558156 0
M  V30 1150 H 103.632 2.454 2.51936 0
M  V30 1151 H 103.506 1.08677 3.61205 0
M  V30 1152 H 105.893 0.368668 2.92788 0
M  V30 1153 H 105.974 1.76829 1.84838 0
M  V30 1154 H 105.618 3.3078 3.85418 0
M  V30 1155 H 105.548 1.88096 4.91861 0
M  V30 1156 H 108.039 1.71906 3.36536 0
M  V30 1157 H 108.352 4.06076 6.57512 0
M  V30 1158 H 106.697 3.64604 5.91683 0
M  V30 1159 H 109.888 2.20406 4.12963 0
M  V30 1160 H 110.061 3.2717 5.59342 0
M  V30 1161 N 103.467 -1.45747 0.599634 0
M  V30 1162 C 104.714 -2.02292 0.0917284 0
M  V30 1163 C 105.042 -1.46906 -1.27472 0
M  V30 1164 O 104.297 -0.630652 -1.8526 0
M  V30 1165 C 104.596 -3.57399 -0.00602758 0
M  V30 1166 C 104.262 -4.31902 1.29503 0
M  V30 1167 C 102.924 -4.51974 1.65144 0
M  V30 1168 C 105.276 -4.74551 2.15525 0
M  V30 1169 C 102.604 -5.11949 2.86574 0
M  V30 1170 C 104.956 -5.35868 3.36196 0
M  V30 1171 C 103.62 -5.54165 3.72099 0
M  V30 1172 H 102.89 -0.740239 0.0335658 0
M  V30 1173 H 105.537 -1.7491 0.779661 0
M  V30 1174 H 103.842 -3.84014 -0.777183 0
M  V30 1175 H 105.539 -3.98846 -0.415038 0
M  V30 1176 H 102.129 -4.16588 1.00761 0
M  V30 1177 H 106.313 -4.58784 1.8929 0
M  V30 1178 H 101.569 -5.24305 3.14507 0
M  V30 1179 H 105.743 -5.6787 4.03109 0
M  V30 1180 H 103.37 -6.00406 4.6628 0
M  V30 1181 N 104.945 -0.338344 -1.53925 0
M  V30 1182 C 105.908 0.508299 -2.23493 0
M  V30 1183 C 106.908 1.03175 -1.23335 0
M  V30 1184 O 108.098 0.921826 -1.47811 0
M  V30 1185 C 105.23 1.70754 -2.95052 0
M  V30 1186 H 106.423 -0.100058 -2.99733 0
M  V30 1187 H 103.976 -0.0896198 -1.56043 0
M  V30 1188 H 104.711 2.35474 -2.22986 0
M  V30 1189 H 104.496 1.33946 -3.68512 0
M  V30 1190 H 105.986 2.30818 -3.48013 0
M  V30 1191 N 106.423 1.57458 -0.0668435 0
M  V30 1192 C 107.7 1.8469 0.644132 0
M  V30 1193 C 108.08 0.958343 1.88093 0
M  V30 1194 O 107.428 0.0233579 2.28488 0
M  V30 1195 C 107.638 3.34767 0.986509 0
M  V30 1196 C 108.986 4.02159 1.36212 0
M  V30 1197 O 110.01 3.39484 1.07839 0
M  V30 1198 O 108.869 5.12694 1.89227 0
M  V30 1199 H 105.963 0.762816 0.319437 0
M  V30 1200 H 108.509 1.6942 -0.0973986 0
M  V30 1201 H 107.281 3.91151 0.107883 0
M  V30 1202 H 106.904 3.55281 1.78497 0
M  V30 1203 N 107.901 -0.206675 1.56239 0
M  V30 1204 C 109.15 -0.926964 1.79138 0
M  V30 1205 C 109.463 -1.84901 0.638043 0
M  V30 1206 O 110.669 -2.60906 0.751033 0
M  V30 1207 C 109.125 -1.6986 3.17294 0
M  V30 1208 C 108.733 -0.821956 4.40395 0
M  V30 1209 C 110.477 -2.40922 3.4951 0
M  V30 1210 C 108.384 -1.59179 5.69575 0
M  V30 1211 H 107.314 -0.349864 0.667915 0
M  V30 1212 H 109.965 -0.180487 1.8261 0
M  V30 1213 H 108.347 -2.48853 3.08039 0
M  V30 1214 H 109.521 -0.0715019 4.60745 0
M  V30 1215 H 107.836 -0.222741 4.15804 0
M  V30 1216 H 110.433 -2.99047 4.43255 0
M  V30 1217 H 110.776 -3.14542 2.72707 0
M  V30 1218 H 111.309 -1.68905 3.60161 0
M  V30 1219 H 108.048 -0.898589 6.49312 0
M  V30 1220 H 107.568 -2.31648 5.53262 0
M  V30 1221 H 109.247 -2.14862 6.10281 0
M  V30 1222 N 109.379 -1.50304 -0.473955 0
M  V30 1223 C 110.79 -1.54042 -1.0549 0
M  V30 1224 C 111.141 -0.342248 -1.93192 0
M  V30 1225 O 110.266 0.545157 -2.09421 0
M  V30 1226 C 110.861 -2.79152 -1.91989 0
M  V30 1227 C 109.42 -2.8558 -2.45196 0
M  V30 1228 C 108.567 -2.48295 -1.2347 0
M  V30 1229 H 111.518 -1.5661 -0.256693 0
M  V30 1230 H 111.539 -2.60845 -2.7702 0
M  V30 1231 H 111.051 -3.66339 -1.28131 0
M  V30 1232 H 109.152 -2.02738 -3.12615 0
M  V30 1233 H 109.265 -3.88403 -2.80499 0
M  V30 1234 H 107.629 -2.00669 -1.56856 0
M  V30 1235 H 108.412 -3.37787 -0.612789 0
M  V30 1236 N 110.857 0.726932 -1.39834 0
M  V30 1237 C 111.789 1.85147 -1.35104 0
M  V30 1238 C 112.802 1.60736 -0.258392 0
M  V30 1239 O 113.991 1.70821 -0.517931 0
M  V30 1240 C 111.091 3.21332 -1.07697 0
M  V30 1241 C 110.264 3.73033 -2.28396 0
M  V30 1242 C 109.323 4.87802 -1.97322 0
M  V30 1243 O 108.349 5.01043 -2.70083 0
M  V30 1244 N 109.551 5.72768 -0.944273 0
M  V30 1245 H 112.316 1.89706 -2.32017 0
M  V30 1246 H 109.877 0.908006 -1.3404 0
M  V30 1247 H 111.869 3.95691 -0.849144 0
M  V30 1248 H 110.439 3.11992 -0.194909 0
M  V30 1249 H 109.659 2.89934 -2.6708 0
M  V30 1250 H 110.947 4.0431 -3.08887 0
M  V30 1251 H 110.345 5.64669 -0.341427 0
M  V30 1252 H 108.902 6.4716 -0.776346 0
M  V30 1253 N 112.336 1.25143 0.95797 0
M  V30 1254 C 113.613 1.00472 1.67823 0
M  V30 1255 C 113.993 -0.470056 2.058 0
M  V30 1256 O 113.341 -1.44663 1.76875 0
M  V30 1257 C 113.551 1.9372 2.90299 0
M  V30 1258 C 114.899 2.21371 3.62326 0
M  V30 1259 O 115.923 1.91451 3.00375 0
M  V30 1260 O 114.782 2.72231 4.7387 0
M  V30 1261 H 111.876 0.380752 0.734137 0
M  V30 1262 H 114.422 1.36283 1.01119 0
M  V30 1263 H 113.194 2.93316 2.59001 0
M  V30 1264 H 112.817 1.58286 3.64735 0
M  V30 1265 N 113.814 -1.1601 1.06675 0
M  V30 1266 C 115.061 -1.86633 0.785781 0
M  V30 1267 C 115.389 -1.81929 -0.687896 0
M  V30 1268 O 114.644 -1.23253 -1.52011 0
M  V30 1269 C 114.943 -3.35547 1.23057 0
M  V30 1270 C 114.609 -3.60448 2.70902 0
M  V30 1271 C 113.271 -3.66954 3.11285 0
M  V30 1272 C 115.623 -3.7071 3.66365 0
M  V30 1273 C 112.951 -3.81225 4.45965 0
M  V30 1274 C 115.303 -3.86503 5.00797 0
M  V30 1275 C 113.967 -3.91252 5.40813 0
M  V30 1276 H 113.237 -0.682937 0.287538 0
M  V30 1277 H 115.884 -1.37146 1.33654 0
M  V30 1278 H 114.189 -3.87193 0.59907 0
M  V30 1279 H 115.886 -3.88583 0.990163 0
M  V30 1280 H 112.476 -3.56021 2.38636 0
M  V30 1281 H 116.66 -3.64991 3.36296 0
M  V30 1282 H 111.916 -3.83155 4.76447 0
M  V30 1283 H 116.09 -3.93385 5.74649 0
M  V30 1284 H 113.717 -4.02062 6.45174 0
M  V30 1285 N 115.292 -0.849877 -1.32721 0
M  V30 1286 C 116.541 -0.447175 -1.96681 0
M  V30 1287 C 116.854 1.00135 -1.68025 0
M  V30 1288 O 118.06 1.50926 -2.25685 0
M  V30 1289 C 116.516 -0.7487 -3.52026 0
M  V30 1290 C 116.124 -2.21264 -3.89546 0
M  V30 1291 C 117.868 -0.413487 -4.22481 0
M  V30 1292 C 115.775 -2.45763 -5.37917 0
M  V30 1293 H 114.705 -0.163486 -0.736063 0
M  V30 1294 H 117.356 -1.03999 -1.51183 0
M  V30 1295 H 115.738 -0.0853727 -3.95908 0
M  V30 1296 H 116.912 -2.91736 -3.56689 0
M  V30 1297 H 115.227 -2.5119 -3.32103 0
M  V30 1298 H 117.824 -0.574017 -5.3161 0
M  V30 1299 H 118.167 0.644492 -4.11281 0
M  V30 1300 H 118.7 -1.03251 -3.84167 0
M  V30 1301 H 115.439 -3.50168 -5.54132 0
M  V30 1302 H 114.959 -1.79864 -5.72197 0
M  V30 1303 H 116.638 -2.29471 -6.0494 0
M  V30 1304 N 116.77 1.45427 -0.607355 0
M  V30 1305 C 117.72 2.27612 0.133038 0
M  V30 1306 C 118.704 1.37307 0.838785 0
M  V30 1307 O 119.896 1.61299 0.728813 0
M  V30 1308 C 117.025 3.24173 1.12991 0
M  V30 1309 C 116.111 4.21965 0.425011 0
M  V30 1310 N 116.502 5.02982 -0.533217 0
M  V30 1311 C 114.8 4.40899 0.672593 0
M  V30 1312 C 115.501 5.73931 -0.947518 0
M  V30 1313 N 114.477 5.42819 -0.291321 0
M  V30 1314 H 118.279 2.87649 -0.602935 0
M  V30 1315 H 115.793 1.56576 -0.431006 0
M  V30 1316 H 117.79 3.81783 1.67473 0
M  V30 1317 H 116.45 2.65696 1.86644 0
M  V30 1318 H 117.461 5.09843 -0.90995 0
M  V30 1319 H 114.138 3.93547 1.39382 0
M  V30 1320 H 115.528 6.49037 -1.73782 0
M  V30 1321 N 118.248 0.346503 1.53744 0
M  V30 1322 C 119.211 -0.496439 2.23759 0
M  V30 1323 C 120.211 -1.0252 1.2388 0
M  V30 1324 O 121.401 -0.913974 1.48297 0
M  V30 1325 C 118.533 -1.69187 2.95954 0
M  V30 1326 H 119.726 0.115952 2.99676 0
M  V30 1327 H 117.279 0.0978939 1.55993 0
M  V30 1328 H 118.014 -2.34288 2.24231 0
M  V30 1329 H 117.799 -1.31989 3.69217 0
M  V30 1330 H 119.289 -2.28969 3.49232 0
M  V30 1331 N 119.726 -1.57421 0.075193 0
M  V30 1332 C 120.656 -2.15942 -0.888324 0
M  V30 1333 C 121.637 -1.08737 -1.30806 0
M  V30 1334 O 122.822 -1.36787 -1.37851 0
M  V30 1335 C 119.952 -2.72379 -2.1547 0
M  V30 1336 C 118.906 -3.8478 -1.87425 0
M  V30 1337 C 118.232 -4.27834 -3.20721 0
M  V30 1338 C 119.532 -5.08869 -1.17684 0
M  V30 1339 H 121.226 -2.96705 -0.400799 0
M  V30 1340 H 118.772 -1.42723 -0.191342 0
M  V30 1341 H 120.725 -3.11965 -2.83295 0
M  V30 1342 H 119.449 -1.88841 -2.6647 0
M  V30 1343 H 118.108 -3.45703 -1.22004 0
M  V30 1344 H 117.756 -3.41214 -3.6957 0
M  V30 1345 H 117.456 -5.03605 -3.02746 0
M  V30 1346 H 118.98 -4.70039 -3.89738 0
M  V30 1347 H 120.394 -5.4575 -1.75584 0
M  V30 1348 H 118.791 -5.8994 -1.09956 0
M  V30 1349 H 119.861 -4.84648 -0.156453 0
M  V30 1350 N 121.204 0.198386 -1.56346 0
M  V30 1351 C 122.134 1.24865 -1.9731 0
M  V30 1352 C 123.115 1.47651 -0.844576 0
M  V30 1353 O 124.3 1.59444 -1.10866 0
M  V30 1354 C 121.43 2.59358 -2.30977 0
M  V30 1355 C 120.384 2.5119 -3.46537 0
M  V30 1356 C 119.71 3.89926 -3.65871 0
M  V30 1357 C 121.01 2.03977 -4.80823 0
M  V30 1358 H 122.704 0.908252 -2.85291 0
M  V30 1359 H 120.25 0.435462 -1.37258 0
M  V30 1360 H 122.203 3.33011 -2.58228 0
M  V30 1361 H 120.927 2.95132 -1.39874 0
M  V30 1362 H 119.586 1.79993 -3.19371 0
M  V30 1363 H 119.234 4.23046 -2.72105 0
M  V30 1364 H 118.934 3.85336 -4.4361 0
M  V30 1365 H 120.458 4.65205 -3.95495 0
M  V30 1366 H 121.872 2.67386 -5.07127 0
M  V30 1367 H 120.269 2.10397 -5.62008 0
M  V30 1368 H 121.339 0.992861 -4.74626 0
M  V30 1369 N 122.682 1.50554 0.465978 0
M  V30 1370 C 123.907 1.65838 1.24549 0
M  V30 1371 C 124.332 0.343486 1.84937 0
M  V30 1372 O 123.69 -0.69324 1.67523 0
M  V30 1373 C 123.738 2.75533 2.32624 0
M  V30 1374 O 122.842 2.37142 3.37398 0
M  V30 1375 H 122.183 0.553893 0.366194 0
M  V30 1376 H 124.713 1.96959 0.553927 0
M  V30 1377 H 124.723 2.98763 2.77857 0
M  V30 1378 H 123.398 3.70962 1.88043 0
M  V30 1379 H 121.975 2.24377 2.97841 0
M  V30 1380 N 124.16 -0.719506 1.40217 0
M  V30 1381 C 125.123 -1.8153 1.39927 0
M  V30 1382 C 126.123 -1.58095 0.293723 0
M  V30 1383 O 127.313 -1.65209 0.552429 0
M  V30 1384 C 124.445 -3.19561 1.18716 0
M  V30 1385 H 125.638 -1.83186 2.37451 0
M  V30 1386 H 123.191 -0.924746 1.26008 0
M  V30 1387 H 123.926 -3.23557 0.219366 0
M  V30 1388 H 123.711 -3.3797 1.98793 0
M  V30 1389 H 125.201 -3.99598 1.21291 0
M  V30 1390 N 125.638 -1.25649 -0.95132 0
M  V30 1391 C 126.548 -1.08073 -2.08224 0
M  V30 1392 C 127.564 -0.0169666 -1.73992 0
M  V30 1393 O 128.74 -0.218593 -2.0021 0
M  V30 1394 C 125.805 -0.704922 -3.39458 0
M  V30 1395 C 124.866 -1.84699 -3.87537 0
M  V30 1396 C 124.099 -1.48902 -5.12508 0
M  V30 1397 O 124.322 -0.386156 -5.69091 0
M  V30 1398 O 123.256 -2.32033 -5.55378 0
M  V30 1399 H 127.082 -2.02924 -2.25954 0
M  V30 1400 H 124.667 -1.04618 -1.06656 0
M  V30 1401 H 126.549 -0.507609 -4.18332 0
M  V30 1402 H 125.224 0.214291 -3.2299 0
M  V30 1403 H 124.131 -2.09919 -3.09653 0
M  V30 1404 H 125.464 -2.74557 -4.08509 0
M  V30 1405 N 127.117 1.15442 -1.07289 0
M  V30 1406 C 128.394 1.82306 -0.708792 0
M  V30 1407 C 128.774 1.94991 0.808807 0
M  V30 1408 O 128.122 1.50085 1.72298 0
M  V30 1409 C 128.332 3.18695 -1.42247 0
M  V30 1410 C 129.68 3.94341 -1.57417 0
M  V30 1411 O 130.704 3.28247 -1.38319 0
M  V30 1412 O 129.563 5.12839 -1.88834 0
M  V30 1413 H 126.657 0.787628 -0.252132 0
M  V30 1414 H 129.203 1.22559 -1.17377 0
M  V30 1415 H 127.975 3.04557 -2.45684 0
M  V30 1416 H 127.598 3.86128 -0.948223 0
M  V30 1417 N 128.595 0.856903 1.32268 0
M  V30 1418 C 129.872 0.382583 1.91822 0
M  V30 1419 C 130.252 -1.13407 1.78051 0
M  V30 1420 O 129.6 -1.95673 1.18001 0
M  V30 1421 C 129.81 0.849446 3.38505 0
M  V30 1422 C 131.158 0.867936 4.15634 0
M  V30 1423 O 132.182 0.794232 3.47232 0
M  V30 1424 O 131.041 0.972286 5.37781 0
M  V30 1425 H 128.135 0.112014 0.819379 0
M  V30 1426 H 130.681 0.943952 1.41024 0
M  V30 1427 H 129.453 1.89267 3.42482 0
M  V30 1428 H 129.076 0.265652 3.96712 0
M  V30 1429 N 130.073 -1.45103 0.615059 0
M  V30 1430 C 131.021 -2.32331 -0.111791 0
M  V30 1431 C 132.015 -1.46409 -0.852102 0
M  V30 1432 O 133.221 -1.62849 -0.766821 0
M  V30 1433 H 129.596 -0.749993 -0.0549072 0
M  V30 1434 H 131.567 -2.91407 0.642225 0
M  V30 1435 C 130.316 -3.3015 -1.09071 0
M  V30 1436 H 129.639 -3.96265 -0.530485 0
M  V30 1437 H 131.079 -3.93898 -1.56908 0
M  V30 1438 C 129.538 -2.57875 -2.168 0
M  V30 1439 O 130.068 -2.36567 -3.24652 0
M  V30 1440 N 128.274 -2.17884 -1.92289 0
M  V30 1441 H 127.821 -2.35413 -1.04587 0
M  V30 1442 H 127.779 -1.6985 -2.64572 0
M  V30 1443 N 131.551 -0.354651 -1.53558 0
M  V30 1444 C 132.798 0.238443 -2.01091 0
M  V30 1445 C 133.126 1.49663 -1.24222 0
M  V30 1446 O 132.381 1.93049 -0.321003 0
M  V30 1447 C 132.68 0.587121 -3.52545 0
M  V30 1448 C 132.346 -0.575472 -4.47213 0
M  V30 1449 C 131.008 -0.894497 -4.72813 0
M  V30 1450 C 133.36 -1.35489 -5.03281 0
M  V30 1451 C 130.688 -1.99511 -5.51736 0
M  V30 1452 C 133.04 -2.44583 -5.83405 0
M  V30 1453 C 131.704 -2.77033 -6.07296 0
M  V30 1454 H 130.974 0.0872526 -0.735845 0
M  V30 1455 H 133.621 -0.484859 -1.8526 0
M  V30 1456 H 131.926 1.39129 -3.66265 0
M  V30 1457 H 133.623 1.05809 -3.86789 0
M  V30 1458 H 130.213 -0.316774 -4.27428 0
M  V30 1459 H 134.397 -1.12167 -4.83459 0
M  V30 1460 H 129.653 -2.25063 -5.68469 0
M  V30 1461 H 133.827 -3.05401 -6.25862 0
M  V30 1462 H 131.454 -3.6244 -6.68237 0
M  V30 1463 N 133.029 1.57378 -0.0835403 0
M  V30 1464 C 133.992 2.12252 0.864959 0
M  V30 1465 C 134.992 1.04916 1.21858 0
M  V30 1466 O 136.182 1.30853 1.14991 0
M  V30 1467 C 133.314 2.63358 2.16461 0
M  V30 1468 H 134.507 2.97371 0.388676 0
M  V30 1469 H 132.06 1.55423 0.165317 0
M  V30 1470 H 132.795 1.81727 2.686 0
M  V30 1471 H 132.58 3.41826 1.92087 0
M  V30 1472 H 134.07 3.05847 2.84337 0
M  V30 1473 N 134.507 -0.190092 1.56449 0
M  V30 1474 C 135.455 -1.25501 1.95837 0
M  V30 1475 C 136.449 -1.4685 0.844485 0
M  V30 1476 O 137.655 -1.47651 1.02952 0
M  V30 1477 H 134.03 -0.421447 0.622805 0
M  V30 1478 H 136.001 -0.895821 2.84636 0
M  V30 1479 C 134.75 -2.59124 2.31841 0
M  V30 1480 H 134.073 -2.43514 3.17082 0
M  V30 1481 H 135.513 -3.32371 2.6326 0
M  V30 1482 C 133.972 -3.16488 1.15486 0
M  V30 1483 O 134.502 -3.99365 0.432535 0
M  V30 1484 N 132.708 -2.75305 0.930349 0
M  V30 1485 H 132.255 -2.08013 1.51948 0
M  V30 1486 H 132.213 -3.14024 0.153634 0
M  V30 1487 N 135.985 -1.50799 -0.457987 0
M  V30 1488 C 136.935 -1.67003 -1.55222 0
M  V30 1489 C 137.919 -0.52434 -1.52117 0
M  V30 1490 O 139.111 -0.779345 -1.58919 0
M  V30 1491 C 136.24 -1.77956 -2.93576 0
M  V30 1492 C 135.326 -2.98243 -3.01516 0
M  V30 1493 N 135.717 -4.21732 -2.79241 0
M  V30 1494 C 134.015 -2.97072 -3.32662 0
M  V30 1495 C 134.716 -5.02817 -2.92489 0
M  V30 1496 N 133.692 -4.37038 -3.23262 0
M  V30 1497 H 137.494 -2.60163 -1.36721 0
M  V30 1498 H 135.008 -1.48163 -0.664952 0
M  V30 1499 H 137.005 -1.87671 -3.72271 0
M  V30 1500 H 135.665 -0.859634 -3.13114 0
M  V30 1501 H 136.676 -4.51016 -2.54567 0
M  V30 1502 H 133.353 -2.14631 -3.58106 0
M  V30 1503 H 134.743 -6.11054 -2.79396 0
M  V30 1504 N 137.463 0.71206 -1.40597 0
M  V30 1505 C 138.693 1.49894 -1.42181 0
M  V30 1506 C 139.101 1.89189 -0.0208078 0
M  V30 1507 O 138.444 1.56223 0.966436 0
M  V30 1508 C 138.506 2.80215 -2.25211 0
M  V30 1509 C 138.17 2.63221 -3.73582 0
M  V30 1510 C 139.167 2.30249 -4.66135 0
M  V30 1511 C 136.852 2.79376 -4.17438 0
M  V30 1512 C 138.846 2.13645 -6.00529 0
M  V30 1513 C 136.533 2.6239 -5.51901 0
M  V30 1514 C 137.531 2.29573 -6.43262 0
M  V30 1515 O 137.219 2.12719 -7.75246 0
M  V30 1516 H 136.951 0.469031 -0.486812 0
M  V30 1517 H 139.505 0.88564 -1.85326 0
M  V30 1518 H 137.735 3.4389 -1.76852 0
M  V30 1519 H 139.424 3.41947 -2.18694 0
M  V30 1520 H 140.19 2.17398 -4.33547 0
M  V30 1521 H 136.069 3.03906 -3.46644 0
M  V30 1522 H 139.613 1.87953 -6.71803 0
M  V30 1523 H 135.51 2.74826 -5.84073 0
M  V30 1524 H 136.278 2.27611 -7.86216 0
M  V30 1525 N 138.941 1.26152 0.944643 0
M  V30 1526 C 140.189 1.11271 1.6871 0
M  V30 1527 C 140.51 -0.345166 1.91921 0
M  V30 1528 O 139.78 -1.24387 1.51343 0
M  V30 1529 H 138.36 0.408783 0.625224 0
M  V30 1530 H 141.022 1.58427 1.1352 0
M  V30 1531 H 140.118 1.62879 2.66227 0
M  V30 1532 N 140.419 -1.14872 1.07899 0
M  V30 1533 C 141.665 -1.86064 0.806725 0
M  V30 1534 C 141.998 -1.82434 -0.665706 0
M  V30 1535 O 141.273 -1.25138 -1.48899 0
M  V30 1536 C 141.556 -3.34929 1.32267 0
M  V30 1537 C 141.409 -3.47161 2.86006 0
M  V30 1538 C 142.728 -4.29863 0.943717 0
M  V30 1539 H 139.847 -0.675591 0.294526 0
M  V30 1540 H 142.489 -1.34925 1.33773 0
M  V30 1541 H 140.639 -3.78611 0.870974 0
M  V30 1542 H 142.311 -3.12302 3.39507 0
M  V30 1543 H 140.554 -2.88539 3.23925 0
M  V30 1544 H 141.225 -4.51777 3.17177 0
M  V30 1545 H 143.701 -3.9417 1.33302 0
M  V30 1546 H 142.577 -5.32494 1.33198 0
M  V30 1547 H 142.838 -4.41846 -0.149796 0
M  V30 1548 N 141.898 -0.863906 -1.31812 0
M  V30 1549 C 143.175 -0.39275 -1.91616 0
M  V30 1550 C 143.555 1.12461 -1.7865 0
M  V30 1551 O 142.903 1.95045 -1.19037 0
M  V30 1552 C 143.113 -0.867385 -3.38049 0
M  V30 1553 C 144.461 -0.889966 -4.15168 0
M  V30 1554 O 145.485 -0.812635 -3.46806 0
M  V30 1555 O 144.344 -1.00079 -5.37258 0
M  V30 1556 H 141.438 -0.116358 -0.818773 0
M  V30 1557 H 143.984 -0.951418 -1.40521 0
M  V30 1558 H 142.756 -1.91081 -3.41473 0
M  V30 1559 H 142.379 -0.286687 -3.96565 0
M  V30 1560 N 143.376 1.44774 -0.622745 0
M  V30 1561 C 144.622 2.0242 -0.124083 0
M  V30 1562 C 144.955 1.4881 1.24777 0
M  V30 1563 O 144.23 0.668799 1.8264 0
M  V30 1564 C 144.513 3.59957 -0.101619 0
M  V30 1565 C 144.366 4.23867 -1.50521 0
M  V30 1566 C 145.685 4.36284 0.578272 0
M  V30 1567 H 142.804 0.735528 -0.0465645 0
M  V30 1568 H 145.446 1.72447 -0.797617 0
M  V30 1569 H 143.596 3.85623 0.471934 0
M  V30 1570 H 145.268 4.09336 -2.12701 0
M  V30 1571 H 143.511 3.81684 -2.06154 0
M  V30 1572 H 144.182 5.32843 -1.4416 0
M  V30 1573 H 146.658 4.16001 0.0906057 0
M  V30 1574 H 145.534 5.46004 0.563149 0
M  V30 1575 H 145.795 4.10271 1.64713 0
M  V30 1576 N 144.854 0.36279 1.53368 0
M  V30 1577 C 145.801 -0.485008 2.25646 0
M  V30 1578 C 146.771 -1.07982 1.2621 0
M  V30 1579 O 147.956 -1.11284 1.54986 0
M  V30 1580 C 145.096 -1.62023 3.04701 0
M  V30 1581 C 144.209 -1.05086 4.19024 0
M  V30 1582 C 143.344 -2.15496 4.85525 0
M  V30 1583 C 142.383 -1.5601 5.91884 0
M  V30 1584 N 141.52 -2.60241 6.52088 0
M  V30 1585 H 146.36 0.137864 2.97681 0
M  V30 1586 H 143.897 0.0798061 1.46883 0
M  V30 1587 H 145.855 -2.28887 3.48807 0
M  V30 1588 H 144.485 -2.2138 2.34927 0
M  V30 1589 H 143.537 -0.27259 3.79422 0
M  V30 1590 H 144.849 -0.575926 4.95464 0
M  V30 1591 H 144.003 -2.90186 5.32801 0
M  V30 1592 H 142.742 -2.66341 4.08551 0
M  V30 1593 H 141.747 -0.798338 5.43973 0
M  V30 1594 H 142.972 -1.05994 6.70777 0
M  V30 1595 H 140.918 -3.10304 5.77968 0
M  V30 1596 H 140.835 -2.17426 7.24059 0
M  V30 1597 H 142.103 -3.34641 7.04014 0
M  V30 1598 N 146.332 -1.57332 0.0918853 0
M  V30 1599 C 147.557 -1.98995 -0.584442 0
M  V30 1600 C 147.982 -0.970528 -1.61128 0
M  V30 1601 O 147.34 0.0613904 -1.81196 0
M  V30 1602 C 147.388 -3.39636 -1.21161 0
M  V30 1603 O 146.492 -3.40447 -2.32744 0
M  V30 1604 H 145.833 -0.647165 -0.148572 0
M  V30 1605 H 148.363 -2.03873 0.172347 0
M  V30 1606 H 148.373 -3.7726 -1.55367 0
M  V30 1607 H 147.048 -4.13356 -0.459313 0
M  V30 1608 H 145.625 -3.14614 -2.0018 0
M  V30 1609 N 147.81 0.181792 -1.56548 0
M  V30 1610 C 148.74 1.22765 -1.98623 0
M  V30 1611 C 149.721 1.46747 -0.860189 0
M  V30 1612 O 150.906 1.58259 -1.12551 0
M  V30 1613 C 148.036 2.56894 -2.33715 0
M  V30 1614 C 146.99 2.475 -3.49182 0
M  V30 1615 C 146.316 3.86023 -3.69986 0
M  V30 1616 C 147.616 1.98866 -4.82959 0
M  V30 1617 H 149.31 0.877942 -2.86239 0
M  V30 1618 H 146.856 0.42088 -1.37712 0
M  V30 1619 H 148.809 3.30253 -2.61746 0
M  V30 1620 H 147.533 2.93632 -1.42997 0
M  V30 1621 H 146.192 1.76596 -3.21262 0
M  V30 1622 H 145.84 4.20136 -2.76576 0
M  V30 1623 H 145.54 3.80609 -4.47672 0
M  V30 1624 H 147.064 4.60984 -4.00407 0
M  V30 1625 H 148.478 2.61992 -5.09934 0
M  V30 1626 H 146.875 2.04424 -5.64208 0
M  V30 1627 H 147.945 0.942465 -4.75653 0
M  V30 1628 N 149.288 1.51039 0.449983 0
M  V30 1629 C 150.221 1.66105 1.56474 0
M  V30 1630 C 151.199 0.508776 1.54435 0
M  V30 1631 O 152.383 0.731005 1.73749 0
M  V30 1632 C 149.51 1.66304 2.9506 0
M  V30 1633 C 148.556 2.87346 3.15174 0
M  V30 1634 S 149.389 4.4835 2.92818 0
M  V30 1635 C 150.545 4.51274 4.33708 0
M  V30 1636 H 150.778 2.60397 1.43459 0
M  V30 1637 H 148.311 1.40565 0.638805 0
M  V30 1638 H 150.269 1.67103 3.74949 0
M  V30 1639 H 148.93 0.732108 3.05449 0
M  V30 1640 H 148.123 2.83849 4.16468 0
M  V30 1641 H 147.725 2.84223 2.43091 0
M  V30 1642 H 150.017 4.26136 5.26701 0
M  V30 1643 H 150.96 5.53017 4.42242 0
M  V30 1644 H 151.368 3.80738 4.16772 0
M  V30 1645 N 150.766 -0.704594 1.40972 0
M  V30 1646 C 152.182 -1.01406 1.23244 0
M  V30 1647 C 152.382 -2.01169 0.115399 0
M  V30 1648 O 151.438 -2.47021 -0.523147 0
M  V30 1649 C 152.751 -1.54728 2.57836 0
M  V30 1650 C 154.299 -1.66658 2.64942 0
M  V30 1651 C 154.774 -2.23383 3.9983 0
M  V30 1652 N 156.265 -2.30756 4.01629 0
M  V30 1653 C 157 -2.75655 5.02794 0
M  V30 1654 N 156.496 -3.20225 6.14352 0
M  V30 1655 N 158.289 -2.75138 4.90159 0
M  V30 1656 H 150.44 -0.0435285 2.12355 0
M  V30 1657 H 152.703 -0.0818951 0.944456 0
M  V30 1658 H 152.409 -0.888832 3.40283 0
M  V30 1659 H 152.283 -2.53084 2.79693 0
M  V30 1660 H 154.67 -2.31617 1.8286 0
M  V30 1661 H 154.751 -0.668717 2.46904 0
M  V30 1662 H 154.395 -1.59043 4.82357 0
M  V30 1663 H 154.325 -3.23904 4.15203 0
M  V30 1664 H 156.816 -1.99291 3.21079 0
M  V30 1665 H 157.129 -3.53084 6.87424 0
M  V30 1666 H 155.474 -3.18156 6.17901 0
M  V30 1667 H 158.665 -2.39661 4.02095 0
M  V30 1668 H 158.838 -3.09812 5.6914 0
M  V30 1669 N 152.244 -1.26651 -0.937939 0
M  V30 1670 C 153.207 -1.08546 -2.01867 0
M  V30 1671 C 154.207 -0.0327327 -1.60767 0
M  V30 1672 O 155.397 -0.276427 -1.71993 0
M  V30 1673 C 152.529 -0.651711 -3.34613 0
M  V30 1674 H 153.722 -2.04502 -2.1936 0
M  V30 1675 H 151.275 -1.09294 -1.11734 0
M  V30 1676 H 152.01 0.309696 -3.22818 0
M  V30 1677 H 151.795 -1.41189 -3.65798 0
M  V30 1678 H 153.285 -0.546973 -4.14002 0
M  V30 1679 N 153.722 1.14298 -1.08507 0
M  V30 1680 C 154.685 2.17607 -0.719711 0
M  V30 1681 C 155.685 1.58907 0.245997 0
M  V30 1682 O 156.875 1.74181 0.0254081 0
M  V30 1683 C 154.007 3.40842 -0.0627695 0
M  V30 1684 H 155.2 2.51443 -1.63452 0
M  V30 1685 H 152.753 1.28963 -0.88307 0
M  V30 1686 H 153.488 3.12587 0.863716 0
M  V30 1687 H 153.273 3.84713 -0.757504 0
M  V30 1688 H 154.763 4.17221 0.177786 0
M  V30 1689 N 155.201 0.870884 1.31352 0
M  V30 1690 C 156.164 0.332243 2.26779 0
M  V30 1691 C 157.164 -0.517302 1.52252 0
M  V30 1692 O 158.354 -0.326477 1.71113 0
M  V30 1693 C 155.486 -0.528066 3.36785 0
M  V30 1694 H 156.679 1.17469 2.75937 0
M  V30 1695 H 154.232 0.64655 1.423 0
M  V30 1696 H 154.967 -1.39167 2.92922 0
M  V30 1697 H 154.752 0.0802582 3.92018 0
M  V30 1698 H 156.242 -0.897179 4.07849 0
M  V30 1699 N 156.679 -1.44442 0.630414 0
M  V30 1700 C 157.611 -2.2892 -0.113347 0
M  V30 1701 C 158.624 -1.41243 -0.80959 0
M  V30 1702 O 159.813 -1.65402 -0.671156 0
M  V30 1703 C 156.913 -3.17594 -1.18266 0
M  V30 1704 C 156.086 -4.33682 -0.569073 0
M  V30 1705 C 155.145 -5.03397 -1.53226 0
M  V30 1706 O 154.171 -5.59438 -1.04967 0
M  V30 1707 N 155.373 -5.04783 -2.86661 0
M  V30 1708 H 158.138 -2.93392 0.611636 0
M  V30 1709 H 155.699 -1.54881 0.471523 0
M  V30 1710 H 157.691 -3.61097 -1.82732 0
M  V30 1711 H 156.261 -2.54876 -1.80988 0
M  V30 1712 H 155.481 -3.9338 0.254187 0
M  V30 1713 H 156.769 -5.08608 -0.139767 0
M  V30 1714 H 156.167 -4.60584 -3.28449 0
M  V30 1715 H 154.724 -5.52077 -3.46489 0
M  V30 1716 N 158.157 -0.370918 -1.53173 0
M  V30 1717 C 159.087 0.464847 -2.28826 0
M  V30 1718 C 160.068 1.07936 -1.31468 0
M  V30 1719 O 161.253 1.0956 -1.60344 0
M  V30 1720 C 158.383 1.60196 -3.08147 0
M  V30 1721 C 157.337 1.11443 -4.13237 0
M  V30 1722 C 156.663 2.3422 -4.80672 0
M  V30 1723 C 157.963 0.195384 -5.21934 0
M  V30 1724 H 159.657 -0.166329 -2.98938 0
M  V30 1725 H 157.203 -0.0814359 -1.4377 0
M  V30 1726 H 159.156 2.19332 -3.59822 0
M  V30 1727 H 157.88 2.26045 -2.35735 0
M  V30 1728 H 156.539 0.545727 -3.62515 0
M  V30 1729 H 156.187 2.98537 -4.04827 0
M  V30 1730 H 155.887 2.02269 -5.51689 0
M  V30 1731 H 157.411 2.94032 -5.35143 0
M  V30 1732 H 158.825 0.694375 -5.69079 0
M  V30 1733 H 157.222 -0.0335027 -6.00091 0
M  V30 1734 H 158.292 -0.760961 -4.78892 0
M  V30 1735 N 159.635 1.57281 -0.100228 0
M  V30 1736 C 160.565 2.17328 0.853857 0
M  V30 1737 C 161.546 1.10804 1.2906 0
M  V30 1738 O 162.731 1.38963 1.35657 0
M  V30 1739 C 159.861 2.75772 2.11109 0
M  V30 1740 C 158.815 3.87713 1.81279 0
M  V30 1741 C 158.141 4.32882 3.13874 0
M  V30 1742 C 159.441 5.10677 1.09574 0
M  V30 1743 H 161.135 2.97305 0.353545 0
M  V30 1744 H 158.681 1.43009 0.168612 0
M  V30 1745 H 160.634 3.16433 2.78296 0
M  V30 1746 H 159.358 1.93057 2.63432 0
M  V30 1747 H 158.017 3.476 1.16489 0
M  V30 1748 H 157.665 3.47051 3.64095 0
M  V30 1749 H 157.365 5.08358 2.94696 0
M  V30 1750 H 158.889 4.7618 3.82211 0
M  V30 1751 H 160.303 5.48474 1.66879 0
M  V30 1752 H 158.7 5.91615 1.00557 0
M  V30 1753 H 159.77 4.84835 0.0793299 0
M  V30 1754 N 161.113 -0.173488 1.56642 0
M  V30 1755 C 162.06 -1.21482 1.96242 0
M  V30 1756 C 163.03 -1.44104 0.826027 0
M  V30 1757 O 164.215 -1.5688 1.08597 0
M  V30 1758 C 161.355 -2.54964 2.32567 0
M  V30 1759 C 160.468 -2.39739 3.59373 0
M  V30 1760 C 159.603 -3.66072 3.84921 0
M  V30 1761 C 158.642 -3.45771 5.05083 0
M  V30 1762 N 157.779 -4.64169 5.26775 0
M  V30 1763 H 162.619 -0.870123 2.85014 0
M  V30 1764 H 160.156 -0.418245 1.41029 0
M  V30 1765 H 162.114 -3.32758 2.5165 0
M  V30 1766 H 160.744 -2.87433 1.46908 0
M  V30 1767 H 159.796 -1.53131 3.48217 0
M  V30 1768 H 161.108 -2.20683 4.47326 0
M  V30 1769 H 160.262 -4.52303 4.0436 0
M  V30 1770 H 159.001 -3.88105 2.9534 0
M  V30 1771 H 158.006 -2.57927 4.85545 0
M  V30 1772 H 159.231 -3.25163 5.96193 0
M  V30 1773 H 157.177 -4.86425 4.40144 0
M  V30 1774 H 157.094 -4.48019 6.08946 0
M  V30 1775 H 158.362 -5.51689 5.5069 0
M  V30 1776 N 162.591 -1.51276 -0.441967 0
M  V30 1777 C 163.816 -1.67799 -1.21895 0
M  V30 1778 C 164.241 -0.372864 -1.84367 0
M  V30 1779 O 163.599 0.666501 -1.68604 0
M  V30 1780 C 163.647 -2.79199 -2.28211 0
M  V30 1781 O 162.751 -2.42479 -3.33583 0
M  V30 1782 H 162.092 -0.559649 -0.357336 0
M  V30 1783 H 164.622 -1.97815 -0.522522 0
M  V30 1784 H 164.632 -3.03146 -2.73069 0
M  V30 1785 H 163.307 -3.73906 -1.82118 0
M  V30 1786 H 161.884 -2.29087 -2.94234 0
M  V30 1787 N 164.069 0.697108 -1.41344 0
M  V30 1788 C 165.317 1.45426 -1.40341 0
M  V30 1789 C 165.638 1.94996 -0.0128787 0
M  V30 1790 O 164.908 1.71599 0.945027 0
M  V30 1791 H 163.488 0.539594 -0.516573 0
M  V30 1792 H 166.15 0.825201 -1.76569 0
M  V30 1793 H 165.246 2.31817 -2.08967 0
M  V30 1794 N 165.547 1.27147 0.931209 0
M  V30 1795 C 166.497 1.06227 2.01742 0
M  V30 1796 C 167.481 -0.00859065 1.60898 0
M  V30 1797 O 168.673 0.209537 1.75755 0
M  V30 1798 C 165.802 0.707787 3.35924 0
M  V30 1799 C 164.888 1.81661 3.83223 0
M  V30 1800 N 165.279 3.05564 4.03069 0
M  V30 1801 C 163.577 1.70249 4.12227 0
M  V30 1802 C 164.278 3.77697 4.42403 0
M  V30 1803 N 163.254 3.0544 4.49675 0
M  V30 1804 H 167.056 2.00261 2.15111 0
M  V30 1805 H 164.57 1.1781 1.11779 0
M  V30 1806 H 166.567 0.539043 4.134 0
M  V30 1807 H 165.227 -0.224964 3.2392 0
M  V30 1808 H 166.238 3.41363 3.89476 0
M  V30 1809 H 162.915 0.840329 4.08956 0
M  V30 1810 H 164.305 4.84168 4.65866 0
M  V30 1811 N 167.025 -1.13721 1.09112 0
M  V30 1812 C 168.274 -1.84275 0.82009 0
M  V30 1813 C 168.587 -1.84253 -0.656509 0
M  V30 1814 O 169.793 -2.50668 -1.04296 0
M  V30 1815 C 168.249 -3.30825 1.41714 0
M  V30 1816 C 167.857 -3.39244 2.92605 0
M  V30 1817 C 169.601 -4.06443 1.22492 0
M  V30 1818 C 167.508 -4.80047 3.45411 0
M  V30 1819 H 166.438 -0.690387 0.30312 0
M  V30 1820 H 169.089 -1.28146 1.31343 0
M  V30 1821 H 167.471 -3.86737 0.851498 0
M  V30 1822 H 168.645 -2.93344 3.55367 0
M  V30 1823 H 166.96 -2.77088 3.10823 0
M  V30 1824 H 169.557 -5.10387 1.59402 0
M  V30 1825 H 169.9 -4.15972 0.165299 0
M  V30 1826 H 170.433 -3.56852 1.75788 0
M  V30 1827 H 167.172 -4.75709 4.50978 0
M  V30 1828 H 166.692 -5.26455 2.87411 0
M  V30 1829 H 168.371 -5.48957 3.42425 0
M  V30 1830 N 168.503 -0.877838 -1.30888 0
M  V30 1831 C 169.435 -0.296607 -2.27273 0
M  V30 1832 C 170.448 0.544799 -1.53414 0
M  V30 1833 O 171.637 0.365511 -1.74718 0
M  V30 1834 C 168.737 0.597481 -3.33592 0
M  V30 1835 C 167.91 -0.213251 -4.3688 0
M  V30 1836 C 166.969 0.610208 -5.2265 0
M  V30 1837 O 165.995 0.035441 -5.69189 0
M  V30 1838 N 167.197 1.92071 -5.47804 0
M  V30 1839 H 169.962 -1.12492 -2.77787 0
M  V30 1840 H 167.523 -0.740105 -1.43993 0
M  V30 1841 H 169.515 1.15425 -3.87891 0
M  V30 1842 H 168.085 1.32647 -2.83061 0
M  V30 1843 H 167.305 -0.951466 -3.82545 0
M  V30 1844 H 168.593 -0.769262 -5.02951 0
M  V30 1845 H 167.991 2.4107 -5.11763 0
M  V30 1846 H 166.548 2.42508 -6.05007 0
M  V30 1847 N 169.982 1.44106 -0.638065 0
M  V30 1848 C 171.21 2.06336 -0.152615 0
M  V30 1849 C 171.625 1.47731 1.17563 0
M  V30 1850 O 170.982 0.602806 1.72257 0
M  V30 1851 C 171.033 3.61479 -0.0391491 0
M  V30 1852 O 170.754 4.17903 -1.31487 0
M  V30 1853 C 172.255 4.40757 0.474176 0
M  V30 1854 H 169.475 0.665862 -0.0828776 0
M  V30 1855 H 172.019 1.84862 -0.87443 0
M  V30 1856 H 170.174 3.82191 0.633142 0
M  V30 1857 H 170.588 5.11416 -1.16421 0
M  V30 1858 H 172.062 5.49707 0.502562 0
M  V30 1859 H 172.539 4.12697 1.50258 0
M  V30 1860 H 173.145 4.24979 -0.165102 0
M  V30 1861 N 171.46 0.379036 1.52974 0
M  V30 1862 C 172.708 -0.206014 2.01047 0
M  V30 1863 C 173.029 -1.48175 1.26765 0
M  V30 1864 O 172.299 -1.92085 0.384743 0
M  V30 1865 H 170.879 -0.0791184 0.742798 0
M  V30 1866 H 173.541 0.508366 1.88153 0
M  V30 1867 H 172.637 -0.423501 3.09213 0
M  V30 1868 N 172.938 -1.57226 0.108567 0
M  V30 1869 C 174.186 -1.94448 -0.550853 0
M  V30 1870 C 174.507 -0.992074 -1.67878 0
M  V30 1871 O 173.777 -0.0465 -1.95845 0
M  V30 1872 H 172.357 -0.717897 -0.206479 0
M  V30 1873 H 175.019 -1.94112 0.175062 0
M  V30 1874 H 174.115 -2.97218 -0.952259 0
M  V30 1875 N 174.416 0.165178 -1.56732 0
M  V30 1876 C 175.641 0.900253 -1.86843 0
M  V30 1877 C 176.066 1.74766 -0.695596 0
M  V30 1878 O 175.424 1.77786 0.35522 0
M  V30 1879 C 175.472 1.74777 -3.15413 0
M  V30 1880 O 174.576 2.85007 -2.98068 0
M  V30 1881 H 173.917 0.251832 -0.614391 0
M  V30 1882 H 176.447 0.161468 -2.03962 0
M  V30 1883 H 176.457 2.14646 -3.46974 0
M  V30 1884 H 175.132 1.12537 -4.00385 0
M  V30 1885 H 173.709 2.48676 -2.77875 0
M  V30 1886 N 175.894 1.51508 0.433938 0
M  V30 1887 C 177.122 1.68157 1.20543 0
M  V30 1888 C 177.537 0.380362 1.84929 0
M  V30 1889 O 176.894 -0.641446 1.70856 0
M  V30 1890 C 176.945 2.79965 2.28696 0
M  V30 1891 O 176.666 4.05045 1.66943 0
M  V30 1892 C 178.167 3.07912 3.18912 0
M  V30 1893 H 175.387 0.56421 0.363191 0
M  V30 1894 H 177.931 1.97941 0.513754 0
M  V30 1895 H 176.086 2.5277 2.93574 0
M  V30 1896 H 176.5 4.67165 2.38448 0
M  V30 1897 H 177.974 3.89719 3.90926 0
M  V30 1898 H 178.451 2.20456 3.79863 0
M  V30 1899 H 179.057 3.36779 2.59731 0
M  V30 1900 N 177.372 -0.689602 1.41712 0
M  V30 1901 C 178.621 -1.44534 1.40686 0
M  V30 1902 C 178.934 -1.95588 0.0213352 0
M  V30 1903 O 180.14 -2.71271 -0.111534 0
M  V30 1904 C 178.596 -2.61387 2.47396 0
M  V30 1905 C 178.204 -2.17094 3.91885 0
M  V30 1906 C 179.948 -3.38986 2.55517 0
M  V30 1907 C 177.855 -3.3094 4.90135 0
M  V30 1908 H 176.785 -0.542925 0.52321 0
M  V30 1909 H 179.436 -0.748054 1.6756 0
M  V30 1910 H 177.818 -3.33412 2.13664 0
M  V30 1911 H 178.992 -1.52318 4.34897 0
M  V30 1912 H 177.307 -1.52473 3.8748 0
M  V30 1913 H 179.904 -4.23747 3.26102 0
M  V30 1914 H 180.247 -3.84578 1.59391 0
M  V30 1915 H 180.78 -2.74021 2.8837 0
M  V30 1916 H 177.519 -2.90355 5.87685 0
M  V30 1917 H 177.039 -3.94546 4.51767 0
M  V30 1918 H 178.718 -3.9663 5.11169 0
M  V30 1919 N 178.85 -1.27639 -0.924453 0
M  V30 1920 C 180.078 -1.16989 -1.70649 0
M  V30 1921 C 180.493 0.272869 -1.86818 0
M  V30 1922 O 179.85 1.18549 -1.38753 0
M  V30 1923 C 179.901 -1.85229 -3.10439 0
M  V30 1924 O 179.622 -3.23868 -2.95028 0
M  V30 1925 C 181.123 -1.80746 -4.04779 0
M  V30 1926 H 178.343 -0.406595 -0.53378 0
M  V30 1927 H 180.887 -1.68569 -1.15778 0
M  V30 1928 H 179.042 -1.37545 -3.6216 0
M  V30 1929 H 179.456 -3.57889 -3.83426 0
M  V30 1930 H 180.93 -2.33101 -5.00368 0
M  V30 1931 H 181.407 -0.777499 -4.32263 0
M  V30 1932 H 182.013 -2.28059 -3.58984 0
M  V30 1933 N 180.328 1.1314 -1.09713 0
M  V30 1934 C 181.261 2.17735 -0.683137 0
M  V30 1935 C 182.239 1.59582 0.311841 0
M  V30 1936 O 183.423 1.87298 0.212514 0
M  V30 1937 C 180.55 3.38699 -0.00684324 0
M  V30 1938 C 179.596 4.1546 -0.964102 0
M  V30 1939 S 180.429 4.74733 -2.47767 0
M  V30 1940 C 181.585 5.9904 -1.81387 0
M  V30 1941 H 181.818 2.52515 -1.56918 0
M  V30 1942 H 179.351 1.24484 -0.913404 0
M  V30 1943 H 181.309 4.08765 0.377044 0
M  V30 1944 H 179.97 3.02214 0.85589 0
M  V30 1945 H 179.163 5.02093 -0.43803 0
M  V30 1946 H 178.765 3.51066 -1.28953 0
M  V30 1947 H 181.057 6.67846 -1.13967 0
M  V30 1948 H 182 6.56261 -2.65947 0
M  V30 1949 H 182.408 5.4976 -1.28155 0
M  V30 1950 N 181.806 0.884767 1.30421 0
M  V30 1951 C 182.738 0.308655 2.27112 0
M  V30 1952 C 183.751 -0.536655 1.53701 0
M  V30 1953 O 184.94 -0.35624 1.74909 0
M  V30 1954 C 182.04 -0.579782 3.33904 0
M  V30 1955 C 181.213 0.236417 4.36761 0
M  V30 1956 C 180.272 -0.582482 5.22966 0
M  V30 1957 O 179.298 -0.00525502 5.692 0
M  V30 1958 N 180.5 -1.89163 5.48815 0
M  V30 1959 H 183.265 1.13964 2.77186 0
M  V30 1960 H 180.826 0.747731 1.43599 0
M  V30 1961 H 182.818 -1.13366 3.88497 0
M  V30 1962 H 181.388 -1.31144 2.83761 0
M  V30 1963 H 180.608 0.97174 3.82035 0
M  V30 1964 H 181.896 0.795924 5.02536 0
M  V30 1965 H 181.294 -2.38352 5.13035 0
M  V30 1966 H 179.851 -2.39296 6.06284 0
M  V30 1967 N 183.284 -1.43765 0.645699 0
M  V30 1968 C 184.53 -2.02197 0.156271 0
M  V30 1969 C 184.863 -1.50776 -1.22393 0
M  V30 1970 O 184.138 -0.697771 -1.81553 0
M  V30 1971 C 184.421 -3.59749 0.158872 0
M  V30 1972 C 184.274 -4.21419 1.57245 0
M  V30 1973 C 185.593 -4.37149 -0.50879 0
M  V30 1974 H 182.712 -0.734694 0.0582602 0
M  V30 1975 H 185.354 -1.71157 0.824951 0
M  V30 1976 H 183.504 -3.86325 -0.410525 0
M  V30 1977 H 185.176 -4.059 2.19186 0
M  V30 1978 H 183.419 -3.78356 2.122 0
M  V30 1979 H 184.09 -5.30482 1.52619 0
M  V30 1980 H 186.566 -4.16093 -0.024412 0
M  V30 1981 H 185.442 -5.4683 -0.476213 0
M  V30 1982 H 185.703 -4.12839 -1.58165 0
M  V30 1983 N 184.763 -0.387143 -1.52771 0
M  V30 1984 C 185.726 0.436939 -2.24997 0
M  V30 1985 C 186.726 0.991991 -1.26555 0
M  V30 1986 O 187.916 0.874335 -1.50669 0
M  V30 1987 C 185.048 1.61281 -3.00335 0
M  V30 1988 H 186.241 -0.195365 -2.99263 0
M  V30 1989 H 183.794 -0.139218 -1.55679 0
M  V30 1990 H 184.529 2.2826 -2.30364 0
M  V30 1991 H 184.314 1.22154 -3.72587 0
M  V30 1992 H 185.804 2.19629 -3.5518 0
M  V30 1993 N 186.241 1.57166 -0.116904 0
M  V30 1994 C 187.188 2.15202 0.83408 0
M  V30 1995 C 188.158 1.07644 1.26499 0
M  V30 1996 O 189.343 1.35541 1.34288 0
M  V30 1997 C 186.483 2.75405 2.07957 0
M  V30 1998 C 185.596 3.97264 1.69721 0
M  V30 1999 C 184.731 4.45561 2.89221 0
M  V30 2000 C 183.77 5.59956 2.47215 0
M  V30 2001 N 182.907 6.03006 3.59622 0
M  V30 2002 H 187.747 2.96141 0.332335 0
M  V30 2003 H 185.284 1.46309 0.152349 0
M  V30 2004 H 187.242 3.08439 2.80929 0
M  V30 2005 H 185.872 1.97159 2.55594 0
M  V30 2006 H 184.924 3.70404 0.866316 0
M  V30 2007 H 186.236 4.80226 1.34849 0
M  V30 2008 H 185.39 4.80493 3.7042 0
M  V30 2009 H 184.129 3.61544 3.27318 0
M  V30 2010 H 183.134 5.2463 1.64448 0
M  V30 2011 H 184.359 6.45738 2.10238 0
M  V30 2012 H 182.305 5.21931 3.97396 0
M  V30 2013 H 182.222 6.80819 3.28667 0
M  V30 2014 H 183.49 6.42576 4.41267 0
M  V30 2015 N 187.719 -0.156864 1.56817 0
M  V30 2016 C 188.667 -1.21319 1.98455 0
M  V30 2017 C 189.661 -1.45025 0.875444 0
M  V30 2018 O 190.867 -1.45435 1.0606 0
M  V30 2019 H 187.242 -0.408142 0.631605 0
M  V30 2020 H 189.213 -0.835244 2.86472 0
M  V30 2021 C 187.962 -2.54148 2.37285 0
M  V30 2022 H 187.285 -2.36733 3.22176 0
M  V30 2023 H 188.725 -3.26712 2.70251 0
M  V30 2024 C 187.184 -3.13967 1.22173 0
M  V30 2025 O 187.714 -3.98357 0.517149 0
M  V30 2026 N 185.92 -2.7327 0.988536 0
M  V30 2027 H 185.467 -2.04744 1.56326 0
M  V30 2028 H 185.425 -3.13628 0.220209 0
M  V30 2029 N 189.197 -1.51736 -0.425897 0
M  V30 2030 C 190.427 -1.68549 -1.19476 0
M  V30 2031 C 190.835 -0.387288 -1.85194 0
M  V30 2032 O 190.178 0.645142 -1.71999 0
M  V30 2033 C 190.24 -2.75275 -2.31223 0
M  V30 2034 C 189.904 -4.17534 -1.8578 0
M  V30 2035 C 190.901 -5.01936 -1.35485 0
M  V30 2036 C 188.586 -4.6369 -1.93123 0
M  V30 2037 C 190.58 -6.30559 -0.931347 0
M  V30 2038 C 188.267 -5.92307 -1.50384 0
M  V30 2039 C 189.265 -6.75569 -1.00473 0
M  V30 2040 O 188.953 -8.0178 -0.583452 0
M  V30 2041 H 188.685 -0.568525 -0.365725 0
M  V30 2042 H 191.239 -1.98982 -0.509444 0
M  V30 2043 H 189.469 -2.40182 -3.03067 0
M  V30 2044 H 191.158 -2.80853 -2.93047 0
M  V30 2045 H 191.924 -4.67475 -1.29197 0
M  V30 2046 H 187.803 -3.98997 -2.30916 0
M  V30 2047 H 191.347 -6.95498 -0.541084 0
M  V30 2048 H 187.244 -6.2628 -1.56346 0
M  V30 2049 H 188.012 -8.1543 -0.708275 0
M  V30 2050 N 190.675 0.682077 -1.42076 0
M  V30 2051 C 191.922 1.44215 -1.42156 0
M  V30 2052 C 192.25 1.94468 -0.0354186 0
M  V30 2053 O 191.505 1.70816 0.955002 0
M  V30 2054 C 191.804 2.66036 -2.38662 0
M  V30 2055 C 191.47 2.34366 -3.85206 0
M  V30 2056 C 190.132 2.25439 -4.25124 0
M  V30 2057 C 192.484 2.08513 -4.77673 0
M  V30 2058 C 189.812 1.88775 -5.55501 0
M  V30 2059 C 192.164 1.73354 -6.08384 0
M  V30 2060 C 190.828 1.62933 -6.47309 0
M  V30 2061 H 190.098 0.527718 -0.520187 0
M  V30 2062 H 192.745 0.778387 -1.74967 0
M  V30 2063 H 191.05 3.3741 -1.99152 0
M  V30 2064 H 192.747 3.24205 -2.35991 0
M  V30 2065 H 189.337 2.42213 -3.53597 0
M  V30 2066 H 193.521 2.14346 -4.47626 0
M  V30 2067 H 188.777 1.7927 -5.84527 0
M  V30 2068 H 192.951 1.52373 -6.79526 0
M  V30 2069 H 190.578 1.34292 -7.48244 0
M  V30 2070 N 192.153 1.28127 0.917671 0
M  V30 2071 C 193.083 1.14248 2.03641 0
M  V30 2072 C 194.064 0.0412748 1.7005 0
M  V30 2073 O 195.249 0.217566 1.92977 0
M  V30 2074 C 192.379 0.799431 3.37974 0
M  V30 2075 C 191.333 1.85497 3.85713 0
M  V30 2076 C 190.659 1.36565 5.16966 0
M  V30 2077 C 191.959 3.26085 4.08002 0
M  V30 2078 H 193.653 2.07835 2.15511 0
M  V30 2079 H 191.199 1.00064 1.03553 0
M  V30 2080 H 193.152 0.689114 4.15727 0
M  V30 2081 H 191.876 -0.172145 3.26146 0
M  V30 2082 H 190.535 1.95437 3.10161 0
M  V30 2083 H 190.183 0.383253 5.01538 0
M  V30 2084 H 189.883 2.07143 5.49878 0
M  V30 2085 H 191.407 1.26848 5.97279 0
M  V30 2086 H 192.821 3.19089 4.76293 0
M  V30 2087 H 191.218 3.94462 4.52238 0
M  V30 2088 H 192.288 3.70394 3.12948 0
M  V30 2089 N 193.631 -1.12557 1.10312 0
M  V30 2090 C 194.859 -1.87864 0.866873 0
M  V30 2091 C 195.274 -1.79588 -0.582557 0
M  V30 2092 O 194.631 -1.16887 -1.40156 0
M  V30 2093 C 194.682 -3.37125 1.30496 0
M  V30 2094 O 194.403 -3.45201 2.69755 0
M  V30 2095 C 195.904 -4.29373 1.10243 0
M  V30 2096 H 193.124 -0.594452 0.311236 0
M  V30 2097 H 195.668 -1.42429 1.46745 0
M  V30 2098 H 193.823 -3.80109 0.748081 0
M  V30 2099 H 194.237 -4.38056 2.88457 0
M  V30 2100 H 195.711 -5.32394 1.45811 0
M  V30 2101 H 196.188 -4.39181 0.0409492 0
M  V30 2102 H 196.794 -3.92169 1.64571 0
M  V30 2103 N 195.109 -0.891671 -1.2995 0
M  V30 2104 C 196.057 -0.353066 -2.29905 0
M  V30 2105 C 197.051 0.543509 -1.60444 0
M  V30 2106 O 198.257 0.4272 -1.74857 0
M  V30 2107 H 194.632 -0.095531 -0.745907 0
M  V30 2108 H 196.603 -1.20961 -2.72784 0
M  V30 2109 C 195.352 0.411475 -3.45257 0
M  V30 2110 H 194.675 -0.269182 -3.98893 0
M  V30 2111 H 196.115 0.753328 -4.17254 0
M  V30 2112 C 194.574 1.6111 -2.9588 0
M  V30 2113 O 195.104 2.71045 -2.96475 0
M  V30 2114 N 193.31 1.45054 -2.51809 0
M  V30 2115 H 192.857 0.556175 -2.51524 0
M  V30 2116 H 192.815 2.25453 -2.1913 0
M  V30 2117 N 196.587 1.43421 -0.653314 0
M  V30 2118 C 197.497 2.34568 0.0388565 0
M  V30 2119 C 198.513 1.53888 0.81207 0
M  V30 2120 O 199.689 1.86539 0.759294 0
M  V30 2121 C 196.754 3.32167 0.993269 0
M  V30 2122 C 195.815 4.28751 0.216977 0
M  V30 2123 C 195.048 5.21688 1.12593 0
M  V30 2124 O 195.271 5.19052 2.36519 0
M  V30 2125 O 194.205 5.98919 0.598284 0
M  V30 2126 H 198.031 2.95251 -0.711386 0
M  V30 2127 H 195.616 1.43564 -0.413502 0
M  V30 2128 H 197.498 3.92183 1.54176 0
M  V30 2129 H 196.173 2.73987 1.72374 0
M  V30 2130 H 195.08 3.72215 -0.375101 0
M  V30 2131 H 196.413 4.89913 -0.473924 0
M  V30 2132 N 198.065 0.39524 1.52563 0
M  V30 2133 C 199.481 0.0454682 1.59535 0
M  V30 2134 C 199.681 -1.44056 1.4089 0
M  V30 2135 O 198.737 -2.20579 1.22888 0
M  V30 2136 C 200.05 0.527963 2.96029 0
M  V30 2137 C 201.598 0.484733 3.09224 0
M  V30 2138 C 202.073 0.943512 4.48176 0
M  V30 2139 N 203.564 0.899765 4.54377 0
M  V30 2140 C 204.299 1.22609 5.60138 0
M  V30 2141 N 203.795 1.62319 6.73516 0
M  V30 2142 N 205.588 1.14696 5.50274 0
M  V30 2143 H 197.739 1.36261 1.62931 0
M  V30 2144 H 200.002 0.558887 0.765735 0
M  V30 2145 H 199.708 1.56607 3.14908 0
M  V30 2146 H 199.582 -0.0698056 3.77135 0
M  V30 2147 H 201.969 -0.544298 2.90037 0
M  V30 2148 H 202.05 1.11838 2.30056 0
M  V30 2149 H 201.694 1.9708 4.68104 0
M  V30 2150 H 201.624 0.286817 5.25818 0
M  V30 2151 H 204.115 0.607632 3.72983 0
M  V30 2152 H 204.428 1.85567 7.5019 0
M  V30 2153 H 202.773 1.66211 6.74833 0
M  V30 2154 H 205.964 0.835701 4.6058 0
M  V30 2155 H 206.137 1.40459 6.32594 0
M  V30 2156 N 199.544 -1.57102 0.125237 0
M  V30 2157 C 200.769 -2.0019 -0.542101 0
M  V30 2158 C 201.194 -1.00449 -1.59034 0
M  V30 2159 O 200.552 0.0229423 -1.81285 0
M  V30 2160 C 200.6 -3.42129 -1.13929 0
M  V30 2161 O 199.704 -3.45307 -2.2547 0
M  V30 2162 H 199.045 -0.650171 -0.134812 0
M  V30 2163 H 201.575 -2.03461 0.215553 0
M  V30 2164 H 201.585 -3.80471 -1.4733 0
M  V30 2165 H 200.26 -4.14237 -0.371531 0
M  V30 2166 H 198.837 -3.1879 -1.93462 0
M  V30 2167 N 201.022 0.148545 -1.56898 0
M  V30 2168 C 202.269 0.861418 -1.83264 0
M  V30 2169 C 202.597 1.81239 -0.705883 0
M  V30 2170 O 201.852 1.93305 0.305212 0
M  V30 2171 C 202.151 1.67064 -3.1595 0
M  V30 2172 C 201.817 0.866591 -4.42494 0
M  V30 2173 C 200.479 0.644762 -4.76861 0
M  V30 2174 C 202.831 0.30418 -5.20312 0
M  V30 2175 C 200.159 -0.15021 -5.86508 0
M  V30 2176 C 202.511 -0.477824 -6.30793 0
M  V30 2177 C 201.175 -0.710244 -6.63711 0
M  V30 2178 H 200.445 0.315215 -0.670612 0
M  V30 2179 H 203.092 0.125142 -1.91091 0
M  V30 2180 H 201.397 2.47698 -3.03567 0
M  V30 2181 H 203.094 2.22566 -3.33565 0
M  V30 2182 H 199.684 1.04955 -4.15551 0
M  V30 2183 H 203.868 0.462844 -4.94137 0
M  V30 2184 H 199.124 -0.339796 -6.10455 0
M  V30 2185 H 203.298 -0.92076 -6.90286 0
M  V30 2186 H 200.925 -1.3281 -7.48509 0
M  V30 2187 N 202.5 1.5196 0.417844 0
M  V30 2188 C 203.725 1.69717 1.1921 0
M  V30 2189 C 204.15 0.402148 1.83751 0
M  V30 2190 O 203.508 -0.639593 1.69643 0
M  V30 2191 C 203.556 2.82794 2.2374 0
M  V30 2192 O 202.66 2.47756 3.29683 0
M  V30 2193 H 202.001 0.565263 0.348387 0
M  V30 2194 H 204.531 1.98621 0.490985 0
M  V30 2195 H 204.541 3.07452 2.68212 0
M  V30 2196 H 203.216 3.76756 1.76146 0
M  V30 2197 H 201.793 2.33739 2.90552 0
M  V30 2198 N 203.978 -0.674533 1.42435 0
M  V30 2199 C 205.394 -0.98769 1.25367 0
M  V30 2200 C 205.594 -2.00879 0.158044 0
M  V30 2201 O 204.65 -2.48075 -0.470633 0
M  V30 2202 C 205.963 -1.49224 2.6106 0
M  V30 2203 C 207.511 -1.61 2.68417 0
M  V30 2204 C 207.986 -2.14852 4.04478 0
M  V30 2205 N 209.477 -2.22185 4.06434 0
M  V30 2206 C 210.212 -2.64928 5.08528 0
M  V30 2207 N 209.708 -3.07121 6.21006 0
M  V30 2208 N 211.501 -2.64679 4.95885 0
M  V30 2209 H 203.652 0.00152503 2.124 0
M  V30 2210 H 205.915 -0.0618434 0.945981 0
M  V30 2211 H 205.621 -0.816453 3.42092 0
M  V30 2212 H 205.495 -2.47094 2.84999 0
M  V30 2213 H 207.882 -2.27686 1.87732 0
M  V30 2214 H 207.963 -0.616195 2.48267 0
M  V30 2215 H 207.607 -1.48775 4.85622 0
M  V30 2216 H 207.537 -3.15024 4.2198 0
M  V30 2217 H 210.028 -1.92435 3.25234 0
M  V30 2218 H 210.341 -3.38423 6.94759 0
M  V30 2219 H 208.686 -3.04978 6.24511 0
M  V30 2220 H 211.877 -2.31078 4.07088 0
M  V30 2221 H 212.05 -2.9767 5.75584 0
M  V30 2222 N 205.456 -1.28612 -0.910864 0
M  V30 2223 C 206.403 -1.12786 -2.01365 0
M  V30 2224 C 207.373 -0.024201 -1.66082 0
M  V30 2225 O 208.558 -0.189667 -1.89855 0
M  V30 2226 C 205.698 -0.798743 -3.35729 0
M  V30 2227 C 204.811 -1.98173 -3.83864 0
M  V30 2228 C 203.946 -1.59298 -5.06752 0
M  V30 2229 C 202.985 -2.74245 -5.47226 0
M  V30 2230 N 202.122 -2.35842 -6.61304 0
M  V30 2231 H 206.962 -2.07142 -2.14234 0
M  V30 2232 H 204.499 -1.03093 -1.0493 0
M  V30 2233 H 206.457 -0.588662 -4.13026 0
M  V30 2234 H 205.087 0.10789 -3.2262 0
M  V30 2235 H 204.139 -2.30386 -3.02699 0
M  V30 2236 H 205.451 -2.84343 -4.09818 0
M  V30 2237 H 204.605 -1.34513 -5.916 0
M  V30 2238 H 203.344 -0.702618 -4.82612 0
M  V30 2239 H 202.349 -2.99725 -4.60918 0
M  V30 2240 H 203.574 -3.63928 -5.73353 0
M  V30 2241 H 201.52 -1.49279 -6.38789 0
M  V30 2242 H 201.437 -3.15546 -6.86998 0
M  V30 2243 H 202.705 -2.14348 -7.4945 0
M  V30 2244 N 206.934 1.1197 -1.10907 0
M  V30 2245 C 208.183 1.82947 -0.849302 0
M  V30 2246 C 208.496 1.85275 0.627112 0
M  V30 2247 O 209.702 2.52296 1.00295 0
M  V30 2248 C 208.158 3.28529 -1.46959 0
M  V30 2249 C 207.766 3.34546 -2.97965 0
M  V30 2250 C 209.51 4.04443 -1.28942 0
M  V30 2251 C 207.417 4.74491 -3.53004 0
M  V30 2252 H 206.347 0.685477 -0.314065 0
M  V30 2253 H 208.998 1.2604 -1.33365 0
M  V30 2254 H 207.38 3.85333 -0.912917 0
M  V30 2255 H 208.554 2.87654 -3.59989 0
M  V30 2256 H 206.869 2.72108 -3.15192 0
M  V30 2257 H 209.466 5.07787 -1.67502 0
M  V30 2258 H 209.809 4.15656 -0.231456 0
M  V30 2259 H 210.342 3.5401 -1.81443 0
M  V30 2260 H 207.081 4.68474 -4.58489 0
M  V30 2261 H 206.601 5.21816 -2.9575 0
M  V30 2262 H 208.28 5.4344 -3.51115 0
M  V30 2263 N 208.412 0.89855 1.29475 0
M  V30 2264 C 209.36 0.365253 2.29714 0
M  V30 2265 C 210.354 -0.534993 1.6073 0
M  V30 2266 O 211.56 -0.417921 1.75081 0
M  V30 2267 H 207.935 0.0994853 0.74539 0
M  V30 2268 H 209.906 1.22406 2.72138 0
M  V30 2269 C 208.655 -0.393159 3.4547 0
M  V30 2270 H 207.978 0.290332 3.98744 0
M  V30 2271 H 209.418 -0.731189 4.17648 0
M  V30 2272 C 207.877 -1.59539 2.9673 0
M  V30 2273 O 208.407 -2.69469 2.97908 0
M  V30 2274 N 206.613 -1.43716 2.52575 0
M  V30 2275 H 206.16 -0.542828 2.51816 0
M  V30 2276 H 206.118 -2.24288 2.20323 0
M  V30 2277 N 209.89 -1.43072 0.660911 0
M  V30 2278 C 210.8 -2.34585 -0.0264163 0
M  V30 2279 C 211.816 -1.54316 -0.803898 0
M  V30 2280 O 212.992 -1.86939 -0.749391 0
M  V30 2281 C 210.057 -3.32689 -0.975639 0
M  V30 2282 C 209.118 -4.2886 -0.194236 0
M  V30 2283 C 208.351 -5.22278 -1.09825 0
M  V30 2284 O 208.574 -5.20299 -2.33763 0
M  V30 2285 O 207.508 -5.99228 -0.566513 0
M  V30 2286 H 211.334 -2.94869 0.727034 0
M  V30 2287 H 208.919 -1.43342 0.42111 0
M  V30 2288 H 210.801 -3.92995 -1.52094 0
M  V30 2289 H 209.476 -2.74898 -1.70918 0
M  V30 2290 H 208.383 -3.72011 0.394835 0
M  V30 2291 H 209.716 -4.89655 0.499899 0
M  V30 2292 N 211.368 -0.403325 -1.52352 0
M  V30 2293 C 212.617 0.175668 -2.00934 0
M  V30 2294 C 212.93 1.46718 -1.29356 0
M  V30 2295 O 214.136 2.12708 -1.68724 0
M  V30 2296 C 212.592 0.363612 -3.58058 0
M  V30 2297 C 212.2 -0.915472 -4.38547 0
M  V30 2298 C 213.944 0.89821 -4.14888 0
M  V30 2299 C 211.851 -0.695035 -5.87302 0
M  V30 2300 H 210.781 0.0694234 -0.750797 0
M  V30 2301 H 213.432 -0.527879 -1.75743 0
M  V30 2302 H 211.814 1.12935 -3.79555 0
M  V30 2303 H 212.988 -1.68691 -4.28812 0
M  V30 2304 H 211.303 -1.37606 -3.93006 0
M  V30 2305 H 213.9 1.07907 -5.23699 0
M  V30 2306 H 214.243 1.87126 -3.71873 0
M  V30 2307 H 214.776 0.191681 -3.97338 0
M  V30 2308 H 211.515 -1.63948 -6.34666 0
M  V30 2309 H 211.035 0.0372116 -5.99788 0
M  V30 2310 H 212.714 -0.33497 -6.46132 0
M  V30 2311 N 212.846 1.57033 -0.133567 0
M  V30 2312 C 213.776 2.1909 0.807567 0
M  V30 2313 C 214.757 1.13517 1.26681 0
M  V30 2314 O 215.942 1.41809 1.32679 0
M  V30 2315 C 213.072 2.80188 2.05212 0
M  V30 2316 C 212.026 3.91471 1.73015 0
M  V30 2317 C 211.352 4.39443 3.04622 0
M  V30 2318 C 212.652 5.12886 0.987168 0
M  V30 2319 H 214.346 2.97988 0.290403 0
M  V30 2320 H 211.892 1.43335 0.138239 0
M  V30 2321 H 213.845 3.22264 2.71521 0
M  V30 2322 H 212.569 1.98601 2.59278 0
M  V30 2323 H 211.228 3.49993 1.0909 0
M  V30 2324 H 210.876 3.54695 3.56651 0
M  V30 2325 H 210.576 5.14495 2.83847 0
M  V30 2326 H 212.1 4.8418 3.72024 0
M  V30 2327 H 213.514 5.51891 1.55208 0
M  V30 2328 H 211.911 5.93615 0.87985 0
M  V30 2329 H 212.981 4.84894 -0.0235286 0
M  V30 2330 N 214.325 -0.140222 1.56975 0
M  V30 2331 C 215.255 -1.17456 2.01808 0
M  V30 2332 C 216.236 -1.44415 0.898794 0
M  V30 2333 O 217.421 -1.5522 1.16707 0
M  V30 2334 C 214.551 -2.50607 2.40444 0
M  V30 2335 C 213.505 -2.38155 3.55621 0
M  V30 2336 C 212.831 -3.76078 3.80091 0
M  V30 2337 C 214.131 -1.85991 4.88062 0
M  V30 2338 H 215.825 -0.801743 2.88466 0
M  V30 2339 H 213.371 -0.38422 1.38779 0
M  V30 2340 H 215.324 -3.23197 2.7041 0
M  V30 2341 H 214.048 -2.89737 1.50732 0
M  V30 2342 H 212.707 -1.68016 3.25832 0
M  V30 2343 H 212.355 -4.12656 2.87618 0
M  V30 2344 H 212.055 -3.68606 4.57606 0
M  V30 2345 H 213.579 -4.50206 4.12488 0
M  V30 2346 H 214.993 -2.4838 5.16701 0
M  V30 2347 H 213.39 -1.89393 5.6943 0
M  V30 2348 H 214.46 -0.816023 4.77984 0
M  V30 2349 N 215.803 -1.52179 -0.40978 0
M  V30 2350 C 216.766 -1.74853 -1.48186 0
M  V30 2351 C 217.766 -0.618417 -1.48433 0
M  V30 2352 O 218.956 -0.886286 -1.49969 0
M  V30 2353 C 216.088 -1.8303 -2.87598 0
M  V30 2354 H 217.281 -2.70559 -1.29374 0
M  V30 2355 H 214.834 -1.42586 -0.640233 0
M  V30 2356 H 215.569 -0.89236 -3.11781 0
M  V30 2357 H 215.354 -2.65187 -2.88822 0
M  V30 2358 H 216.844 -2.02316 -3.65319 0
M  V30 2359 N 217.281 0.66697 -1.42791 0
M  V30 2360 C 218.211 1.79218 -1.49677 0
M  V30 2361 C 219.192 1.66405 -0.352623 0
M  V30 2362 O 220.377 1.85708 -0.567993 0
M  V30 2363 C 217.507 3.17565 -1.40605 0
M  V30 2364 C 216.461 3.45124 -2.53127 0
M  V30 2365 C 215.787 4.83127 -2.29112 0
M  V30 2366 C 217.087 3.41236 -3.95418 0
M  V30 2367 H 218.781 1.73713 -2.43853 0
M  V30 2368 H 216.327 0.83432 -1.17367 0
M  V30 2369 H 218.28 3.96022 -1.44029 0
M  V30 2370 H 217.004 3.23767 -0.429271 0
M  V30 2371 H 215.663 2.69031 -2.49034 0
M  V30 2372 H 215.311 4.85988 -1.29709 0
M  V30 2373 H 215.011 5.02528 -3.04531 0
M  V30 2374 H 216.535 5.63859 -2.34297 0
M  V30 2375 H 217.949 4.09651 -4.01073 0
M  V30 2376 H 216.346 3.72173 -4.70752 0
M  V30 2377 H 217.416 2.39665 -4.21532 0
M  V30 2378 N 218.759 1.29093 0.90403 0
M  V30 2379 C 219.691 1.09658 2.01266 0
M  V30 2380 C 220.704 0.0453729 1.62737 0
M  V30 2381 O 221.893 0.289446 1.76138 0
M  V30 2382 C 218.993 0.646278 3.32681 0
M  V30 2383 C 218.166 1.77505 3.99763 0
M  V30 2384 C 217.225 1.31649 5.09465 0
M  V30 2385 O 216.251 2.02045 5.32134 0
M  V30 2386 N 217.453 0.184997 5.80205 0
M  V30 2387 H 220.218 2.05135 2.18494 0
M  V30 2388 H 217.779 1.20975 1.07594 0
M  V30 2389 H 219.771 0.322906 4.0341 0
M  V30 2390 H 218.341 -0.215916 3.11853 0
M  V30 2391 H 217.561 2.26752 3.22455 0
M  V30 2392 H 218.849 2.53198 4.41325 0
M  V30 2393 H 218.247 -0.402021 5.6427 0
M  V30 2394 H 216.804 -0.0790358 6.51752 0
M  V30 2395 N 220.237 -1.11381 1.11499 0
M  V30 2396 C 221.486 -1.82494 0.858993 0
M  V30 2397 C 221.799 -1.85605 -0.617278 0
M  V30 2398 O 223.005 -2.52824 -0.989552 0
M  V30 2399 C 221.461 -3.27745 1.48699 0
M  V30 2400 C 221.069 -3.32961 2.99735 0
M  V30 2401 C 222.813 -4.03754 1.31085 0
M  V30 2402 C 220.72 -4.72612 3.55516 0
M  V30 2403 H 219.65 -0.683802 0.317696 0
M  V30 2404 H 222.301 -1.25331 1.34031 0
M  V30 2405 H 220.683 -3.84844 0.933339 0
M  V30 2406 H 221.857 -2.85741 3.61509 0
M  V30 2407 H 220.172 -2.70433 3.16631 0
M  V30 2408 H 222.769 -5.06891 1.70192 0
M  V30 2409 H 223.112 -4.15527 0.253496 0
M  V30 2410 H 223.645 -3.53043 1.83318 0
M  V30 2411 H 220.384 -4.66036 4.60967 0
M  V30 2412 H 219.904 -5.2024 2.98513 0
M  V30 2413 H 221.583 -5.4157 3.53992 0
M  V30 2414 N 221.715 -0.905404 -1.28997 0
M  V30 2415 C 222.625 -0.392246 -2.31298 0
M  V30 2416 C 223.641 0.515889 -1.66176 0
M  V30 2417 O 224.817 0.404093 -1.97304 0
M  V30 2418 C 221.882 0.36686 -3.44754 0
M  V30 2419 C 220.943 -0.573485 -4.25452 0
M  V30 2420 C 220.176 0.149488 -5.33491 0
M  V30 2421 O 220.399 1.37255 -5.5364 0
M  V30 2422 O 219.333 -0.510919 -5.99728 0
M  V30 2423 H 223.159 -1.2411 -2.77183 0
M  V30 2424 H 220.744 -0.669926 -1.33538 0
M  V30 2425 H 222.626 0.795907 -4.13816 0
M  V30 2426 H 221.301 1.19169 -3.00966 0
M  V30 2427 H 220.208 -1.05176 -3.59011 0
M  V30 2428 H 221.541 -1.36489 -4.72897 0
M  V30 2429 N 223.193 1.4272 -0.668489 0
M  V30 2430 C 224.609 1.55992 -0.33745 0
M  V30 2431 C 224.809 1.64933 1.15756 0
M  V30 2432 O 223.865 1.61278 1.94282 0
M  V30 2433 C 225.178 2.81314 -1.06222 0
M  V30 2434 C 226.726 2.95078 -1.04394 0
M  V30 2435 C 227.201 4.23252 -1.74991 0
M  V30 2436 N 228.692 4.3015 -1.71829 0
M  V30 2437 C 229.427 5.28127 -2.23315 0
M  V30 2438 N 228.923 6.32293 -2.83156 0
M  V30 2439 N 230.716 5.19882 -2.13726 0
M  V30 2440 H 222.867 1.3516 -1.63846 0
M  V30 2441 H 225.13 0.650174 -0.689912 0
M  V30 2442 H 224.836 2.80823 -2.11734 0
M  V30 2443 H 224.71 3.72012 -0.62344 0
M  V30 2444 H 227.097 2.951 0.0028244 0
M  V30 2445 H 227.178 2.05627 -1.52155 0
M  V30 2446 H 226.822 4.2399 -2.79633 0
M  V30 2447 H 226.752 5.11626 -1.24685 0
M  V30 2448 H 229.243 3.55499 -1.28175 0
M  V30 2449 H 229.556 7.03398 -3.20079 0
M  V30 2450 H 227.901 6.32873 -2.87223 0
M  V30 2451 H 231.092 4.37423 -1.66669 0
M  V30 2452 H 231.265 5.96077 -2.54158 0
M  V30 2453 N 224.671 0.411399 1.52136 0
M  V30 2454 C 225.603 -0.448386 2.24771 0
M  V30 2455 C 226.616 -1.00828 1.27818 0
M  V30 2456 O 227.805 -0.906841 1.53749 0
M  V30 2457 C 224.905 -1.63636 2.96777 0
M  V30 2458 C 224.078 -1.19995 4.20618 0
M  V30 2459 C 223.137 -2.25509 4.75428 0
M  V30 2460 O 222.163 -1.86007 5.3795 0
M  V30 2461 N 223.365 -3.577 4.57199 0
M  V30 2462 H 226.13 0.174025 2.99194 0
M  V30 2463 H 223.691 0.238897 1.60128 0
M  V30 2464 H 225.683 -2.33793 3.30338 0
M  V30 2465 H 224.253 -2.16465 2.25526 0
M  V30 2466 H 223.473 -0.326421 3.92846 0
M  V30 2467 H 224.761 -0.885365 5.01038 0
M  V30 2468 H 224.159 -3.92543 4.07341 0
M  V30 2469 H 222.716 -4.23827 4.95191 0
M  V30 2470 N 226.149 -1.5696 0.141893 0
M  V30 2471 C 227.079 -2.19516 -0.795936 0
M  V30 2472 C 228.06 -1.14187 -1.26077 0
M  V30 2473 O 229.245 -1.42511 -1.31925 0
M  V30 2474 C 226.375 -2.81272 -2.03723 0
M  V30 2475 C 225.329 -3.92384 -1.70936 0
M  V30 2476 C 224.655 -4.41052 -3.02287 0
M  V30 2477 C 225.955 -5.13403 -0.959954 0
M  V30 2478 H 227.649 -2.98138 -0.274596 0
M  V30 2479 H 225.195 -1.43406 -0.130636 0
M  V30 2480 H 227.148 -3.237 -2.69808 0
M  V30 2481 H 225.872 -1.99973 -2.58221 0
M  V30 2482 H 224.531 -3.50566 -1.07232 0
M  V30 2483 H 224.179 -3.56582 -3.54765 0
M  V30 2484 H 223.879 -5.15993 -2.81114 0
M  V30 2485 H 225.403 -4.86146 -3.69451 0
M  V30 2486 H 226.817 -5.52706 -1.52279 0
M  V30 2487 H 225.214 -5.94073 -0.848357 0
M  V30 2488 H 226.284 -4.84875 0.0492434 0
M  V30 2489 N 227.627 0.131896 -1.57047 0
M  V30 2490 C 228.855 0.856461 -1.88341 0
M  V30 2491 C 229.27 1.74042 -0.731757 0
M  V30 2492 O 228.627 1.80051 0.297945 0
M  V30 2493 C 228.678 1.70064 -3.18999 0
M  V30 2494 O 228.399 0.852278 -4.2973 0
M  V30 2495 C 229.9 2.53148 -3.63911 0
M  V30 2496 H 227.12 0.246885 -0.62393 0
M  V30 2497 H 229.664 0.120152 -2.04147 0
M  V30 2498 H 227.819 2.38984 -3.04902 0
M  V30 2499 H 228.233 1.43329 -5.04537 0
M  V30 2500 H 229.707 3.07931 -4.58129 0
M  V30 2501 H 230.184 3.29901 -2.89935 0
M  V30 2502 H 230.79 1.89492 -3.80753 0
M  V30 2503 N 229.106 1.52395 0.401703 0
M  V30 2504 C 230.053 1.76268 1.48991 0
M  V30 2505 C 231.023 0.605386 1.54675 0
M  V30 2506 O 232.208 0.843742 1.7113 0
M  V30 2507 C 229.348 1.92592 2.86361 0
M  V30 2508 C 228.461 3.20259 2.89928 0
M  V30 2509 C 227.596 3.26972 4.18644 0
M  V30 2510 C 226.635 4.48812 4.16214 0
M  V30 2511 N 225.772 4.52877 5.36514 0
M  V30 2512 H 230.612 2.6914 1.27935 0
M  V30 2513 H 228.149 1.33355 0.620871 0
M  V30 2514 H 230.107 2.0004 3.66115 0
M  V30 2515 H 228.737 1.03093 3.05895 0
M  V30 2516 H 227.789 3.21945 2.02621 0
M  V30 2517 H 229.101 4.10056 2.83999 0
M  V30 2518 H 228.255 3.33533 5.06794 0
M  V30 2519 H 226.994 2.35126 4.27278 0
M  V30 2520 H 225.999 4.4239 3.26453 0
M  V30 2521 H 227.224 5.41961 4.09213 0
M  V30 2522 H 225.17 3.63917 5.45802 0
M  V30 2523 H 225.087 5.36529 5.32609 0
M  V30 2524 H 226.355 4.63676 6.26597 0
M  V30 2525 N 230.584 -0.659388 1.43143 0
M  V30 2526 C 231.861 -1.41627 1.34912 0
M  V30 2527 C 232.241 -2.11099 -0.00607785 0
M  V30 2528 O 231.589 -2.04353 -1.02236 0
M  V30 2529 C 231.799 -2.40604 2.52805 0
M  V30 2530 C 233.147 -3.04789 2.95616 0
M  V30 2531 O 234.171 -2.50932 2.52807 0
M  V30 2532 O 233.03 -4.02421 3.69756 0
M  V30 2533 H 230.124 -0.63246 0.532844 0
M  V30 2534 H 232.67 -0.686814 1.5518 0
M  V30 2535 H 231.442 -1.88174 3.43083 0
M  V30 2536 H 231.065 -3.21009 2.34604 0
M  V30 2537 N 232.062 -1.29571 -0.897171 0
M  V30 2538 C 232.972 -1.16808 -2.03453 0
M  V30 2539 C 233.988 -0.0907471 -1.73763 0
M  V30 2540 O 235.164 -0.303312 -1.99103 0
M  V30 2541 C 232.229 -0.848264 -3.36163 0
M  V30 2542 C 231.29 -2.0097 -3.79354 0
M  V30 2543 C 230.523 -1.70505 -5.05731 0
M  V30 2544 O 230.746 -0.62718 -5.66941 0
M  V30 2545 O 229.68 -2.5538 -5.45036 0
M  V30 2546 H 233.506 -2.12325 -2.17144 0
M  V30 2547 H 231.091 -1.09047 -1.02123 0
M  V30 2548 H 232.973 -0.684581 -4.15802 0
M  V30 2549 H 231.648 0.0771071 -3.23608 0
M  V30 2550 H 230.555 -2.22863 -3.00471 0
M  V30 2551 H 231.888 -2.91636 -3.96496 0
M  V30 2552 N 233.54 1.10788 -1.12088 0
M  V30 2553 C 234.789 1.82036 -0.868659 0
M  V30 2554 C 235.102 1.85929 0.607426 0
M  V30 2555 O 236.308 2.53346 0.97613 0
M  V30 2556 C 234.764 3.26951 -1.50435 0
M  V30 2557 C 234.372 3.31367 -3.01496 0
M  V30 2558 C 236.116 4.03053 -1.33225 0
M  V30 2559 C 234.023 4.7072 -3.58017 0
M  V30 2560 H 232.953 0.682108 -0.321318 0
M  V30 2561 H 235.604 1.24618 -1.34694 0
M  V30 2562 H 233.986 3.84343 -0.953735 0
M  V30 2563 H 235.16 2.83819 -3.6302 0
M  V30 2564 H 233.475 2.6875 -3.18061 0
M  V30 2565 H 236.072 5.05981 -1.72878 0
M  V30 2566 H 236.415 4.15387 -0.275529 0
M  V30 2567 H 236.948 3.52066 -1.85188 0
M  V30 2568 H 233.687 4.63585 -4.63432 0
M  V30 2569 H 233.207 5.1865 -3.01268 0
M  V30 2570 H 234.886 5.39685 -3.56859 0
M  V30 2571 N 235.018 0.912232 1.28515 0
M  V30 2572 C 235.948 0.416403 2.29757 0
M  V30 2573 C 236.929 -0.515194 1.6211 0
M  V30 2574 O 238.114 -0.423253 1.89532 0
M  V30 2575 C 235.244 -0.34572 3.45575 0
M  V30 2576 C 234.198 0.496599 4.25109 0
M  V30 2577 C 233.524 -0.393771 5.33248 0
M  V30 2578 C 234.824 1.75307 4.92001 0
M  V30 2579 H 236.518 1.26249 2.7148 0
M  V30 2580 H 234.064 0.608515 1.30511 0
M  V30 2581 H 236.017 -0.703422 4.15488 0
M  V30 2582 H 234.741 -1.2257 3.02728 0
M  V30 2583 H 233.4 0.8368 3.56922 0
M  V30 2584 H 233.048 -1.27225 4.86644 0
M  V30 2585 H 232.748 0.166209 5.87365 0
M  V30 2586 H 234.272 -0.747389 6.06009 0
M  V30 2587 H 235.686 1.46437 5.54283 0
M  V30 2588 H 234.083 2.25534 5.56106 0
M  V30 2589 H 235.153 2.48176 4.16577 0
M  V30 2590 N 236.496 -1.42363 0.676048 0
M  V30 2591 C 237.406 -2.346 -0.00153389 0
M  V30 2592 C 238.422 -1.5516 -0.787485 0
M  V30 2593 O 239.598 -1.87723 -0.729521 0
M  V30 2594 C 236.663 -3.33705 -0.940298 0
M  V30 2595 C 235.724 -4.29042 -0.148739 0
M  V30 2596 C 234.957 -5.23413 -1.04279 0
M  V30 2597 O 235.18 -5.22749 -2.28232 0
M  V30 2598 O 234.114 -5.99795 -0.502925 0
M  V30 2599 H 237.94 -2.94082 0.758268 0
M  V30 2600 H 235.525 -1.42888 0.436289 0
M  V30 2601 H 237.407 -3.94586 -1.47917 0
M  V30 2602 H 236.082 -2.76695 -1.67993 0
M  V30 2603 H 234.989 -3.71571 0.43427 0
M  V30 2604 H 236.322 -4.89097 0.551805 0
M  V30 2605 N 237.974 -0.419461 -1.51915 0
M  V30 2606 C 238.904 0.391813 -2.30189 0
M  V30 2607 C 239.885 1.03699 -1.34836 0
M  V30 2608 O 241.07 1.04403 -1.63748 0
M  V30 2609 C 238.2 1.50312 -3.13087 0
M  V30 2610 C 237.154 0.9824 -4.16573 0
M  V30 2611 C 236.48 2.18809 -4.8788 0
M  V30 2612 C 237.78 0.0292356 -5.22292 0
M  V30 2613 H 239.474 -0.26135 -2.98257 0
M  V30 2614 H 237.02 -0.127134 -1.43438 0
M  V30 2615 H 238.973 2.07773 -3.66617 0
M  V30 2616 H 237.697 2.18431 -2.42807 0
M  V30 2617 H 236.356 0.430119 -3.64068 0
M  V30 2618 H 236.004 2.85507 -4.14119 0
M  V30 2619 H 235.704 1.84615 -5.57845 0
M  V30 2620 H 237.228 2.76858 -5.44226 0
M  V30 2621 H 238.642 0.512976 -5.71 0
M  V30 2622 H 237.039 -0.2244 -5.9968 0
M  V30 2623 H 238.109 -0.912931 -4.76228 0
M  V30 2624 N 239.452 1.56882 -0.150215 0
M  V30 2625 C 240.682 2.00302 0.506213 0
M  V30 2626 C 241.09 1.02934 1.58749 0
M  V30 2627 O 240.433 0.0188384 1.8369 0
M  V30 2628 C 240.495 3.40156 1.16337 0
M  V30 2629 C 240.159 4.56439 0.226311 0
M  V30 2630 C 241.156 5.17012 -0.547265 0
M  V30 2631 C 238.841 5.02136 0.128279 0
M  V30 2632 C 240.835 6.21693 -1.40629 0
M  V30 2633 C 238.522 6.06672 -0.734345 0
M  V30 2634 C 239.52 6.6632 -1.50023 0
M  V30 2635 O 239.208 7.68831 -2.34848 0
M  V30 2636 H 238.94 0.662182 0.135984 0
M  V30 2637 H 241.494 2.03961 -0.242746 0
M  V30 2638 H 239.724 3.33346 1.96004 0
M  V30 2639 H 241.413 3.67663 1.71985 0
M  V30 2640 H 242.179 4.82603 -0.48158 0
M  V30 2641 H 238.058 4.55435 0.714157 0
M  V30 2642 H 241.602 6.68179 -2.00455 0
M  V30 2643 H 237.499 6.40507 -0.801309 0
M  V30 2644 H 238.267 7.86065 -2.28131 0
M  V30 2645 N 240.93 -0.123565 1.57115 0
M  V30 2646 C 242.176 -0.833386 1.84885 0
M  V30 2647 C 242.509 -1.79742 0.735292 0
M  V30 2648 O 241.784 -1.92764 -0.25925 0
M  V30 2649 C 242.067 -1.5873 3.23228 0
M  V30 2650 C 241.92 -0.643183 4.45178 0
M  V30 2651 C 243.239 -2.54453 3.59085 0
M  V30 2652 H 240.358 -0.301518 0.6725 0
M  V30 2653 H 243 -0.097778 1.89748 0
M  V30 2654 H 241.15 -2.21438 3.19214 0
M  V30 2655 H 242.822 -0.0253015 4.61293 0
M  V30 2656 H 241.065 0.0456139 4.33776 0
M  V30 2657 H 241.736 -1.20724 5.38637 0
M  V30 2658 H 244.212 -2.01853 3.63861 0
M  V30 2659 H 243.088 -3.04238 4.5687 0
M  V30 2660 H 243.349 -3.36906 2.86264 0
M  V30 2661 N 242.408 -1.52605 -0.393616 0
M  V30 2662 C 243.356 -1.77688 -1.50099 0
M  V30 2663 C 244.35 -0.644615 -1.56656 0
M  V30 2664 O 245.556 -0.826997 -1.59877 0
M  V30 2665 H 241.931 -0.562159 -0.499481 0
M  V30 2666 H 243.902 -2.7043 -1.26135 0
M  V30 2667 C 242.651 -1.95858 -2.87289 0
M  V30 2668 H 241.974 -2.8241 -2.82992 0
M  V30 2669 H 243.414 -2.174 -3.64024 0
M  V30 2670 C 241.873 -0.729848 -3.28899 0
M  V30 2671 O 242.403 0.0949217 -4.01588 0
M  V30 2672 N 240.609 -0.561283 -2.85128 0
M  V30 2673 H 240.156 -1.23357 -2.26143 0
M  V30 2674 H 240.114 0.2595 -3.13327 0
M  V30 2675 N 243.887 0.651787 -1.4349 0
M  V30 2676 C 244.834 1.76462 -1.4876 0
M  V30 2677 C 245.804 1.62641 -0.337189 0
M  V30 2678 O 246.989 1.82864 -0.544544 0
M  V30 2679 C 244.129 3.14623 -1.41796 0
M  V30 2680 C 243.242 3.39568 -2.67053 0
M  V30 2681 C 242.377 4.67585 -2.52068 0
M  V30 2682 C 241.416 4.85639 -3.72587 0
M  V30 2683 N 240.553 6.04915 -3.56402 0
M  V30 2684 H 245.393 1.71293 -2.43849 0
M  V30 2685 H 242.93 0.835889 -1.21043 0
M  V30 2686 H 244.888 3.94496 -1.35753 0
M  V30 2687 H 243.518 3.18859 -0.50288 0
M  V30 2688 H 242.57 2.53783 -2.8337 0
M  V30 2689 H 243.882 3.48795 -3.56572 0
M  V30 2690 H 243.036 5.55586 -2.4374 0
M  V30 2691 H 241.775 4.60681 -1.60075 0
M  V30 2692 H 240.78 3.96073 -3.81321 0
M  V30 2693 H 242.005 4.94372 -4.65589 0
M  V30 2694 H 239.951 5.9914 -2.67146 0
M  V30 2695 H 239.868 6.15106 -4.39524 0
M  V30 2696 H 241.136 6.95533 -3.51929 0
M  V30 2697 N 245.365 1.30045 0.890287 0
M  V30 2698 C 246.614 1.17929 1.63633 0
M  V30 2699 C 246.927 -0.266204 1.9378 0
M  V30 2700 O 248.133 -0.508804 2.6669 0
M  V30 2701 C 246.589 2.06317 2.94892 0
M  V30 2702 C 246.197 3.55745 2.72305 0
M  V30 2703 C 247.941 2.0295 3.72843 0
M  V30 2704 C 245.848 4.36205 3.99348 0
M  V30 2705 H 244.778 0.437782 0.613892 0
M  V30 2706 H 247.429 1.54754 0.986075 0
M  V30 2707 H 245.811 1.6237 3.61182 0
M  V30 2708 H 246.985 4.07805 2.1455 0
M  V30 2709 H 245.3 3.6088 2.07737 0
M  V30 2710 H 247.897 2.60319 4.67053 0
M  V30 2711 H 248.24 1.0117 4.0382 0
M  V30 2712 H 248.773 2.4499 3.13408 0
M  V30 2713 H 245.512 5.38659 3.73533 0
M  V30 2714 H 245.032 3.8891 4.56628 0
M  V30 2715 H 246.711 4.47362 4.67415 0
M  V30 2716 N 246.843 -1.10192 1.12674 0
M  V30 2717 C 248.073 -1.85713 0.905213 0
M  V30 2718 C 248.481 -1.81056 -0.549108 0
M  V30 2719 O 247.824 -1.19927 -1.39151 0
M  V30 2720 C 247.886 -3.34972 1.30516 0
M  V30 2721 C 247.55 -3.63385 2.77129 0
M  V30 2722 C 248.547 -3.59772 3.75313 0
M  V30 2723 C 246.232 -3.91981 3.14096 0
M  V30 2724 C 248.226 -3.84354 5.08479 0
M  V30 2725 C 245.913 -4.16218 4.47443 0
M  V30 2726 C 246.911 -4.12395 5.44444 0
M  V30 2727 O 246.599 -4.36014 6.75387 0
M  V30 2728 H 246.331 -0.593719 0.323223 0
M  V30 2729 H 248.885 -1.40198 1.50112 0
M  V30 2730 H 247.115 -3.81156 0.652463 0
M  V30 2731 H 248.804 -3.91886 1.05736 0
M  V30 2732 H 249.57 -3.37716 3.48099 0
M  V30 2733 H 245.449 -3.94085 2.39202 0
M  V30 2734 H 248.993 -3.81285 5.84181 0
M  V30 2735 H 244.89 -4.37754 4.74386 0
M  V30 2736 H 245.658 -4.53516 6.8137 0
M  V30 2737 N 248.321 -0.919034 -1.28029 0
M  V30 2738 C 249.251 -0.428581 -2.29533 0
M  V30 2739 C 250.232 0.50659 -1.62381 0
M  V30 2740 O 251.417 0.413195 -1.89753 0
M  V30 2741 C 248.547 0.327388 -3.45753 0
M  V30 2742 C 247.501 -0.519137 -4.2484 0
M  V30 2743 C 246.827 0.365486 -5.33449 0
M  V30 2744 C 248.127 -1.77914 -4.91064 0
M  V30 2745 H 249.821 -1.27687 -2.70807 0
M  V30 2746 H 247.367 -0.615428 -1.30186 0
M  V30 2747 H 249.32 0.681378 -4.15855 0
M  V30 2748 H 248.044 1.20963 -3.03374 0
M  V30 2749 H 246.703 -0.855717 -3.56473 0
M  V30 2750 H 246.351 1.24642 -4.87312 0
M  V30 2751 H 246.051 -0.197356 -5.87268 0
M  V30 2752 H 247.575 0.715241 -6.06396 0
M  V30 2753 H 248.989 -1.49374 -5.53498 0
M  V30 2754 H 247.386 -2.2848 -5.54903 0
M  V30 2755 H 248.456 -2.50382 -4.15255 0
M  V30 2756 N 249.799 1.42003 -0.683588 0
M  V30 2757 C 251.047 2.01015 -0.209101 0
M  V30 2758 C 251.368 1.54365 1.19149 0
M  V30 2759 O 250.638 0.769083 1.80172 0
M  V30 2760 H 249.218 0.743294 -0.074315 0
M  V30 2761 H 251.88 1.73798 -0.882066 0
M  V30 2762 H 250.976 3.11343 -0.2172 0
M  V30 2763 N 251.277 0.427512 1.51691 0
M  V30 2764 C 252.225 -0.403359 2.29076 0
M  V30 2765 C 253.219 -1.02962 1.34518 0
M  V30 2766 O 254.425 -0.965715 1.51901 0
M  V30 2767 H 250.8 -0.148879 0.737115 0
M  V30 2768 H 252.771 0.270295 2.97173 0
M  V30 2769 C 251.52 -1.49763 3.13794 0
M  V30 2770 H 250.843 -1.02508 3.86435 0
M  V30 2771 H 252.283 -2.05244 3.71014 0
M  V30 2772 C 250.742 -2.47536 2.28533 0
M  V30 2773 O 251.272 -3.51848 1.93819 0
M  V30 2774 N 249.478 -2.18187 1.91945 0
M  V30 2775 H 249.025 -1.33389 2.20375 0
M  V30 2776 H 248.983 -2.83848 1.35195 0
M  V30 2777 N 252.755 -1.56801 0.158532 0
M  V30 2778 C 254.171 -1.5837 -0.197774 0
M  V30 2779 C 254.371 -1.17334 -1.63814 0
M  V30 2780 O 253.427 -0.878988 -2.36707 0
M  V30 2781 C 254.74 -3.00615 0.0714459 0
M  V30 2782 C 256.288 -3.12999 0.00864533 0
M  V30 2783 C 256.763 -4.57313 0.250685 0
M  V30 2784 N 258.254 -4.62777 0.198014 0
M  V30 2785 C 258.989 -5.72271 0.359642 0
M  V30 2786 N 258.485 -6.90371 0.579625 0
M  V30 2787 N 260.278 -5.61318 0.296438 0
M  V30 2788 H 252.429 -1.81765 1.09887 0
M  V30 2789 H 254.692 -0.841849 0.435884 0
M  V30 2790 H 254.398 -3.35068 1.06874 0
M  V30 2791 H 254.272 -3.71683 -0.642757 0
M  V30 2792 H 256.659 -2.7838 -0.979217 0
M  V30 2793 H 256.74 -2.44393 0.755359 0
M  V30 2794 H 256.384 -4.92639 1.2357 0
M  V30 2795 H 256.314 -5.24061 -0.516489 0
M  V30 2796 H 258.805 -3.77885 0.0331115 0
M  V30 2797 H 259.118 -7.69689 0.69275 0
M  V30 2798 H 257.463 -6.92264 0.616087 0
M  V30 2799 H 260.654 -4.67932 0.125258 0
M  V30 2800 H 260.827 -6.46599 0.425831 0
M  V30 2801 N 254.233 0.115231 -1.57178 0
M  V30 2802 C 255.196 1.12526 -1.99676 0
M  V30 2803 C 256.196 1.34095 -0.88742 0
M  V30 2804 O 257.386 1.30548 -1.15337 0
M  V30 2805 C 254.518 2.4789 -2.34015 0
M  V30 2806 H 255.711 0.759912 -2.90113 0
M  V30 2807 H 253.264 0.359648 -1.52106 0
M  V30 2808 H 253.999 2.89339 -1.4647 0
M  V30 2809 H 253.784 2.33588 -3.14927 0
M  V30 2810 H 255.274 3.20575 -2.67622 0
M  V30 2811 N 255.711 1.52812 0.385517 0
M  V30 2812 C 256.941 1.71658 1.14966 0
M  V30 2813 C 257.349 0.436253 1.84102 0
M  V30 2814 O 256.692 -0.599313 1.73649 0
M  V30 2815 C 256.754 2.81309 2.23843 0
M  V30 2816 C 256.418 4.22313 1.74644 0
M  V30 2817 C 257.415 5.05352 1.22129 0
M  V30 2818 C 255.1 4.68648 1.80761 0
M  V30 2819 C 257.094 6.32807 0.763838 0
M  V30 2820 C 254.781 5.96086 1.34627 0
M  V30 2821 C 255.779 6.77996 0.825264 0
M  V30 2822 O 255.467 8.03045 0.370669 0
M  V30 2823 H 255.199 0.578022 0.350523 0
M  V30 2824 H 257.753 2.00263 0.456509 0
M  V30 2825 H 255.983 2.48133 2.96592 0
M  V30 2826 H 257.672 2.88524 2.85497 0
M  V30 2827 H 258.438 4.70736 1.16758 0
M  V30 2828 H 254.317 4.04979 2.20256 0
M  V30 2829 H 257.861 6.96689 0.356494 0
M  V30 2830 H 253.758 6.30205 1.39686 0
M  V30 2831 H 254.526 8.17021 0.491829 0
M  V30 2832 N 257.189 -0.644168 1.43834 0
M  V30 2833 C 258.437 -1.40117 1.45642 0
M  V30 2834 C 258.758 -1.94814 0.0852413 0
M  V30 2835 O 258.028 -1.74988 -0.880688 0
M  V30 2836 H 256.608 -0.52005 0.536243 0
M  V30 2837 H 259.27 -0.7591 1.7951 0
M  V30 2838 H 258.366 -2.23902 2.17427 0
M  V30 2839 N 258.668 -1.30515 -0.883378 0
M  V30 2840 C 259.917 -1.18795 -1.63005 0
M  V30 2841 C 260.23 0.255923 -1.93919 0
M  V30 2842 O 261.436 0.494654 -2.66956 0
M  V30 2843 C 259.892 -2.07878 -2.93794 0
M  V30 2844 C 259.5 -3.57184 -2.70414 0
M  V30 2845 C 261.244 -2.04924 -3.71761 0
M  V30 2846 C 259.151 -4.38317 -3.97029 0
M  V30 2847 H 258.081 -0.441031 -0.611562 0
M  V30 2848 H 260.732 -1.55275 -0.977854 0
M  V30 2849 H 259.114 -1.64283 -3.60315 0
M  V30 2850 H 260.288 -4.08937 -2.12384 0
M  V30 2851 H 258.603 -3.61976 -2.0582 0
M  V30 2852 H 261.2 -2.62792 -4.65665 0
M  V30 2853 H 261.543 -1.0331 -4.03277 0
M  V30 2854 H 262.076 -2.46649 -3.12104 0
M  V30 2855 H 258.815 -5.40632 -3.70671 0
M  V30 2856 H 258.335 -3.91326 -4.54559 0
M  V30 2857 H 260.014 -4.49834 -4.65036 0
M  V30 2858 N 260.146 1.09593 -1.13257 0
M  V30 2859 C 261.056 2.19739 -0.821691 0
M  V30 2860 C 262.072 1.72926 0.19302 0
M  V30 2861 O 263.248 2.01385 0.0244895 0
M  V30 2862 C 260.313 3.45482 -0.290333 0
M  V30 2863 C 259.374 4.06985 -1.36607 0
M  V30 2864 C 258.607 5.26726 -0.859975 0
M  V30 2865 O 258.83 5.69594 0.303082 0
M  V30 2866 O 257.764 5.7931 -1.63351 0
M  V30 2867 H 261.59 2.48781 -1.74189 0
M  V30 2868 H 259.175 1.18496 -0.909894 0
M  V30 2869 H 261.057 4.214 0.000674022 0
M  V30 2870 H 259.732 3.18047 0.602306 0
M  V30 2871 H 258.639 3.32712 -1.71037 0
M  V30 2872 H 259.972 4.38643 -2.23279 0
M  V30 2873 N 261.624 0.925811 1.2754 0
M  V30 2874 C 262.587 0.428129 2.25166 0
M  V30 2875 C 263.587 -0.452261 1.54309 0
M  V30 2876 O 264.777 -0.253608 1.72344 0
M  V30 2877 C 261.909 -0.384749 3.38722 0
M  V30 2878 H 263.102 1.29066 2.70706 0
M  V30 2879 H 260.655 0.706323 1.3943 0
M  V30 2880 H 261.39 -1.26618 2.98561 0
M  V30 2881 H 261.175 0.246454 3.91325 0
M  V30 2882 H 262.665 -0.723389 4.11287 0
M  V30 2883 N 263.102 -1.41638 0.69111 0
M  V30 2884 C 264.065 -2.29178 0.0319786 0
M  V30 2885 C 265.065 -1.44153 -0.712496 0
M  V30 2886 O 266.255 -1.65354 -0.548053 0
M  V30 2887 C 263.387 -3.26952 -0.965161 0
M  V30 2888 H 264.58 -2.88959 0.802681 0
M  V30 2889 H 262.133 -1.4955 0.454356 0
M  V30 2890 H 262.868 -2.72142 -1.76378 0
M  V30 2891 H 262.653 -3.89685 -0.434522 0
M  V30 2892 H 264.143 -3.92561 -1.42428 0
M  V30 2893 N 264.58 -0.43555 -1.51462 0
M  V30 2894 C 265.543 0.365137 -2.26273 0
M  V30 2895 C 266.543 0.951227 -1.29647 0
M  V30 2896 O 267.733 0.825958 -1.53374 0
M  V30 2897 C 264.865 1.51645 -3.05314 0
M  V30 2898 H 266.058 -0.290474 -2.9849 0
M  V30 2899 H 263.611 -0.188676 -1.55157 0
M  V30 2900 H 264.346 2.20816 -2.3751 0
M  V30 2901 H 264.131 1.10238 -3.76284 0
M  V30 2902 H 265.621 2.08218 -3.61987 0
M  V30 2903 N 266.058 1.56714 -0.166846 0
M  V30 2904 C 266.99 2.14914 0.796537 0
M  V30 2905 C 268.003 1.10357 1.19688 0
M  V30 2906 O 269.192 1.37561 1.13751 0
M  V30 2907 C 266.292 2.67326 2.08303 0
M  V30 2908 C 265.465 3.96493 1.84696 0
M  V30 2909 C 264.524 4.34014 2.97521 0
M  V30 2910 O 263.55 5.01973 2.6835 0
M  V30 2911 N 264.752 3.95208 4.25196 0
M  V30 2912 H 267.517 2.98205 0.299006 0
M  V30 2913 H 265.078 1.61892 0.0160839 0
M  V30 2914 H 267.07 2.89428 2.82867 0
M  V30 2915 H 265.64 1.88649 2.4926 0
M  V30 2916 H 264.86 3.82814 0.940602 0
M  V30 2917 H 266.148 4.8086 1.66285 0
M  V30 2918 H 265.546 3.40487 4.51758 0
M  V30 2919 H 264.103 4.2232 4.96477 0
M  V30 2920 N 267.536 -0.106894 1.57237 0
M  V30 2921 C 268.782 -0.81373 1.85759 0
M  V30 2922 C 269.115 -1.78952 0.754315 0
M  V30 2923 O 268.39 -1.93029 -0.23879 0
M  V30 2924 C 268.673 -1.55293 3.24894 0
M  V30 2925 C 268.526 -0.595929 4.45835 0
M  V30 2926 C 269.845 -2.5063 3.61763 0
M  V30 2927 H 266.964 -0.294369 0.67566 0
M  V30 2928 H 269.606 -0.0776472 1.89841 0
M  V30 2929 H 267.756 -2.1804 3.21544 0
M  V30 2930 H 269.428 0.0236262 4.61294 0
M  V30 2931 H 267.671 0.0916191 4.33703 0
M  V30 2932 H 268.342 -1.15004 5.39887 0
M  V30 2933 H 270.818 -1.97982 3.65981 0
M  V30 2934 H 269.694 -2.99376 4.60071 0
M  V30 2935 H 269.955 -3.3385 2.89821 0
M  V30 2936 N 269.014 -1.53014 -0.377408 0
M  V30 2937 C 270.244 -1.72265 -1.14054 0
M  V30 2938 C 270.652 -0.44601 -1.83868 0
M  V30 2939 O 269.995 0.590095 -1.73964 0
M  V30 2940 C 270.057 -2.82492 -2.22348 0
M  V30 2941 C 269.721 -4.23233 -1.72402 0
M  V30 2942 C 270.718 -5.05992 -1.19448 0
M  V30 2943 C 268.403 -4.696 -1.78273 0
M  V30 2944 C 270.397 -6.33203 -0.730268 0
M  V30 2945 C 268.084 -5.96792 -1.31464 0
M  V30 2946 C 269.082 -6.78424 -0.789297 0
M  V30 2947 O 268.77 -8.0323 -0.328077 0
M  V30 2948 H 268.502 -0.579873 -0.347453 0
M  V30 2949 H 271.056 -2.00502 -0.445882 0
M  V30 2950 H 269.286 -2.49702 -2.95272 0
M  V30 2951 H 270.975 -2.90034 -2.83963 0
M  V30 2952 H 271.741 -4.71349 -1.14259 0
M  V30 2953 H 267.62 -4.06142 -2.18106 0
M  V30 2954 H 271.164 -6.96868 -0.319542 0
M  V30 2955 H 267.061 -6.30937 -1.36342 0
M  V30 2956 H 267.829 -8.1727 -0.448493 0
M  V30 2957 N 270.492 0.636531 -1.44174 0
M  V30 2958 C 271.722 1.42146 -1.49927 0
M  V30 2959 C 272.13 1.88812 -0.121063 0
M  V30 2960 O 271.473 1.61126 0.882267 0
M  V30 2961 C 271.535 2.67883 -2.39748 0
M  V30 2962 C 271.199 2.43048 -3.8701 0
M  V30 2963 C 272.196 2.05216 -4.77684 0
M  V30 2964 C 269.881 2.56856 -4.3166 0
M  V30 2965 C 271.875 1.81512 -6.11009 0
M  V30 2966 C 269.562 2.32766 -5.65034 0
M  V30 2967 C 270.56 1.95152 -6.54526 0
M  V30 2968 O 270.248 1.71326 -7.85431 0
M  V30 2969 H 269.98 0.442567 -0.51099 0
M  V30 2970 H 272.534 0.786158 -1.8976 0
M  V30 2971 H 270.764 3.34032 -1.94832 0
M  V30 2972 H 272.453 3.29874 -2.36513 0
M  V30 2973 H 273.219 1.94111 -4.44462 0
M  V30 2974 H 269.098 2.85104 -3.62266 0
M  V30 2975 H 272.642 1.52077 -6.80822 0
M  V30 2976 H 268.539 2.43479 -5.97819 0
M  V30 2977 H 269.307 1.85616 -7.97176 0
M  V30 2978 N 271.97 1.30982 0.876444 0
M  V30 2979 C 273.218 1.20058 1.62575 0
M  V30 2980 C 273.539 -0.242947 1.93481 0
M  V30 2981 O 272.809 -1.1619 1.57724 0
M  V30 2982 H 271.389 0.44135 0.602677 0
M  V30 2983 H 274.051 1.64222 1.04962 0
M  V30 2984 H 273.147 1.76762 2.57219 0
M  V30 2985 N 273.449 -1.08991 1.13837 0
M  V30 2986 C 274.396 -2.15748 0.819835 0
M  V30 2987 C 275.366 -1.64636 -0.220026 0
M  V30 2988 O 276.551 -1.90582 -0.0912757 0
M  V30 2989 C 273.691 -3.4382 0.296913 0
M  V30 2990 C 272.804 -4.0881 1.39636 0
M  V30 2991 C 271.939 -5.24655 0.831314 0
M  V30 2992 C 270.978 -5.81575 1.90886 0
M  V30 2993 N 270.115 -6.88774 1.36142 0
M  V30 2994 H 274.955 -2.42338 1.73426 0
M  V30 2995 H 272.492 -1.18935 0.865613 0
M  V30 2996 H 274.45 -4.17193 -0.0244339 0
M  V30 2997 H 273.08 -3.17535 -0.580628 0
M  V30 2998 H 272.132 -3.33258 1.83422 0
M  V30 2999 H 273.444 -4.47141 2.21058 0
M  V30 3000 H 272.598 -6.04942 0.461515 0
M  V30 3001 H 271.337 -4.87698 -0.013932 0
M  V30 3002 H 270.342 -4.99946 2.28767 0
M  V30 3003 H 271.567 -6.20592 2.75758 0
M  V30 3004 H 269.513 -6.53788 0.538254 0
M  V30 3005 H 269.43 -7.25898 2.11208 0
M  V30 3006 H 270.698 -7.72806 1.01933 0
M  V30 3007 N 274.927 -0.932562 -1.27047 0
M  V30 3008 C 276.338 -0.619451 -1.76124 0
M  V30 3009 C 276.689 0.865397 -1.76083 0
M  V30 3010 O 275.814 1.67722 -1.36742 0
M  V30 3011 C 276.409 -1.11771 -3.19832 0
M  V30 3012 C 274.968 -0.855174 -3.66557 0
M  V30 3013 C 274.115 -1.27362 -2.46321 0
M  V30 3014 H 277.066 -1.11181 -1.13245 0
M  V30 3015 H 277.087 -0.46759 -3.77616 0
M  V30 3016 H 276.599 -2.19842 -3.1983 0
M  V30 3017 H 274.7 0.211524 -3.71999 0
M  V30 3018 H 274.813 -1.47613 -4.55793 0
M  V30 3019 H 273.177 -0.692119 -2.45116 0
M  V30 3020 H 273.96 -2.36307 -2.49025 0
M  V30 3021 N 276.405 1.4127 -0.698611 0
M  V30 3022 C 277.654 2.00408 -0.227949 0
M  V30 3023 C 277.967 1.55981 1.18023 0
M  V30 3024 O 279.173 2.07699 1.74852 0
M  V30 3025 C 277.629 3.58129 -0.356636 0
M  V30 3026 C 277.237 4.11536 -1.77037 0
M  V30 3027 C 278.981 4.24466 0.0540969 0
M  V30 3028 C 276.888 5.61701 -1.85055 0
M  V30 3029 H 275.818 0.749586 -0.0814657 0
M  V30 3030 H 278.469 1.61713 -0.867249 0
M  V30 3031 H 276.851 3.94442 0.350965 0
M  V30 3032 H 278.025 3.86636 -2.50698 0
M  V30 3033 H 276.34 3.57736 -2.13105 0
M  V30 3034 H 278.937 5.34698 0.0146723 0
M  V30 3035 H 279.28 4.01687 1.09332 0
M  V30 3036 H 279.813 3.93198 -0.603337 0
M  V30 3037 H 276.552 5.89312 -2.8704 0
M  V30 3038 H 276.072 5.88519 -1.15783 0
M  V30 3039 H 277.751 6.26524 -1.61484 0
M  V30 3040 N 277.883 0.443576 1.51229 0
M  V30 3041 C 278.83 -0.364716 2.279 0
M  V30 3042 C 279.8 -1.0114 1.31757 0
M  V30 3043 O 280.985 -1.02912 1.60667 0
M  V30 3044 C 278.125 -1.45644 3.12861 0
M  V30 3045 C 277.238 -0.827269 4.24005 0
M  V30 3046 C 276.373 -1.89456 4.96266 0
M  V30 3047 C 275.412 -1.24416 5.99322 0
M  V30 3048 N 274.549 -2.25309 6.64966 0
M  V30 3049 H 279.389 0.295464 2.96532 0
M  V30 3050 H 276.926 0.157554 1.46254 0
M  V30 3051 H 278.884 -2.10076 3.6045 0
M  V30 3052 H 277.514 -2.08616 2.46331 0
M  V30 3053 H 276.566 -0.0710839 3.80334 0
M  V30 3054 H 277.878 -0.312481 4.9782 0
M  V30 3055 H 277.032 -2.61535 5.47434 0
M  V30 3056 H 275.771 -2.4431 4.22095 0
M  V30 3057 H 274.776 -0.508868 5.4744 0
M  V30 3058 H 276.001 -0.702882 6.75453 0
M  V30 3059 H 273.947 -2.79231 5.93604 0
M  V30 3060 H 273.864 -1.78739 7.34567 0
M  V30 3061 H 275.132 -2.96853 7.20763 0
M  V30 3062 N 279.361 -1.56624 0.175154 0
M  V30 3063 C 280.638 -1.88688 -0.515373 0
M  V30 3064 C 281.018 -1.08564 -1.81044 0
M  V30 3065 O 280.366 -0.180703 -2.27784 0
M  V30 3066 C 280.576 -3.40768 -0.753552 0
M  V30 3067 C 281.924 -4.10587 -1.08184 0
M  V30 3068 O 282.948 -3.46106 -0.841961 0
M  V30 3069 O 281.807 -5.24512 -1.53459 0
M  V30 3070 H 278.901 -0.78301 -0.26613 0
M  V30 3071 H 281.447 -1.68347 0.213877 0
M  V30 3072 H 280.219 -3.90965 0.161829 0
M  V30 3073 H 279.842 -3.66733 -1.53598 0
M  V30 3074 N 280.839 0.0985539 -1.57292 0
M  V30 3075 C 281.769 1.12064 -2.04851 0
M  V30 3076 C 282.75 1.41981 -0.936767 0
M  V30 3077 O 283.935 1.52071 -1.20781 0
M  V30 3078 C 281.065 2.44144 -2.47004 0
M  V30 3079 C 280.019 2.28643 -3.6181 0
M  V30 3080 C 279.345 3.65869 -3.89929 0
M  V30 3081 C 280.645 1.72986 -4.92822 0
M  V30 3082 H 282.339 0.724979 -2.9049 0
M  V30 3083 H 279.885 0.34729 -1.39749 0
M  V30 3084 H 281.838 3.15914 -2.78884 0
M  V30 3085 H 280.562 2.85639 -1.5836 0
M  V30 3086 H 279.221 1.59318 -3.30172 0
M  V30 3087 H 278.869 4.04885 -2.98458 0
M  V30 3088 H 278.569 3.56344 -4.67218 0
M  V30 3089 H 280.093 4.39112 -4.2428 0
M  V30 3090 H 281.507 2.34593 -5.23105 0
M  V30 3091 H 279.904 1.74229 -5.74251 0
M  V30 3092 H 280.974 0.689007 -4.7998 0
M  V30 3093 N 282.317 1.53212 0.369288 0
M  V30 3094 C 283.542 1.73423 1.1375 0
M  V30 3095 C 283.967 0.460404 1.82378 0
M  V30 3096 O 283.325 -0.585298 1.71592 0
M  V30 3097 C 283.373 2.89769 2.1463 0
M  V30 3098 O 282.477 2.58119 3.21634 0
M  V30 3099 H 281.818 0.576061 0.330227 0
M  V30 3100 H 284.348 2.00083 0.427547 0
M  V30 3101 H 284.358 3.15829 2.58294 0
M  V30 3102 H 283.033 3.8217 1.64071 0
M  V30 3103 H 281.61 2.42864 2.82969 0
M  V30 3104 N 283.795 -0.628877 1.44509 0
M  V30 3105 C 284.725 -1.75187 1.54376 0
M  V30 3106 C 285.706 -1.65411 0.396618 0
M  V30 3107 O 286.891 -1.84137 0.617031 0
M  V30 3108 C 284.021 -3.13725 1.48976 0
M  V30 3109 C 282.975 -3.38291 2.62189 0
M  V30 3110 C 282.301 -4.76883 2.41841 0
M  V30 3111 C 283.601 -3.30632 4.04326 0
M  V30 3112 H 285.295 -1.67187 2.48373 0
M  V30 3113 H 282.841 -0.802909 1.19538 0
M  V30 3114 H 284.794 -3.92064 1.54478 0
M  V30 3115 H 283.518 -3.22515 0.514961 0
M  V30 3116 H 282.177 -2.62334 2.56079 0
M  V30 3117 H 281.825 -4.82378 1.42548 0
M  V30 3118 H 281.525 -4.94278 3.17747 0
M  V30 3119 H 283.049 -5.57449 2.49165 0
M  V30 3120 H 284.463 -3.98873 4.11793 0
M  V30 3121 H 282.86 -3.59561 4.80454 0
M  V30 3122 H 283.93 -2.28404 4.27738 0
M  V30 3123 N 285.273 -1.31445 -0.869486 0
M  V30 3124 C 286.236 -1.19094 -1.9583 0
M  V30 3125 C 287.236 -0.117906 -1.60367 0
M  V30 3126 O 288.426 -0.367208 -1.70286 0
M  V30 3127 C 285.558 -0.828165 -3.30688 0
M  V30 3128 H 286.751 -2.15842 -2.08212 0
M  V30 3129 H 284.304 -1.15063 -1.05784 0
M  V30 3130 H 285.039 0.138142 -3.24006 0
M  V30 3131 H 284.824 -1.6038 -3.578 0
M  V30 3132 H 286.314 -0.765658 -4.10521 0
M  V30 3133 N 286.751 1.08385 -1.14413 0
M  V30 3134 C 287.661 2.18856 -0.844951 0
M  V30 3135 C 288.677 1.73121 0.174668 0
M  V30 3136 O 289.853 2.014 0.00312857 0
M  V30 3137 C 286.918 3.45155 -0.32696 0
M  V30 3138 C 285.979 4.05513 -1.40916 0
M  V30 3139 C 285.212 5.25784 -0.915793 0
M  V30 3140 O 285.435 5.69884 0.242651 0
M  V30 3141 O 284.369 5.77545 -1.69487 0
M  V30 3142 H 288.195 2.46919 -1.76818 0
M  V30 3143 H 285.78 1.17524 -0.922411 0
M  V30 3144 H 287.662 4.21377 -0.0440211 0
M  V30 3145 H 286.337 3.18668 0.568539 0
M  V30 3146 H 285.244 3.30879 -1.74556 0
M  V30 3147 H 286.577 4.3625 -2.27919 0
M  V30 3148 N 288.23 0.939286 1.26551 0
M  V30 3149 C 289.163 0.391702 2.24813 0
M  V30 3150 C 290.141 -0.518421 1.54114 0
M  V30 3151 O 291.325 -0.456299 1.82894 0
M  V30 3152 C 288.452 -0.437382 3.35864 0
M  V30 3153 C 287.498 0.410946 4.24516 0
M  V30 3154 S 288.331 1.83372 5.03125 0
M  V30 3155 C 289.487 1.01264 6.17654 0
M  V30 3156 H 289.72 1.22448 2.70913 0
M  V30 3157 H 287.253 0.742269 1.35387 0
M  V30 3158 H 289.211 -0.909837 4.0029 0
M  V30 3159 H 287.872 -1.24482 2.8838 0
M  V30 3160 H 287.065 -0.224191 5.03501 0
M  V30 3161 H 286.667 0.818014 3.64945 0
M  V30 3162 H 288.959 0.254023 6.77024 0
M  V30 3163 H 289.902 1.77589 6.85469 0
M  V30 3164 H 290.31 0.549532 5.61819 0
M  V30 3165 N 289.708 -1.40897 0.706093 0
M  V30 3166 C 290.671 -2.29131 0.0562841 0
M  V30 3167 C 291.671 -1.44901 -0.697166 0
M  V30 3168 O 292.861 -1.65926 -0.530484 0
M  V30 3169 C 289.993 -3.27957 -0.93043 0
M  V30 3170 H 291.186 -2.88091 0.833284 0
M  V30 3171 H 288.739 -1.4906 0.470192 0
M  V30 3172 H 289.474 -2.73997 -1.73482 0
M  V30 3173 H 289.259 -3.90124 -0.393166 0
M  V30 3174 H 290.749 -3.94049 -1.38256 0
M  V30 3175 N 291.186 -0.45159 -1.50991 0
M  V30 3176 C 292.119 0.398179 -2.24699 0
M  V30 3177 C 293.097 1.01276 -1.27208 0
M  V30 3178 O 294.281 1.05247 -1.56382 0
M  V30 3179 C 291.408 1.55618 -3.00833 0
M  V30 3180 C 290.454 1.0609 -4.13095 0
M  V30 3181 S 291.287 -0.00865136 -5.35499 0
M  V30 3182 C 292.443 1.15369 -6.15175 0
M  V30 3183 H 292.676 -0.227555 -2.96428 0
M  V30 3184 H 290.209 -0.236251 -1.52582 0
M  V30 3185 H 292.167 2.21997 -3.45293 0
M  V30 3186 H 290.828 2.15337 -2.28667 0
M  V30 3187 H 290.021 1.92726 -4.65696 0
M  V30 3188 H 289.623 0.47513 -3.7097 0
M  V30 3189 H 291.915 2.06925 -6.45126 0
M  V30 3190 H 292.858 0.667344 -7.04948 0
M  V30 3191 H 293.266 1.3987 -5.46897 0
M  V30 3192 N 292.664 1.56529 -0.183458 0
M  V30 3193 C 293.913 1.96419 0.458511 0
M  V30 3194 C 294.226 1.0727 1.63562 0
M  V30 3195 O 295.432 1.36893 2.34462 0
M  V30 3196 C 293.888 3.49298 0.867122 0
M  V30 3197 C 293.496 4.47092 -0.285057 0
M  V30 3198 C 295.24 3.97983 1.47683 0
M  V30 3199 C 293.147 5.91225 0.143862 0
M  V30 3200 H 292.077 0.733394 0.175071 0
M  V30 3201 H 294.728 1.81448 -0.273624 0
M  V30 3202 H 293.11 3.59731 1.65559 0
M  V30 3203 H 294.284 4.48383 -1.0625 0
M  V30 3204 H 292.599 4.08535 -0.805503 0
M  V30 3205 H 295.196 5.03134 1.80999 0
M  V30 3206 H 295.539 3.41618 2.37914 0
M  V30 3207 H 296.072 3.90617 0.752562 0
M  V30 3208 H 292.811 6.5149 -0.723974 0
M  V30 3209 H 292.331 5.93214 0.886413 0
M  V30 3210 H 294.01 6.44362 0.583628 0
M  V30 3211 N 294.142 -0.090211 1.57342 0
M  V30 3212 C 295.105 -1.09335 2.01441 0
M  V30 3213 C 296.105 -1.32666 0.908641 0
M  V30 3214 O 297.295 -1.28697 1.174 0
M  V30 3215 C 294.427 -2.44136 2.3793 0
M  V30 3216 H 295.62 -0.713662 2.91285 0
M  V30 3217 H 293.173 -0.335404 1.52659 0
M  V30 3218 H 293.908 -2.86972 1.51055 0
M  V30 3219 H 293.693 -2.28548 3.18603 0
M  V30 3220 H 295.183 -3.16277 2.72688 0
M  V30 3221 N 295.62 -1.53406 -0.361157 0
M  V30 3222 C 296.868 -1.69467 -1.10115 0
M  V30 3223 C 297.189 -0.451352 -1.89705 0
M  V30 3224 O 296.459 0.534636 -1.88463 0
M  V30 3225 H 295.039 -0.624749 -0.409508 0
M  V30 3226 H 297.701 -1.90609 -0.406699 0
M  V30 3227 H 296.797 -2.55774 -1.78847 0
M  V30 3228 N 297.098 0.621204 -1.44841 0
M  V30 3229 C 298.028 1.74366 -1.55303 0
M  V30 3230 C 299.009 1.65199 -0.405385 0
M  V30 3231 O 300.194 1.83807 -0.626787 0
M  V30 3232 C 297.324 3.12931 -1.50637 0
M  V30 3233 C 296.278 3.36896 -2.63979 0
M  V30 3234 C 295.604 4.75594 -2.44366 0
M  V30 3235 C 296.904 3.28483 -4.06074 0
M  V30 3236 H 298.598 1.65867 -2.49256 0
M  V30 3237 H 296.144 0.796558 -1.19962 0
M  V30 3238 H 298.097 3.9124 -1.56555 0
M  V30 3239 H 296.821 3.22237 -0.532057 0
M  V30 3240 H 295.48 2.60972 -2.57467 0
M  V30 3241 H 295.128 4.81616 -1.45105 0
M  V30 3242 H 294.828 4.92586 -3.20364 0
M  V30 3243 H 296.352 5.5612 -2.52117 0
M  V30 3244 H 297.766 3.96684 -4.13902 0
M  V30 3245 H 296.163 3.57008 -4.82354 0
M  V30 3246 H 297.233 2.26133 -4.28943 0
M  V30 3247 N 298.576 1.31904 0.862503 0
M  V30 3248 C 299.987 1.19803 1.43193 0
M  V30 3249 C 300.338 -0.192567 1.95253 0
M  V30 3250 O 299.463 -1.09081 1.86896 0
M  V30 3251 C 300.058 2.16883 2.60283 0
M  V30 3252 C 298.617 2.08692 3.13248 0
M  V30 3253 C 297.764 2.05691 1.85975 0
M  V30 3254 H 300.715 1.43846 0.670365 0
M  V30 3255 H 300.736 1.76278 3.37204 0
M  V30 3256 H 300.248 3.18083 2.22363 0
M  V30 3257 H 298.349 1.10713 3.55771 0
M  V30 3258 H 298.462 2.9815 3.75025 0
M  V30 3259 H 296.826 1.50814 2.05249 0
M  V30 3260 H 297.609 3.08659 1.50282 0
M  V30 3261 N 300.054 -1.07777 1.14986 0
M  V30 3262 C 301.001 -2.14867 0.842672 0
M  V30 3263 C 301.971 -1.6486 -0.202552 0
M  V30 3264 O 303.156 -1.90668 -0.0710568 0
M  V30 3265 C 300.296 -3.43486 0.333363 0
M  V30 3266 C 299.409 -4.07306 1.43965 0
M  V30 3267 C 298.544 -5.23744 0.886914 0
M  V30 3268 C 297.583 -5.79517 1.97043 0
M  V30 3269 N 296.72 -6.87291 1.4344 0
M  V30 3270 H 301.56 -2.40485 1.75986 0
M  V30 3271 H 299.097 -1.1801 0.878179 0
M  V30 3272 H 301.055 -4.17195 0.0198163 0
M  V30 3273 H 299.685 -3.18133 -0.546916 0
M  V30 3274 H 298.737 -3.31293 1.86946 0
M  V30 3275 H 300.049 -4.44771 2.25788 0
M  V30 3276 H 299.203 -6.04419 0.525651 0
M  V30 3277 H 297.942 -4.87685 0.0377957 0
M  V30 3278 H 296.947 -4.97491 2.34057 0
M  V30 3279 H 298.172 -6.17632 2.82325 0
M  V30 3280 H 296.118 -6.5318 0.607567 0
M  V30 3281 H 296.035 -7.23617 2.18895 0
M  V30 3282 H 297.303 -7.71682 1.10124 0
M  V30 3283 N 301.532 -0.945985 -1.26051 0
M  V30 3284 C 302.495 -0.463897 -2.24456 0
M  V30 3285 C 303.495 0.427655 -1.55009 0
M  V30 3286 O 304.685 0.226157 -1.72726 0
M  V30 3287 C 301.817 0.330812 -3.39291 0
M  V30 3288 H 303.01 -1.33357 -2.68619 0
M  V30 3289 H 300.563 -0.728416 -1.38289 0
M  V30 3290 H 301.298 1.21852 -3.00537 0
M  V30 3291 H 301.083 -0.308679 -3.90883 0
M  V30 3292 H 302.573 0.657865 -4.12386 0
M  V30 3293 N 303.011 1.40521 -0.713556 0
M  V30 3294 C 304.422 1.83853 -0.324807 0
M  V30 3295 C 304.773 1.59667 1.14021 0
M  V30 3296 O 303.898 1.07649 1.87725 0
M  V30 3297 C 304.493 3.33751 -0.582746 0
M  V30 3298 C 303.052 3.75584 -0.247727 0
M  V30 3299 C 302.199 2.63753 -0.856121 0
M  V30 3300 H 305.15 1.29817 -0.91286 0
M  V30 3301 H 305.171 3.80194 0.152682 0
M  V30 3302 H 304.683 3.51322 -1.64908 0
M  V30 3303 H 302.784 3.63608 0.813624 0
M  V30 3304 H 302.897 4.7373 -0.715307 0
M  V30 3305 H 301.261 2.53108 -0.28432 0
M  V30 3306 H 302.044 2.84137 -1.92668 0
M  V30 3307 N 304.489 0.459591 1.5075 0
M  V30 3308 C 305.714 -0.0996819 2.0716 0
M  V30 3309 C 306.139 -1.33761 1.32249 0
M  V30 3310 O 305.497 -1.77551 0.366786 0
M  V30 3311 C 305.545 -0.378226 3.58611 0
M  V30 3312 O 304.649 -1.46081 3.85661 0
M  V30 3313 H 303.99 0.00791392 0.663953 0
M  V30 3314 H 306.52 0.647329 1.9409 0
M  V30 3315 H 306.53 -0.622135 4.03229 0
M  V30 3316 H 305.205 0.526439 4.12555 0
M  V30 3317 H 303.782 -1.20511 3.5289 0
M  V30 3318 N 305.967 -1.56429 0.191757 0
M  V30 3319 C 307.383 -1.58754 -0.164137 0
M  V30 3320 C 307.583 -1.20782 -1.61288 0
M  V30 3321 O 306.639 -0.928999 -2.34789 0
M  V30 3322 C 307.952 -3.00396 0.135195 0
M  V30 3323 C 309.5 -3.1291 0.0750351 0
M  V30 3324 C 309.975 -4.56679 0.347632 0
M  V30 3325 N 311.466 -4.62252 0.296131 0
M  V30 3326 C 312.201 -5.71379 0.480948 0
M  V30 3327 N 311.697 -6.88986 0.725933 0
M  V30 3328 N 313.49 -5.60563 0.415435 0
M  V30 3329 H 305.641 -1.79393 1.13718 0
M  V30 3330 H 307.904 -0.832414 0.453643 0
M  V30 3331 H 307.61 -3.32726 1.13958 0
M  V30 3332 H 307.484 -3.72963 -0.563773 0
M  V30 3333 H 309.871 -2.80394 -0.919948 0
M  V30 3334 H 309.952 -2.42736 0.807029 0
M  V30 3335 H 309.596 -4.89907 1.33992 0
M  V30 3336 H 309.526 -5.25039 -0.405212 0
M  V30 3337 H 312.017 -3.7773 0.113259 0
M  V30 3338 H 312.33 -7.68046 0.855857 0
M  V30 3339 H 310.675 -6.90801 0.762788 0
M  V30 3340 H 313.866 -4.67561 0.224486 0
M  V30 3341 H 314.039 -6.45551 0.562889 0
M  V30 3342 N 307.445 0.0818655 -1.57387 0
M  V30 3343 C 308.675 0.794954 -1.90694 0
M  V30 3344 C 309.083 1.72147 -0.784982 0
M  V30 3345 O 308.426 1.81974 0.251196 0
M  V30 3346 C 308.488 1.65042 -3.19376 0
M  V30 3347 C 308.152 0.894337 -4.48164 0
M  V30 3348 C 309.149 0.21813 -5.19442 0
M  V30 3349 C 306.834 0.864495 -4.94805 0
M  V30 3350 C 308.828 -0.477802 -6.35607 0
M  V30 3351 C 306.515 0.164785 -6.10878 0
M  V30 3352 C 307.513 -0.505173 -6.81129 0
M  V30 3353 O 307.201 -1.19363 -7.94989 0
M  V30 3354 H 306.933 0.231779 -0.635023 0
M  V30 3355 H 309.487 0.059493 -2.05314 0
M  V30 3356 H 307.717 2.42844 -3.00938 0
M  V30 3357 H 309.406 2.24127 -3.38411 0
M  V30 3358 H 310.172 0.232558 -4.84442 0
M  V30 3359 H 306.051 1.37542 -4.40004 0
M  V30 3360 H 309.595 -1.00129 -6.90377 0
M  V30 3361 H 305.492 0.148249 -6.4533 0
M  V30 3362 H 306.26 -1.10188 -8.11049 0
M  V30 3363 N 308.923 1.53595 0.353017 0
M  V30 3364 C 309.871 1.81605 1.45335 0
M  V30 3365 C 310.865 0.685923 1.54892 0
M  V30 3366 O 312.071 0.869095 1.57628 0
M  V30 3367 H 308.446 0.575204 0.484401 0
M  V30 3368 H 310.417 2.73679 1.18921 0
M  V30 3369 C 309.166 2.03406 2.81995 0
M  V30 3370 H 308.489 2.89814 2.75405 0
M  V30 3371 H 309.929 2.26975 3.58132 0
M  V30 3372 C 308.388 0.816794 3.26849 0
M  V30 3373 O 308.918 0.0115856 4.01698 0
M  V30 3374 N 307.124 0.636682 2.8354 0
M  V30 3375 H 306.671 1.2931 2.22793 0
M  V30 3376 H 306.629 -0.176336 3.13905 0
M  V30 3377 N 310.401 -0.613514 1.45168 0
M  V30 3378 C 311.812 -1.19539 1.43413 0
M  V30 3379 C 312.163 -1.95558 0.158632 0
M  V30 3380 O 311.288 -2.0335 -0.740119 0
M  V30 3381 C 311.883 -2.17445 2.59813 0
M  V30 3382 C 310.442 -2.71022 2.61197 0
M  V30 3383 C 309.589 -1.46323 2.35552 0
M  V30 3384 H 312.54 -0.403163 1.53494 0
M  V30 3385 H 312.561 -3.00373 2.33574 0
M  V30 3386 H 312.073 -1.62089 3.52631 0
M  V30 3387 H 310.174 -3.30332 1.7237 0
M  V30 3388 H 310.287 -3.15859 3.60236 0
M  V30 3389 H 308.651 -1.75072 1.84992 0
M  V30 3390 H 309.434 -0.92844 3.30507 0
M  V30 3391 N 311.879 -1.3236 -0.855495 0
M  V30 3392 C 312.809 -1.23833 -1.97958 0
M  V30 3393 C 313.79 -0.122361 -1.69659 0
M  V30 3394 O 314.975 -0.30939 -1.9172 0
M  V30 3395 C 312.105 -0.959772 -3.33775 0
M  V30 3396 C 311.059 -2.03689 -3.76424 0
M  V30 3397 C 310.385 -1.61075 -5.09862 0
M  V30 3398 C 311.685 -3.4518 -3.9198 0
M  V30 3399 H 313.379 -2.1788 -2.0535 0
M  V30 3400 H 310.925 -1.04891 -0.986605 0
M  V30 3401 H 312.878 -0.886678 -4.11966 0
M  V30 3402 H 311.602 0.0163404 -3.26596 0
M  V30 3403 H 310.261 -2.10012 -3.00484 0
M  V30 3404 H 309.909 -0.622107 -4.99138 0
M  V30 3405 H 309.609 -2.33143 -5.39368 0
M  V30 3406 H 311.133 -1.55201 -5.90546 0
M  V30 3407 H 312.547 -3.4145 -4.60526 0
M  V30 3408 H 310.944 -4.1559 -4.32903 0
M  V30 3409 H 312.014 -3.84903 -2.94919 0
M  V30 3410 N 313.357 1.07166 -1.15556 0
M  V30 3411 C 314.603 1.80065 -0.932984 0
M  V30 3412 C 314.936 1.86586 0.53845 0
M  V30 3413 O 314.211 1.35098 1.39924 0
M  V30 3414 C 314.494 3.25022 -1.55025 0
M  V30 3415 C 314.347 3.26634 -3.09242 0
M  V30 3416 C 315.666 4.22341 -1.2376 0
M  V30 3417 H 312.785 0.653697 -0.340366 0
M  V30 3418 H 315.427 1.25389 -1.4275 0
M  V30 3419 H 313.577 3.71712 -1.12972 0
M  V30 3420 H 315.249 2.88173 -3.60214 0
M  V30 3421 H 313.492 2.65539 -3.43033 0
M  V30 3422 H 314.163 4.28854 -3.47546 0
M  V30 3423 H 316.639 3.8405 -1.60139 0
M  V30 3424 H 315.515 5.22053 -1.69564 0
M  V30 3425 H 315.776 4.41828 -0.154938 0
M  V30 3426 N 314.835 0.952656 1.25548 0
M  V30 3427 C 315.783 0.462354 2.27958 0
M  V30 3428 C 316.777 -0.46634 1.62855 0
M  V30 3429 O 317.983 -0.343287 1.76696 0
M  V30 3430 H 314.358 0.13101 0.7405 0
M  V30 3431 H 316.329 1.33839 2.66702 0
M  V30 3432 C 315.078 -0.24628 3.46827 0
M  V30 3433 H 314.401 0.459192 3.97154 0
M  V30 3434 H 315.841 -0.553393 4.20373 0
M  V30 3435 C 314.3 -1.4681 3.0323 0
M  V30 3436 O 314.83 -2.56591 3.09069 0
M  V30 3437 N 313.036 -1.32874 2.58443 0
M  V30 3438 H 312.583 -0.435536 2.53891 0
M  V30 3439 H 312.541 -2.14742 2.29637 0
M  V30 3440 N 316.313 -1.40141 0.720998 0
M  V30 3441 C 317.724 -1.83678 0.334553 0
M  V30 3442 C 318.075 -1.6027 -1.13173 0
M  V30 3443 O 317.2 -1.08643 -1.87152 0
M  V30 3444 C 317.795 -3.33437 0.600437 0
M  V30 3445 C 316.354 -3.75447 0.267642 0
M  V30 3446 C 315.501 -2.63296 0.870097 0
M  V30 3447 H 318.452 -1.29331 0.919732 0
M  V30 3448 H 318.473 -3.80269 -0.132517 0
M  V30 3449 H 317.985 -3.50442 1.66768 0
M  V30 3450 H 316.086 -3.64035 -0.794329 0
M  V30 3451 H 316.199 -4.73344 0.74042 0
M  V30 3452 H 314.563 -2.52954 0.297739 0
M  V30 3453 H 315.346 -2.83112 1.94172 0
M  V30 3454 N 317.792 -0.46758 -1.50504 0
M  V30 3455 C 319.02 0.0864133 -2.06719 0
M  V30 3456 C 319.435 1.33819 -1.33184 0
M  V30 3457 O 318.792 1.78061 -0.400083 0
M  V30 3458 C 318.843 0.378079 -3.59517 0
M  V30 3459 O 318.564 -0.824044 -4.3028 0
M  V30 3460 C 320.065 0.979426 -4.32345 0
M  V30 3461 H 317.285 -0.00551697 -0.670977 0
M  V30 3462 H 319.829 -0.655354 -1.93715 0
M  V30 3463 H 317.984 1.06977 -3.72337 0
M  V30 3464 H 318.398 -0.566518 -5.21432 0
M  V30 3465 H 319.872 1.1333 -5.40241 0
M  V30 3466 H 320.349 1.9686 -3.9261 0
M  V30 3467 H 320.955 0.326216 -4.24047 0
M  V30 3468 N 319.27 1.56325 -0.20005 0
M  V30 3469 C 320.686 1.58839 0.155716 0
M  V30 3470 C 320.886 1.21636 1.60645 0
M  V30 3471 O 319.942 0.941437 2.34293 0
M  V30 3472 C 321.255 3.0032 -0.151124 0
M  V30 3473 C 322.803 3.12866 -0.0916284 0
M  V30 3474 C 323.278 4.56488 -0.371845 0
M  V30 3475 N 324.769 4.62089 -0.320641 0
M  V30 3476 C 325.504 5.71116 -0.511243 0
M  V30 3477 N 325 6.88592 -0.762461 0
M  V30 3478 N 326.793 5.60335 -0.445157 0
M  V30 3479 H 318.944 1.78788 -1.14668 0
M  V30 3480 H 321.207 0.829996 -0.458051 0
M  V30 3481 H 320.913 3.32117 -1.15721 0
M  V30 3482 H 320.787 3.73257 0.543986 0
M  V30 3483 H 323.174 2.80878 0.905065 0
M  V30 3484 H 323.255 2.42304 -0.81989 0
M  V30 3485 H 322.899 4.89189 -1.36588 0
M  V30 3486 H 322.829 5.25246 0.377362 0
M  V30 3487 H 325.32 3.77665 -0.13329 0
M  V30 3488 H 325.633 7.67581 -0.896576 0
M  V30 3489 H 323.978 6.90387 -0.799412 0
M  V30 3490 H 327.169 4.67436 -0.249278 0
M  V30 3491 H 327.342 6.45243 -0.597116 0
M  V30 3492 N 320.748 -0.0735177 1.57428 0
M  V30 3493 C 321.973 -0.789787 1.91774 0
M  V30 3494 C 322.398 -1.70413 0.796306 0
M  V30 3495 O 321.756 -1.79555 -0.250961 0
M  V30 3496 C 321.804 -1.5609 3.25067 0
M  V30 3497 O 320.908 -2.67144 3.14178 0
M  V30 3498 H 320.249 -0.215582 0.628029 0
M  V30 3499 H 322.779 -0.0422781 2.04556 0
M  V30 3500 H 322.789 -1.94052 3.58898 0
M  V30 3501 H 321.464 -0.890015 4.06265 0
M  V30 3502 H 320.041 -2.32052 2.91901 0
M  V30 3503 N 322.226 -1.5378 -0.344866 0
M  V30 3504 C 323.454 -1.74899 -1.10534 0
M  V30 3505 C 323.869 -0.487534 -1.82397 0
M  V30 3506 O 323.226 0.540741 -1.74305 0
M  V30 3507 C 323.277 -2.92822 -2.11984 0
M  V30 3508 O 322.998 -4.14089 -1.43044 0
M  V30 3509 C 324.499 -3.25982 -3.00417 0
M  V30 3510 H 321.719 -0.584426 -0.329678 0
M  V30 3511 H 324.263 -2.006 -0.397474 0
M  V30 3512 H 322.418 -2.69457 -2.78338 0
M  V30 3513 H 322.832 -4.80272 -2.10805 0
M  V30 3514 H 324.306 -4.11848 -3.67539 0
M  V30 3515 H 324.783 -2.42228 -3.66363 0
M  V30 3516 H 325.389 -3.51349 -2.39654 0
M  V30 3517 N 323.704 0.605807 -1.45491 0
M  V30 3518 C 324.614 1.74466 -1.56839 0
M  V30 3519 C 325.63 1.68006 -0.452772 0
M  V30 3520 O 326.806 1.8833 -0.713708 0
M  V30 3521 C 323.871 3.10931 -1.53371 0
M  V30 3522 C 322.932 3.28832 -2.75986 0
M  V30 3523 C 322.165 4.58787 -2.72673 0
M  V30 3524 O 322.388 5.4122 -1.80102 0
M  V30 3525 O 321.322 4.79438 -3.63899 0
M  V30 3526 H 325.148 1.67843 -2.53106 0
M  V30 3527 H 322.733 0.770108 -1.28022 0
M  V30 3528 H 324.615 3.92233 -1.54051 0
M  V30 3529 H 323.29 3.18042 -0.602572 0
M  V30 3530 H 322.197 2.47112 -2.80867 0
M  V30 3531 H 323.53 3.26599 -3.68231 0
M  V30 3532 N 325.182 1.32811 0.848464 0
M  V30 3533 C 326.598 1.11937 1.13764 0
M  V30 3534 C 326.798 -0.0960789 2.01271 0
M  V30 3535 O 325.854 -0.779165 2.40178 0
M  V30 3536 C 327.167 2.402 1.809 0
M  V30 3537 C 328.715 2.46016 1.93508 0
M  V30 3538 C 329.19 3.74215 2.64059 0
M  V30 3539 N 330.681 3.75232 2.71579 0
M  V30 3540 C 331.416 4.71134 3.26833 0
M  V30 3541 N 330.912 5.77406 3.8285 0
M  V30 3542 N 332.705 4.58623 3.24995 0
M  V30 3543 H 324.856 2.1073 0.265855 0
M  V30 3544 H 327.119 0.930671 0.180431 0
M  V30 3545 H 326.825 3.29093 1.24058 0
M  V30 3546 H 326.699 2.51628 2.81004 0
M  V30 3547 H 329.086 1.57577 2.49506 0
M  V30 3548 H 329.167 2.38536 0.923811 0
M  V30 3549 H 328.811 4.63031 2.08722 0
M  V30 3550 H 328.741 3.78968 3.65637 0
M  V30 3551 H 331.232 2.98423 2.31845 0
M  V30 3552 H 331.545 6.46632 4.23187 0
M  V30 3553 H 329.89 5.81152 3.81165 0
M  V30 3554 H 333.081 3.74762 2.80484 0
M  V30 3555 H 333.254 5.33535 3.67756 0
M  V30 3556 N 326.66 -1.06551 1.16123 0
M  V30 3557 C 328.076 -1.3142 0.905585 0
M  V30 3558 C 328.276 -1.96571 -0.442964 0
M  V30 3559 O 327.332 -2.23068 -1.18308 0
M  V30 3560 C 328.645 -2.19741 2.05267 0
M  V30 3561 C 330.193 -2.33165 2.08813 0
M  V30 3562 C 330.668 -3.24838 3.22868 0
M  V30 3563 N 332.159 -3.32421 3.22568 0
M  V30 3564 C 332.894 -4.0344 4.0746 0
M  V30 3565 N 332.39 -4.77003 5.02434 0
M  V30 3566 N 334.183 -3.99464 3.95456 0
M  V30 3567 H 326.334 -0.626548 2.02949 0
M  V30 3568 H 328.597 -0.338777 0.8854 0
M  V30 3569 H 328.303 -1.79142 3.02657 0
M  V30 3570 H 328.177 -3.20313 1.99198 0
M  V30 3571 H 330.564 -2.73013 1.12018 0
M  V30 3572 H 330.645 -1.3227 2.18948 0
M  V30 3573 H 330.289 -2.85708 4.19921 0
M  V30 3574 H 330.219 -4.25707 3.0997 0
M  V30 3575 H 332.71 -2.79994 2.53795 0
M  V30 3576 H 333.023 -5.28712 5.63634 0
M  V30 3577 H 331.368 -4.75992 5.06415 0
M  V30 3578 H 334.559 -3.4111 3.20564 0
M  V30 3579 H 334.732 -4.54544 4.61837 0
M  V30 3580 N 328.138 -0.959301 -1.25041 0
M  V30 3581 C 329.086 -0.474437 -2.2771 0
M  V30 3582 C 330.08 0.457697 -1.631 0
M  V30 3583 O 331.286 0.333912 -1.76876 0
M  V30 3584 H 327.661 -0.134936 -0.739795 0
M  V30 3585 H 329.632 -1.35251 -2.65988 0
M  V30 3586 C 328.381 0.227884 -3.46952 0
M  V30 3587 H 327.704 -0.480248 -3.96905 0
M  V30 3588 H 329.144 0.531091 -4.20661 0
M  V30 3589 C 327.603 1.452 -3.04004 0
M  V30 3590 O 328.133 2.54949 -3.10426 0
M  V30 3591 N 326.339 1.31502 -2.59144 0
M  V30 3592 H 325.886 0.422065 -2.54119 0
M  V30 3593 H 325.844 2.13521 -2.30773 0
M  V30 3594 N 329.616 1.39756 -0.72842 0
M  V30 3595 C 330.862 2.01425 -0.282761 0
M  V30 3596 C 331.217 1.56754 1.11561 0
M  V30 3597 O 330.51 0.783482 1.74849 0
M  V30 3598 C 330.704 3.56002 -0.315776 0
M  V30 3599 C 330.533 4.1568 -1.71582 0
M  V30 3600 C 329.303 4.48555 -2.32651 0
M  V30 3601 C 331.501 4.39667 -2.66829 0
M  V30 3602 N 329.483 4.93698 -3.64877 0
M  V30 3603 C 330.854 4.86942 -3.8378 0
M  V30 3604 C 332.909 4.21724 -2.64675 0
M  V30 3605 C 331.612 5.18158 -4.98904 0
M  V30 3606 C 333.638 4.54049 -3.78937 0
M  V30 3607 C 333 5.01525 -4.94623 0
M  V30 3608 H 329.099 0.76756 -0.149583 0
M  V30 3609 H 331.683 1.69784 -0.952976 0
M  V30 3610 H 329.854 3.87046 0.324057 0
M  V30 3611 H 331.586 4.0443 0.147808 0
M  V30 3612 H 328.341 4.36128 -1.84633 0
M  V30 3613 H 328.765 5.20635 -4.32744 0
M  V30 3614 H 333.407 3.84228 -1.76433 0
M  V30 3615 H 331.125 5.54562 -5.87781 0
M  V30 3616 H 334.711 4.41795 -3.78561 0
M  V30 3617 H 333.591 5.26065 -5.81572 0
M  V30 3618 N 331.094 0.475555 1.50254 0
M  V30 3619 C 332.343 -0.0795996 2.01543 0
M  V30 3620 C 332.656 -1.4038 1.36209 0
M  V30 3621 O 333.862 -2.04415 1.7868 0
M  V30 3622 C 332.318 -0.192363 3.59386 0
M  V30 3623 C 331.926 1.12367 4.33679 0
M  V30 3624 C 333.67 -0.699238 4.18701 0
M  V30 3625 C 331.577 0.974453 5.83317 0
M  V30 3626 H 330.507 -0.0335228 0.753254 0
M  V30 3627 H 333.158 0.611128 1.73025 0
M  V30 3628 H 331.54 -0.946974 3.84511 0
M  V30 3629 H 332.714 1.88958 4.20276 0
M  V30 3630 H 331.029 1.562 3.85993 0
M  V30 3631 H 333.626 -0.827978 5.28251 0
M  V30 3632 H 333.969 -1.69171 3.80377 0
M  V30 3633 H 334.502 -0.00188807 3.978 0
M  V30 3634 H 331.241 1.94042 6.26121 0
M  V30 3635 H 330.761 0.248998 5.99283 0
M  V30 3636 H 332.44 0.642867 6.43798 0
M  V30 3637 N 332.573 -1.56217 0.208337 0
M  V30 3638 C 333.503 -2.22694 -0.702116 0
M  V30 3639 C 334.484 -1.19432 -1.2112 0
M  V30 3640 O 335.669 -1.47978 -1.25762 0
M  V30 3641 C 332.799 -2.8966 -1.9161 0
M  V30 3642 C 331.753 -3.9928 -1.5414 0
M  V30 3643 C 331.079 -4.53476 -2.83308 0
M  V30 3644 C 332.379 -5.17012 -0.741339 0
M  V30 3645 H 334.073 -2.99034 -0.147898 0
M  V30 3646 H 331.619 -1.43831 -0.0696951 0
M  V30 3647 H 333.572 -3.34852 -2.55836 0
M  V30 3648 H 332.296 -2.10746 -2.49507 0
M  V30 3649 H 330.955 -3.54799 -0.922668 0
M  V30 3650 H 330.603 -3.71308 -3.39322 0
M  V30 3651 H 330.303 -5.27451 -2.58976 0
M  V30 3652 H 331.827 -5.01378 -3.485 0
M  V30 3653 H 333.241 -5.58667 -1.28699 0
M  V30 3654 H 331.638 -5.97137 -0.595627 0
M  V30 3655 H 332.708 -4.8423 0.254851 0
M  V30 3656 N 334.051 0.0651679 -1.57465 0
M  V30 3657 C 334.961 1.09448 -2.07505 0
M  V30 3658 C 335.977 1.41974 -1.00595 0
M  V30 3659 O 337.153 1.52018 -1.32107 0
M  V30 3660 C 334.218 2.38689 -2.51453 0
M  V30 3661 C 333.279 2.13073 -3.72691 0
M  V30 3662 C 332.512 3.36152 -4.14533 0
M  V30 3663 O 332.735 4.45517 -3.56189 0
M  V30 3664 O 331.669 3.23974 -5.07272 0
M  V30 3665 H 335.495 0.69935 -2.95538 0
M  V30 3666 H 333.08 0.279752 -1.46757 0
M  V30 3667 H 334.962 3.14736 -2.80212 0
M  V30 3668 H 333.637 2.77568 -1.66546 0
M  V30 3669 H 332.544 1.34709 -3.49005 0
M  V30 3670 H 333.877 1.79071 -4.5847 0
M  V30 3671 N 335.529 1.53961 0.336706 0
M  V30 3672 C 336.945 1.44378 0.680241 0
M  V30 3673 C 337.145 0.606034 1.9217 0
M  V30 3674 O 336.201 0.099688 2.52303 0
M  V30 3675 C 337.514 2.87945 0.8665 0
M  V30 3676 C 339.062 2.97763 0.964682 0
M  V30 3677 C 339.537 4.42453 1.18321 0
M  V30 3678 N 341.028 4.46008 1.25025 0
M  V30 3679 C 341.763 5.55102 1.43697 0
M  V30 3680 N 341.259 6.7419 1.59498 0
M  V30 3681 N 343.052 5.42727 1.463 0
M  V30 3682 H 335.203 2.06918 -0.479455 0
M  V30 3683 H 337.466 0.935634 -0.152619 0
M  V30 3684 H 337.172 3.51691 0.0256937 0
M  V30 3685 H 337.046 3.33293 1.76623 0
M  V30 3686 H 339.433 2.34153 1.796 0
M  V30 3687 H 339.514 2.55766 0.041708 0
M  V30 3688 H 339.158 5.06645 0.356788 0
M  V30 3689 H 339.088 4.82048 2.11985 0
M  V30 3690 H 341.579 3.60196 1.14312 0
M  V30 3691 H 341.892 7.53095 1.734 0
M  V30 3692 H 340.237 6.77123 1.56621 0
M  V30 3693 H 343.428 4.48647 1.33543 0
M  V30 3694 H 343.601 6.27806 1.6051 0
M  V30 3695 N 337.007 -0.598083 1.45811 0
M  V30 3696 C 337.94 -1.7223 1.49706 0
M  V30 3697 C 338.918 -1.58732 0.352535 0
M  V30 3698 O 340.102 -1.80162 0.554438 0
M  V30 3699 C 337.229 -3.10148 1.3611 0
M  V30 3700 C 336.275 -3.42209 2.54549 0
M  V30 3701 S 337.108 -3.35989 4.16979 0
M  V30 3702 C 338.264 -4.76471 4.05865 0
M  V30 3703 H 338.497 -1.68665 2.44826 0
M  V30 3704 H 336.03 -0.775541 1.33509 0
M  V30 3705 H 337.988 -3.8972 1.28953 0
M  V30 3706 H 336.649 -3.11219 0.424451 0
M  V30 3707 H 335.842 -4.42652 2.40988 0
M  V30 3708 H 335.444 -2.70173 2.58617 0
M  V30 3709 H 337.736 -5.665 3.71596 0
M  V30 3710 H 338.679 -4.95089 5.06253 0
M  V30 3711 H 339.087 -4.52599 3.37364 0
M  V30 3712 N 338.485 -1.33259 -0.841409 0
M  V30 3713 C 339.415 -1.25926 -1.96634 0
M  V30 3714 C 340.396 -0.140349 -1.6952 0
M  V30 3715 O 341.581 -0.329707 -1.91381 0
M  V30 3716 C 338.711 -0.99512 -3.32738 0
M  V30 3717 C 337.665 -2.0767 -3.74242 0
M  V30 3718 C 336.991 -1.66474 -5.08125 0
M  V30 3719 C 338.291 -3.49318 -3.88297 0
M  V30 3720 H 339.985 -2.20046 -2.03027 0
M  V30 3721 H 337.531 -1.05931 -0.975425 0
M  V30 3722 H 339.484 -0.930323 -4.11002 0
M  V30 3723 H 338.208 -0.0183004 -3.26595 0
M  V30 3724 H 336.867 -2.13187 -2.98239 0
M  V30 3725 H 336.515 -0.675012 -4.9845 0
M  V30 3726 H 336.215 -2.3885 -5.36865 0
M  V30 3727 H 337.739 -1.61455 -5.88867 0
M  V30 3728 H 339.153 -3.46316 -4.56879 0
M  V30 3729 H 337.55 -4.20158 -4.28471 0
M  V30 3730 H 338.62 -3.8801 -2.9082 0
M  V30 3731 N 339.963 1.05934 -1.16686 0
M  V30 3732 C 340.91 2.13499 -0.876748 0
M  V30 3733 C 341.88 1.65162 0.176299 0
M  V30 3734 O 343.065 1.90757 0.0407143 0
M  V30 3735 C 340.205 3.42912 -0.387967 0
M  V30 3736 C 339.318 4.04964 -1.50426 0
M  V30 3737 C 338.453 5.22266 -0.970125 0
M  V30 3738 C 337.492 5.76309 -2.06238 0
M  V30 3739 N 336.629 6.84922 -1.54356 0
M  V30 3740 H 341.469 2.37654 -1.7979 0
M  V30 3741 H 339.006 1.16598 -0.896843 0
M  V30 3742 H 340.964 4.17111 -0.086186 0
M  V30 3743 H 339.594 3.18963 0.496235 0
M  V30 3744 H 338.646 3.28277 -1.92193 0
M  V30 3745 H 339.958 4.41122 -2.32836 0
M  V30 3746 H 339.112 6.03506 -0.621743 0
M  V30 3747 H 337.851 4.87564 -0.115377 0
M  V30 3748 H 336.856 4.93704 -2.41942 0
M  V30 3749 H 338.081 6.13062 -2.92115 0
M  V30 3750 H 336.027 6.52131 -0.711406 0
M  V30 3751 H 335.944 7.20043 -2.30379 0
M  V30 3752 H 337.212 7.69832 -1.22387 0
M  V30 3753 N 341.441 0.965919 1.2453 0
M  V30 3754 C 342.371 0.513476 2.27784 0
M  V30 3755 C 343.352 -0.445974 1.6415 0
M  V30 3756 O 344.537 -0.342485 1.91156 0
M  V30 3757 C 341.667 -0.198839 3.4673 0
M  V30 3758 C 340.621 0.676456 4.2262 0
M  V30 3759 C 339.947 -0.167248 5.34438 0
M  V30 3760 C 341.247 1.96017 4.84123 0
M  V30 3761 H 342.941 1.3765 2.65881 0
M  V30 3762 H 340.487 0.663321 1.27813 0
M  V30 3763 H 342.44 -0.526567 4.18097 0
M  V30 3764 H 341.164 -1.0962 3.07654 0
M  V30 3765 H 339.823 0.98743 3.53052 0
M  V30 3766 H 339.471 -1.0647 4.91603 0
M  V30 3767 H 339.171 0.415181 5.86131 0
M  V30 3768 H 340.695 -0.489688 6.08633 0
M  V30 3769 H 342.109 1.69814 5.47573 0
M  V30 3770 H 340.506 2.48918 5.4604 0
M  V30 3771 H 341.576 2.65622 4.05676 0
M  V30 3772 N 342.919 -1.39368 0.735821 0
M  V30 3773 C 344.167 -2.00101 0.283562 0
M  V30 3774 C 344.488 -1.5868 -1.13338 0
M  V30 3775 O 343.758 -0.835423 -1.77193 0
M  V30 3776 H 342.338 -0.740024 0.101851 0
M  V30 3777 H 345 -1.70404 0.945962 0
M  V30 3778 H 344.096 -3.10323 0.332604 0
M  V30 3779 N 344.397 -0.483516 -1.5 0
M  V30 3780 C 345.644 0.0671597 -2.02389 0
M  V30 3781 C 345.972 1.38597 -1.36459 0
M  V30 3782 O 345.227 1.89634 -0.483458 0
M  V30 3783 C 345.526 0.286226 -3.56252 0
M  V30 3784 C 345.192 -0.952416 -4.40726 0
M  V30 3785 C 343.854 -1.29199 -4.63531 0
M  V30 3786 C 346.206 -1.77655 -4.89988 0
M  V30 3787 C 343.534 -2.45553 -5.32842 0
M  V30 3788 C 345.886 -2.93147 -5.60578 0
M  V30 3789 C 344.55 -3.27505 -5.81633 0
M  V30 3790 H 343.82 0.0245755 -0.740592 0
M  V30 3791 H 346.467 -0.640124 -1.80485 0
M  V30 3792 H 344.772 1.07587 -3.76739 0
M  V30 3793 H 346.469 0.726473 -3.94365 0
M  V30 3794 H 343.059 -0.677881 -4.23205 0
M  V30 3795 H 347.243 -1.52737 -4.72213 0
M  V30 3796 H 342.499 -2.72431 -5.47349 0
M  V30 3797 H 346.673 -3.57344 -5.97727 0
M  V30 3798 H 344.3 -4.1777 -6.35116 0
M  V30 3799 N 345.875 1.56104 -0.216619 0
M  V30 3800 C 347.124 1.97348 0.416744 0
M  V30 3801 C 347.437 1.10715 1.6125 0
M  V30 3802 O 348.643 1.41836 2.31506 0
M  V30 3803 C 347.099 3.51059 0.792835 0
M  V30 3804 C 346.707 4.46387 -0.379828 0
M  V30 3805 C 348.451 4.01026 1.39208 0
M  V30 3806 C 346.358 5.91397 0.0184223 0
M  V30 3807 H 345.288 0.736942 0.159475 0
M  V30 3808 H 347.939 1.80827 -0.31205 0
M  V30 3809 H 346.321 3.63162 1.57891 0
M  V30 3810 H 347.495 4.46029 -1.15737 0
M  V30 3811 H 345.81 4.06734 -0.891979 0
M  V30 3812 H 348.407 5.0686 1.70286 0
M  V30 3813 H 348.75 3.46587 2.30614 0
M  V30 3814 H 349.283 3.92125 0.669537 0
M  V30 3815 H 346.022 6.49807 -0.862002 0
M  V30 3816 H 345.542 5.94961 0.760384 0
M  V30 3817 H 347.221 6.45455 0.446818 0
M  V30 3818 N 347.353 -0.0568162 1.57498 0
M  V30 3819 C 348.63 -0.786954 1.79071 0
M  V30 3820 C 349.01 -1.95028 0.80792 0
M  V30 3821 O 348.358 -2.27968 -0.155858 0
M  V30 3822 C 348.568 -1.24594 3.26002 0
M  V30 3823 C 349.916 -1.67323 3.90241 0
M  V30 3824 O 350.94 -1.34124 3.29984 0
M  V30 3825 O 349.799 -2.28842 4.9628 0
M  V30 3826 H 346.893 -0.378262 0.735423 0
M  V30 3827 H 349.439 -0.035734 1.69662 0
M  V30 3828 H 348.211 -0.41423 3.89101 0
M  V30 3829 H 347.834 -2.05803 3.40192 0
M  V30 3830 N 348.832 -1.54138 -0.328536 0
M  V30 3831 C 349.764 -1.79509 -1.4251 0
M  V30 3832 C 350.777 -0.67688 -1.48061 0
M  V30 3833 O 351.966 -0.953898 -1.50874 0
M  V30 3834 C 349.066 -1.89337 -2.81078 0
M  V30 3835 C 348.239 -3.19443 -2.98789 0
M  V30 3836 C 347.298 -3.20036 -4.17688 0
M  V30 3837 O 346.324 -3.93697 -4.11086 0
M  V30 3838 N 347.526 -2.43467 -5.26976 0
M  V30 3839 H 350.291 -2.74139 -1.21111 0
M  V30 3840 H 347.852 -1.53373 -0.518499 0
M  V30 3841 H 349.844 -1.87167 -3.58818 0
M  V30 3842 H 348.414 -1.01826 -2.95551 0
M  V30 3843 H 347.634 -3.34614 -2.08391 0
M  V30 3844 H 348.922 -4.05354 -3.07515 0
M  V30 3845 H 348.32 -1.83201 -5.35214 0
M  V30 3846 H 346.877 -2.4708 -6.03154 0
M  V30 3847 N 350.31 0.590341 -1.46126 0
M  V30 3848 C 351.242 1.71427 -1.52136 0
M  V30 3849 C 352.255 1.57542 -0.41042 0
M  V30 3850 O 353.444 1.65106 -0.678389 0
M  V30 3851 C 350.544 3.09605 -1.37834 0
M  V30 3852 C 349.717 3.49566 -2.62912 0
M  V30 3853 C 348.776 4.66773 -2.42918 0
M  V30 3854 O 347.802 4.73019 -3.1661 0
M  V30 3855 N 349.004 5.61161 -1.4859 0
M  V30 3856 H 351.769 1.66728 -2.49042 0
M  V30 3857 H 349.33 0.776113 -1.42085 0
M  V30 3858 H 351.322 3.85796 -1.22243 0
M  V30 3859 H 349.892 3.08714 -0.491393 0
M  V30 3860 H 349.112 2.63158 -2.93499 0
M  V30 3861 H 350.4 3.73028 -3.46017 0
M  V30 3862 H 349.798 5.58844 -0.87808 0
M  V30 3863 H 348.355 6.36814 -1.38965 0
M  V30 3864 N 351.788 1.33704 0.83433 0
M  V30 3865 C 353.204 1.13137 1.12571 0
M  V30 3866 C 353.404 -0.0747261 2.01361 0
M  V30 3867 O 352.46 -0.753647 2.4099 0
M  V30 3868 C 353.773 2.42105 1.78342 0
M  V30 3869 C 355.321 2.48054 1.90888 0
M  V30 3870 C 355.796 3.76995 2.60075 0
M  V30 3871 N 357.287 3.78092 2.67584 0
M  V30 3872 C 358.022 4.74574 3.21818 0
M  V30 3873 N 357.518 5.81434 3.76705 0
M  V30 3874 N 359.311 4.62044 3.20112 0
M  V30 3875 H 351.462 2.11 0.243489 0
M  V30 3876 H 353.725 0.932532 0.17055 0
M  V30 3877 H 353.431 3.30391 1.20561 0
M  V30 3878 H 353.305 2.54594 2.7832 0
M  V30 3879 H 355.692 1.60215 2.47821 0
M  V30 3880 H 355.773 2.39502 0.898459 0
M  V30 3881 H 355.417 4.65219 2.03799 0
M  V30 3882 H 355.347 3.82825 3.61597 0
M  V30 3883 H 357.838 3.00865 2.28667 0
M  V30 3884 H 358.151 6.51084 4.16305 0
M  V30 3885 H 356.496 5.85163 3.7498 0
M  V30 3886 H 359.687 3.77716 2.76493 0
M  V30 3887 H 359.86 5.37406 3.62076 0
M  V30 3888 N 353.266 -1.05314 1.17247 0
M  V30 3889 C 354.496 -1.81707 0.983166 0
M  V30 3890 C 354.904 -1.83222 -0.471822 0
M  V30 3891 O 354.247 -1.25721 -1.3394 0
M  V30 3892 C 354.309 -3.29134 1.44606 0
M  V30 3893 C 353.973 -3.51304 2.92292 0
M  V30 3894 C 354.97 -3.4353 3.90235 0
M  V30 3895 C 352.655 -3.78306 3.30439 0
M  V30 3896 C 354.649 -3.62442 5.24323 0
M  V30 3897 C 352.336 -3.96866 4.64694 0
M  V30 3898 C 353.334 -3.88933 5.61445 0
M  V30 3899 O 353.022 -4.06976 6.93272 0
M  V30 3900 H 352.754 -0.579476 0.348114 0
M  V30 3901 H 355.308 -1.33705 1.55924 0
M  V30 3902 H 353.538 -3.78046 0.813537 0
M  V30 3903 H 355.227 -3.87049 1.22262 0
M  V30 3904 H 355.993 -3.22648 3.62109 0
M  V30 3905 H 351.872 -3.83585 2.55702 0
M  V30 3906 H 355.416 -3.56165 5.99827 0
M  V30 3907 H 351.313 -4.1724 4.92525 0
M  V30 3908 H 352.081 -4.24209 6.99992 0
M  V30 3909 N 354.744 -0.972509 -1.24016 0
M  V30 3910 C 355.676 -0.464375 -2.24446 0
M  V30 3911 C 356.689 0.4295 -1.57032 0
M  V30 3912 O 357.878 0.234902 -1.76948 0
M  V30 3913 C 354.978 0.348385 -3.37105 0
M  V30 3914 C 354.151 -0.53673 -4.34094 0
M  V30 3915 C 353.21 0.220838 -5.25736 0
M  V30 3916 O 352.236 -0.386867 -5.67884 0
M  V30 3917 N 353.438 1.50907 -5.60542 0
M  V30 3918 H 356.203 -1.32788 -2.68677 0
M  V30 3919 H 353.764 -0.844877 -1.38107 0
M  V30 3920 H 355.756 0.863341 -3.95384 0
M  V30 3921 H 354.326 1.11285 -2.92121 0
M  V30 3922 H 353.546 -1.23261 -3.74433 0
M  V30 3923 H 354.834 -1.14022 -4.95859 0
M  V30 3924 H 354.232 2.02444 -5.28236 0
M  V30 3925 H 352.789 1.96962 -6.21329 0
M  V30 3926 N 356.222 1.38976 -0.743202 0
M  V30 3927 C 357.185 2.28901 -0.117014 0
M  V30 3928 C 358.185 1.46698 0.658503 0
M  V30 3929 O 359.375 1.67274 0.486305 0
M  V30 3930 C 356.507 3.30309 0.84315 0
M  V30 3931 H 357.7 2.8578 -0.909373 0
M  V30 3932 H 355.253 1.47761 -0.509547 0
M  V30 3933 H 355.988 2.785 1.66157 0
M  V30 3934 H 355.773 3.91029 0.289594 0
M  V30 3935 H 357.263 3.97577 1.2776 0
M  V30 3936 N 357.7 0.491464 1.49741 0
M  V30 3937 C 358.663 -0.280906 2.27472 0
M  V30 3938 C 359.663 -0.902454 1.33088 0
M  V30 3939 O 360.853 -0.768465 1.56334 0
M  V30 3940 C 357.985 -1.40209 3.10732 0
M  V30 3941 H 359.178 0.401056 2.97206 0
M  V30 3942 H 356.731 0.246131 1.5435 0
M  V30 3943 H 357.466 -2.11849 2.45541 0
M  V30 3944 H 357.251 -0.961969 3.80117 0
M  V30 3945 H 358.741 -1.9464 3.69466 0
M  V30 3946 N 359.178 -1.55987 0.224894 0
M  V30 3947 C 360.424 -1.98684 -0.406502 0
M  V30 3948 C 360.757 -1.11248 -1.59177 0
M  V30 3949 O 360.032 -0.170909 -1.93748 0
M  V30 3950 C 360.315 -3.50218 -0.837808 0
M  V30 3951 C 360.168 -4.48426 0.351332 0
M  V30 3952 C 361.487 -4.06243 -1.69278 0
M  V30 3953 H 358.606 -0.722337 -0.146283 0
M  V30 3954 H 361.248 -1.87255 0.321799 0
M  V30 3955 H 359.398 -3.60089 -1.45837 0
M  V30 3956 H 361.07 -4.50562 0.989526 0
M  V30 3957 H 359.313 -4.22159 0.998207 0
M  V30 3958 H 359.984 -5.52 0.00655905 0
M  V30 3959 H 362.46 -3.99337 -1.16914 0
M  V30 3960 H 361.336 -5.12581 -1.96346 0
M  V30 3961 H 361.597 -3.53332 -2.65723 0
M  V30 3962 N 360.656 0.0484629 -1.57525 0
M  V30 3963 C 361.566 1.07241 -2.08654 0
M  V30 3964 C 362.582 1.409 -1.02095 0
M  V30 3965 O 363.758 1.50609 -1.33712 0
M  V30 3966 C 360.823 2.36008 -2.5397 0
M  V30 3967 C 359.884 2.09108 -3.7493 0
M  V30 3968 C 359.117 3.31736 -4.18075 0
M  V30 3969 O 359.34 4.41714 -3.60895 0
M  V30 3970 O 358.274 3.18576 -5.10679 0
M  V30 3971 H 362.1 0.667965 -2.96263 0
M  V30 3972 H 359.685 0.26417 -1.47046 0
M  V30 3973 H 361.567 3.11747 -2.83535 0
M  V30 3974 H 360.242 2.75786 -1.69481 0
M  V30 3975 H 359.149 1.31 -3.50414 0
M  V30 3976 H 360.482 1.74198 -4.60343 0
M  V30 3977 N 362.134 1.5431 0.320358 0
M  V30 3978 C 363.044 1.86946 1.41734 0
M  V30 3979 C 364.06 0.761689 1.56443 0
M  V30 3980 O 365.236 1.05629 1.71477 0
M  V30 3981 C 362.301 2.09293 2.76401 0
M  V30 3982 C 361.362 3.33082 2.70841 0
M  V30 3983 C 360.595 3.54353 3.99086 0
M  V30 3984 O 360.818 2.79002 4.97508 0
M  V30 3985 O 359.752 4.47838 4.0215 0
M  V30 3986 H 363.578 2.80232 1.17062 0
M  V30 3987 H 361.163 1.40255 0.514673 0
M  V30 3988 H 363.045 2.25303 3.56113 0
M  V30 3989 H 361.72 1.19194 3.00956 0
M  V30 3990 H 360.627 3.22454 1.89668 0
M  V30 3991 H 361.96 4.23249 2.5124 0
M  V30 3992 N 363.613 -0.582584 1.46437 0
M  V30 3993 C 365.024 -1.1647 1.45916 0
M  V30 3994 C 365.375 -1.95177 0.200077 0
M  V30 3995 O 364.5 -2.04874 -0.696819 0
M  V30 3996 C 365.095 -2.11885 2.64367 0
M  V30 3997 C 363.654 -2.65421 2.66887 0
M  V30 3998 C 362.801 -1.41294 2.38603 0
M  V30 3999 H 365.752 -0.370514 1.54314 0
M  V30 4000 H 365.773 -2.9535 2.39892 0
M  V30 4001 H 365.285 -1.54573 3.5599 0
M  V30 4002 H 363.386 -3.26602 1.79338 0
M  V30 4003 H 363.499 -3.08147 3.66854 0
M  V30 4004 H 361.863 -1.71109 1.88663 0
M  V30 4005 H 362.646 -0.858125 3.32402 0
M  V30 4006 N 365.091 -1.34144 -0.827227 0
M  V30 4007 C 366.34 -1.25602 -1.5782 0
M  V30 4008 C 366.653 0.173445 -1.94829 0
M  V30 4009 O 367.859 0.380984 -2.68814 0
M  V30 4010 C 366.315 -2.20151 -2.84713 0
M  V30 4011 C 365.923 -3.68331 -2.55021 0
M  V30 4012 C 367.667 -2.20508 -3.62735 0
M  V30 4013 C 365.574 -4.54762 -3.78082 0
M  V30 4014 H 364.504 -0.466573 -0.592306 0
M  V30 4015 H 367.155 -1.59283 -0.911116 0
M  V30 4016 H 365.537 -1.79417 -3.53023 0
M  V30 4017 H 366.711 -4.17577 -1.94849 0
M  V30 4018 H 365.026 -3.7038 -1.90283 0
M  V30 4019 H 367.623 -2.82306 -4.54101 0
M  V30 4020 H 367.966 -1.20322 -3.98533 0
M  V30 4021 H 368.499 -2.59664 -3.01362 0
M  V30 4022 H 365.238 -5.55867 -3.47407 0
M  V30 4023 H 364.758 -4.10254 -4.37552 0
M  V30 4024 H 366.437 -4.69153 -4.45538 0
M  V30 4025 N 366.569 1.04691 -1.17803 0
M  V30 4026 C 367.517 2.14665 -0.895635 0
M  V30 4027 C 368.511 1.68806 0.141679 0
M  V30 4028 O 369.717 1.79999 -0.00587914 0
M  V30 4029 H 366.092 0.701038 -0.272121 0
M  V30 4030 H 368.063 2.35685 -1.83017 0
M  V30 4031 C 366.812 3.45019 -0.430962 0
M  V30 4032 H 366.135 3.8071 -1.22064 0
M  V30 4033 H 367.575 4.23125 -0.272301 0
M  V30 4034 C 366.034 3.25943 0.852207 0
M  V30 4035 O 366.564 3.5296 1.91786 0
M  V30 4036 N 364.77 2.79304 0.802346 0
M  V30 4037 H 364.317 2.57518 -0.0650788 0
M  V30 4038 H 364.275 2.66921 1.66134 0
M  V30 4039 N 368.047 0.979072 1.23499 0
M  V30 4040 C 369.01 0.523244 2.23147 0
M  V30 4041 C 370.01 -0.386406 1.56088 0
M  V30 4042 O 371.2 -0.180283 1.73265 0
M  V30 4043 C 368.332 -0.240739 3.40049 0
M  V30 4044 H 369.525 1.40432 2.64989 0
M  V30 4045 H 367.078 0.764824 1.36309 0
M  V30 4046 H 367.813 -1.13841 3.03662 0
M  V30 4047 H 367.598 0.412207 3.89927 0
M  V30 4048 H 369.088 -0.548297 4.13985 0
M  V30 4049 N 369.525 -1.3858 0.750561 0
M  V30 4050 C 370.75 -2.04997 0.314812 0
M  V30 4051 C 371.175 -1.56235 -1.04749 0
M  V30 4052 O 370.533 -0.712981 -1.66692 0
M  V30 4053 C 370.581 -3.58961 0.343415 0
M  V30 4054 O 369.685 -4.07025 -0.663628 0
M  V30 4055 H 369.026 -0.649081 0.139962 0
M  V30 4056 H 371.556 -1.77313 1.02084 0
M  V30 4057 H 371.566 -4.07542 0.193233 0
M  V30 4058 H 370.241 -3.93811 1.33738 0
M  V30 4059 H 368.818 -3.6982 -0.478307 0
M  V30 4060 N 371.003 -0.499398 -1.49478 0
M  V30 4061 C 372.233 0.0424839 -2.06556 0
M  V30 4062 C 372.641 1.31514 -1.36018 0
M  V30 4063 O 371.984 1.78555 -0.431718 0
M  V30 4064 C 372.046 0.368074 -3.57611 0
M  V30 4065 C 371.71 -0.806631 -4.49825 0
M  V30 4066 C 372.707 -1.69667 -4.91436 0
M  V30 4067 C 370.392 -1.00498 -4.92144 0
M  V30 4068 C 372.386 -2.76923 -5.74101 0
M  V30 4069 C 370.073 -2.08072 -5.74586 0
M  V30 4070 C 371.071 -2.96119 -6.15469 0
M  V30 4071 O 370.759 -4.01836 -6.96264 0
M  V30 4072 H 370.491 -0.0165165 -0.675798 0
M  V30 4073 H 373.045 -0.695497 -1.93267 0
M  V30 4074 H 371.275 1.15963 -3.68903 0
M  V30 4075 H 372.964 0.848381 -3.96935 0
M  V30 4076 H 373.73 -1.55524 -4.59388 0
M  V30 4077 H 369.609 -0.329036 -4.59824 0
M  V30 4078 H 373.153 -3.45676 -6.05932 0
M  V30 4079 H 369.05 -2.22211 -6.06047 0
M  V30 4080 H 369.818 -3.9917 -7.14567 0
M  V30 4081 N 372.481 1.55866 -0.233164 0
M  V30 4082 C 373.431 2.17442 0.685774 0
M  V30 4083 C 374.415 1.12617 1.14918 0
M  V30 4084 O 375.607 1.3857 1.10124 0
M  V30 4085 C 372.736 2.86685 1.88856 0
M  V30 4086 C 371.822 3.98749 1.4443 0
M  V30 4087 N 372.213 5.00744 0.713364 0
M  V30 4088 C 370.511 4.11052 1.73068 0
M  V30 4089 C 371.212 5.79673 0.485205 0
M  V30 4090 N 370.188 5.33454 1.04536 0
M  V30 4091 H 373.99 2.93659 0.119022 0
M  V30 4092 H 371.504 1.62362 -0.0348995 0
M  V30 4093 H 373.501 3.29218 2.55776 0
M  V30 4094 H 372.161 2.11967 2.45967 0
M  V30 4095 H 373.172 5.16613 0.364861 0
M  V30 4096 H 369.849 3.47495 2.31416 0
M  V30 4097 H 371.239 6.71829 -0.097365 0
M  V30 4098 N 373.959 -0.0401083 1.57549 0
M  V30 4099 C 375.205 -0.734211 1.89043 0
M  V30 4100 C 375.538 -1.75591 0.829535 0
M  V30 4101 O 374.813 -1.93868 -0.156706 0
M  V30 4102 C 375.096 -1.41374 3.31188 0
M  V30 4103 C 374.949 -0.406299 4.47961 0
M  V30 4104 C 376.268 -2.35061 3.72068 0
M  V30 4105 H 373.387 -0.265447 0.687537 0
M  V30 4106 H 376.029 0.00294087 1.9 0
M  V30 4107 H 374.179 -2.04206 3.30503 0
M  V30 4108 H 375.851 0.219255 4.60779 0
M  V30 4109 H 374.094 0.275485 4.32924 0
M  V30 4110 H 374.765 -0.920022 5.44279 0
M  V30 4111 H 377.241 -1.82282 3.74049 0
M  V30 4112 H 376.117 -2.79593 4.72355 0
M  V30 4113 H 376.378 -3.21258 3.0372 0
M  V30 4114 N 375.437 -1.54477 -0.31217 0
M  V30 4115 C 376.369 -1.81011 -1.40598 0
M  V30 4116 C 377.382 -0.692546 -1.47335 0
M  V30 4117 O 378.571 -0.969847 -1.49854 0
M  V30 4118 C 375.671 -1.92307 -2.79054 0
M  V30 4119 C 374.844 -3.22594 -2.95384 0
M  V30 4120 C 373.903 -3.24448 -4.1427 0
M  V30 4121 O 372.929 -3.98035 -4.06887 0
M  V30 4122 N 374.131 -2.49042 -5.24365 0
M  V30 4123 H 376.896 -2.75408 -1.18196 0
M  V30 4124 H 374.457 -1.53914 -0.502202 0
M  V30 4125 H 376.449 -1.90962 -3.56813 0
M  V30 4126 H 375.019 -1.04955 -2.94454 0
M  V30 4127 H 374.239 -3.36806 -2.04831 0
M  V30 4128 H 375.527 -4.08593 -3.03198 0
M  V30 4129 H 374.925 -1.88867 -5.33241 0
M  V30 4130 H 373.482 -2.53463 -6.005 0
M  V30 4131 N 376.915 0.57481 -1.46744 0
M  V30 4132 C 378.143 1.35856 -1.56047 0
M  V30 4133 C 378.558 1.87691 -0.204365 0
M  V30 4134 O 377.915 1.64049 0.79963 0
M  V30 4135 C 377.966 2.54066 -2.57163 0
M  V30 4136 O 377.687 2.04377 -3.87507 0
M  V30 4137 C 379.188 3.46514 -2.76483 0
M  V30 4138 H 376.408 0.414754 -0.527466 0
M  V30 4139 H 378.952 0.698035 -1.92218 0
M  V30 4140 H 377.107 3.16092 -2.23974 0
M  V30 4141 H 377.521 2.81419 -4.4261 0
M  V30 4142 H 378.995 4.25919 -3.51137 0
M  V30 4143 H 379.472 3.98951 -1.83671 0
M  V30 4144 H 380.078 2.90318 -3.10799 0
M  V30 4145 N 378.394 1.34581 0.820102 0
M  V30 4146 C 379.805 1.24298 1.39309 0
M  V30 4147 C 380.156 -0.130351 1.95767 0
M  V30 4148 O 379.281 -1.0308 1.90272 0
M  V30 4149 C 379.876 2.25054 2.53251 0
M  V30 4150 C 378.435 2.18552 3.0645 0
M  V30 4151 C 377.582 2.11503 1.79337 0
M  V30 4152 H 380.533 1.45906 0.624262 0
M  V30 4153 H 380.554 1.86917 3.31425 0
M  V30 4154 H 380.066 3.24996 2.1213 0
M  V30 4155 H 378.167 1.21976 3.52069 0
M  V30 4156 H 378.28 3.0993 3.65349 0
M  V30 4157 H 376.644 1.57268 2.00347 0
M  V30 4158 H 377.427 3.13284 1.40386 0
M  V30 4159 N 379.872 -1.04064 1.18357 0
M  V30 4160 C 380.782 -2.15569 0.925596 0
M  V30 4161 C 381.798 -1.7365 -0.110295 0
M  V30 4162 O 382.974 -2.01273 0.0716218 0
M  V30 4163 C 380.039 -3.43704 0.454836 0
M  V30 4164 C 379.1 -4.00004 1.55869 0
M  V30 4165 C 378.333 -5.22023 1.1103 0
M  V30 4166 O 378.556 -5.70392 -0.0309756 0
M  V30 4167 O 377.49 -5.70856 1.90805 0
M  V30 4168 H 381.316 -2.40187 1.8586 0
M  V30 4169 H 378.901 -1.1402 0.965394 0
M  V30 4170 H 380.783 -4.20923 0.200382 0
M  V30 4171 H 379.458 -3.20559 -0.449876 0
M  V30 4172 H 378.365 -3.24172 1.86716 0
M  V30 4173 H 379.698 -4.2749 2.43953 0
M  V30 4174 N 381.35 -0.985608 -1.22978 0
M  V30 4175 C 382.28 -0.549649 -2.26939 0
M  V30 4176 C 383.261 0.419803 -1.64838 0
M  V30 4177 O 384.446 0.31203 -1.91677 0
M  V30 4178 C 381.576 0.143652 -3.47003 0
M  V30 4179 C 380.53 -0.743606 -4.21491 0
M  V30 4180 C 379.856 0.0822027 -5.34637 0
M  V30 4181 C 381.156 -2.03694 -4.80943 0
M  V30 4182 H 382.85 -1.41862 -2.63658 0
M  V30 4183 H 380.396 -0.683571 -1.26741 0
M  V30 4184 H 382.349 0.459985 -4.18882 0
M  V30 4185 H 381.073 1.04711 -3.09359 0
M  V30 4186 H 379.732 -1.04347 -3.51436 0
M  V30 4187 H 379.38 0.986359 -4.93234 0
M  V30 4188 H 379.08 -0.508377 -5.85397 0
M  V30 4189 H 380.604 0.392797 -6.09335 0
M  V30 4190 H 382.018 -1.78504 -5.44802 0
M  V30 4191 H 380.415 -2.57573 -5.42011 0
M  V30 4192 H 381.485 -2.72042 -4.01399 0
M  V30 4193 N 382.828 1.3818 -0.7579 0
M  V30 4194 C 383.776 2.32277 -0.122482 0
M  V30 4195 C 384.77 1.54238 0.700505 0
M  V30 4196 O 385.976 1.69737 0.599119 0
M  V30 4197 H 382.351 0.751712 -0.0208143 0
M  V30 4198 H 384.322 2.83469 -0.932099 0
M  V30 4199 C 383.071 3.39447 0.753076 0
M  V30 4200 H 382.394 3.99591 0.129184 0
M  V30 4201 H 383.834 4.07684 1.16489 0
M  V30 4202 C 382.293 2.78375 1.8976 0
M  V30 4203 O 382.823 2.68025 2.99208 0
M  V30 4204 N 381.029 2.36121 1.69397 0
M  V30 4205 H 380.576 2.4474 0.803762 0
M  V30 4206 H 380.534 1.95602 2.46145 0
M  V30 4207 N 384.306 0.507319 1.49211 0
M  V30 4208 C 385.269 -0.256763 2.27757 0
M  V30 4209 C 386.269 -0.888287 1.34038 0
M  V30 4210 O 387.459 -0.751841 1.5714 0
M  V30 4211 C 384.591 -1.36905 3.12202 0
M  V30 4212 H 385.784 0.432557 2.96764 0
M  V30 4213 H 383.337 0.262488 1.5408 0
M  V30 4214 H 384.072 -2.09233 2.47775 0
M  V30 4215 H 383.857 -0.921599 3.81115 0
M  V30 4216 H 385.347 -1.9071 3.7151 0
M  V30 4217 N 385.784 -1.5574 0.241426 0
M  V30 4218 C 387.195 -1.84842 -0.262755 0
M  V30 4219 C 387.546 -1.16317 -1.58003 0
M  V30 4220 O 386.671 -0.439653 -2.11887 0
M  V30 4221 C 387.266 -3.35332 -0.483523 0
M  V30 4222 C 385.825 -3.6468 -0.931977 0
M  V30 4223 C 384.972 -2.77299 -0.0061151 0
M  V30 4224 H 387.923 -1.51761 0.464129 0
M  V30 4225 H 387.944 -3.56615 -1.32688 0
M  V30 4226 H 387.456 -3.85178 0.47537 0
M  V30 4227 H 385.557 -3.20307 -1.90353 0
M  V30 4228 H 385.67 -4.72498 -0.792628 0
M  V30 4229 H 384.034 -2.49408 -0.516503 0
M  V30 4230 H 384.817 -3.2995 0.948052 0
M  V30 4231 N 387.262 0.0317525 -1.57568 0
M  V30 4232 C 388.492 0.733884 -1.93126 0
M  V30 4233 C 388.9 1.69563 -0.839352 0
M  V30 4234 O 388.243 1.82681 0.193175 0
M  V30 4235 C 388.305 1.54798 -3.24465 0
M  V30 4236 C 387.969 0.751304 -4.50782 0
M  V30 4237 C 388.966 0.0527632 -5.19873 0
M  V30 4238 C 386.651 0.706639 -4.97305 0
M  V30 4239 C 388.645 -0.679774 -6.33765 0
M  V30 4240 C 386.332 -0.0296449 -6.11093 0
M  V30 4241 C 387.33 -0.721614 -6.79177 0
M  V30 4242 O 387.018 -1.44595 -7.90789 0
M  V30 4243 H 386.75 0.211459 -0.642076 0
M  V30 4244 H 389.304 -0.00585615 -2.05399 0
M  V30 4245 H 387.534 2.33147 -3.08512 0
M  V30 4246 H 389.223 2.13247 -3.4537 0
M  V30 4247 H 389.989 0.0783188 -4.84937 0
M  V30 4248 H 385.868 1.23474 -4.44157 0
M  V30 4249 H 389.412 -1.22042 -6.86842 0
M  V30 4250 H 385.309 -0.0571331 -6.45475 0
M  V30 4251 H 386.077 -1.35935 -8.07133 0
M  V30 4252 N 388.74 1.54641 0.303973 0
M  V30 4253 C 389.989 1.7299 1.03717 0
M  V30 4254 C 390.302 0.521168 1.88529 0
M  V30 4255 O 391.508 0.586408 2.65092 0
M  V30 4256 C 389.964 3.06051 1.89369 0
M  V30 4257 C 389.572 4.34393 1.09574 0
M  V30 4258 C 391.316 3.3376 2.62306 0
M  V30 4259 C 389.223 5.58506 1.94486 0
M  V30 4260 H 388.153 0.64473 0.390947 0
M  V30 4261 H 390.804 1.81124 0.294328 0
M  V30 4262 H 389.186 2.91874 2.67629 0
M  V30 4263 H 390.36 4.59396 0.359485 0
M  V30 4264 H 388.675 4.13597 0.482324 0
M  V30 4265 H 391.272 4.23687 3.26181 0
M  V30 4266 H 391.615 2.52503 3.3098 0
M  V30 4267 H 392.148 3.48894 1.91097 0
M  V30 4268 H 388.887 6.42422 1.30287 0
M  V30 4269 H 388.407 5.37694 2.65792 0
M  V30 4270 H 390.086 5.95651 2.52605 0
M  V30 4271 N 390.218 -0.567019 1.47046 0
M  V30 4272 C 391.181 -1.65696 1.58359 0
M  V30 4273 C 392.181 -1.54097 0.459441 0
M  V30 4274 O 393.371 -1.58432 0.724225 0
M  V30 4275 C 390.503 -3.05197 1.51879 0
M  V30 4276 H 391.696 -1.57019 2.5551 0
M  V30 4277 H 389.249 -0.786148 1.3509 0
M  V30 4278 H 389.984 -3.19417 0.560673 0
M  V30 4279 H 389.769 -3.15025 2.33455 0
M  V30 4280 H 391.259 -3.84511 1.62913 0
M  V30 4281 N 391.696 -1.35014 -0.812953 0
M  V30 4282 C 392.606 -1.2951 -1.95613 0
M  V30 4283 C 393.622 -0.20107 -1.72834 0
M  V30 4284 O 394.798 -0.42932 -1.96771 0
M  V30 4285 C 391.863 -1.06033 -3.30088 0
M  V30 4286 C 390.924 -2.24688 -3.65805 0
M  V30 4287 C 390.157 -2.02322 -4.93864 0
M  V30 4288 O 390.38 -0.986464 -5.61805 0
M  V30 4289 O 389.314 -2.89525 -5.27692 0
M  V30 4290 H 393.14 -2.25705 -2.03202 0
M  V30 4291 H 390.725 -1.15321 -0.949811 0
M  V30 4292 H 392.607 -0.94763 -4.10607 0
M  V30 4293 H 391.282 -0.128852 -3.23443 0
M  V30 4294 H 390.189 -2.41521 -2.85689 0
M  V30 4295 H 391.522 -3.16261 -3.77147 0
M  V30 4296 N 393.175 1.03435 -1.18907 0
M  V30 4297 C 394.108 2.11162 -0.86521 0
M  V30 4298 C 395.086 1.6165 0.175473 0
M  V30 4299 O 396.27 1.88425 0.0530129 0
M  V30 4300 C 393.397 3.37423 -0.293868 0
M  V30 4301 C 392.443 4.05795 -1.31274 0
M  V30 4302 S 393.276 4.52027 -2.8711 0
M  V30 4303 C 394.432 5.81513 -2.31504 0
M  V30 4304 H 394.665 2.38308 -1.77754 0
M  V30 4305 H 392.198 1.16295 -1.01562 0
M  V30 4306 H 394.156 4.1049 0.0292572 0
M  V30 4307 H 392.817 3.0838 0.596682 0
M  V30 4308 H 392.01 4.96574 -0.86198 0
M  V30 4309 H 391.612 3.38874 -1.58242 0
M  V30 4310 H 393.904 6.55784 -1.70157 0
M  V30 4311 H 394.847 6.3136 -3.20608 0
M  V30 4312 H 395.255 5.36921 -1.74286 0
M  V30 4313 N 394.653 0.992116 1.22453 0
M  V30 4314 C 395.616 0.546883 2.2258 0
M  V30 4315 C 396.616 -0.369829 1.56489 0
M  V30 4316 O 397.806 -0.161896 1.73446 0
M  V30 4317 C 394.938 -0.204659 3.40285 0
M  V30 4318 H 396.131 1.43234 2.63484 0
M  V30 4319 H 393.684 0.779239 1.3549 0
M  V30 4320 H 394.419 -1.10614 3.04853 0
M  V30 4321 H 394.204 0.45354 3.89468 0
M  V30 4322 H 395.694 -0.504358 4.14543 0
M  V30 4323 N 396.131 -1.37776 0.765217 0
M  V30 4324 C 397.547 -1.53297 0.444108 0
M  V30 4325 C 397.747 -1.72515 -1.04119 0
M  V30 4326 O 396.803 -1.74278 -1.82711 0
M  V30 4327 C 398.116 -2.73328 1.25349 0
M  V30 4328 C 399.664 -2.87185 1.24473 0
M  V30 4329 C 400.139 -4.10191 2.03733 0
M  V30 4330 N 401.63 -4.17291 2.01053 0
M  V30 4331 C 402.365 -5.11488 2.59166 0
M  V30 4332 N 401.861 -6.11285 3.26041 0
M  V30 4333 N 403.654 -5.03924 2.49032 0
M  V30 4334 H 395.805 -1.23552 1.72768 0
M  V30 4335 H 398.068 -0.601103 0.733062 0
M  V30 4336 H 397.774 -2.6557 2.30577 0
M  V30 4337 H 397.648 -3.66834 0.87823 0
M  V30 4338 H 400.035 -2.94418 0.20047 0
M  V30 4339 H 400.116 -1.94657 1.65959 0
M  V30 4340 H 399.76 -4.0372 3.08176 0
M  V30 4341 H 399.69 -5.01821 1.59633 0
M  V30 4342 H 402.181 -3.45825 1.5236 0
M  V30 4343 H 402.494 -6.79678 3.67774 0
M  V30 4344 H 400.839 -6.11583 3.30138 0
M  V30 4345 H 404.03 -4.24902 1.96407 0
M  V30 4346 H 404.203 -5.77152 2.94617 0
M  V30 4347 N 397.609 -0.515225 -1.4894 0
M  V30 4348 C 398.572 0.244681 -2.2789 0
M  V30 4349 C 399.572 0.881166 -1.34507 0
M  V30 4350 O 400.762 0.743497 -1.57537 0
M  V30 4351 C 397.894 1.35247 -3.12923 0
M  V30 4352 H 399.087 -0.448289 -2.96531 0
M  V30 4353 H 396.64 -0.270656 -1.53939 0
M  V30 4354 H 397.375 2.07916 -2.48881 0
M  V30 4355 H 397.16 0.901374 -3.81599 0
M  V30 4356 H 398.65 1.88737 -3.72516 0
M  V30 4357 N 399.087 1.5561 -0.249682 0
M  V30 4358 C 399.997 2.25143 0.659375 0
M  V30 4359 C 401.013 1.2685 1.19101 0
M  V30 4360 O 402.189 1.59732 1.22669 0
M  V30 4361 C 399.254 2.93945 1.8384 0
M  V30 4362 C 398.315 4.07655 1.34596 0
M  V30 4363 C 397.548 4.73167 2.46878 0
M  V30 4364 O 397.771 4.37768 3.65671 0
M  V30 4365 O 396.705 5.61623 2.16478 0
M  V30 4366 H 400.531 3.03545 0.0968698 0
M  V30 4367 H 398.116 1.49389 -0.018074 0
M  V30 4368 H 399.998 3.37271 2.52638 0
M  V30 4369 H 398.673 2.18481 2.38847 0
M  V30 4370 H 397.58 3.68839 0.625174 0
M  V30 4371 H 398.913 4.84946 0.841941 0
M  V30 4372 N 400.565 -0.0233959 1.57583 0
M  V30 4373 C 401.498 -1.05549 2.02323 0
M  V30 4374 C 402.476 -1.34843 0.908626 0
M  V30 4375 O 403.66 -1.47404 1.17491 0
M  V30 4376 C 400.787 -2.38885 2.40108 0
M  V30 4377 C 399.833 -2.2541 3.62067 0
M  V30 4378 S 400.666 -1.60217 5.1097 0
M  V30 4379 C 401.822 -2.95032 5.52003 0
M  V30 4380 H 402.055 -0.674435 2.89549 0
M  V30 4381 H 399.588 -0.23355 1.52623 0
M  V30 4382 H 401.546 -3.15562 2.62547 0
M  V30 4383 H 400.207 -2.74137 1.53323 0
M  V30 4384 H 399.4 -3.23854 3.86179 0
M  V30 4385 H 399.002 -1.56876 3.39508 0
M  V30 4386 H 401.294 -3.91357 5.53033 0
M  V30 4387 H 402.237 -2.75646 6.52246 0
M  V30 4388 H 402.645 -2.97865 4.79517 0
M  V30 4389 N 402.043 -1.548 -0.295768 0
M  V30 4390 C 403.289 -1.74588 -1.03184 0
M  V30 4391 C 403.622 -0.532962 -1.86744 0
M  V30 4392 O 402.897 0.469872 -1.88739 0
M  V30 4393 C 403.18 -3.03791 -1.93347 0
M  V30 4394 C 403.033 -4.35392 -1.12933 0
M  V30 4395 C 404.352 -3.28892 -2.92435 0
M  V30 4396 H 401.471 -0.635221 -0.373715 0
M  V30 4397 H 404.113 -1.87519 -0.30606 0
M  V30 4398 H 402.263 -2.92898 -2.55232 0
M  V30 4399 H 403.935 -4.58211 -0.532943 0
M  V30 4400 H 402.178 -4.31642 -0.432168 0
M  V30 4401 H 402.849 -5.22074 -1.79284 0
M  V30 4402 H 405.325 -3.39429 -2.4068 0
M  V30 4403 H 404.201 -4.20603 -3.52682 0
M  V30 4404 H 404.462 -2.47437 -3.6637 0
M  V30 4405 N 403.521 0.559213 -1.47345 0
M  V30 4406 C 404.769 1.31388 -1.53563 0
M  V30 4407 C 405.09 1.93985 -0.198678 0
M  V30 4408 O 404.36 1.79825 0.777167 0
M  V30 4409 H 402.94 0.487901 -0.565652 0
M  V30 4410 H 405.602 0.65315 -1.8363 0
M  V30 4411 H 404.698 2.10844 -2.30111 0
M  V30 4412 N 404.999 1.35443 0.805782 0
M  V30 4413 C 406.415 1.15499 1.10146 0
M  V30 4414 C 406.615 -0.0319975 2.01475 0
M  V30 4415 O 405.671 -0.70236 2.42535 0
M  V30 4416 C 406.984 2.45833 1.73166 0
M  V30 4417 C 408.532 2.52047 1.85583 0
M  V30 4418 C 409.007 3.82427 2.52019 0
M  V30 4419 N 410.498 3.83682 2.59504 0
M  V30 4420 C 411.233 4.81294 3.11679 0
M  V30 4421 N 410.729 5.89294 3.64287 0
M  V30 4422 N 412.522 4.6873 3.1024 0
M  V30 4423 H 404.673 2.11469 0.198678 0
M  V30 4424 H 406.936 0.93594 0.150731 0
M  V30 4425 H 406.642 3.32874 1.13526 0
M  V30 4426 H 406.516 2.6044 2.72857 0
M  V30 4427 H 408.903 1.65435 2.44367 0
M  V30 4428 H 408.984 2.41354 0.847455 0
M  V30 4429 H 408.628 4.69437 1.93885 0
M  V30 4430 H 408.558 3.90409 3.53395 0
M  V30 4431 H 411.049 3.05648 2.22234 0
M  V30 4432 H 411.362 6.59768 4.02401 0
M  V30 4433 H 409.707 5.92985 3.62483 0
M  V30 4434 H 412.898 3.83496 2.68419 0
M  V30 4435 H 413.071 5.44965 3.50596 0
M  V30 4436 N 406.477 -1.02803 1.19454 0
M  V30 4437 C 407.707 -1.79581 1.02149 0
M  V30 4438 C 408.115 -1.84182 -0.432851 0
M  V30 4439 O 407.458 -1.28534 -1.31243 0
M  V30 4440 C 407.52 -3.25993 1.51554 0
M  V30 4441 C 407.184 -3.45025 2.99678 0
M  V30 4442 C 408.181 -3.35175 3.97434 0
M  V30 4443 C 405.866 -3.71212 3.38389 0
M  V30 4444 C 407.86 -3.51238 5.31893 0
M  V30 4445 C 405.547 -3.8692 4.73008 0
M  V30 4446 C 406.545 -3.76936 5.69569 0
M  V30 4447 O 406.233 -3.92179 7.01748 0
M  V30 4448 H 405.965 -0.571962 0.360327 0
M  V30 4449 H 408.519 -1.30367 1.58725 0
M  V30 4450 H 406.749 -3.76235 0.893543 0
M  V30 4451 H 408.438 -3.84368 1.30444 0
M  V30 4452 H 409.204 -3.14895 3.68872 0
M  V30 4453 H 405.083 -3.78075 2.6378 0
M  V30 4454 H 408.627 -3.43362 6.07247 0
M  V30 4455 H 404.524 -4.06699 5.01265 0
M  V30 4456 H 405.292 -4.09265 7.08833 0
M  V30 4457 N 407.956 -0.998596 -1.21925 0
M  V30 4458 C 409.204 -0.676325 -1.90448 0
M  V30 4459 C 409.525 0.794719 -1.78071 0
M  V30 4460 O 408.795 1.5701 -1.17152 0
M  V30 4461 H 407.375 -0.247165 -0.704925 0
M  V30 4462 H 410.037 -1.26633 -1.48156 0
M  V30 4463 H 409.133 -0.943858 -2.97486 0
M  V30 4464 N 409.434 1.37368 -0.772513 0
M  V30 4465 C 410.659 2.0447 -0.347386 0
M  V30 4466 C 411.084 1.57882 1.0225 0
M  V30 4467 O 410.442 0.73941 1.65537 0
M  V30 4468 C 410.49 3.58369 -0.400479 0
M  V30 4469 O 409.594 4.0803 0.598789 0
M  V30 4470 H 408.935 0.646773 -0.15027 0
M  V30 4471 H 411.465 1.75667 -1.04892 0
M  V30 4472 H 411.475 4.07183 -0.258045 0
M  V30 4473 H 410.15 3.91633 -1.39986 0
M  V30 4474 H 408.727 3.70534 0.419411 0
M  V30 4475 N 410.912 0.523116 1.48665 0
M  V30 4476 C 411.822 -0.247406 2.33292 0
M  V30 4477 C 412.838 -0.945769 1.46052 0
M  V30 4478 O 414.014 -0.922253 1.79043 0
M  V30 4479 C 411.079 -1.28487 3.22012 0
M  V30 4480 C 410.14 -0.597592 4.2512 0
M  V30 4481 C 409.373 -1.58563 5.09601 0
M  V30 4482 O 409.596 -2.81763 4.95949 0
M  V30 4483 O 408.53 -1.12879 5.91221 0
M  V30 4484 H 412.356 0.445869 3.00409 0
M  V30 4485 H 409.941 0.284128 1.46673 0
M  V30 4486 H 411.823 -1.88459 3.7691 0
M  V30 4487 H 410.498 -1.96068 2.57564 0
M  V30 4488 H 409.405 0.0424407 3.74076 0
M  V30 4489 H 410.738 0.0361517 4.92187 0
M  V30 4490 N 412.39 -1.55475 0.257931 0
M  V30 4491 C 413.353 -2.20551 -0.623706 0
M  V30 4492 C 414.353 -1.17809 -1.09443 0
M  V30 4493 O 415.543 -1.42823 -0.997362 0
M  V30 4494 C 412.675 -2.85784 -1.8585 0
M  V30 4495 H 413.868 -2.99848 -0.0557743 0
M  V30 4496 H 411.421 -1.56298 0.0084422 0
M  V30 4497 H 412.156 -2.10453 -2.46739 0
M  V30 4498 H 411.941 -3.61057 -1.52907 0
M  V30 4499 H 413.431 -3.35553 -2.48584 0
M  V30 4500 N 413.868 0.0150385 -1.57593 0
M  V30 4501 C 415.098 0.713359 -1.93894 0
M  V30 4502 C 415.506 1.68663 -0.857289 0
M  V30 4503 O 414.849 1.82876 0.173788 0
M  V30 4504 C 414.911 1.51348 -3.26089 0
M  V30 4505 C 414.575 0.703451 -4.51554 0
M  V30 4506 C 415.572 -0.00237924 -5.199 0
M  V30 4507 C 413.257 0.653854 -4.98026 0
M  V30 4508 C 415.251 -0.746955 -6.33008 0
M  V30 4509 C 412.938 -0.0944578 -6.11027 0
M  V30 4510 C 413.936 -0.793609 -6.78374 0
M  V30 4511 O 413.624 -1.52974 -7.89211 0
M  V30 4512 H 413.356 0.204637 -0.644282 0
M  V30 4513 H 415.91 -0.0276411 -2.05381 0
M  V30 4514 H 414.14 2.29862 -3.10967 0
M  V30 4515 H 415.829 2.09572 -3.47612 0
M  V30 4516 H 416.595 0.0268803 -4.84993 0
M  V30 4517 H 412.474 1.18756 -4.45441 0
M  V30 4518 H 416.018 -1.2932 -6.85509 0
M  V30 4519 H 411.915 -0.125591 -6.45378 0
M  V30 4520 H 412.683 -1.44488 -8.05646 0
M  V30 4521 N 415.346 1.54954 0.287554 0
M  V30 4522 C 416.574 1.78881 1.03967 0
M  V30 4523 C 416.989 0.554894 1.80462 0
M  V30 4524 O 416.346 -0.475676 1.76192 0
M  V30 4525 C 416.397 3.00488 2.0097 0
M  V30 4526 O 416.118 4.19113 1.27577 0
M  V30 4527 C 417.619 3.36907 2.88112 0
M  V30 4528 H 414.839 0.596259 0.307761 0
M  V30 4529 H 417.383 2.01937 0.322749 0
M  V30 4530 H 415.538 2.79601 2.68145 0
M  V30 4531 H 415.952 4.87765 1.92835 0
M  V30 4532 H 417.426 4.25205 3.52001 0
M  V30 4533 H 417.903 2.55659 3.57121 0
M  V30 4534 H 418.509 3.60001 2.26449 0
M  V30 4535 N 416.824 -0.551391 1.4764 0
M  V30 4536 C 417.734 -1.68525 1.63207 0
M  V30 4537 C 418.75 -1.6621 0.514815 0
M  V30 4538 O 419.926 -1.85551 0.783113 0
M  V30 4539 C 416.991 -3.05025 1.64805 0
M  V30 4540 C 416.052 -3.18362 2.88 0
M  V30 4541 C 415.285 -4.4835 2.89513 0
M  V30 4542 O 415.508 -5.34163 2.00065 0
M  V30 4543 O 414.442 -4.65602 3.81443 0
M  V30 4544 H 418.268 -1.58333 2.59161 0
M  V30 4545 H 415.853 -0.722063 1.30792 0
M  V30 4546 H 417.735 -3.86245 1.68502 0
M  V30 4547 H 416.41 -3.15587 0.720197 0
M  V30 4548 H 415.317 -2.36518 2.89845 0
M  V30 4549 H 416.65 -3.12707 3.80099 0
M  V30 4550 N 418.302 -1.35869 -0.798587 0
M  V30 4551 C 419.55 -1.29332 -1.55298 0
M  V30 4552 C 419.871 0.129729 -1.94568 0
M  V30 4553 O 419.141 1.06796 -1.6423 0
M  V30 4554 H 417.721 -0.475737 -0.57592 0
M  V30 4555 H 420.383 -1.70062 -0.952093 0
M  V30 4556 H 419.479 -1.91458 -2.46476 0
M  V30 4557 N 419.78 1.02168 -1.19998 0
M  V30 4558 C 421.01 1.79036 -1.031 0
M  V30 4559 C 421.418 1.84409 0.423078 0
M  V30 4560 O 420.761 1.29228 1.30559 0
M  V30 4561 C 420.823 3.25185 -1.53281 0
M  V30 4562 C 420.487 3.43431 -3.01503 0
M  V30 4563 C 421.484 3.33063 -3.99206 0
M  V30 4564 C 419.169 3.69412 -3.40353 0
M  V30 4565 C 421.163 3.48413 -5.33748 0
M  V30 4566 C 418.85 3.84406 -4.75053 0
M  V30 4567 C 419.848 3.7391 -5.71559 0
M  V30 4568 O 419.536 3.88452 -7.03818 0
M  V30 4569 H 419.268 0.570043 -0.363355 0
M  V30 4570 H 421.822 1.29524 -1.59414 0
M  V30 4571 H 420.052 3.75756 -0.913483 0
M  V30 4572 H 421.741 3.83671 -1.32481 0
M  V30 4573 H 422.507 3.12934 -3.70537 0
M  V30 4574 H 418.386 3.76671 -2.65782 0
M  V30 4575 H 421.93 3.40137 -6.09059 0
M  V30 4576 H 417.827 4.04035 -5.03415 0
M  V30 4577 H 418.595 4.055 -7.10993 0
M  V30 4578 N 421.258 1.00505 1.21394 0
M  V30 4579 C 422.205 0.565496 2.23765 0
M  V30 4580 C 423.175 -0.408466 1.60999 0
M  V30 4581 O 424.36 -0.310503 1.88257 0
M  V30 4582 C 421.5 -0.101667 3.4495 0
M  V30 4583 C 420.613 0.915479 4.22188 0
M  V30 4584 C 419.748 0.220574 5.30742 0
M  V30 4585 C 418.787 1.22527 5.99711 0
M  V30 4586 N 417.924 0.557831 6.9988 0
M  V30 4587 H 422.764 1.44314 2.60725 0
M  V30 4588 H 420.301 0.722643 1.28126 0
M  V30 4589 H 422.259 -0.505504 4.14126 0
M  V30 4590 H 420.889 -0.94303 3.08718 0
M  V30 4591 H 419.941 1.43756 3.52191 0
M  V30 4592 H 421.253 1.68005 4.69655 0
M  V30 4593 H 420.407 -0.239368 6.06228 0
M  V30 4594 H 419.146 -0.576401 4.84282 0
M  V30 4595 H 418.151 1.69571 5.22997 0
M  V30 4596 H 419.376 2.02332 6.48258 0
M  V30 4597 H 417.322 -0.219486 6.55633 0
M  V30 4598 H 417.239 1.26065 7.45415 0
M  V30 4599 H 418.507 0.121095 7.79406 0
M  V30 4600 N 422.737 -1.36956 0.779787 0
M  V30 4601 C 423.983 -1.99787 0.348281 0
M  V30 4602 C 424.316 -1.61756 -1.07465 0
M  V30 4603 O 423.591 -0.867639 -1.74075 0
M  V30 4604 C 423.874 -3.56597 0.50104 0
M  V30 4605 C 423.727 -4.04513 1.96697 0
M  V30 4606 C 425.046 -4.40008 -0.0898097 0
M  V30 4607 H 422.165 -0.725796 0.128022 0
M  V30 4608 H 424.807 -1.62514 0.984331 0
M  V30 4609 H 422.957 -3.88479 -0.0404347 0
M  V30 4610 H 424.629 -3.83161 2.56876 0
M  V30 4611 H 422.872 -3.56408 2.47297 0
M  V30 4612 H 423.543 -5.1352 2.02486 0
M  V30 4613 H 426.019 -4.14431 0.372293 0
M  V30 4614 H 424.895 -5.4888 0.0471605 0
M  V30 4615 H 425.156 -4.26035 -1.18096 0
M  V30 4616 N 424.215 -0.530993 -1.48385 0
M  V30 4617 C 425.464 0.00474348 -2.01699 0
M  V30 4618 C 425.777 1.35227 -1.41325 0
M  V30 4619 O 426.983 1.97643 -1.86144 0
M  V30 4620 C 425.439 0.0588473 -3.59852 0
M  V30 4621 C 425.047 -1.28385 -4.2921 0
M  V30 4622 C 426.791 0.543358 -4.21008 0
M  V30 4623 C 424.698 -1.19028 -5.79298 0
M  V30 4624 H 423.628 0.00554317 -0.75398 0
M  V30 4625 H 426.279 -0.674924 -1.70637 0
M  V30 4626 H 424.661 0.803612 -3.8776 0
M  V30 4627 H 425.835 -2.04426 -4.12973 0
M  V30 4628 H 424.15 -1.70418 -3.7993 0
M  V30 4629 H 426.747 0.631351 -5.3096 0
M  V30 4630 H 427.09 1.54937 -3.86394 0
M  V30 4631 H 427.623 -0.145754 -3.97533 0
M  V30 4632 H 424.362 -2.17147 -6.18488 0
M  V30 4633 H 423.882 -0.471246 -5.97946 0
M  V30 4634 H 425.561 -0.881365 -6.40969 0
M  V30 4635 N 425.693 1.55336 -0.266172 0
M  V30 4636 C 426.921 2.03801 0.356756 0
M  V30 4637 C 427.336 1.14485 1.50129 0
M  V30 4638 O 426.693 0.163121 1.8177 0
M  V30 4639 C 426.744 3.51455 0.846281 0
M  V30 4640 O 426.465 4.37371 -0.252663 0
M  V30 4641 C 427.966 4.15767 1.53794 0
M  V30 4642 H 425.186 0.665906 0.0825218 0
M  V30 4643 H 427.73 2.00636 -0.39566 0
M  V30 4644 H 425.885 3.55092 1.54881 0
M  V30 4645 H 426.299 5.24358 0.122173 0
M  V30 4646 H 427.773 5.20714 1.83198 0
M  V30 4647 H 428.25 3.63404 2.46646 0
M  V30 4648 H 428.856 4.16107 0.879488 0
M  V30 4649 N 427.171 -0.0066808 1.57599 0
M  V30 4650 C 428.399 -0.704087 1.94551 0
M  V30 4651 C 428.814 -1.67677 0.867746 0
M  V30 4652 O 428.171 -1.8185 -0.153925 0
M  V30 4653 C 428.222 -1.44177 3.31505 0
M  V30 4654 O 427.943 -0.508097 4.35144 0
M  V30 4655 C 429.444 -2.23429 3.82876 0
M  V30 4656 H 426.664 -0.196523 0.641576 0
M  V30 4657 H 429.208 0.042453 2.04456 0
M  V30 4658 H 427.363 -2.13999 3.22929 0
M  V30 4659 H 427.777 -1.02782 5.14331 0
M  V30 4660 H 429.251 -2.70552 4.8115 0
M  V30 4661 H 429.728 -3.05818 3.15233 0
M  V30 4662 H 430.334 -1.58636 3.94607 0
M  V30 4663 N 428.649 -1.55105 -0.279332 0
M  V30 4664 C 429.895 -1.75672 -1.01327 0
M  V30 4665 C 430.228 -0.552739 -1.86168 0
M  V30 4666 O 429.503 0.449827 -1.89227 0
M  V30 4667 C 429.786 -3.05825 -1.90114 0
M  V30 4668 C 429.639 -4.36565 -1.08309 0
M  V30 4669 C 430.958 -3.31975 -2.8893 0
M  V30 4670 H 428.077 -0.639149 -0.366957 0
M  V30 4671 H 430.719 -1.87833 -0.286154 0
M  V30 4672 H 428.869 -2.95588 -2.52111 0
M  V30 4673 H 430.541 -4.58751 -0.484314 0
M  V30 4674 H 428.784 -4.32076 -0.386362 0
M  V30 4675 H 429.455 -5.23946 -1.73737 0
M  V30 4676 H 431.931 -3.41963 -2.37067 0
M  V30 4677 H 430.807 -4.2432 -3.48201 0
M  V30 4678 H 431.068 -2.51309 -3.63725 0
M  V30 4679 N 430.127 0.543554 -1.4793 0
M  V30 4680 C 431.543 0.870806 -1.3375 0
M  V30 4681 C 431.743 1.9864 -0.338261 0
M  V30 4682 O 430.799 2.51305 0.245371 0
M  V30 4683 C 432.112 1.25114 -2.73435 0
M  V30 4684 C 433.66 1.3618 -2.81823 0
M  V30 4685 C 434.135 1.77563 -4.22179 0
M  V30 4686 N 435.626 1.8469 -4.24787 0
M  V30 4687 C 436.361 2.18067 -5.30315 0
M  V30 4688 N 435.857 2.49963 -6.46135 0
M  V30 4689 N 437.65 2.18958 -5.17701 0
M  V30 4690 H 429.801 -0.19275 -2.11524 0
M  V30 4691 H 432.064 -0.0235777 -0.947707 0
M  V30 4692 H 431.77 0.50514 -3.48053 0
M  V30 4693 H 431.644 2.20431 -3.06088 0
M  V30 4694 H 434.031 2.09859 -2.07468 0
M  V30 4695 H 434.112 0.390169 -2.52807 0
M  V30 4696 H 433.756 1.04449 -4.97044 0
M  V30 4697 H 433.686 2.75753 -4.48629 0
M  V30 4698 H 436.177 1.62372 -3.41239 0
M  V30 4699 H 436.49 2.74497 -7.22406 0
M  V30 4700 H 434.835 2.47513 -6.49432 0
M  V30 4701 H 438.026 1.93488 -4.2624 0
M  V30 4702 H 438.199 2.44639 -6.00047 0
M  V30 4703 N 431.605 1.3629 0.791371 0
M  V30 4704 C 432.83 1.33726 1.58531 0
M  V30 4705 C 433.255 -0.0794933 1.87932 0
M  V30 4706 O 432.613 -1.05087 1.47738 0
M  V30 4707 C 432.661 2.16425 2.88431 0
M  V30 4708 O 431.765 1.5554 3.81944 0
M  V30 4709 H 431.106 0.457793 0.480959 0
M  V30 4710 H 433.636 1.79547 0.981031 0
M  V30 4711 H 433.646 2.28933 3.37718 0
M  V30 4712 H 432.321 3.19415 2.66359 0
M  V30 4713 H 430.898 1.51961 3.40532 0
M  V30 4714 N 433.083 -1.0153 1.20538 0
M  V30 4715 C 434.36 -1.72327 0.925343 0
M  V30 4716 C 434.74 -2.03383 -0.565547 0
M  V30 4717 O 434.088 -1.69934 -1.52757 0
M  V30 4718 C 434.298 -2.9902 1.79967 0
M  V30 4719 C 435.646 -3.72258 2.04228 0
M  V30 4720 O 436.67 -3.08979 1.77231 0
M  V30 4721 O 435.529 -4.86053 2.4983 0
M  V30 4722 H 432.623 -0.751099 0.346092 0
M  V30 4723 H 435.169 -1.07366 1.31417 0
M  V30 4724 H 433.941 -2.72402 2.80915 0
M  V30 4725 H 433.564 -3.71721 1.41099 0
M  V30 4726 N 434.561 -1.01147 -1.20859 0
M  V30 4727 C 435.491 -0.597663 -2.25722 0
M  V30 4728 C 436.472 0.384744 -1.65692 0
M  V30 4729 O 437.657 0.271303 -1.92296 0
M  V30 4730 C 434.787 0.0700149 -3.47229 0
M  V30 4731 C 433.741 -0.832843 -4.19819 0
M  V30 4732 C 433.067 -0.0312202 -5.34691 0
M  V30 4733 C 434.367 -2.1385 -4.76514 0
M  V30 4734 H 436.061 -1.47423 -2.60589 0
M  V30 4735 H 433.607 -0.710301 -1.25263 0
M  V30 4736 H 435.56 0.37103 -4.19763 0
M  V30 4737 H 434.284 0.981259 -3.11511 0
M  V30 4738 H 432.943 -1.11778 -3.49144 0
M  V30 4739 H 432.591 0.881515 -4.95215 0
M  V30 4740 H 432.291 -0.632434 -5.84187 0
M  V30 4741 H 433.815 0.26346 -6.10031 0
M  V30 4742 H 435.229 -1.9002 -5.40893 0
M  V30 4743 H 433.626 -2.69012 -5.36426 0
M  V30 4744 H 434.696 -2.80495 -3.95538 0
M  V30 4745 N 436.039 1.36541 -0.78704 0
M  V30 4746 C 436.971 2.28761 -0.141773 0
M  V30 4747 C 437.984 1.49365 0.647599 0
M  V30 4748 O 439.173 1.71836 0.483173 0
M  V30 4749 C 436.273 3.28771 0.822368 0
M  V30 4750 C 435.446 4.3732 0.0835594 0
M  V30 4751 C 434.505 5.17307 0.963296 0
M  V30 4752 O 433.531 5.67638 0.421419 0
M  V30 4753 N 434.733 5.33515 2.28784 0
M  V30 4754 H 437.498 2.84777 -0.933919 0
M  V30 4755 H 435.059 1.48682 -0.640735 0
M  V30 4756 H 437.051 3.79169 1.41468 0
M  V30 4757 H 435.621 2.73412 1.5154 0
M  V30 4758 H 434.841 3.88118 -0.689809 0
M  V30 4759 H 436.129 5.0701 -0.426358 0
M  V30 4760 H 435.527 4.94234 2.75226 0
M  V30 4761 H 434.084 5.87165 2.82985 0
M  V30 4762 N 437.518 0.538854 1.48102 0
M  V30 4763 C 438.466 -0.232325 2.31437 0
M  V30 4764 C 439.46 -0.927004 1.41785 0
M  V30 4765 O 440.666 -0.850378 1.58646 0
M  V30 4766 H 437.041 -0.0937916 0.746128 0
M  V30 4767 H 439.012 0.489986 2.9435 0
M  V30 4768 C 437.761 -1.26074 3.24038 0
M  V30 4769 H 437.084 -0.735609 3.92974 0
M  V30 4770 H 438.524 -1.77157 3.85216 0
M  V30 4771 C 436.983 -2.29902 2.46265 0
M  V30 4772 O 437.513 -3.36502 2.19384 0
M  V30 4773 N 435.719 -2.03348 2.07601 0
M  V30 4774 H 435.266 -1.16675 2.29662 0
M  V30 4775 H 435.224 -2.73038 1.55877 0
M  V30 4776 N 438.996 -1.55193 0.274407 0
M  V30 4777 C 439.959 -2.212 -0.600279 0
M  V30 4778 C 440.959 -1.18963 -1.08187 0
M  V30 4779 O 442.149 -1.43873 -0.982158 0
M  V30 4780 C 439.281 -2.87739 -1.82809 0
M  V30 4781 H 440.474 -2.9989 -0.0239682 0
M  V30 4782 H 438.027 -1.5628 0.0250192 0
M  V30 4783 H 438.762 -2.13058 -2.44493 0
M  V30 4784 H 438.547 -3.62658 -1.49069 0
M  V30 4785 H 440.037 -3.38171 -2.45011 0
M  V30 4786 N 440.474 -0.00167713 -1.576 0
M  V30 4787 C 441.437 0.974046 -2.07473 0
M  V30 4788 C 442.437 1.27143 -0.984444 0
M  V30 4789 O 443.627 1.21633 -1.24703 0
M  V30 4790 C 440.759 2.29849 -2.51759 0
M  V30 4791 H 441.952 0.54262 -2.9495 0
M  V30 4792 H 439.505 0.245829 -1.54355 0
M  V30 4793 H 440.24 2.77677 -1.67529 0
M  V30 4794 H 440.025 2.09584 -3.31386 0
M  V30 4795 H 441.515 2.9984 -2.90664 0
M  V30 4796 N 441.952 1.55251 0.271103 0
M  V30 4797 C 443.177 1.80306 1.02491 0
M  V30 4798 C 443.602 0.575457 1.79081 0
M  V30 4799 O 442.96 -0.474987 1.74967 0
M  V30 4800 C 443.008 3.02832 1.95768 0
M  V30 4801 O 442.112 2.78051 3.04568 0
M  V30 4802 H 441.453 0.595896 0.292923 0
M  V30 4803 H 443.983 2.02397 0.299436 0
M  V30 4804 H 443.993 3.31616 2.37686 0
M  V30 4805 H 442.668 3.9183 1.39434 0
M  V30 4806 H 441.245 2.60369 2.66951 0
M  V30 4807 N 443.43 -0.535701 1.48216 0
M  V30 4808 C 444.362 -1.65662 1.58394 0
M  V30 4809 C 445.375 -1.5591 0.468607 0
M  V30 4810 O 446.564 -1.62475 0.7392 0
M  V30 4811 C 443.664 -3.04276 1.4923 0
M  V30 4812 C 442.837 -3.39567 2.75705 0
M  V30 4813 C 441.896 -4.57436 2.60075 0
M  V30 4814 O 440.922 -4.60942 3.33948 0
M  V30 4815 N 442.124 -5.55259 1.69315 0
M  V30 4816 H 444.889 -1.5737 2.55058 0
M  V30 4817 H 442.45 -0.722845 1.44867 0
M  V30 4818 H 444.442 -3.80994 1.36477 0
M  V30 4819 H 443.012 -3.06677 0.605632 0
M  V30 4820 H 442.232 -2.52083 3.03064 0
M  V30 4821 H 443.52 -3.59929 3.59623 0
M  V30 4822 H 442.918 -5.552 1.08489 0
M  V30 4823 H 441.475 -6.31218 1.62504 0
M  V30 4824 N 444.908 -1.36708 -0.784132 0
M  V30 4825 C 446.133 -1.34565 -1.5782 0
M  V30 4826 C 446.558 0.0695257 -1.87971 0
M  V30 4827 O 445.916 1.04302 -1.48293 0
M  V30 4828 C 445.964 -2.17952 -2.87279 0
M  V30 4829 O 445.068 -1.57563 -3.81114 0
M  V30 4830 H 444.409 -0.460337 -0.478524 0
M  V30 4831 H 446.939 -1.80064 -0.971495 0
M  V30 4832 H 446.949 -2.30721 -3.365 0
M  V30 4833 H 445.624 -3.20823 -2.64661 0
M  V30 4834 H 444.201 -1.53764 -3.39722 0
M  V30 4835 N 446.386 1.0089 -1.21074 0
M  V30 4836 C 447.632 1.74866 -1.02712 0
M  V30 4837 C 447.965 1.89178 0.438787 0
M  V30 4838 O 447.24 1.42325 1.32567 0
M  V30 4839 C 447.523 3.16347 -1.72036 0
M  V30 4840 C 447.376 3.09782 -3.26121 0
M  V30 4841 C 448.695 4.15187 -1.45973 0
M  V30 4842 H 445.814 0.634736 -0.374539 0
M  V30 4843 H 448.456 1.17646 -1.49196 0
M  V30 4844 H 446.606 3.65201 -1.32517 0
M  V30 4845 H 448.278 2.68673 -3.74983 0
M  V30 4846 H 446.521 2.46982 -3.56626 0
M  V30 4847 H 447.192 4.09829 -3.6979 0
M  V30 4848 H 449.668 3.75022 -1.80272 0
M  V30 4849 H 448.544 5.12331 -1.96999 0
M  V30 4850 H 448.805 4.40386 -0.388924 0
M  V30 4851 N 447.864 1.01787 1.20321 0
M  V30 4852 C 449.28 0.732951 1.41774 0
M  V30 4853 C 449.48 -0.686883 1.89431 0
M  V30 4854 O 448.536 -1.45446 2.06402 0
M  V30 4855 C 449.849 1.75973 2.43832 0
M  V30 4856 C 451.397 1.77802 2.57596 0
M  V30 4857 C 451.872 2.7941 3.62897 0
M  V30 4858 N 453.363 2.78157 3.70382 0
M  V30 4859 C 454.098 3.53434 4.51521 0
M  V30 4860 N 453.594 4.38392 5.36455 0
M  V30 4861 N 455.387 3.42026 4.46066 0
M  V30 4862 H 447.538 1.93447 0.877035 0
M  V30 4863 H 449.801 0.835712 0.447536 0
M  V30 4864 H 449.507 2.77699 2.15815 0
M  V30 4865 H 449.381 1.57292 3.4284 0
M  V30 4866 H 451.768 0.767602 2.84942 0
M  V30 4867 H 451.849 2.00557 1.58779 0
M  V30 4868 H 451.493 3.80616 3.36295 0
M  V30 4869 H 451.423 2.53916 4.61339 0
M  V30 4870 H 453.914 2.16531 3.09714 0
M  V30 4871 H 454.227 4.92596 5.95457 0
M  V30 4872 H 452.572 4.4247 5.35953 0
M  V30 4873 H 455.763 2.75075 3.78749 0
M  V30 4874 H 455.936 4.00946 5.09064 0
M  V30 4875 N 449.342 -1.36122 0.79427 0
M  V30 4876 C 450.619 -1.93398 0.292685 0
M  V30 4877 C 450.999 -1.72567 -1.21589 0
M  V30 4878 O 450.347 -1.08745 -2.00965 0
M  V30 4879 C 450.557 -3.42099 0.690614 0
M  V30 4880 C 451.905 -4.19231 0.673105 0
M  V30 4881 O 452.929 -3.50559 0.631389 0
M  V30 4882 O 451.788 -5.41732 0.720362 0
M  V30 4883 H 448.882 -0.823712 0.0736693 0
M  V30 4884 H 451.428 -1.45273 0.87714 0
M  V30 4885 H 450.2 -3.50938 1.73085 0
M  V30 4886 H 449.823 -3.97519 0.0803036 0
M  V30 4887 N 450.82 -0.546701 -1.47814 0
M  V30 4888 C 452.068 -0.0187037 -2.02091 0
M  V30 4889 C 452.389 1.33168 -1.42447 0
M  V30 4890 O 451.659 1.86619 -0.595839 0
M  V30 4891 H 450.239 -0.00392531 -0.74699 0
M  V30 4892 H 452.901 -0.714327 -1.81338 0
M  V30 4893 H 451.997 0.0772219 -3.12004 0
M  V30 4894 N 452.299 1.55045 -0.282633 0
M  V30 4895 C 453.229 2.2579 0.595066 0
M  V30 4896 C 454.21 1.25074 1.15284 0
M  V30 4897 O 455.395 1.5381 1.18559 0
M  V30 4898 C 452.525 2.98472 1.77572 0
M  V30 4899 C 451.479 4.0618 1.34914 0
M  V30 4900 C 450.805 4.66477 2.6135 0
M  V30 4901 C 452.105 5.1996 0.493821 0
M  V30 4902 H 453.799 2.994 0.00505653 0
M  V30 4903 H 451.345 1.44 0.000992001 0
M  V30 4904 H 453.298 3.46677 2.39568 0
M  V30 4905 H 452.022 2.2241 2.39168 0
M  V30 4906 H 450.681 3.58797 0.752338 0
M  V30 4907 H 450.329 3.87074 3.2122 0
M  V30 4908 H 450.029 5.39207 2.33516 0
M  V30 4909 H 451.553 5.17435 3.24181 0
M  V30 4910 H 452.967 5.64172 1.01898 0
M  V30 4911 H 451.364 5.99299 0.310047 0
M  V30 4912 H 452.434 4.82462 -0.485593 0
M  V30 4913 N 453.777 0.010035 1.57597 0
M  V30 4914 C 455.026 -0.671945 1.90178 0
M  V30 4915 C 455.339 -1.74376 0.886131 0
M  V30 4916 O 456.545 -2.48107 1.10252 0
M  V30 4917 C 455.001 -1.24636 3.3763 0
M  V30 4918 C 454.609 -0.208838 4.47513 0
M  V30 4919 C 456.353 -1.90595 3.79307 0
M  V30 4920 C 454.26 -0.793814 5.86048 0
M  V30 4921 H 453.19 -0.25474 0.709665 0
M  V30 4922 H 455.841 0.0722206 1.83358 0
M  V30 4923 H 454.223 -2.04152 3.3932 0
M  V30 4924 H 455.397 0.562463 4.57354 0
M  V30 4925 H 453.712 0.350889 4.14919 0
M  V30 4926 H 456.309 -2.35284 4.80151 0
M  V30 4927 H 456.652 -2.74074 3.13352 0
M  V30 4928 H 457.185 -1.17798 3.79958 0
M  V30 4929 H 453.924 0.00240855 6.555 0
M  V30 4930 H 453.444 -1.53404 5.79851 0
M  V30 4931 H 455.123 -1.2894 6.34022 0
M  V30 4932 N 455.255 -1.55392 -0.262866 0
M  V30 4933 C 456.532 -1.67204 -1.01499 0
M  V30 4934 C 456.912 -0.545186 -2.03939 0
M  V30 4935 O 456.26 0.453467 -2.23955 0
M  V30 4936 C 456.47 -3.06847 -1.6627 0
M  V30 4937 C 457.818 -3.64928 -2.17054 0
M  V30 4938 O 458.842 -3.09545 -1.76239 0
M  V30 4939 O 457.701 -4.61984 -2.91947 0
M  V30 4940 H 454.795 -0.679467 -0.471438 0
M  V30 4941 H 457.341 -1.67729 -0.257918 0
M  V30 4942 H 456.113 -3.80309 -0.920915 0
M  V30 4943 H 455.736 -3.10266 -2.48638 0
M  V30 4944 N 456.733 0.527833 -1.48498 0
M  V30 4945 C 457.963 1.30633 -1.60058 0
M  V30 4946 C 458.371 1.87394 -0.260786 0
M  V30 4947 O 457.714 1.67227 0.760317 0
M  V30 4948 C 457.776 2.49361 -2.58958 0
M  V30 4949 C 457.44 2.13671 -4.03972 0
M  V30 4950 C 458.437 1.69217 -4.91591 0
M  V30 4951 C 456.122 2.24129 -4.49524 0
M  V30 4952 C 458.116 1.35689 -6.2279 0
M  V30 4953 C 455.803 1.90212 -5.80743 0
M  V30 4954 C 456.801 1.46063 -6.67199 0
M  V30 4955 O 456.489 1.12593 -7.95976 0
M  V30 4956 H 456.221 0.403444 -0.54241 0
M  V30 4957 H 458.775 0.643233 -1.95068 0
M  V30 4958 H 457.005 3.18659 -2.19073 0
M  V30 4959 H 458.694 3.11421 -2.6033 0
M  V30 4960 H 459.46 1.60607 -4.57636 0
M  V30 4961 H 455.339 2.57447 -3.82416 0
M  V30 4962 H 458.883 1.01157 -6.90227 0
M  V30 4963 H 454.78 1.98464 -6.14233 0
M  V30 4964 H 455.548 1.25972 -8.08748 0
M  V30 4965 N 458.211 1.37122 0.776871 0
M  V30 4966 C 459.488 1.22586 1.52421 0
M  V30 4967 C 459.868 -0.182726 2.10308 0
M  V30 4968 O 459.216 -1.18979 1.9508 0
M  V30 4969 C 459.426 2.31782 2.60918 0
M  V30 4970 C 460.774 2.69071 3.2846 0
M  V30 4971 O 461.798 2.3092 2.71209 0
M  V30 4972 O 460.657 3.3478 4.31954 0
M  V30 4973 H 457.751 0.478045 0.674835 0
M  V30 4974 H 460.297 1.48888 0.814275 0
M  V30 4975 H 459.069 3.26131 2.16227 0
M  V30 4976 H 458.692 2.06916 3.39517 0
M  V30 4977 N 459.689 -1.00246 1.21608 0
M  V30 4978 C 460.621 -2.09244 0.935401 0
M  V30 4979 C 461.634 -1.62592 -0.0823594 0
M  V30 4980 O 462.823 -1.77865 0.150456 0
M  V30 4981 C 459.923 -3.36724 0.383453 0
M  V30 4982 C 459.096 -4.1245 1.45615 0
M  V30 4983 C 458.155 -5.18219 0.912991 0
M  V30 4984 O 457.181 -5.46337 1.59701 0
M  V30 4985 N 458.383 -5.7987 -0.270478 0
M  V30 4986 H 461.148 -2.33905 1.87373 0
M  V30 4987 H 458.709 -1.16748 1.12167 0
M  V30 4988 H 460.701 -4.047 0.00562157 0
M  V30 4989 H 459.271 -3.09201 -0.459758 0
M  V30 4990 H 458.491 -3.39241 2.00772 0
M  V30 4991 H 459.779 -4.59819 2.17817 0
M  V30 4992 H 459.177 -5.59381 -0.843195 0
M  V30 4993 H 457.734 -6.49126 -0.589794 0
M  V30 4994 N 461.167 -1.02423 -1.1978 0
M  V30 4995 C 462.583 -0.740459 -1.41384 0
M  V30 4996 C 462.783 0.676827 -1.89793 0
M  V30 4997 O 461.839 1.4435 -2.0717 0
M  V30 4998 C 463.152 -1.77264 -2.42895 0
M  V30 4999 C 464.7 -1.79165 -2.56649 0
M  V30 5000 C 465.175 -2.8133 -3.6141 0
M  V30 5001 N 466.666 -2.80118 -3.68901 0
M  V30 5002 C 467.401 -3.55824 -4.49641 0
M  V30 5003 N 466.897 -4.41231 -5.34123 0
M  V30 5004 N 468.69 -3.44387 -4.44246 0
M  V30 5005 H 460.841 -1.9391 -0.866764 0
M  V30 5006 H 463.104 -0.838074 -0.443098 0
M  V30 5007 H 462.81 -2.7884 -2.14339 0
M  V30 5008 H 462.684 -1.59108 -3.42001 0
M  V30 5009 H 465.071 -0.782702 -2.84531 0
M  V30 5010 H 465.152 -2.01396 -1.57713 0
M  V30 5011 H 464.796 -3.82394 -3.34271 0
M  V30 5012 H 464.726 -2.56359 -4.59986 0
M  V30 5013 H 467.217 -2.1817 -3.08562 0
M  V30 5014 H 467.53 -4.95747 -5.92836 0
M  V30 5015 H 465.875 -4.45306 -5.33599 0
M  V30 5016 H 469.066 -2.7708 -3.77285 0
M  V30 5017 H 469.239 -4.0364 -5.06931 0
M  V30 5018 N 462.645 1.35699 -0.801477 0
M  V30 5019 C 463.595 2.2728 -0.181073 0
M  V30 5020 C 464.579 1.47533 0.642098 0
M  V30 5021 O 465.771 1.69785 0.500193 0
M  V30 5022 C 462.9 3.36626 0.673612 0
M  V30 5023 C 461.986 4.23802 -0.159008 0
M  V30 5024 N 462.377 4.90879 -1.2195 0
M  V30 5025 C 460.675 4.45959 0.0602005 0
M  V30 5026 C 461.376 5.5546 -1.72738 0
M  V30 5027 N 460.352 5.33663 -1.03465 0
M  V30 5028 H 464.154 2.76632 -0.992582 0
M  V30 5029 H 461.668 1.49166 -0.642127 0
M  V30 5030 H 463.665 4.01179 1.13408 0
M  V30 5031 H 462.325 2.88828 1.48353 0
M  V30 5032 H 463.336 4.92497 -1.60209 0
M  V30 5033 H 460.013 4.08969 0.839664 0
M  V30 5034 H 461.403 6.18991 -2.61342 0
M  V30 5035 N 464.123 0.554532 1.47522 0
M  V30 5036 C 465.371 0.0294208 2.02079 0
M  V30 5037 C 465.692 -1.32411 1.43151 0
M  V30 5038 O 464.962 -1.863 0.605728 0
M  V30 5039 H 463.542 0.00788672 0.746958 0
M  V30 5040 H 466.204 0.723934 1.80956 0
M  V30 5041 H 465.3 -0.0606745 3.12041 0
M  V30 5042 N 465.601 -1.54893 0.290851 0
M  V30 5043 C 466.831 -2.04047 -0.323818 0
M  V30 5044 C 467.239 -1.16809 -1.48837 0
M  V30 5045 O 466.582 -0.184145 -1.82775 0
M  V30 5046 C 466.644 -3.49248 -0.852395 0
M  V30 5047 C 466.308 -4.56623 0.185557 0
M  V30 5048 C 467.305 -5.09985 1.01053 0
M  V30 5049 C 464.99 -5.01252 0.324332 0
M  V30 5050 C 466.984 -6.06507 1.96031 0
M  V30 5051 C 464.671 -5.97596 1.27757 0
M  V30 5052 C 465.669 -6.50107 2.09405 0
M  V30 5053 O 465.357 -7.44565 3.03114 0
M  V30 5054 H 465.089 -0.671735 -0.0758129 0
M  V30 5055 H 467.643 -2.00947 0.425393 0
M  V30 5056 H 465.873 -3.49639 -1.65195 0
M  V30 5057 H 467.562 -3.81654 -1.38185 0
M  V30 5058 H 468.328 -4.76307 0.914129 0
M  V30 5059 H 464.207 -4.60015 -0.301213 0
M  V30 5060 H 467.751 -6.47418 2.598 0
M  V30 5061 H 463.648 -6.30691 1.37473 0
M  V30 5062 H 464.416 -7.62334 2.97976 0
M  V30 5063 N 467.08 -0.0183926 -1.57589 0
M  V30 5064 C 468.496 0.337897 -1.55982 0
M  V30 5065 C 468.696 1.73604 -1.02294 0
M  V30 5066 O 467.752 2.43589 -0.664895 0
M  V30 5067 C 469.065 0.196305 -3.00059 0
M  V30 5068 C 470.613 0.269875 -3.11834 0
M  V30 5069 C 471.088 0.157197 -4.5773 0
M  V30 5070 N 472.579 0.214521 -4.62703 0
M  V30 5071 C 473.314 0.150955 -5.73201 0
M  V30 5072 N 472.81 0.0369212 -6.9279 0
M  V30 5073 N 474.603 0.204162 -5.61729 0
M  V30 5074 H 466.754 -0.93279 -1.90821 0
M  V30 5075 H 469.017 -0.359253 -0.877292 0
M  V30 5076 H 468.723 -0.766383 -3.43248 0
M  V30 5077 H 468.597 0.970908 -3.6449 0
M  V30 5078 H 470.984 1.22302 -2.68563 0
M  V30 5079 H 471.065 -0.534918 -2.50144 0
M  V30 5080 H 470.709 -0.792479 -5.01679 0
M  V30 5081 H 470.639 0.980717 -5.17387 0
M  V30 5082 H 473.13 0.303238 -3.76681 0
M  V30 5083 H 473.443 -0.00518321 -7.728 0
M  V30 5084 H 471.788 0.0022886 -6.95 0
M  V30 5085 H 474.979 0.291575 -4.67191 0
M  V30 5086 H 475.152 0.15116 -6.47824 0
M  V30 5087 N 468.558 1.5553 0.254621 0
M  V30 5088 C 469.806 1.7665 0.981793 0
M  V30 5089 C 470.127 0.580963 1.86145 0
M  V30 5090 O 469.397 -0.403537 1.91699 0
M  V30 5091 H 467.977 0.651475 0.365498 0
M  V30 5092 H 470.639 1.92958 0.274426 0
M  V30 5093 H 469.735 2.67486 1.60802 0
M  V30 5094 N 470.036 -0.519951 1.48776 0
M  V30 5095 C 471.447 -1.10177 1.50725 0
M  V30 5096 C 471.798 -1.94153 0.282678 0
M  V30 5097 O 470.923 -2.07645 -0.609298 0
M  V30 5098 C 471.518 -2.00482 2.73116 0
M  V30 5099 C 470.077 -2.53862 2.77905 0
M  V30 5100 C 469.224 -1.31047 2.44381 0
M  V30 5101 H 472.175 -0.30473 1.55747 0
M  V30 5102 H 472.196 -2.8491 2.52203 0
M  V30 5103 H 471.708 -1.39335 3.62225 0
M  V30 5104 H 469.809 -3.18702 1.93029 0
M  V30 5105 H 469.922 -2.9231 3.79594 0
M  V30 5106 H 468.286 -1.62953 1.95751 0
M  V30 5107 H 469.069 -0.71637 3.35743 0
M  V30 5108 N 471.514 -1.37532 -0.769588 0
M  V30 5109 C 472.424 -1.35668 -1.91393 0
M  V30 5110 C 473.44 -0.255954 -1.72107 0
M  V30 5111 O 474.616 -0.491704 -1.95305 0
M  V30 5112 C 471.681 -1.16481 -3.26547 0
M  V30 5113 C 470.742 -2.36212 -3.58472 0
M  V30 5114 C 469.975 -2.17932 -4.87177 0
M  V30 5115 O 470.198 -1.1647 -5.58382 0
M  V30 5116 O 469.132 -3.06167 -5.18214 0
M  V30 5117 H 472.958 -2.32055 -1.95918 0
M  V30 5118 H 470.543 -1.18284 -0.912641 0
M  V30 5119 H 472.425 -1.07778 -4.07384 0
M  V30 5120 H 471.1 -0.231687 -3.2287 0
M  V30 5121 H 470.007 -2.50488 -2.77861 0
M  V30 5122 H 471.34 -3.281 -3.66894 0
M  V30 5123 N 472.992 0.995999 -1.22138 0
M  V30 5124 C 474.22 1.77066 -1.07029 0
M  V30 5125 C 474.635 1.8495 0.379357 0
M  V30 5126 O 473.992 1.3174 1.26297 0
M  V30 5127 C 474.043 3.20533 -1.67155 0
M  V30 5128 O 473.764 3.13082 -3.06449 0
M  V30 5129 C 475.265 4.14461 -1.5728 0
M  V30 5130 H 472.485 0.556179 -0.375374 0
M  V30 5131 H 475.029 1.25238 -1.61666 0
M  V30 5132 H 473.184 3.6944 -1.16589 0
M  V30 5133 H 473.598 4.03283 -3.35355 0
M  V30 5134 H 475.072 5.1289 -2.04078 0
M  V30 5135 H 475.549 4.36005 -0.528795 0
M  V30 5136 H 476.155 3.71449 -2.07136 0
M  V30 5137 N 474.47 1.03057 1.19235 0
M  V30 5138 C 475.886 0.747947 1.40989 0
M  V30 5139 C 476.086 -0.666752 1.90149 0
M  V30 5140 O 475.142 -1.43249 2.07933 0
M  V30 5141 C 476.455 1.7855 2.41951 0
M  V30 5142 C 478.003 1.80524 2.55695 0
M  V30 5143 C 478.478 2.83243 3.59913 0
M  V30 5144 N 479.969 2.8207 3.67411 0
M  V30 5145 C 480.704 3.58204 4.47747 0
M  V30 5146 N 480.2 4.44057 5.31775 0
M  V30 5147 N 481.993 3.46738 4.42413 0
M  V30 5148 H 474.144 1.94367 0.856468 0
M  V30 5149 H 476.407 0.840412 0.438647 0
M  V30 5150 H 476.113 2.79973 2.12857 0
M  V30 5151 H 475.987 1.6092 3.41152 0
M  V30 5152 H 478.374 0.79778 2.84112 0
M  V30 5153 H 478.455 2.02229 1.56643 0
M  V30 5154 H 478.099 3.84161 3.32239 0
M  V30 5155 H 478.029 2.58795 4.5862 0
M  V30 5156 H 480.52 2.19803 3.074 0
M  V30 5157 H 480.833 4.98884 5.90199 0
M  V30 5158 H 479.178 4.48129 5.3123 0
M  V30 5159 H 482.369 2.79077 3.75811 0
M  V30 5160 H 482.542 4.06322 5.04783 0
M  V30 5161 N 475.948 -1.35272 0.808662 0
M  V30 5162 C 476.878 -2.32315 0.234981 0
M  V30 5163 C 477.859 -1.57572 -0.64071 0
M  V30 5164 O 479.044 -1.8563 -0.570551 0
M  V30 5165 C 476.174 -3.41801 -0.615601 0
M  V30 5166 C 475.128 -4.27694 0.161767 0
M  V30 5167 C 474.454 -5.28519 -0.810649 0
M  V30 5168 C 475.754 -5.04231 1.36193 0
M  V30 5169 H 477.448 -2.80543 1.04575 0
M  V30 5170 H 474.994 -1.3488 0.504315 0
M  V30 5171 H 476.947 -4.08693 -1.02702 0
M  V30 5172 H 475.671 -2.92186 -1.45928 0
M  V30 5173 H 474.33 -3.62384 0.554382 0
M  V30 5174 H 473.978 -4.75171 -1.64988 0
M  V30 5175 H 473.678 -5.8686 -0.294822 0
M  V30 5176 H 475.202 -5.98283 -1.22023 0
M  V30 5177 H 476.616 -5.64058 1.02528 0
M  V30 5178 H 475.013 -5.72077 1.81239 0
M  V30 5179 H 476.083 -4.34753 2.14751 0
M  V30 5180 N 477.426 -0.562348 -1.47226 0
M  V30 5181 C 478.837 -0.130325 -1.86245 0
M  V30 5182 C 479.188 1.30128 -1.46838 0
M  V30 5183 O 478.313 1.97974 -0.873805 0
M  V30 5184 C 478.908 -0.229738 -3.3802 0
M  V30 5185 C 477.467 0.14728 -3.76112 0
M  V30 5186 C 476.614 -0.574971 -2.71274 0
M  V30 5187 H 479.565 -0.771773 -1.3867 0
M  V30 5188 H 479.586 0.550316 -3.76499 0
M  V30 5189 H 479.098 -1.27178 -3.66671 0
M  V30 5190 H 477.199 1.19023 -3.53078 0
M  V30 5191 H 477.312 -0.214858 -4.78618 0
M  V30 5192 H 475.676 -0.0174756 -2.54694 0
M  V30 5193 H 476.459 -1.61827 -3.02766 0
M  V30 5194 N 478.904 1.54736 -0.299062 0
M  V30 5195 C 480.152 1.99706 0.31017 0
M  V30 5196 C 480.473 1.18896 1.54559 0
M  V30 5197 O 479.743 0.284445 1.93824 0
M  V30 5198 H 478.323 0.737686 0.117596 0
M  V30 5199 H 480.985 1.9054 -0.409943 0
M  V30 5200 H 480.081 3.06596 0.58355 0
M  V30 5201 N 480.382 0.0267497 1.57577 0
M  V30 5202 C 481.314 -0.984594 2.06974 0
M  V30 5203 C 482.327 -1.29032 0.992705 0
M  V30 5204 O 483.516 -1.25539 1.26895 0
M  V30 5205 C 480.616 -2.31262 2.47732 0
M  V30 5206 C 479.789 -2.1924 3.78487 0
M  V30 5207 C 478.848 -3.34956 4.05821 0
M  V30 5208 O 477.874 -3.11948 4.76106 0
M  V30 5209 N 479.076 -4.58672 3.55809 0
M  V30 5210 H 481.841 -0.563143 2.94362 0
M  V30 5211 H 479.402 -0.160061 1.61107 0
M  V30 5212 H 481.394 -3.07496 2.63112 0
M  V30 5213 H 479.964 -2.65056 1.65723 0
M  V30 5214 H 479.184 -1.27747 3.72927 0
M  V30 5215 H 480.472 -2.08409 4.64158 0
M  V30 5216 H 479.87 -4.8026 2.98942 0
M  V30 5217 H 478.427 -5.32083 3.76472 0
M  V30 5218 N 481.861 -1.55662 -0.24637 0
M  V30 5219 C 483.089 -1.81575 -0.991876 0
M  V30 5220 C 483.504 -0.602545 -1.78927 0
M  V30 5221 O 482.861 0.428795 -1.77391 0
M  V30 5222 C 482.912 -3.05711 -1.92933 0
M  V30 5223 O 482.633 -4.22348 -1.1642 0
M  V30 5224 C 484.134 -3.44428 -2.79078 0
M  V30 5225 H 481.354 -0.604209 -0.291844 0
M  V30 5226 H 483.898 -2.02722 -0.269095 0
M  V30 5227 H 482.053 -2.86612 -2.60638 0
M  V30 5228 H 482.467 -4.92706 -1.79835 0
M  V30 5229 H 483.941 -4.34388 -3.40603 0
M  V30 5230 H 484.418 -2.65037 -3.50217 0
M  V30 5231 H 485.024 -3.65879 -2.16824 0
M  V30 5232 N 483.339 0.512053 -1.4905 0
M  V30 5233 C 484.755 0.84224 -1.35567 0
M  V30 5234 C 484.955 1.97878 -0.380319 0
M  V30 5235 O 484.011 2.51769 0.19201 0
M  V30 5236 C 485.324 1.19286 -2.76028 0
M  V30 5237 C 486.872 1.30171 -2.84648 0
M  V30 5238 C 487.347 1.68568 -4.25851 0
M  V30 5239 N 488.838 1.75638 -4.28609 0
M  V30 5240 C 489.573 2.06769 -5.34821 0
M  V30 5241 N 489.069 2.36201 -6.51292 0
M  V30 5242 N 490.862 2.07927 -5.22229 0
M  V30 5243 H 483.013 -0.237574 -2.11067 0
M  V30 5244 H 485.276 -0.0436747 -0.946993 0
M  V30 5245 H 484.982 0.431199 -3.49047 0
M  V30 5246 H 484.856 2.13889 -3.10695 0
M  V30 5247 H 487.243 2.05411 -2.11873 0
M  V30 5248 H 487.324 0.336457 -2.53578 0
M  V30 5249 H 486.968 0.938824 -4.99148 0
M  V30 5250 H 486.898 2.66174 -4.54377 0
M  V30 5251 H 489.389 1.55097 -3.44606 0
M  V30 5252 H 489.702 2.59112 -7.28066 0
M  V30 5253 H 488.047 2.33681 -6.54536 0
M  V30 5254 H 491.238 1.84403 -4.30248 0
M  V30 5255 H 491.411 2.31856 -6.05101 0
M  V30 5256 N 484.817 1.37938 0.762283 0
M  V30 5257 C 486.094 1.24196 1.51112 0
M  V30 5258 C 486.474 -0.160409 2.1049 0
M  V30 5259 O 485.822 -1.16904 1.96331 0
M  V30 5260 C 486.032 2.34537 2.58445 0
M  V30 5261 C 487.38 2.7254 3.25588 0
M  V30 5262 O 488.404 2.33783 2.68745 0
M  V30 5263 O 487.263 3.39343 4.28379 0
M  V30 5264 H 484.357 0.485175 0.669727 0
M  V30 5265 H 486.903 1.49743 0.798438 0
M  V30 5266 H 485.675 3.28406 2.12756 0
M  V30 5267 H 485.298 2.10505 3.37303 0
M  V30 5268 N 486.295 -0.989507 1.22664 0
M  V30 5269 C 487.258 -2.06183 1.00106 0
M  V30 5270 C 488.258 -1.60765 -0.0337726 0
M  V30 5271 O 489.448 -1.72989 0.205072 0
M  V30 5272 C 486.58 -3.37021 0.51279 0
M  V30 5273 H 487.773 -2.27629 1.95256 0
M  V30 5274 H 485.326 -1.16158 1.0458 0
M  V30 5275 H 486.061 -3.21261 -0.442917 0
M  V30 5276 H 485.846 -3.71323 1.25942 0
M  V30 5277 H 487.336 -4.1591 0.375315 0
M  V30 5278 N 487.773 -1.03688 -1.18687 0
M  V30 5279 C 489.019 -0.74888 -1.89112 0
M  V30 5280 C 489.374 0.715345 -1.78607 0
M  V30 5281 O 488.667 1.51498 -1.17299 0
M  V30 5282 C 488.861 -1.14477 -3.3857 0
M  V30 5283 C 488.69 -2.64594 -3.63621 0
M  V30 5284 C 487.46 -3.31685 -3.812 0
M  V30 5285 C 489.658 -3.62811 -3.64517 0
M  V30 5286 N 487.64 -4.70822 -3.93955 0
M  V30 5287 C 489.011 -4.87603 -3.8294 0
M  V30 5288 C 491.066 -3.56495 -3.47585 0
M  V30 5289 C 489.769 -6.0684 -3.86184 0
M  V30 5290 C 491.795 -4.75155 -3.52111 0
M  V30 5291 C 491.157 -5.98765 -3.71026 0
M  V30 5292 H 487.256 -0.32603 -0.710794 0
M  V30 5293 H 489.84 -1.3258 -1.42586 0
M  V30 5294 H 488.011 -0.595974 -3.838 0
M  V30 5295 H 489.743 -0.808187 -3.96548 0
M  V30 5296 H 486.498 -2.82091 -3.80423 0
M  V30 5297 H 486.922 -5.43122 -4.04163 0
M  V30 5298 H 491.564 -2.61907 -3.31911 0
M  V30 5299 H 489.282 -7.01788 -4.00648 0
M  V30 5300 H 492.868 -4.71905 -3.40289 0
M  V30 5301 H 491.748 -6.89047 -3.74412 0
M  V30 5302 N 489.251 1.34841 -0.815825 0
M  V30 5303 C 490.181 2.32187 -0.247298 0
M  V30 5304 C 491.162 1.5791 0.632344 0
M  V30 5305 O 492.347 1.8593 0.560698 0
M  V30 5306 C 489.477 3.42122 0.597466 0
M  V30 5307 C 488.431 4.27602 -0.184446 0
M  V30 5308 C 487.757 5.28942 0.782609 0
M  V30 5309 C 489.057 5.03502 -1.38865 0
M  V30 5310 H 490.751 2.79985 -1.06061 0
M  V30 5311 H 488.297 1.34611 -0.511461 0
M  V30 5312 H 490.25 4.09232 1.00533 0
M  V30 5313 H 488.974 2.92956 1.44376 0
M  V30 5314 H 487.633 3.62085 -0.573592 0
M  V30 5315 H 487.281 4.7604 1.62466 0
M  V30 5316 H 486.981 5.87008 0.263695 0
M  V30 5317 H 488.505 5.98922 1.18848 0
M  V30 5318 H 489.919 5.63506 -1.05518 0
M  V30 5319 H 488.316 5.71108 -1.8427 0
M  V30 5320 H 489.386 4.33608 -2.17054 0
M  V30 5321 N 490.729 0.570148 1.46925 0
M  V30 5322 C 491.676 -0.170257 2.30171 0
M  V30 5323 C 492.646 -0.896099 1.39855 0
M  V30 5324 O 493.831 -0.889248 1.68811 0
M  V30 5325 C 490.971 -1.18605 3.24079 0
M  V30 5326 C 490.084 -0.464947 4.29491 0
M  V30 5327 C 489.219 -1.46716 5.10537 0
M  V30 5328 C 488.258 -0.731758 6.0771 0
M  V30 5329 N 487.395 -1.68142 6.81669 0
M  V30 5330 H 492.235 0.545713 2.92961 0
M  V30 5331 H 489.772 0.280938 1.44392 0
M  V30 5332 H 491.73 -1.78771 3.76957 0
M  V30 5333 H 490.36 -1.86989 2.63125 0
M  V30 5334 H 489.412 0.251506 3.79568 0
M  V30 5335 H 490.724 0.110548 4.98677 0
M  V30 5336 H 489.878 -2.14199 5.6763 0
M  V30 5337 H 488.617 -2.07658 4.41282 0
M  V30 5338 H 487.622 -0.0430787 5.49783 0
M  V30 5339 H 488.847 -0.127904 6.7898 0
M  V30 5340 H 486.793 -2.27918 6.15134 0
M  V30 5341 H 486.71 -1.15841 7.47072 0
M  V30 5342 H 487.978 -2.347 7.43328 0
M  V30 5343 N 492.207 -1.54576 0.307264 0
M  V30 5344 C 493.157 -2.20467 -0.581249 0
M  V30 5345 C 494.141 -1.17972 -1.09414 0
M  V30 5346 O 495.333 -1.43667 -1.03387 0
M  V30 5347 C 492.462 -2.95369 -1.74963 0
M  V30 5348 C 491.548 -4.05186 -1.25241 0
M  V30 5349 N 491.939 -5.03577 -0.47364 0
M  V30 5350 C 490.237 -4.18841 -1.53259 0
M  V30 5351 C 490.938 -5.81328 -0.208083 0
M  V30 5352 N 489.914 -5.37834 -0.789651 0
M  V30 5353 H 493.716 -2.93892 0.0212221 0
M  V30 5354 H 491.23 -1.62011 0.112325 0
M  V30 5355 H 493.227 -3.41046 -2.39777 0
M  V30 5356 H 491.887 -2.23461 -2.35574 0
M  V30 5357 H 492.898 -5.17766 -0.117963 0
M  V30 5358 H 489.575 -3.58141 -2.14573 0
M  V30 5359 H 490.965 -6.706 0.417793 0
M  V30 5360 N 493.685 -0.035106 -1.57561 0
M  V30 5361 C 494.615 0.942993 -2.13612 0
M  V30 5362 C 495.596 1.33531 -1.05373 0
M  V30 5363 O 496.781 1.41287 -1.33235 0
M  V30 5364 C 493.911 2.22332 -2.66807 0
M  V30 5365 C 492.865 1.97156 -3.79886 0
M  V30 5366 C 492.191 3.31506 -4.19533 0
M  V30 5367 C 493.491 1.30596 -5.05709 0
M  V30 5368 H 495.185 0.476179 -2.95589 0
M  V30 5369 H 492.731 0.227602 -1.4219 0
M  V30 5370 H 494.684 2.91142 -3.04654 0
M  V30 5371 H 493.408 2.7119 -1.81999 0
M  V30 5372 H 492.067 1.30763 -3.42486 0
M  V30 5373 H 491.715 3.78134 -3.31698 0
M  V30 5374 H 491.415 3.15465 -4.95738 0
M  V30 5375 H 492.939 4.01574 -4.59968 0
M  V30 5376 H 494.353 1.89416 -5.41105 0
M  V30 5377 H 492.75 1.24934 -5.86951 0
M  V30 5378 H 493.82 0.279742 -4.84092 0
M  V30 5379 N 495.163 1.55791 0.238111 0
M  V30 5380 C 496.411 1.77681 0.963001 0
M  V30 5381 C 496.732 0.600674 1.85518 0
M  V30 5382 O 496.002 -0.383182 1.92116 0
M  V30 5383 H 494.582 0.655315 0.358568 0
M  V30 5384 H 497.244 1.93239 0.253945 0
M  V30 5385 H 496.34 2.69177 1.57956 0
M  V30 5386 N 496.642 -0.504142 1.49319 0
M  V30 5387 C 497.574 -1.62265 1.61872 0
M  V30 5388 C 498.587 -1.54881 0.501573 0
M  V30 5389 O 499.776 -1.6087 0.773497 0
M  V30 5390 C 496.876 -3.01042 1.55651 0
M  V30 5391 C 496.049 -3.33642 2.82845 0
M  V30 5392 C 495.108 -4.51816 2.69719 0
M  V30 5393 O 494.134 -4.53755 3.4365 0
M  V30 5394 N 495.336 -5.51543 1.81055 0
M  V30 5395 H 498.101 -1.51924 2.58339 0
M  V30 5396 H 495.662 -0.691954 1.46368 0
M  V30 5397 H 497.654 -3.78013 1.44528 0
M  V30 5398 H 496.224 -3.05323 0.670546 0
M  V30 5399 H 495.444 -2.45598 3.08343 0
M  V30 5400 H 496.732 -3.5222 3.67177 0
M  V30 5401 H 496.13 -5.52774 1.20241 0
M  V30 5402 H 494.687 -6.27629 1.75856 0
M  V30 5403 N 498.12 -1.38341 -0.754957 0
M  V30 5404 C 499.052 -1.31347 -1.87831 0
M  V30 5405 C 500.065 -0.225955 -1.61224 0
M  V30 5406 O 501.254 -0.48341 -1.7183 0
M  V30 5407 C 498.354 -1.01201 -3.23437 0
M  V30 5408 C 497.527 -2.20834 -3.77559 0
M  V30 5409 C 496.586 -1.87454 -4.91678 0
M  V30 5410 O 495.612 -2.59934 -5.06382 0
M  V30 5411 N 496.814 -0.828682 -5.74555 0
M  V30 5412 H 499.579 -2.28147 -1.94342 0
M  V30 5413 H 497.14 -1.32184 -0.934828 0
M  V30 5414 H 499.132 -0.769249 -3.97322 0
M  V30 5415 H 497.702 -0.132011 -3.12321 0
M  V30 5416 H 496.922 -2.61184 -2.95256 0
M  V30 5417 H 498.21 -3.00678 -4.10451 0
M  V30 5418 H 497.608 -0.227591 -5.65242 0
M  V30 5419 H 496.165 -0.645802 -6.48593 0
M  V30 5420 N 499.598 0.982988 -1.23187 0
M  V30 5421 C 501.014 1.2487 -0.993967 0
M  V30 5422 C 501.214 1.99155 0.306498 0
M  V30 5423 O 500.27 2.30688 1.0266 0
M  V30 5424 C 501.583 2.05078 -2.19917 0
M  V30 5425 C 503.131 2.18227 -2.2438 0
M  V30 5426 C 503.606 3.01825 -3.44479 0
M  V30 5427 N 505.097 3.09411 -3.44702 0
M  V30 5428 C 505.832 3.74412 -4.34285 0
M  V30 5429 N 505.328 4.41259 -5.341 0
M  V30 5430 N 507.121 3.71273 -4.22035 0
M  V30 5431 H 499.272 0.485253 -2.06783 0
M  V30 5432 H 501.535 0.276979 -0.906635 0
M  V30 5433 H 501.241 1.57867 -3.14279 0
M  V30 5434 H 501.115 3.05829 -2.2079 0
M  V30 5435 H 503.502 2.64648 -1.30559 0
M  V30 5436 H 503.583 1.16873 -2.2754 0
M  V30 5437 H 503.227 2.56102 -4.38605 0
M  V30 5438 H 503.157 4.03342 -3.38559 0
M  V30 5439 H 505.648 2.61845 -2.7248 0
M  V30 5440 H 505.961 4.88629 -5.98717 0
M  V30 5441 H 504.306 4.39975 -5.38002 0
M  V30 5442 H 507.497 3.18217 -3.43301 0
M  V30 5443 H 507.67 4.21649 -4.92053 0
M  V30 5444 N 501.076 1.04316 1.18135 0
M  V30 5445 C 502.301 0.768047 1.92655 0
M  V30 5446 C 502.726 -0.66904 1.758 0
M  V30 5447 O 502.084 -1.46372 1.06981 0
M  V30 5448 C 502.132 1.14239 3.42026 0
M  V30 5449 O 501.236 0.269333 4.1152 0
M  V30 5450 H 500.577 0.282436 0.600937 0
M  V30 5451 H 503.107 1.39367 1.49793 0
M  V30 5452 H 503.117 1.10538 3.92741 0
M  V30 5453 H 501.792 2.18928 3.53615 0
M  V30 5454 H 500.369 0.366175 3.71098 0
M  V30 5455 N 502.554 -1.34406 0.822964 0
M  V30 5456 C 503.803 -1.97542 0.407458 0
M  V30 5457 C 504.116 -1.65973 -1.035 0
M  V30 5458 O 505.322 -2.22598 -1.55442 0
M  V30 5459 C 503.778 -3.53463 0.677623 0
M  V30 5460 C 503.386 -3.93925 2.1337 0
M  V30 5461 C 505.13 -4.23229 0.328284 0
M  V30 5462 C 503.037 -5.42759 2.34876 0
M  V30 5463 H 501.967 -0.739207 0.148623 0
M  V30 5464 H 504.618 -1.53248 1.00932 0
M  V30 5465 H 503 -3.96 0.00558965 0
M  V30 5466 H 504.174 -3.62494 2.8449 0
M  V30 5467 H 502.489 -3.37097 2.44448 0
M  V30 5468 H 505.086 -5.32659 0.466794 0
M  V30 5469 H 505.429 -4.09899 -0.727224 0
M  V30 5470 H 505.962 -3.86169 0.954896 0
M  V30 5471 H 502.701 -5.61075 3.38932 0
M  V30 5472 H 502.221 -5.75704 1.68299 0
M  V30 5473 H 503.9 -6.0944 2.17236 0
M  V30 5474 N 504.032 -0.577932 -1.46621 0
M  V30 5475 C 505.28 -0.061566 -2.02006 0
M  V30 5476 C 505.601 1.30117 -1.4524 0
M  V30 5477 O 504.871 1.85313 -0.63529 0
M  V30 5478 H 503.451 -0.0197692 -0.746738 0
M  V30 5479 H 506.113 -0.752631 -1.79782 0
M  V30 5480 H 505.209 0.0110238 -3.12098 0
M  V30 5481 N 505.51 1.54411 -0.315457 0
M  V30 5482 C 506.758 2.00023 0.288971 0
M  V30 5483 C 507.079 1.20529 1.5329 0
M  V30 5484 O 506.349 0.304986 1.93511 0
M  V30 5485 H 504.929 0.738891 0.109766 0
M  V30 5486 H 507.591 1.90094 -0.430129 0
M  V30 5487 H 506.687 3.07198 0.550999 0
M  V30 5488 N 506.988 0.0434614 1.5754 0
M  V30 5489 C 507.918 -0.931651 2.14109 0
M  V30 5490 C 508.899 -1.32971 1.06079 0
M  V30 5491 O 510.084 -1.40579 1.33982 0
M  V30 5492 C 507.214 -2.20914 2.67982 0
M  V30 5493 C 506.168 -1.95139 3.80926 0
M  V30 5494 C 505.494 -3.29276 4.21285 0
M  V30 5495 C 506.794 -1.27913 5.06395 0
M  V30 5496 H 508.488 -0.460497 2.95837 0
M  V30 5497 H 506.034 -0.220058 1.42309 0
M  V30 5498 H 507.987 -2.89522 3.06194 0
M  V30 5499 H 506.711 -2.70221 1.83434 0
M  V30 5500 H 505.37 -1.28945 3.43175 0
M  V30 5501 H 505.018 -3.76369 3.33699 0
M  V30 5502 H 504.718 -3.12831 4.97404 0
M  V30 5503 H 506.242 -3.99129 4.62091 0
M  V30 5504 H 507.656 -1.86544 5.42102 0
M  V30 5505 H 506.053 -1.2182 5.87605 0
M  V30 5506 H 507.123 -0.254066 4.84234 0
M  V30 5507 N 508.466 -1.55915 -0.229846 0
M  V30 5508 C 509.376 -1.94891 -1.30593 0
M  V30 5509 C 510.392 -0.851604 -1.51736 0
M  V30 5510 O 511.568 -1.15447 -1.65027 0
M  V30 5511 C 508.633 -2.25052 -2.63728 0
M  V30 5512 C 507.694 -3.48306 -2.5096 0
M  V30 5513 C 506.927 -3.77019 -3.77747 0
M  V30 5514 O 507.15 -3.07534 -4.80395 0
M  V30 5515 O 506.084 -4.70523 -3.75356 0
M  V30 5516 H 509.91 -2.86581 -1.00525 0
M  V30 5517 H 507.495 -1.43017 -0.432025 0
M  V30 5518 H 509.377 -2.45682 -3.42372 0
M  V30 5519 H 508.052 -1.36538 -2.93495 0
M  V30 5520 H 506.959 -3.32964 -1.70546 0
M  V30 5521 H 508.292 -4.37177 -2.26136 0
M  V30 5522 N 509.944 0.496216 -1.49584 0
M  V30 5523 C 511.355 1.07765 -1.52459 0
M  V30 5524 C 511.706 1.93679 -0.31353 0
M  V30 5525 O 510.831 2.08588 0.576186 0
M  V30 5526 C 511.426 1.96111 -2.76271 0
M  V30 5527 C 509.985 2.49409 -2.81908 0
M  V30 5528 C 509.132 1.27142 -2.46435 0
M  V30 5529 H 512.083 0.279914 -1.56212 0
M  V30 5530 H 512.104 2.80862 -2.56704 0
M  V30 5531 H 511.616 1.33555 -3.64396 0
M  V30 5532 H 509.717 3.1559 -1.98074 0
M  V30 5533 H 509.83 2.86234 -3.84196 0
M  V30 5534 H 508.194 1.59818 -1.98319 0
M  V30 5535 H 508.977 0.662866 -3.3684 0
M  V30 5536 N 511.423 1.38739 0.74761 0
M  V30 5537 C 512.386 1.36241 1.84312 0
M  V30 5538 C 513.386 0.261811 1.58654 0
M  V30 5539 O 514.576 0.519031 1.66288 0
M  V30 5540 C 511.708 1.12253 3.21888 0
M  V30 5541 H 512.901 2.33712 1.87933 0
M  V30 5542 H 510.454 1.2412 0.949946 0
M  V30 5543 H 511.189 0.154133 3.23934 0
M  V30 5544 H 510.974 1.91943 3.41907 0
M  V30 5545 H 512.464 1.13215 4.0196 0
M  V30 5546 N 512.901 -0.976442 1.23707 0
M  V30 5547 C 514.15 -1.71254 1.06559 0
M  V30 5548 C 514.463 -1.91528 -0.397024 0
M  V30 5549 O 515.669 -2.62625 -0.688518 0
M  V30 5550 C 514.125 -3.08207 1.8584 0
M  V30 5551 C 513.733 -2.95806 3.36456 0
M  V30 5552 C 515.477 -3.85749 1.77194 0
M  V30 5553 C 513.384 -4.28015 4.08114 0
M  V30 5554 H 512.314 -0.642171 0.395136 0
M  V30 5555 H 514.965 -1.08877 1.4771 0
M  V30 5556 H 513.347 -3.71363 1.37498 0
M  V30 5557 H 514.521 -2.41716 3.92314 0
M  V30 5558 H 512.836 -2.31736 3.45959 0
M  V30 5559 H 515.433 -4.83633 2.28041 0
M  V30 5560 H 515.776 -4.09752 0.735477 0
M  V30 5561 H 516.309 -3.29303 2.23169 0
M  V30 5562 H 513.048 -4.09208 5.12083 0
M  V30 5563 H 512.568 -4.81955 3.57043 0
M  V30 5564 H 514.247 -4.96681 4.14629 0
M  V30 5565 N 514.379 -1.04941 -1.1758 0
M  V30 5566 C 515.625 -0.759112 -1.88057 0
M  V30 5567 C 515.958 0.711918 -1.8068 0
M  V30 5568 O 515.233 1.52035 -1.21308 0
M  V30 5569 C 515.516 -1.237 -3.38187 0
M  V30 5570 C 515.369 -2.77078 -3.54327 0
M  V30 5571 C 516.688 -0.834014 -4.32125 0
M  V30 5572 H 513.807 -0.277237 -0.682868 0
M  V30 5573 H 516.449 -1.30296 -1.38286 0
M  V30 5574 H 514.599 -0.774337 -3.80705 0
M  V30 5575 H 516.271 -3.31449 -3.20842 0
M  V30 5576 H 514.514 -3.16477 -2.96689 0
M  V30 5577 H 515.185 -3.05577 -4.59703 0
M  V30 5578 H 517.661 -1.23228 -3.97434 0
M  V30 5579 H 516.537 -1.19603 -5.35711 0
M  V30 5580 H 516.798 0.262195 -4.41322 0
M  V30 5581 N 515.857 1.33968 -0.830081 0
M  V30 5582 C 517.085 2.0228 -0.434773 0
M  V30 5583 C 517.5 1.62487 0.961419 0
M  V30 5584 O 516.857 0.833849 1.62337 0
M  V30 5585 C 516.908 3.5751 -0.535625 0
M  V30 5586 O 516.629 3.95864 -1.87679 0
M  V30 5587 C 518.13 4.43091 -0.136137 0
M  V30 5588 H 515.35 0.648151 -0.173613 0
M  V30 5589 H 517.894 1.71089 -1.12022 0
M  V30 5590 H 516.049 3.87266 0.101817 0
M  V30 5591 H 516.463 4.9056 -1.85609 0
M  V30 5592 H 517.937 5.51398 -0.257772 0
M  V30 5593 H 518.414 4.29433 0.921076 0
M  V30 5594 H 519.02 4.18677 -0.747662 0
M  V30 5595 N 517.335 0.585699 1.46312 0
M  V30 5596 C 518.267 -0.183687 2.28463 0
M  V30 5597 C 519.28 -0.85264 1.38686 0
M  V30 5598 O 520.469 -0.721701 1.6326 0
M  V30 5599 C 517.569 -1.27977 3.13808 0
M  V30 5600 C 516.742 -0.702164 4.31727 0
M  V30 5601 C 515.801 -1.68633 4.98447 0
M  V30 5602 O 514.827 -1.22121 5.55945 0
M  V30 5603 N 516.029 -3.02047 4.95729 0
M  V30 5604 H 518.794 0.521127 2.95134 0
M  V30 5605 H 516.355 0.423673 1.56258 0
M  V30 5606 H 518.347 -1.9375 3.55307 0
M  V30 5607 H 516.917 -1.8874 2.4919 0
M  V30 5608 H 516.137 0.1331 3.93975 0
M  V30 5609 H 517.425 -0.296101 5.07938 0
M  V30 5610 H 516.823 -3.42457 4.50266 0
M  V30 5611 H 515.38 -3.63301 5.41161 0
M  V30 5612 N 518.813 -1.54241 0.323641 0
M  V30 5613 C 520.059 -2.00867 -0.279323 0
M  V30 5614 C 520.392 -1.21146 -1.5178 0
M  V30 5615 O 519.667 -0.29378 -1.92269 0
M  V30 5616 C 519.95 -3.54837 -0.613387 0
M  V30 5617 C 519.803 -4.45284 0.635803 0
M  V30 5618 C 521.122 -4.16186 -1.43099 0
M  V30 5619 H 518.241 -0.730177 -0.100049 0
M  V30 5620 H 520.883 -1.84829 0.440235 0
M  V30 5621 H 519.033 -3.68634 -1.22641 0
M  V30 5622 H 520.705 -4.43357 1.27406 0
M  V30 5623 H 518.948 -4.14956 1.26466 0
M  V30 5624 H 519.619 -5.5084 0.357597 0
M  V30 5625 H 522.095 -4.05964 -0.912814 0
M  V30 5626 H 520.971 -5.24031 -1.6335 0
M  V30 5627 H 521.232 -3.69516 -2.42715 0
M  V30 5628 N 520.291 -0.0518155 -1.57515 0
M  V30 5629 C 521.201 0.937539 -2.15052 0
M  V30 5630 C 522.217 1.34121 -1.10849 0
M  V30 5631 O 523.393 1.418 -1.4302 0
M  V30 5632 C 520.458 2.19379 -2.68466 0
M  V30 5633 C 519.519 1.84841 -3.87469 0
M  V30 5634 C 518.752 3.04477 -4.38326 0
M  V30 5635 O 518.975 4.17868 -3.88256 0
M  V30 5636 O 517.909 2.85453 -5.29906 0
M  V30 5637 H 521.735 0.478201 -2.99912 0
M  V30 5638 H 519.32 0.17012 -1.48428 0
M  V30 5639 H 521.202 2.93084 -3.02787 0
M  V30 5640 H 519.877 2.64449 -1.86677 0
M  V30 5641 H 518.784 1.08449 -3.58036 0
M  V30 5642 H 520.117 1.44569 -4.7049 0
M  V30 5643 N 521.769 1.56035 0.221574 0
M  V30 5644 C 522.716 1.92413 1.27459 0
M  V30 5645 C 523.686 0.781323 1.46576 0
M  V30 5646 O 524.871 1.03721 1.60145 0
M  V30 5647 C 522.011 2.24617 2.61995 0
M  V30 5648 C 521.124 3.51831 2.50677 0
M  V30 5649 C 520.259 3.73482 3.77736 0
M  V30 5650 C 519.298 4.94211 3.6114 0
M  V30 5651 N 518.435 5.12252 4.80148 0
M  V30 5652 H 523.275 2.82203 0.957355 0
M  V30 5653 H 520.812 1.39676 0.461415 0
M  V30 5654 H 522.77 2.41298 3.40339 0
M  V30 5655 H 521.4 1.38 2.91815 0
M  V30 5656 H 520.452 3.43343 1.63767 0
M  V30 5657 H 521.764 4.40328 2.34334 0
M  V30 5658 H 520.918 3.9026 4.64523 0
M  V30 5659 H 519.657 2.83266 3.97003 0
M  V30 5660 H 518.662 4.77384 2.72736 0
M  V30 5661 H 519.887 5.85912 3.43343 0
M  V30 5662 H 517.833 4.24978 4.99729 0
M  V30 5663 H 517.75 5.94881 4.66532 0
M  V30 5664 H 519.018 5.33465 5.68362 0
M  V30 5665 N 523.247 -0.488276 1.49845 0
M  V30 5666 C 524.472 -1.26997 1.63971 0
M  V30 5667 C 524.897 -1.85427 0.315994 0
M  V30 5668 O 524.255 -1.66475 -0.718032 0
M  V30 5669 C 524.303 -2.36689 2.72049 0
M  V30 5670 O 523.407 -3.40882 2.32107 0
M  V30 5671 H 522.748 -0.374376 0.548396 0
M  V30 5672 H 525.278 -0.583104 1.96115 0
M  V30 5673 H 525.288 -2.82262 2.94605 0
M  V30 5674 H 523.963 -1.93529 3.68129 0
M  V30 5675 H 522.54 -3.01139 2.19931 0
M  V30 5676 N 524.725 -1.39134 -0.740242 0
M  V30 5677 C 525.973 -1.35803 -1.49673 0
M  V30 5678 C 526.294 0.0470897 -1.94943 0
M  V30 5679 O 525.564 0.997347 -1.68611 0
M  V30 5680 H 524.144 -0.499736 -0.555224 0
M  V30 5681 H 526.806 -1.73947 -0.879107 0
M  V30 5682 H 525.902 -2.0174 -2.38133 0
M  V30 5683 N 526.204 0.969867 -1.24223 0
M  V30 5684 C 527.453 1.70687 -1.07466 0
M  V30 5685 C 527.766 1.91736 0.386861 0
M  V30 5686 O 528.972 2.62986 0.674581 0
M  V30 5687 C 527.428 3.07217 -1.87472 0
M  V30 5688 C 527.036 2.94018 -3.3802 0
M  V30 5689 C 528.78 3.84804 -1.79237 0
M  V30 5690 C 526.687 4.25844 -4.10379 0
M  V30 5691 H 525.617 0.640067 -0.398536 0
M  V30 5692 H 528.268 1.08092 -1.48285 0
M  V30 5693 H 526.65 3.70628 -1.39466 0
M  V30 5694 H 527.824 2.39632 -3.9359 0
M  V30 5695 H 526.139 2.29898 -3.47183 0
M  V30 5696 H 528.736 4.82417 -2.30603 0
M  V30 5697 H 529.079 4.09356 -0.757197 0
M  V30 5698 H 529.612 3.28115 -2.24912 0
M  V30 5699 H 526.351 4.06486 -5.14246 0
M  V30 5700 H 525.871 4.80054 -3.59594 0
M  V30 5701 H 527.55 4.94475 -4.17257 0
M  V30 5702 N 527.682 1.05563 1.17022 0
M  V30 5703 C 528.615 0.604197 2.20056 0
M  V30 5704 C 529.593 -0.369169 1.58354 0
M  V30 5705 O 530.777 -0.279898 1.8641 0
M  V30 5706 C 527.904 -0.115265 3.38504 0
M  V30 5707 C 526.95 0.813698 4.18666 0
M  V30 5708 S 527.783 2.30492 4.83357 0
M  V30 5709 C 528.939 1.59674 6.0519 0
M  V30 5710 H 529.172 1.47713 2.58008 0
M  V30 5711 H 526.705 0.867932 1.27696 0
M  V30 5712 H 528.663 -0.524162 4.0714 0
M  V30 5713 H 527.324 -0.964284 2.98932 0
M  V30 5714 H 526.517 0.256736 5.03346 0
M  V30 5715 H 526.119 1.16213 3.55486 0
M  V30 5716 H 528.411 0.898164 6.7152 0
M  V30 5717 H 529.354 2.42115 6.65422 0
M  V30 5718 H 529.762 1.08252 5.54023 0
M  V30 5719 N 529.16 -1.33526 0.837174 0
M  V30 5720 C 530.406 -1.9813 0.432704 0
M  V30 5721 C 530.739 -1.66168 -1.00508 0
M  V30 5722 O 530.014 -0.94069 -1.70239 0
M  V30 5723 C 530.297 -3.54151 0.651834 0
M  V30 5724 C 530.15 -3.95806 2.13676 0
M  V30 5725 C 531.469 -4.39993 0.0968937 0
M  V30 5726 H 528.588 -0.719713 0.15869 0
M  V30 5727 H 531.23 -1.58193 1.05237 0
M  V30 5728 H 529.38 -3.88301 0.124369 0
M  V30 5729 H 531.052 -3.71921 2.72896 0
M  V30 5730 H 529.295 -3.45599 2.62191 0
M  V30 5731 H 529.966 -5.0447 2.24084 0
M  V30 5732 H 532.442 -4.12479 0.547733 0
M  V30 5733 H 531.318 -5.48186 0.279917 0
M  V30 5734 H 531.579 -4.3066 -0.9992 0
M  V30 5735 N 530.638 -0.59345 -1.46 0
M  V30 5736 C 531.571 0.182196 -2.27472 0
M  V30 5737 C 532.549 0.886901 -1.36282 0
M  V30 5738 O 533.733 0.898627 -1.65701 0
M  V30 5739 C 530.86 1.26236 -3.14296 0
M  V30 5740 C 529.906 0.662331 -4.21326 0
M  V30 5741 S 530.739 -0.519017 -5.32979 0
M  V30 5742 C 531.895 0.562086 -6.23371 0
M  V30 5743 H 532.128 -0.509056 -2.92909 0
M  V30 5744 H 529.661 -0.380607 -1.49635 0
M  V30 5745 H 531.619 1.88075 -3.64881 0
M  V30 5746 H 530.28 1.92562 -2.48151 0
M  V30 5747 H 529.473 1.47461 -4.81945 0
M  V30 5748 H 529.075 0.119381 -3.73809 0
M  V30 5749 H 531.367 1.44494 -6.61912 0
M  V30 5750 H 532.31 -0.00760776 -7.081 0
M  V30 5751 H 532.718 0.871061 -5.57739 0
M  V30 5752 N 532.116 1.54067 -0.331816 0
M  V30 5753 C 533.344 2.05131 0.269996 0
M  V30 5754 C 533.759 1.20749 1.45138 0
M  V30 5755 O 533.116 0.240069 1.80914 0
M  V30 5756 C 533.167 3.54728 0.696456 0
M  V30 5757 O 532.888 4.35906 -0.43794 0
M  V30 5758 C 534.389 4.21916 1.36021 0
M  V30 5759 H 531.609 0.668807 0.0542042 0
M  V30 5760 H 534.153 1.98777 -0.4804 0
M  V30 5761 H 532.308 3.61342 1.39681 0
M  V30 5762 H 532.722 5.24404 -0.100334 0
M  V30 5763 H 534.196 5.28015 1.60947 0
M  V30 5764 H 534.673 3.73538 2.31011 0
M  V30 5765 H 535.279 4.19463 0.702212 0
M  V30 5766 N 533.594 0.0601682 1.57485 0
M  V30 5767 C 535.01 -0.296422 1.56823 0
M  V30 5768 C 535.21 -1.70831 1.0686 0
M  V30 5769 O 534.266 -2.4174 0.729245 0
M  V30 5770 C 535.579 -0.116681 3.00474 0
M  V30 5771 C 537.127 -0.187103 3.1244 0
M  V30 5772 C 537.602 -0.035783 4.57986 0
M  V30 5773 N 539.093 -0.0917676 4.63109 0
M  V30 5774 C 539.828 0.00107251 5.734 0
M  V30 5775 N 539.324 0.146773 6.92645 0
M  V30 5776 N 541.117 -0.0551577 5.62073 0
M  V30 5777 H 533.268 0.983055 1.88281 0
M  V30 5778 H 535.531 0.382386 0.867459 0
M  V30 5779 H 535.237 0.85712 3.41096 0
M  V30 5780 H 535.111 -0.873929 3.66936 0
M  V30 5781 H 537.498 -1.15138 2.71712 0
M  V30 5782 H 537.579 0.601052 2.48638 0
M  V30 5783 H 537.223 0.925212 4.99402 0
M  V30 5784 H 537.153 -0.843196 5.19806 0
M  V30 5785 H 539.644 -0.203261 3.77353 0
M  V30 5786 H 539.957 0.210076 7.72514 0
M  V30 5787 H 538.302 0.181979 6.94762 0
M  V30 5788 H 541.493 -0.167605 4.678 0
M  V30 5789 H 541.666 0.020652 6.47997 0
M  V30 5790 N 535.072 -1.5615 -0.213296 0
M  V30 5791 C 536.349 -1.70349 -0.961281 0
M  V30 5792 C 536.729 -0.609791 -2.02101 0
M  V30 5793 O 536.077 0.381987 -2.25285 0
M  V30 5794 C 536.287 -3.11982 -1.56424 0
M  V30 5795 C 537.635 -3.71649 -2.05334 0
M  V30 5796 O 538.659 -3.14995 -1.66302 0
M  V30 5797 O 537.518 -4.71038 -2.77102 0
M  V30 5798 H 534.612 -0.694121 -0.449582 0
M  V30 5799 H 537.158 -1.68464 -0.204426 0
M  V30 5800 H 535.93 -3.83046 -0.799457 0
M  V30 5801 H 535.553 -3.18019 -2.38641 0
M  V30 5802 N 536.55 0.480323 -1.50102 0
M  V30 5803 C 537.798 1.23063 -1.60312 0
M  V30 5804 C 538.119 1.92659 -0.301226 0
M  V30 5805 O 537.389 1.83691 0.680753 0
M  V30 5806 H 535.969 0.457231 -0.590719 0
M  V30 5807 H 538.631 0.554893 -1.86834 0
M  V30 5808 H 537.727 1.9835 -2.40964 0
M  V30 5809 N 538.028 1.39524 0.732853 0
M  V30 5810 C 538.975 1.38416 1.84688 0
M  V30 5811 C 539.945 0.243539 1.64305 0
M  V30 5812 O 541.13 0.438979 1.85681 0
M  V30 5813 C 538.27 1.23555 3.22224 0
M  V30 5814 C 537.383 2.47179 3.54298 0
M  V30 5815 C 536.518 2.2489 4.81246 0
M  V30 5816 C 535.557 3.44178 5.0617 0
M  V30 5817 N 534.694 3.21192 6.24323 0
M  V30 5818 H 539.534 2.33645 1.84971 0
M  V30 5819 H 537.071 1.16059 0.903804 0
M  V30 5820 H 539.029 1.12949 4.0162 0
M  V30 5821 H 537.659 0.31954 3.21215 0
M  V30 5822 H 536.711 2.68379 2.69587 0
M  V30 5823 H 538.023 3.36022 3.68633 0
M  V30 5824 H 537.177 2.11538 5.68627 0
M  V30 5825 H 535.916 1.33443 4.69089 0
M  V30 5826 H 534.921 3.58025 4.17251 0
M  V30 5827 H 536.146 4.36528 5.20212 0
M  V30 5828 H 534.092 2.32413 6.1345 0
M  V30 5829 H 534.009 4.03594 6.39256 0
M  V30 5830 H 535.277 3.1154 7.14537 0
M  V30 5831 N 539.506 -0.963266 1.24736 0
M  V30 5832 C 540.416 -2.09246 1.06082 0
M  V30 5833 C 541.432 -1.74 0.000363101 0
M  V30 5834 O 542.608 -2.0041 0.199479 0
M  V30 5835 C 539.673 -3.40115 0.672498 0
M  V30 5836 C 538.734 -3.89282 1.80993 0
M  V30 5837 C 537.967 -5.13905 1.44004 0
M  V30 5838 O 538.19 -5.69434 0.331835 0
M  V30 5839 O 537.124 -5.57566 2.26723 0
M  V30 5840 H 540.95 -2.27881 2.00759 0
M  V30 5841 H 538.535 -1.07649 1.03595 0
M  V30 5842 H 540.417 -4.18797 0.467668 0
M  V30 5843 H 539.092 -3.22771 -0.245102 0
M  V30 5844 H 537.999 -3.11642 2.06955 0
M  V30 5845 H 539.332 -4.1111 2.70646 0
M  V30 5846 N 540.985 -1.06182 -1.16461 0
M  V30 5847 C 541.895 -0.682671 -2.24448 0
M  V30 5848 C 542.911 0.30078 -1.71381 0
M  V30 5849 O 544.087 0.150376 -2.00838 0
M  V30 5850 C 541.152 -0.0737202 -3.46622 0
M  V30 5851 C 540.213 -1.10889 -4.14731 0
M  V30 5852 C 539.446 -0.528908 -5.31073 0
M  V30 5853 O 539.669 0.65868 -5.66584 0
M  V30 5854 O 538.603 -1.26805 -5.88391 0
M  V30 5855 H 542.429 -1.58291 -2.59187 0
M  V30 5856 H 540.014 -0.834013 -1.23954 0
M  V30 5857 H 541.896 0.264192 -4.20571 0
M  V30 5858 H 540.571 0.800015 -3.13658 0
M  V30 5859 H 539.478 -1.49896 -3.42756 0
M  V30 5860 H 540.811 -1.95412 -4.51747 0
M  V30 5861 N 542.463 1.3308 -0.844243 0
M  V30 5862 C 543.426 2.27403 -0.286485 0
M  V30 5863 C 544.426 1.51179 0.547872 0
M  V30 5864 O 545.616 1.70421 0.360886 0
M  V30 5865 C 542.748 3.35653 0.595813 0
M  V30 5866 H 543.941 2.78248 -1.11885 0
M  V30 5867 H 541.494 1.43574 -0.617749 0
M  V30 5868 H 542.229 2.90058 1.4504 0
M  V30 5869 H 542.014 3.921 -0.00125994 0
M  V30 5870 H 543.504 4.05958 0.979168 0
M  V30 5871 N 543.941 0.601185 1.45683 0
M  V30 5872 C 545.187 0.0940202 2.02582 0
M  V30 5873 C 545.52 -1.26972 1.46941 0
M  V30 5874 O 544.795 -1.83613 0.641612 0
M  V30 5875 C 545.078 0.0481715 3.60068 0
M  V30 5876 C 544.931 1.44212 4.26055 0
M  V30 5877 C 546.25 -0.642975 4.35378 0
M  V30 5878 H 543.369 0.0356404 0.736138 0
M  V30 5879 H 546.011 0.771929 1.73612 0
M  V30 5880 H 544.161 -0.529128 3.8488 0
M  V30 5881 H 545.833 2.06601 4.12449 0
M  V30 5882 H 544.076 2.00465 3.84703 0
M  V30 5883 H 544.747 1.36234 5.34925 0
M  V30 5884 H 547.223 -0.152351 4.15821 0
M  V30 5885 H 546.099 -0.644141 5.45107 0
M  V30 5886 H 546.36 -1.70785 4.0778 0
M  V30 5887 N 545.419 -1.53889 0.339982 0
M  V30 5888 C 546.647 -2.05271 -0.259114 0
M  V30 5889 C 547.062 -1.21517 -1.44496 0
M  V30 5890 O 546.419 -0.24966 -1.80784 0
M  V30 5891 C 546.47 -3.55092 -0.677634 0
M  V30 5892 O 546.191 -4.35667 0.461051 0
M  V30 5893 C 547.692 -4.22631 -1.33782 0
M  V30 5894 H 544.912 -0.669085 -0.0506566 0
M  V30 5895 H 547.456 -1.9852 0.490935 0
M  V30 5896 H 545.611 -3.62077 -1.37763 0
M  V30 5897 H 546.025 -5.24343 0.128144 0
M  V30 5898 H 547.499 -5.28861 -1.58145 0
M  V30 5899 H 547.976 -3.74758 -2.29027 0
M  V30 5900 H 548.582 -4.19829 -0.679957 0
M  V30 5901 N 546.897 -0.0685191 -1.57451 0
M  V30 5902 C 548.143 0.596247 -1.94465 0
M  V30 5903 C 548.498 1.67417 -0.948117 0
M  V30 5904 O 547.791 1.91576 0.0301056 0
M  V30 5905 C 547.985 1.22051 -3.35914 0
M  V30 5906 C 547.814 0.204586 -4.49234 0
M  V30 5907 C 546.584 -0.20959 -5.04865 0
M  V30 5908 C 548.782 -0.556872 -5.11276 0
M  V30 5909 N 546.764 -1.21656 -6.01725 0
M  V30 5910 C 548.135 -1.41642 -6.03604 0
M  V30 5911 C 550.19 -0.613297 -4.94108 0
M  V30 5912 C 548.893 -2.32737 -6.80607 0
M  V30 5913 C 550.919 -1.51174 -5.71752 0
M  V30 5914 C 550.281 -2.35898 -6.63726 0
M  V30 5915 H 546.38 0.189307 -0.75874 0
M  V30 5916 H 548.964 -0.144899 -1.9416 0
M  V30 5917 H 547.135 1.9316 -3.36963 0
M  V30 5918 H 548.867 1.84548 -3.60172 0
M  V30 5919 H 545.622 0.172871 -4.73284 0
M  V30 5920 H 546.046 -1.71746 -6.54853 0
M  V30 5921 H 550.688 0.0275228 -4.22791 0
M  V30 5922 H 548.406 -2.97856 -7.51204 0
M  V30 5923 H 551.992 -1.5602 -5.6049 0
M  V30 5924 H 550.872 -3.04291 -7.22756 0
M  V30 5925 N 548.375 1.56261 0.205012 0
M  V30 5926 C 549.652 1.70856 0.952233 0
M  V30 5927 C 550.032 0.620501 2.01775 0
M  V30 5928 O 549.38 -0.370035 2.25484 0
M  V30 5929 C 549.59 3.12807 1.54767 0
M  V30 5930 C 550.938 3.72733 2.0336 0
M  V30 5931 O 551.962 3.15873 1.64629 0
M  V30 5932 O 550.821 4.72501 2.746 0
M  V30 5933 H 547.915 0.696496 0.445895 0
M  V30 5934 H 550.461 1.6857 0.195489 0
M  V30 5935 H 549.233 3.83465 0.779132 0
M  V30 5936 H 548.856 3.1928 2.36951 0
M  V30 5937 N 549.853 -0.472356 1.50355 0
M  V30 5938 C 551.078 -1.25251 1.65309 0
M  V30 5939 C 551.503 -1.85081 0.335643 0
M  V30 5940 O 550.861 -1.67227 -0.700335 0
M  V30 5941 C 550.909 -2.3379 2.74544 0
M  V30 5942 O 550.013 -3.38401 2.35709 0
M  V30 5943 H 549.354 -0.368539 0.552336 0
M  V30 5944 H 551.884 -0.562271 1.96722 0
M  V30 5945 H 551.894 -2.79121 2.97583 0
M  V30 5946 H 550.569 -1.89614 3.70161 0
M  V30 5947 H 549.146 -2.9879 2.23112 0
M  V30 5948 N 551.331 -1.39911 -0.725443 0
M  V30 5949 C 552.264 -1.33788 -1.84867 0
M  V30 5950 C 553.242 -0.209907 -1.61239 0
M  V30 5951 O 554.426 -0.391943 -1.8438 0
M  V30 5952 C 551.553 -1.07975 -3.21028 0
M  V30 5953 C 550.599 -2.23092 -3.635 0
M  V30 5954 S 551.432 -3.85431 -3.71757 0
M  V30 5955 C 552.588 -3.61862 -5.10692 0
M  V30 5956 H 552.821 -2.28848 -1.89779 0
M  V30 5957 H 550.354 -1.26079 -0.891254 0
M  V30 5958 H 552.312 -0.937669 -3.99647 0
M  V30 5959 H 550.973 -0.145865 -3.13761 0
M  V30 5960 H 550.166 -2.00647 -4.62338 0
M  V30 5961 H 549.768 -2.33553 -2.92112 0
M  V30 5962 H 552.06 -3.19719 -5.97316 0
M  V30 5963 H 553.003 -4.60196 -5.38169 0
M  V30 5964 H 553.411 -2.95757 -4.8082 0
M  V30 5965 N 552.809 0.956637 -1.25245 0
M  V30 5966 C 553.756 2.053 -1.05454 0
M  V30 5967 C 554.726 1.66062 0.0356889 0
M  V30 5968 O 555.911 1.90415 -0.121099 0
M  V30 5969 C 553.051 3.38391 -0.677191 0
M  V30 5970 C 552.164 3.90758 -1.84206 0
M  V30 5971 C 551.299 5.12165 -1.40926 0
M  V30 5972 C 550.338 5.56757 -2.54338 0
M  V30 5973 N 549.475 6.69376 -2.11848 0
M  V30 5974 H 554.315 2.21562 -1.99284 0
M  V30 5975 H 551.852 1.08578 -0.992434 0
M  V30 5976 H 553.81 4.1488 -0.43938 0
M  V30 5977 H 552.44 3.22021 0.224127 0
M  V30 5978 H 551.492 3.10808 -2.19323 0
M  V30 5979 H 552.804 4.19802 -2.69383 0
M  V30 5980 H 551.958 5.96065 -1.13098 0
M  V30 5981 H 550.697 4.84832 -0.528175 0
M  V30 5982 H 549.702 4.71423 -2.82913 0
M  V30 5983 H 550.927 5.861 -3.43022 0
M  V30 5984 H 548.873 6.43756 -1.26153 0
M  V30 5985 H 548.79 6.97927 -2.90574 0
M  V30 5986 H 550.058 7.5669 -1.87191 0
M  V30 5987 N 554.287 1.06798 1.15896 0
M  V30 5988 C 555.533 0.798757 1.8706 0
M  V30 5989 C 555.888 -0.667739 1.80441 0
M  V30 5990 O 555.181 -1.48334 1.21274 0
M  V30 5991 C 555.375 1.23414 3.35416 0
M  V30 5992 C 555.204 2.74142 3.56478 0
M  V30 5993 C 553.974 3.41675 3.72272 0
M  V30 5994 C 556.172 3.72348 3.5477 0
M  V30 5995 N 554.154 4.81101 3.81333 0
M  V30 5996 C 555.525 4.97585 3.69877 0
M  V30 5997 C 557.58 3.65585 3.38011 0
M  V30 5998 C 556.283 6.16866 3.69959 0
M  V30 5999 C 558.309 4.84323 3.39389 0
M  V30 6000 C 557.671 6.08391 3.5502 0
M  V30 6001 H 553.77 0.344761 0.7019 0
M  V30 6002 H 556.354 1.36314 1.3902 0
M  V30 6003 H 554.525 0.697522 3.82085 0
M  V30 6004 H 556.257 0.91304 3.94266 0
M  V30 6005 H 553.012 2.92078 3.7281 0
M  V30 6006 H 553.436 5.53647 3.8962 0
M  V30 6007 H 558.078 2.70615 3.2485 0
M  V30 6008 H 555.796 7.12164 3.819 0
M  V30 6009 H 559.382 4.80762 3.27658 0
M  V30 6010 H 558.262 6.98731 3.56012 0
M  V30 6011 N 555.766 -1.3263 0.851289 0
M  V30 6012 C 556.729 -2.27247 0.298541 0
M  V30 6013 C 557.729 -1.51467 -0.539847 0
M  V30 6014 O 558.919 -1.7061 -0.351843 0
M  V30 6015 C 556.051 -3.35964 -0.578004 0
M  V30 6016 H 557.244 -2.7765 1.13359 0
M  V30 6017 H 554.797 -1.43245 0.625354 0
M  V30 6018 H 555.532 -2.90823 -1.435 0
M  V30 6019 H 555.317 -3.92094 0.0220539 0
M  V30 6020 H 556.807 -4.06472 -0.957626 0
M  V30 6021 N 557.244 -0.608902 -1.45362 0
M  V30 6022 C 558.66 -0.272659 -1.57254 0
M  V30 6023 C 558.86 1.22477 -1.60005 0
M  V30 6024 O 557.916 2.00785 -1.53106 0
M  V30 6025 C 559.229 -0.944991 -2.85465 0
M  V30 6026 C 560.777 -0.921033 -2.99142 0
M  V30 6027 C 561.252 -1.5734 -4.30126 0
M  V30 6028 N 562.743 -1.53895 -4.36887 0
M  V30 6029 C 563.478 -2.01286 -5.36909 0
M  V30 6030 N 562.974 -2.56768 -6.43461 0
M  V30 6031 N 564.767 -1.92046 -5.28275 0
M  V30 6032 H 556.918 -1.58117 -1.4182 0
M  V30 6033 H 559.181 -0.662437 -0.678146 0
M  V30 6034 H 558.887 -1.99941 -2.89338 0
M  V30 6035 H 558.761 -0.469079 -3.74272 0
M  V30 6036 H 561.148 0.124846 -2.94836 0
M  V30 6037 H 561.229 -1.43522 -2.11743 0
M  V30 6038 H 560.873 -2.61862 -4.35191 0
M  V30 6039 H 560.803 -1.03422 -5.16344 0
M  V30 6040 H 563.294 -1.13366 -3.60495 0
M  V30 6041 H 563.607 -2.9072 -7.16032 0
M  V30 6042 H 561.952 -2.60808 -6.44208 0
M  V30 6043 H 565.143 -1.48439 -4.43941 0
M  V30 6044 H 565.316 -2.29293 -6.06077 0
M  V30 6045 N 558.722 1.53707 -0.348139 0
M  V30 6046 C 560.133 1.86213 0.134797 0
M  V30 6047 C 560.484 1.26925 1.49614 0
M  V30 6048 O 559.609 0.584573 2.08355 0
M  V30 6049 C 560.204 3.37866 0.251371 0
M  V30 6050 C 558.763 3.70233 0.678543 0
M  V30 6051 C 557.91 2.76683 -0.184925 0
M  V30 6052 H 560.861 1.48204 -0.567571 0
M  V30 6053 H 560.882 3.64908 1.07806 0
M  V30 6054 H 560.394 3.80988 -0.739581 0
M  V30 6055 H 558.495 3.32659 1.67835 0
M  V30 6056 H 558.608 4.76836 0.465251 0
M  V30 6057 H 556.972 2.52374 0.343465 0
M  V30 6058 H 557.755 3.22635 -1.1731 0
M  V30 6059 N 560.2 0.0768682 1.57412 0
M  V30 6060 C 561.447 -0.591085 1.93681 0
M  V30 6061 C 561.775 -1.69311 0.957286 0
M  V30 6062 O 561.03 -1.95682 -0.0262428 0
M  V30 6063 C 561.329 -1.20268 3.36557 0
M  V30 6064 C 560.995 -0.226286 4.50332 0
M  V30 6065 C 559.657 0.0423142 4.81181 0
M  V30 6066 C 562.009 0.441415 5.19327 0
M  V30 6067 C 559.337 0.985616 5.78362 0
M  V30 6068 C 561.689 1.37307 6.17519 0
M  V30 6069 C 560.353 1.65009 6.46783 0
M  V30 6070 H 559.623 -0.216293 0.70873 0
M  V30 6071 H 562.27 0.148824 1.90921 0
M  V30 6072 H 560.575 -2.01844 3.35807 0
M  V30 6073 H 562.272 -1.72688 3.61911 0
M  V30 6074 H 558.862 -0.445821 4.26275 0
M  V30 6075 H 563.046 0.247023 4.95685 0
M  V30 6076 H 558.302 1.20743 5.99359 0
M  V30 6077 H 562.476 1.89637 6.70083 0
M  V30 6078 H 560.103 2.38263 7.21897 0
M  V30 6079 N 561.678 -1.56367 -0.196722 0
M  V30 6080 C 562.608 -1.97442 -1.24655 0
M  V30 6081 C 563.589 -0.846147 -1.47561 0
M  V30 6082 O 564.774 -1.11035 -1.59326 0
M  V30 6083 C 561.904 -2.31253 -2.59112 0
M  V30 6084 C 560.858 -3.46804 -2.50821 0
M  V30 6085 C 560.184 -3.66286 -3.89536 0
M  V30 6086 C 561.484 -4.8104 -2.03465 0
M  V30 6087 H 563.178 -2.85388 -0.905216 0
M  V30 6088 H 560.724 -1.37304 -0.434002 0
M  V30 6089 H 562.677 -2.58583 -3.32736 0
M  V30 6090 H 561.401 -1.40188 -2.94983 0
M  V30 6091 H 560.06 -3.19563 -1.79653 0
M  V30 6092 H 559.708 -2.72555 -4.22756 0
M  V30 6093 H 559.408 -4.4402 -3.84864 0
M  V30 6094 H 560.932 -3.9599 -4.64784 0
M  V30 6095 H 562.346 -5.07411 -2.66846 0
M  V30 6096 H 560.743 -5.62232 -2.09798 0
M  V30 6097 H 561.813 -4.74732 -0.98781 0
M  V30 6098 N 563.156 0.464375 -1.50603 0
M  V30 6099 C 564.381 1.24372 -1.65971 0
M  V30 6100 C 564.806 1.84901 -0.345453 0
M  V30 6101 O 564.164 1.67596 0.691457 0
M  V30 6102 C 564.212 2.32331 -2.7578 0
M  V30 6103 O 563.316 3.37146 -2.375 0
M  V30 6104 H 562.657 0.365604 -0.554283 0
M  V30 6105 H 565.187 0.55183 -1.97018 0
M  V30 6106 H 565.197 2.77539 -2.99059 0
M  V30 6107 H 563.872 1.87648 -3.71162 0
M  V30 6108 H 562.449 2.97602 -2.24694 0
M  V30 6109 N 564.634 1.40294 0.718013 0
M  V30 6110 C 565.582 1.40536 1.85344 0
M  V30 6111 C 566.576 0.286192 1.66965 0
M  V30 6112 O 567.782 0.457105 1.74099 0
M  V30 6113 H 564.157 0.439236 0.61039 0
M  V30 6114 H 566.128 2.36275 1.82255 0
M  V30 6115 C 564.877 1.28245 3.23185 0
M  V30 6116 H 564.2 2.1364 3.37932 0
M  V30 6117 H 565.64 1.32474 4.02774 0
M  V30 6118 C 564.099 -0.0075503 3.36899 0
M  V30 6119 O 564.629 -0.971391 3.89778 0
M  V30 6120 N 562.835 -0.0762479 2.905 0
M  V30 6121 H 562.382 0.708819 2.47656 0
M  V30 6122 H 562.34 -0.938846 3.00055 0
M  V30 6123 N 566.112 -0.949982 1.2575 0
M  V30 6124 C 567.06 -2.06869 1.06339 0
M  V30 6125 C 568.054 -1.69399 -0.00708901 0
M  V30 6126 O 569.26 -1.79383 0.148897 0
M  V30 6127 H 565.635 -0.677197 0.326969 0
M  V30 6128 H 567.606 -2.20396 2.01167 0
M  V30 6129 C 566.355 -3.40503 0.703769 0
M  V30 6130 H 565.678 -3.69807 1.51931 0
M  V30 6131 H 567.118 -4.19623 0.607677 0
M  V30 6132 C 565.577 -3.31685 -0.5905 0
M  V30 6133 O 566.107 -3.67085 -1.63131 0
M  V30 6134 N 564.313 -2.84797 -0.577859 0
M  V30 6135 H 563.86 -2.56186 0.26951 0
M  V30 6136 H 563.818 -2.79279 -1.44398 0
M  V30 6137 N 567.59 -1.07411 -1.15328 0
M  V30 6138 C 568.815 -0.818856 -1.90551 0
M  V30 6139 C 569.24 0.622194 -1.77512 0
M  V30 6140 O 568.598 1.43484 -1.10824 0
M  V30 6141 C 568.646 -1.23267 -3.38877 0
M  V30 6142 O 567.75 -0.378345 -4.10661 0
M  V30 6143 H 567.091 -0.29827 -0.593238 0
M  V30 6144 H 569.621 -1.43289 -1.46046 0
M  V30 6145 H 569.631 -1.20912 -3.89672 0
M  V30 6146 H 568.306 -2.28226 -3.47686 0
M  V30 6147 H 566.883 -0.464437 -3.69996 0
M  V30 6148 N 569.068 1.32177 -0.85831 0
M  V30 6149 C 570.001 2.26823 -0.25035 0
M  V30 6150 C 570.979 1.50571 0.61378 0
M  V30 6151 O 572.163 1.79682 0.569777 0
M  V30 6152 C 569.29 3.32472 0.646556 0
M  V30 6153 C 568.336 4.26255 -0.144675 0
M  V30 6154 S 569.169 5.13608 -1.5155 0
M  V30 6155 C 570.325 6.22778 -0.624408 0
M  V30 6156 H 570.558 2.7804 -1.05267 0
M  V30 6157 H 568.091 1.39764 -0.656152 0
M  V30 6158 H 570.049 3.93817 1.15837 0
M  V30 6159 H 568.71 2.80031 1.42272 0
M  V30 6160 H 567.903 5.01114 0.538613 0
M  V30 6161 H 567.505 3.69346 -0.588198 0
M  V30 6162 H 569.797 6.77287 0.169846 0
M  V30 6163 H 570.74 6.95233 -1.34376 0
M  V30 6164 H 571.148 5.64156 -0.197128 0
M  V30 6165 N 570.547 0.616602 1.45037 0
M  V30 6166 C 571.795 0.115103 2.01772 0
M  V30 6167 C 572.116 -1.2622 1.48639 0
M  V30 6168 O 571.386 -1.83563 0.684199 0
M  V30 6169 H 569.966 0.0395607 0.745952 0
M  V30 6170 H 572.628 0.800032 1.77723 0
M  V30 6171 H 571.724 0.0717274 3.12018 0
M  V30 6172 N 572.025 -1.5352 0.356285 0
M  V30 6173 C 573.436 -1.86282 -0.12492 0
M  V30 6174 C 573.787 -1.27717 -1.48939 0
M  V30 6175 O 572.912 -0.595614 -2.08042 0
M  V30 6176 C 573.507 -3.37995 -0.23345 0
M  V30 6177 C 572.066 -3.70588 -0.658899 0
M  V30 6178 C 571.213 -2.76581 0.199596 0
M  V30 6179 H 574.164 -1.47901 0.575423 0
M  V30 6180 H 574.185 -3.65475 -1.0587 0
M  V30 6181 H 573.697 -3.8059 0.759776 0
M  V30 6182 H 571.798 -3.33544 -1.66069 0
M  V30 6183 H 571.911 -4.77076 -0.439957 0
M  V30 6184 H 570.275 -2.52552 -0.330076 0
M  V30 6185 H 571.058 -3.22008 1.19019 0
M  V30 6186 N 573.503 -0.0852151 -1.57369 0
M  V30 6187 C 574.436 0.913608 -2.09113 0
M  V30 6188 C 575.414 1.28264 -0.999358 0
M  V30 6189 O 576.598 1.3896 -1.27367 0
M  V30 6190 C 573.725 2.21777 -2.55993 0
M  V30 6191 C 572.771 1.99932 -3.76735 0
M  V30 6192 S 573.604 1.24637 -5.20794 0
M  V30 6193 C 574.76 2.56304 -5.71016 0
M  V30 6194 H 574.993 0.473369 -2.93507 0
M  V30 6195 H 572.526 0.127856 -1.5387 0
M  V30 6196 H 574.484 2.96726 -2.83662 0
M  V30 6197 H 573.145 2.62923 -1.71843 0
M  V30 6198 H 572.338 2.96482 -4.07571 0
M  V30 6199 H 571.94 1.33116 -3.49509 0
M  V30 6200 H 574.232 3.5233 -5.78679 0
M  V30 6201 H 575.175 2.3006 -6.69685 0
M  V30 6202 H 575.583 2.64125 -4.98897 0
M  V30 6203 N 574.981 1.5647 0.188427 0
M  V30 6204 C 576.392 1.70864 0.752494 0
M  V30 6205 C 576.743 0.692905 1.83557 0
M  V30 6206 O 575.868 -0.149307 2.15884 0
M  V30 6207 C 576.463 3.09789 1.37173 0
M  V30 6208 C 575.022 3.25925 1.88281 0
M  V30 6209 C 574.169 2.66817 0.755259 0
M  V30 6210 H 577.12 1.58657 -0.0367408 0
M  V30 6211 H 577.141 3.07489 2.24122 0
M  V30 6212 H 576.653 3.83693 0.583219 0
M  V30 6213 H 574.754 2.56948 2.6983 0
M  V30 6214 H 574.867 4.33498 2.04001 0
M  V30 6215 H 573.231 2.2617 1.17128 0
M  V30 6216 H 574.014 3.43294 -0.0211237 0
M  V30 6217 N 576.459 -0.456382 1.50847 0
M  V30 6218 C 577.875 -0.791345 1.386 0
M  V30 6219 C 578.075 -1.9633 0.453498 0
M  V30 6220 O 577.131 -2.52308 -0.0984353 0
M  V30 6221 C 578.444 -1.08959 2.80265 0
M  V30 6222 C 579.992 -1.19517 2.89283 0
M  V30 6223 C 580.467 -1.52647 4.31814 0
M  V30 6224 N 581.958 -1.59609 4.34832 0
M  V30 6225 C 582.693 -1.86777 5.42127 0
M  V30 6226 N 582.189 -2.11866 6.59609 0
M  V30 6227 N 583.982 -1.88402 5.29586 0
M  V30 6228 H 576.133 0.315746 2.1004 0
M  V30 6229 H 578.396 0.0787916 0.94472 0
M  V30 6230 H 578.102 -0.301355 3.50407 0
M  V30 6231 H 577.976 -2.02211 3.18419 0
M  V30 6232 H 580.363 -1.97406 2.19351 0
M  V30 6233 H 580.444 -0.242111 2.54652 0
M  V30 6234 H 580.088 -0.752922 5.02288 0
M  V30 6235 H 580.018 -2.49127 4.63943 0
M  V30 6236 H 582.509 -1.42201 3.50125 0
M  V30 6237 H 582.822 -2.31912 7.37182 0
M  V30 6238 H 581.167 -2.09228 6.62758 0
M  V30 6239 H 584.358 -1.68307 4.36795 0
M  V30 6240 H 584.531 -2.09238 6.13289 0
M  V30 6241 N 577.937 -1.40673 -0.710563 0
M  V30 6242 C 578.869 -1.37256 -1.83558 0
M  V30 6243 C 579.882 -0.277133 -1.60424 0
M  V30 6244 O 581.071 -0.537831 -1.70205 0
M  V30 6245 C 578.171 -1.1144 -3.20054 0
M  V30 6246 C 577.344 -2.32734 -3.70342 0
M  V30 6247 C 576.403 -2.03002 -4.85465 0
M  V30 6248 O 575.429 -2.75912 -4.97857 0
M  V30 6249 N 576.631 -1.01105 -5.71627 0
M  V30 6250 H 579.396 -2.34215 -1.86985 0
M  V30 6251 H 576.957 -1.35091 -0.892301 0
M  V30 6252 H 578.949 -0.895265 -3.94673 0
M  V30 6253 H 577.519 -0.231307 -3.11743 0
M  V30 6254 H 576.739 -2.70446 -2.86798 0
M  V30 6255 H 578.027 -3.13584 -4.00678 0
M  V30 6256 H 577.425 -0.407303 -5.64232 0
M  V30 6257 H 575.982 -0.85182 -6.4621 0
M  V30 6258 N 579.415 0.9433 -1.26252 0
M  V30 6259 C 580.826 1.50404 -1.10614 0
M  V30 6260 C 581.177 1.93666 0.31429 0
M  V30 6261 O 580.302 1.79709 1.20555 0
M  V30 6262 C 580.897 2.73336 -2.00182 0
M  V30 6263 C 579.456 3.25686 -1.88695 0
M  V30 6264 C 578.603 1.98474 -1.93658 0
M  V30 6265 H 581.554 0.759006 -1.39373 0
M  V30 6266 H 581.575 3.47567 -1.54847 0
M  V30 6267 H 581.087 2.41818 -3.03555 0
M  V30 6268 H 579.188 3.61998 -0.882489 0
M  V30 6269 H 579.301 3.92935 -2.74115 0
M  V30 6270 H 577.665 2.14278 -1.37684 0
M  V30 6271 H 578.448 1.6929 -2.98657 0
M  V30 6272 N 580.893 1.08022 1.14757 0
M  V30 6273 C 581.856 0.71048 2.1791 0
M  V30 6274 C 582.856 -0.252731 1.58801 0
M  V30 6275 O 584.046 -0.0327915 1.74169 0
M  V30 6276 C 581.178 0.0483203 3.40866 0
M  V30 6277 H 582.371 1.62384 2.52134 0
M  V30 6278 H 579.924 0.877595 1.29337 0
M  V30 6279 H 580.659 -0.876959 3.12218 0
M  V30 6280 H 580.444 0.741189 3.85031 0
M  V30 6281 H 581.934 -0.195471 4.17142 0
M  V30 6282 N 582.371 -1.3172 0.865308 0
M  V30 6283 C 583.648 -1.91574 0.394789 0
M  V30 6284 C 584.028 -1.78769 -1.12271 0
M  V30 6285 O 583.376 -1.19245 -1.94918 0
M  V30 6286 C 583.586 -3.37957 0.870982 0
M  V30 6287 C 584.934 -4.15073 0.894384 0
M  V30 6288 O 585.958 -3.4672 0.816325 0
M  V30 6289 O 584.817 -5.37151 1.00651 0
M  V30 6290 H 581.911 -0.818649 0.117229 0
M  V30 6291 H 584.457 -1.4042 0.952913 0
M  V30 6292 H 583.229 -3.41269 1.91444 0
M  V30 6293 H 582.852 -3.96534 0.290907 0
M  V30 6294 N 583.85 -0.624285 -1.44708 0
M  V30 6295 C 585.096 -0.126237 -2.02407 0
M  V30 6296 C 585.428 1.24618 -1.48943 0
M  V30 6297 O 584.704 1.82569 -0.670742 0
M  V30 6298 C 584.986 -0.105449 -3.59946 0
M  V30 6299 C 584.84 -1.50972 -4.23707 0
M  V30 6300 C 586.159 0.573629 -4.36346 0
M  V30 6301 H 583.278 -0.0473472 -0.735478 0
M  V30 6302 H 585.92 -0.799452 -1.72362 0
M  V30 6303 H 584.07 0.46783 -3.85673 0
M  V30 6304 H 585.742 -2.13136 -4.0911 0
M  V30 6305 H 583.985 -2.0656 -3.81465 0
M  V30 6306 H 584.656 -1.44727 -5.32689 0
M  V30 6307 H 587.132 0.0861787 -4.16011 0
M  V30 6308 H 586.008 0.557338 -5.46063 0
M  V30 6309 H 586.269 1.64276 -4.10446 0
M  V30 6310 N 585.328 1.53329 -0.364422 0
M  V30 6311 C 586.291 2.24323 0.470292 0
M  V30 6312 C 587.291 1.25068 1.01067 0
M  V30 6313 O 588.481 1.49354 0.896605 0
M  V30 6314 C 585.613 2.97908 1.65722 0
M  V30 6315 H 586.806 2.9952 -0.150917 0
M  V30 6316 H 584.359 1.55868 -0.116092 0
M  V30 6317 H 585.094 2.2695 2.31655 0
M  V30 6318 H 584.879 3.70732 1.27671 0
M  V30 6319 H 586.369 3.5188 2.24878 0
M  V30 6320 N 586.806 0.0935595 1.57322 0
M  V30 6321 C 587.738 -0.895923 2.10964 0
M  V30 6322 C 588.751 -1.24705 1.04654 0
M  V30 6323 O 589.94 -1.20044 1.32105 0
M  V30 6324 C 587.04 -2.20546 2.57318 0
M  V30 6325 C 586.213 -2.0299 3.87445 0
M  V30 6326 C 585.272 -3.17443 4.19662 0
M  V30 6327 O 584.298 -2.91474 4.88909 0
M  V30 6328 N 585.5 -4.43168 3.74943 0
M  V30 6329 H 588.265 -0.437788 2.96485 0
M  V30 6330 H 585.826 -0.0915863 1.61641 0
M  V30 6331 H 587.818 -2.9606 2.75917 0
M  V30 6332 H 586.388 -2.57789 1.76816 0
M  V30 6333 H 585.608 -1.11815 3.78009 0
M  V30 6334 H 586.896 -1.88535 4.7258 0
M  V30 6335 H 586.294 -4.67149 3.19043 0
M  V30 6336 H 584.851 -5.15637 3.987 0
M  V30 6337 N 588.284 -1.56567 -0.180126 0
M  V30 6338 C 589.247 -1.94852 -1.20686 0
M  V30 6339 C 590.247 -0.831212 -1.3765 0
M  V30 6340 O 591.437 -1.09841 -1.35206 0
M  V30 6341 C 588.569 -2.23565 -2.57355 0
M  V30 6342 H 589.762 -2.86722 -0.879225 0
M  V30 6343 H 587.315 -1.50489 -0.422237 0
M  V30 6344 H 588.05 -1.34381 -2.95148 0
M  V30 6345 H 587.835 -3.04999 -2.46411 0
M  V30 6346 H 589.325 -2.54137 -3.31367 0
M  V30 6347 N 589.762 0.448376 -1.51087 0
M  V30 6348 C 591.01 1.19635 -1.62886 0
M  V30 6349 C 591.331 1.91977 -0.342024 0
M  V30 6350 O 590.601 1.85094 0.641636 0
M  V30 6351 H 589.181 0.444598 -0.600285 0
M  V30 6352 H 591.843 0.515138 -1.87969 0
M  V30 6353 H 590.939 1.93194 -2.45117 0
M  V30 6354 N 591.24 1.41047 0.703093 0
M  V30 6355 C 592.517 1.30493 1.45708 0
M  V30 6356 C 592.897 -0.0709892 2.10981 0
M  V30 6357 O 592.245 -1.08471 2.01113 0
M  V30 6358 C 592.455 2.45287 2.48265 0
M  V30 6359 C 593.803 2.86104 3.13735 0
M  V30 6360 O 594.827 2.44971 2.58587 0
M  V30 6361 O 593.686 3.57206 4.13601 0
M  V30 6362 H 590.78 0.513144 0.648546 0
M  V30 6363 H 593.326 1.52995 0.734208 0
M  V30 6364 H 592.098 3.37135 1.98635 0
M  V30 6365 H 591.721 2.24622 3.28071 0
M  V30 6366 N 592.718 -0.936591 1.26751 0
M  V30 6367 C 593.65 -2.03991 1.045 0
M  V30 6368 C 594.663 -1.628 0.00394261 0
M  V30 6369 O 595.852 -1.76817 0.244526 0
M  V30 6370 C 592.952 -3.34218 0.561403 0
M  V30 6371 C 592.125 -4.04151 1.67274 0
M  V30 6372 C 591.184 -5.12651 1.1864 0
M  V30 6373 O 590.21 -5.37104 1.88437 0
M  V30 6374 N 591.412 -5.80488 0.037278 0
M  V30 6375 H 594.177 -2.23644 1.99508 0
M  V30 6376 H 591.738 -1.10638 1.18198 0
M  V30 6377 H 593.73 -4.04101 0.220136 0
M  V30 6378 H 592.3 -3.11203 -0.295211 0
M  V30 6379 H 591.52 -3.28121 2.18472 0
M  V30 6380 H 592.808 -4.47626 2.41885 0
M  V30 6381 H 592.206 -5.63064 -0.545494 0
M  V30 6382 H 590.763 -6.5134 -0.244877 0
M  V30 6383 N 594.196 -1.08629 -1.14182 0
M  V30 6384 C 595.445 -0.812271 -1.84621 0
M  V30 6385 C 595.758 0.664313 -1.83973 0
M  V30 6386 O 596.964 1.05357 -2.50224 0
M  V30 6387 C 595.42 -1.4031 -3.31423 0
M  V30 6388 C 595.028 -2.91164 -3.40481 0
M  V30 6389 C 596.772 -1.20767 -4.06959 0
M  V30 6390 C 594.679 -3.43373 -4.81507 0
M  V30 6391 H 593.609 -0.30019 -0.691666 0
M  V30 6392 H 596.26 -1.30798 -1.28701 0
M  V30 6393 H 594.642 -0.835096 -3.87094 0
M  V30 6394 H 595.816 -3.5412 -2.94848 0
M  V30 6395 H 594.131 -3.09646 -2.78403 0
M  V30 6396 H 596.728 -1.57237 -5.11058 0
M  V30 6397 H 597.071 -0.147664 -4.16038 0
M  V30 6398 H 597.604 -1.74274 -3.57594 0
M  V30 6399 H 594.343 -4.48958 -4.77616 0
M  V30 6400 H 593.863 -2.85176 -5.27669 0
M  V30 6401 H 595.542 -3.40095 -5.50404 0
M  V30 6402 N 595.674 1.31259 -0.872281 0
M  V30 6403 C 597.09 1.49283 -0.564521 0
M  V30 6404 C 597.29 1.80243 0.900807 0
M  V30 6405 O 596.346 1.88246 1.68284 0
M  V30 6406 C 597.659 2.62503 -1.46673 0
M  V30 6407 C 599.207 2.76386 -1.46901 0
M  V30 6408 C 599.682 3.92705 -2.35684 0
M  V30 6409 N 601.173 3.99995 -2.33577 0
M  V30 6410 C 601.908 4.89276 -2.98992 0
M  V30 6411 N 601.404 5.83443 -3.73585 0
M  V30 6412 N 603.197 4.82541 -2.88289 0
M  V30 6413 H 595.348 1.09432 -1.82039 0
M  V30 6414 H 597.611 0.540949 -0.77851 0
M  V30 6415 H 597.317 2.46407 -2.50951 0
M  V30 6416 H 597.191 3.58695 -1.16696 0
M  V30 6417 H 599.578 2.91894 -0.433796 0
M  V30 6418 H 599.659 1.80853 -1.80903 0
M  V30 6419 H 599.303 3.77954 -3.39283 0
M  V30 6420 H 599.233 4.87549 -1.99006 0
M  V30 6421 H 601.724 3.32624 -1.7936 0
M  V30 6422 H 602.037 6.48303 -4.20622 0
M  V30 6423 H 600.382 5.83415 -3.77694 0
M  V30 6424 H 603.573 4.07951 -2.2955 0
M  V30 6425 H 603.746 5.51916 -3.39549 0
M  V30 6426 N 597.152 0.631951 1.44375 0
M  V30 6427 C 598.398 0.13697 2.02337 0
M  V30 6428 C 598.731 -1.23826 1.49602 0
M  V30 6429 O 598.006 -1.8221 0.680415 0
M  V30 6430 C 598.289 0.124536 3.59885 0
M  V30 6431 C 598.142 1.53217 4.229 0
M  V30 6432 C 599.461 -0.550481 4.36644 0
M  V30 6433 H 596.58 0.051247 0.735216 0
M  V30 6434 H 599.222 0.808581 1.71936 0
M  V30 6435 H 597.372 -0.44737 3.85916 0
M  V30 6436 H 599.044 2.15303 4.07973 0
M  V30 6437 H 597.287 2.0858 3.80364 0
M  V30 6438 H 597.958 1.4755 5.31914 0
M  V30 6439 H 600.434 -0.0641154 4.16051 0
M  V30 6440 H 599.31 -0.528371 5.46351 0
M  V30 6441 H 599.571 -1.62097 4.11311 0
M  V30 6442 N 598.631 -1.53133 0.372548 0
M  V30 6443 C 599.563 -2.23557 -0.505444 0
M  V30 6444 C 600.576 -1.25211 -1.04049 0
M  V30 6445 O 601.765 -1.51391 -0.945675 0
M  V30 6446 C 598.865 -2.92516 -1.71136 0
M  V30 6447 C 598.038 -4.17428 -1.30661 0
M  V30 6448 C 597.097 -4.69535 -2.37536 0
M  V30 6449 O 596.123 -5.33042 -1.99637 0
M  V30 6450 N 597.325 -4.47947 -3.6922 0
M  V30 6451 H 600.09 -2.9954 0.0978259 0
M  V30 6452 H 597.651 -1.60684 0.198068 0
M  V30 6453 H 599.643 -3.24281 -2.42124 0
M  V30 6454 H 598.213 -2.19944 -2.22134 0
M  V30 6455 H 597.433 -3.91888 -0.426292 0
M  V30 6456 H 598.721 -4.98622 -1.01259 0
M  V30 6457 H 598.119 -3.97219 -4.02783 0
M  V30 6458 H 596.676 -4.84245 -4.36292 0
M  V30 6459 N 600.109 -0.101901 -1.5727 0
M  V30 6460 C 601.525 0.254739 -1.57554 0
M  V30 6461 C 601.725 1.67937 -1.11352 0
M  V30 6462 O 600.781 2.39722 -0.793081 0
M  V30 6463 C 602.094 0.036975 -3.00677 0
M  V30 6464 C 603.642 0.104199 -3.12827 0
M  V30 6465 C 604.117 -0.0856565 -4.5792 0
M  V30 6466 N 605.608 -0.0310498 -4.6319 0
M  V30 6467 C 606.343 -0.153099 -5.73196 0
M  V30 6468 N 605.839 -0.330364 -6.92012 0
M  V30 6469 N 607.632 -0.0938854 -5.62022 0
M  V30 6470 H 599.783 -1.03263 -1.85609 0
M  V30 6471 H 602.046 -0.405251 -0.857016 0
M  V30 6472 H 601.752 -0.947254 -3.38703 0
M  V30 6473 H 601.626 0.776335 -3.69124 0
M  V30 6474 H 604.013 1.07894 -2.74669 0
M  V30 6475 H 604.094 -0.666762 -2.46957 0
M  V30 6476 H 603.738 -1.05729 -4.96773 0
M  V30 6477 H 603.668 0.705082 -5.21858 0
M  V30 6478 H 606.159 0.103141 -3.77759 0
M  V30 6479 H 606.472 -0.41482 -7.71686 0
M  V30 6480 H 604.817 -0.366119 -6.94035 0
M  V30 6481 H 608.008 0.0435168 -4.6808 0
M  V30 6482 H 608.181 -0.19245 -6.47714 0
M  V30 6483 N 601.587 1.56661 0.17182 0
M  V30 6484 C 602.519 1.92934 1.2373 0
M  V30 6485 C 603.532 0.822385 1.40502 0
M  V30 6486 O 604.721 1.10083 1.40514 0
M  V30 6487 C 601.821 2.16651 2.60607 0
M  V30 6488 C 600.994 3.47878 2.6514 0
M  V30 6489 C 600.053 3.60429 3.83377 0
M  V30 6490 O 599.079 4.33051 3.69398 0
M  V30 6491 N 600.281 2.95241 4.99813 0
M  V30 6492 H 603.046 2.84931 0.929205 0
M  V30 6493 H 600.607 1.5781 0.361588 0
M  V30 6494 H 602.599 2.22312 3.38171 0
M  V30 6495 H 601.169 1.3104 2.83809 0
M  V30 6496 H 600.389 3.53879 1.73675 0
M  V30 6497 H 601.677 4.34232 2.6518 0
M  V30 6498 H 601.075 2.3611 5.14071 0
M  V30 6499 H 599.632 3.06499 5.75241 0
M  V30 6500 N 603.065 -0.440357 1.51323 0
M  V30 6501 C 603.975 -1.55955 1.75258 0
M  V30 6502 C 604.991 -1.61933 0.636687 0
M  V30 6503 O 606.167 -1.79231 0.918593 0
M  V30 6504 C 603.232 -2.9196 1.86977 0
M  V30 6505 C 602.293 -2.96122 3.10822 0
M  V30 6506 C 601.526 -4.2564 3.21973 0
M  V30 6507 O 601.749 -5.17851 2.39137 0
M  V30 6508 O 600.683 -4.36025 4.14929 0
M  V30 6509 H 604.509 -1.38673 2.70191 0
M  V30 6510 H 602.094 -0.623055 1.35788 0
M  V30 6511 H 603.976 -3.72682 1.96688 0
M  V30 6512 H 602.651 -3.09375 0.952307 0
M  V30 6513 H 601.558 -2.14366 3.06591 0
M  V30 6514 H 602.891 -2.83651 4.02247 0
M  V30 6515 N 604.543 -1.41418 -0.695603 0
M  V30 6516 C 605.82 -1.31264 -1.45014 0
M  V30 6517 C 606.2 0.0597994 -2.11015 0
M  V30 6518 O 605.548 1.07403 -2.01685 0
M  V30 6519 C 605.758 -2.466 -2.4696 0
M  V30 6520 C 607.106 -2.87763 -3.12214 0
M  V30 6521 O 608.13 -2.46339 -2.57285 0
M  V30 6522 O 606.989 -3.59395 -4.11701 0
M  V30 6523 H 604.083 -0.516576 -0.645816 0
M  V30 6524 H 606.629 -1.53382 -0.726084 0
M  V30 6525 H 605.401 -3.38183 -1.96845 0
M  V30 6526 H 605.024 -2.26358 -3.26876 0
M  V30 6527 N 606.021 0.929856 -1.27246 0
M  V30 6528 C 607.269 1.674 -1.13233 0
M  V30 6529 C 607.59 1.92311 0.322744 0
M  V30 6530 O 606.86 1.52784 1.22612 0
M  V30 6531 H 605.44 0.620411 -0.416052 0
M  V30 6532 H 608.102 1.11663 -1.59741 0
M  V30 6533 H 607.198 2.64308 -1.65975 0
M  V30 6534 N 607.499 1.09233 1.13605 0
M  V30 6535 C 608.727 0.848908 1.88683 0
M  V30 6536 C 609.142 -0.599667 1.79024 0
M  V30 6537 O 608.499 -1.41265 1.15544 0
M  V30 6538 C 608.55 1.27273 3.38355 0
M  V30 6539 O 608.271 2.66449 3.47759 0
M  V30 6540 C 609.772 1.0614 4.30406 0
M  V30 6541 H 606.992 0.305549 0.597395 0
M  V30 6542 H 609.536 1.4538 1.43823 0
M  V30 6543 H 607.691 0.711776 3.80805 0
M  V30 6544 H 608.105 2.84264 4.40788 0
M  V30 6545 H 609.579 1.40725 5.33761 0
M  V30 6546 H 610.056 -0.000960332 4.392 0
M  V30 6547 H 610.662 1.60821 3.93722 0
M  V30 6548 N 608.977 -1.30795 0.87923 0
M  V30 6549 C 609.907 -2.30742 0.357796 0
M  V30 6550 C 610.888 -1.60747 -0.556283 0
M  V30 6551 O 612.073 -1.88393 -0.47135 0
M  V30 6552 C 609.203 -3.44583 -0.433555 0
M  V30 6553 C 608.157 -4.26235 0.388251 0
M  V30 6554 C 607.483 -5.32073 -0.529352 0
M  V30 6555 C 608.783 -4.96303 1.62729 0
M  V30 6556 H 610.477 -2.74605 1.19299 0
M  V30 6557 H 608.023 -1.32017 0.575104 0
M  V30 6558 H 609.976 -4.13563 -0.808934 0
M  V30 6559 H 608.7 -2.99511 -1.30234 0
M  V30 6560 H 607.359 -3.58936 0.745695 0
M  V30 6561 H 607.007 -4.83249 -1.39569 0
M  V30 6562 H 606.707 -5.87598 0.0166741 0
M  V30 6563 H 608.231 -6.0391 -0.901373 0
M  V30 6564 H 609.645 -5.5783 1.32283 0
M  V30 6565 H 608.042 -5.61666 2.11309 0
M  V30 6566 H 609.112 -4.22758 2.37494 0
M  V30 6567 N 610.455 -0.639598 -1.44038 0
M  V30 6568 C 611.871 -0.305953 -1.5664 0
M  V30 6569 C 612.071 1.19055 -1.62567 0
M  V30 6570 O 611.127 1.97492 -1.57331 0
M  V30 6571 C 612.44 -1.00533 -2.83397 0
M  V30 6572 C 613.988 -0.984278 -2.97121 0
M  V30 6573 C 614.463 -1.66428 -4.26691 0
M  V30 6574 N 615.954 -1.63127 -4.33525 0
M  V30 6575 C 616.689 -2.12629 -5.32519 0
M  V30 6576 N 616.185 -2.70359 -6.3787 0
M  V30 6577 N 617.978 -2.03208 -5.24083 0
M  V30 6578 H 610.129 -1.6109 -1.38434 0
M  V30 6579 H 612.392 -0.676672 -0.663942 0
M  V30 6580 H 612.098 -2.06034 -2.85032 0
M  V30 6581 H 611.972 -0.548362 -3.73193 0
M  V30 6582 H 614.359 0.0622792 -2.95034 0
M  V30 6583 H 614.44 -1.47981 -2.08651 0
M  V30 6584 H 614.084 -2.71034 -4.29538 0
M  V30 6585 H 614.014 -1.14351 -5.14034 0
M  V30 6586 H 616.505 -1.20987 -3.58009 0
M  V30 6587 H 616.818 -3.05842 -7.09704 0
M  V30 6588 H 615.163 -2.74414 -6.38531 0
M  V30 6589 H 618.354 -1.57823 -4.40692 0
M  V30 6590 H 618.527 -2.42097 -6.01077 0
M  V30 6591 N 611.933 1.52934 -0.380664 0
M  V30 6592 C 613.18 2.01467 0.204278 0
M  V30 6593 C 613.508 1.26744 1.47533 0
M  V30 6594 O 612.763 0.353723 1.92477 0
M  V30 6595 C 613.062 3.5349 0.527199 0
M  V30 6596 C 612.728 4.46171 -0.651295 0
M  V30 6597 C 611.39 4.71227 -0.974619 0
M  V30 6598 C 613.742 5.00909 -1.44012 0
M  V30 6599 C 611.07 5.4827 -2.08847 0
M  V30 6600 C 613.422 5.7917 -2.5445 0
M  V30 6601 C 612.086 6.02507 -2.87301 0
M  V30 6602 H 611.356 0.73722 0.0747504 0
M  V30 6603 H 614.003 1.84411 -0.516234 0
M  V30 6604 H 612.308 3.68574 1.32892 0
M  V30 6605 H 614.005 3.88529 0.992283 0
M  V30 6606 H 610.595 4.26829 -0.389276 0
M  V30 6607 H 614.779 4.81485 -1.20357 0
M  V30 6608 H 610.035 5.64567 -2.34679 0
M  V30 6609 H 614.209 6.20588 -3.1598 0
M  V30 6610 H 611.836 6.61989 -3.7373 0
M  V30 6611 N 613.412 0.11024 1.57214 0
M  V30 6612 C 614.658 -0.550684 1.9518 0
M  V30 6613 C 614.991 -1.66885 0.993122 0
M  V30 6614 O 614.266 -1.94479 0.0287907 0
M  V30 6615 C 614.549 -1.09163 3.43155 0
M  V30 6616 C 614.402 0.0225198 4.49794 0
M  V30 6617 C 615.721 -1.98527 3.92778 0
M  V30 6618 H 612.84 -0.198706 0.709708 0
M  V30 6619 H 615.482 0.184024 1.89107 0
M  V30 6620 H 613.632 -1.71775 3.48462 0
M  V30 6621 H 615.304 0.657443 4.56591 0
M  V30 6622 H 613.547 0.686868 4.28328 0
M  V30 6623 H 614.218 -0.39706 5.5057 0
M  V30 6624 H 616.694 -1.458 3.8972 0
M  V30 6625 H 615.57 -2.33298 4.96853 0
M  V30 6626 H 615.831 -2.90846 3.32958 0
M  V30 6627 N 614.89 -1.56749 -0.16351 0
M  V30 6628 C 615.822 -1.93587 -1.22705 0
M  V30 6629 C 616.835 -0.829824 -1.40063 0
M  V30 6630 O 618.024 -1.10826 -1.39928 0
M  V30 6631 C 615.124 -2.1803 -2.59454 0
M  V30 6632 C 614.297 -3.4928 -2.63292 0
M  V30 6633 C 613.356 -3.62457 -3.8146 0
M  V30 6634 O 612.382 -4.35004 -3.67096 0
M  V30 6635 N 613.584 -2.97888 -4.9824 0
M  V30 6636 H 616.349 -2.8542 -0.914081 0
M  V30 6637 H 613.91 -1.58 -0.353214 0
M  V30 6638 H 615.902 -2.24102 -3.36987 0
M  V30 6639 H 614.472 -1.32543 -2.8311 0
M  V30 6640 H 613.692 -3.54795 -1.71796 0
M  V30 6641 H 614.98 -4.35632 -2.62873 0
M  V30 6642 H 614.378 -2.38833 -5.12811 0
M  V30 6643 H 612.935 -3.09545 -5.73607 0
M  V30 6644 N 616.368 0.432326 -1.51554 0
M  V30 6645 C 617.617 1.17831 -1.63703 0
M  V30 6646 C 617.93 1.92229 -0.36156 0
M  V30 6647 O 619.136 2.69069 -0.362495 0
M  V30 6648 C 617.592 2.14318 -2.89129 0
M  V30 6649 C 617.2 1.45544 -4.23699 0
M  V30 6650 C 618.944 2.89319 -3.10636 0
M  V30 6651 C 616.851 2.40545 -5.4027 0
M  V30 6652 H 615.781 0.443533 -0.60975 0
M  V30 6653 H 618.432 0.444878 -1.78026 0
M  V30 6654 H 616.814 2.91117 -2.68452 0
M  V30 6655 H 617.988 0.742693 -4.54775 0
M  V30 6656 H 616.303 0.826772 -4.0811 0
M  V30 6657 H 618.9 3.60495 -3.94902 0
M  V30 6658 H 619.243 3.50951 -2.23918 0
M  V30 6659 H 619.776 2.19625 -3.31677 0
M  V30 6660 H 616.515 1.83594 -6.29264 0
M  V30 6661 H 616.035 3.09859 -5.13563 0
M  V30 6662 H 617.714 3.01569 -5.72421 0
M  V30 6663 N 617.846 1.41785 0.688094 0
M  V30 6664 C 619.257 1.3701 1.26828 0
M  V30 6665 C 619.608 0.056835 1.96118 0
M  V30 6666 O 618.733 -0.84475 1.99231 0
M  V30 6667 C 619.328 2.48168 2.30648 0
M  V30 6668 C 617.887 2.46766 2.84224 0
M  V30 6669 C 617.034 2.27633 1.58361 0
M  V30 6670 H 619.985 1.51192 0.482351 0
M  V30 6671 H 620.006 2.17655 3.121 0
M  V30 6672 H 619.518 3.43735 1.80188 0
M  V30 6673 H 617.619 1.54978 3.3884 0
M  V30 6674 H 617.732 3.43342 3.34145 0
M  V30 6675 H 616.096 1.75648 1.84445 0
M  V30 6676 H 616.879 3.25238 1.09887 0
M  V30 6677 N 619.324 -0.923095 1.27737 0
M  V30 6678 C 620.287 -2.00587 1.10894 0
M  V30 6679 C 621.287 -1.60718 0.0514927 0
M  V30 6680 O 622.477 -1.71658 0.296481 0
M  V30 6681 C 619.609 -3.33829 0.690717 0
M  V30 6682 H 620.802 -2.16959 2.07048 0
M  V30 6683 H 618.355 -1.10451 1.1059 0
M  V30 6684 H 619.09 -3.23157 -0.272 0
M  V30 6685 H 618.875 -3.64125 1.45448 0
M  V30 6686 H 620.365 -4.13336 0.595252 0
M  V30 6687 N 620.802 -1.09834 -1.13024 0
M  V30 6688 C 621.765 -0.745058 -2.16752 0
M  V30 6689 C 622.765 0.227435 -1.59183 0
M  V30 6690 O 623.955 0.0050786 -1.74199 0
M  V30 6691 C 621.087 -0.102543 -3.40746 0
M  V30 6692 H 622.28 -1.66375 -2.49518 0
M  V30 6693 H 619.833 -0.898061 -1.27924 0
M  V30 6694 H 620.568 0.827177 -3.13573 0
M  V30 6695 H 620.353 -0.80235 -3.83803 0
M  V30 6696 H 621.843 0.129082 -4.174 0
M  V30 6697 N 622.28 1.30327 -0.886154 0
M  V30 6698 C 623.212 2.27079 -0.311072 0
M  V30 6699 C 624.225 1.53758 0.53502 0
M  V30 6700 O 625.414 1.74947 0.354378 0
M  V30 6701 C 622.514 3.33965 0.576228 0
M  V30 6702 C 621.687 4.36735 -0.241064 0
M  V30 6703 C 620.746 5.23028 0.576916 0
M  V30 6704 O 619.772 5.692 -0.000802231 0
M  V30 6705 N 620.974 5.49016 1.88579 0
M  V30 6706 H 623.739 2.77065 -1.14259 0
M  V30 6707 H 621.3 1.43519 -0.749258 0
M  V30 6708 H 623.292 3.88618 1.12953 0
M  V30 6709 H 621.862 2.839 1.30842 0
M  V30 6710 H 621.082 3.81932 -0.975805 0
M  V30 6711 H 622.37 5.02451 -0.801272 0
M  V30 6712 H 621.768 5.13288 2.37806 0
M  V30 6713 H 620.325 6.06539 2.38651 0
M  V30 6714 N 623.758 0.647228 1.43697 0
M  V30 6715 C 624.983 0.164083 2.0675 0
M  V30 6716 C 625.408 -1.15892 1.48158 0
M  V30 6717 O 624.766 -1.71459 0.589194 0
M  V30 6718 C 624.814 0.0800368 3.60511 0
M  V30 6719 O 623.918 -0.959453 4.01084 0
M  V30 6720 H 623.259 0.0921288 0.657578 0
M  V30 6721 H 625.789 0.88846 1.84303 0
M  V30 6722 H 625.799 -0.105263 4.07864 0
M  V30 6723 H 624.474 1.04586 4.02535 0
M  V30 6724 H 623.051 -0.747425 3.65333 0
M  V30 6725 N 625.236 -1.5273 0.388769 0
M  V30 6726 C 626.199 -2.25043 -0.434544 0
M  V30 6727 C 627.199 -1.26661 -0.990644 0
M  V30 6728 O 628.389 -1.50762 -0.872731 0
M  V30 6729 C 625.521 -3.00507 -1.60961 0
M  V30 6730 H 626.714 -2.99242 0.198549 0
M  V30 6731 H 624.267 -1.55664 0.140875 0
M  V30 6732 H 625.002 -2.30607 -2.28015 0
M  V30 6733 H 624.787 -3.72716 -1.21757 0
M  V30 6734 H 626.277 -3.55413 -2.19251 0
M  V30 6735 N 626.714 -0.118576 -1.57153 0
M  V30 6736 C 627.644 0.828436 -2.1831 0
M  V30 6737 C 628.625 1.27758 -1.12303 0
M  V30 6738 O 629.81 1.34026 -1.40537 0
M  V30 6739 C 626.94 2.07876 -2.78217 0
M  V30 6740 C 625.894 1.76742 -3.89803 0
M  V30 6741 C 625.22 3.08801 -4.36516 0
M  V30 6742 C 626.52 1.03606 -5.11921 0
M  V30 6743 H 628.214 0.318824 -2.97698 0
M  V30 6744 H 625.76 0.151911 -1.43196 0
M  V30 6745 H 627.713 2.74584 -3.19659 0
M  V30 6746 H 626.437 2.61161 -1.96118 0
M  V30 6747 H 625.096 1.12424 -3.48936 0
M  V30 6748 H 624.744 3.6002 -3.51276 0
M  V30 6749 H 624.444 2.88743 -5.11763 0
M  V30 6750 H 625.968 3.76627 -4.80608 0
M  V30 6751 H 627.382 1.60467 -5.50385 0
M  V30 6752 H 625.779 0.936454 -5.92748 0
M  V30 6753 H 626.849 0.0227421 -4.84895 0
M  V30 6754 N 628.193 1.56834 0.155195 0
M  V30 6755 C 629.442 1.82088 0.867567 0
M  V30 6756 C 629.755 0.69849 1.82703 0
M  V30 6757 O 630.961 0.836407 2.58295 0
M  V30 6758 C 629.417 3.22707 1.59336 0
M  V30 6759 C 629.025 4.42859 0.676719 0
M  V30 6760 C 630.769 3.57242 2.293 0
M  V30 6761 C 628.676 5.74501 1.40367 0
M  V30 6762 H 627.606 0.679057 0.327715 0
M  V30 6763 H 630.257 1.83105 0.120351 0
M  V30 6764 H 628.639 3.16054 2.38591 0
M  V30 6765 H 629.813 4.60731 -0.0800196 0
M  V30 6766 H 628.128 4.16311 0.0859129 0
M  V30 6767 H 630.725 4.52847 2.84312 0
M  V30 6768 H 631.068 2.82901 3.05406 0
M  V30 6769 H 631.601 3.6552 1.56972 0
M  V30 6770 H 628.34 6.51915 0.684623 0
M  V30 6771 H 627.86 5.60579 2.13332 0
M  V30 6772 H 629.539 6.17016 1.94681 0
M  V30 6773 N 629.671 -0.424282 1.51781 0
M  V30 6774 C 630.896 -1.19928 1.6921 0
M  V30 6775 C 631.321 -1.8392 0.394355 0
M  V30 6776 O 630.679 -1.69371 -0.646778 0
M  V30 6777 C 630.727 -2.24937 2.81843 0
M  V30 6778 O 629.831 -3.3073 2.46356 0
M  V30 6779 H 629.172 -0.35078 0.563781 0
M  V30 6780 H 631.702 -0.499401 1.98412 0
M  V30 6781 H 631.712 -2.69512 3.06312 0
M  V30 6782 H 630.387 -1.77742 3.76006 0
M  V30 6783 H 628.964 -2.9154 2.32505 0
M  V30 6784 N 631.149 -1.42148 -0.680565 0
M  V30 6785 C 632.079 -1.4796 -1.80638 0
M  V30 6786 C 633.06 -0.336728 -1.66734 0
M  V30 6787 O 634.245 -0.550247 -1.86242 0
M  V30 6788 C 631.375 -1.37569 -3.18892 0
M  V30 6789 C 630.329 -2.49823 -3.47524 0
M  V30 6790 C 629.655 -2.24491 -4.85291 0
M  V30 6791 C 630.955 -3.92144 -3.44994 0
M  V30 6792 H 632.649 -2.42184 -1.76032 0
M  V30 6793 H 630.195 -1.16566 -0.845481 0
M  V30 6794 H 632.148 -1.40243 -3.97379 0
M  V30 6795 H 630.872 -0.398357 -3.24162 0
M  V30 6796 H 629.531 -2.46455 -2.71395 0
M  V30 6797 H 629.179 -1.25066 -4.87204 0
M  V30 6798 H 628.879 -2.99722 -5.05411 0
M  V30 6799 H 630.403 -2.28906 -5.66069 0
M  V30 6800 H 631.817 -3.97145 -4.13459 0
M  V30 6801 H 630.214 -4.67179 -3.76648 0
M  V30 6802 H 631.284 -4.19225 -2.43676 0
M  V30 6803 N 632.627 0.916307 -1.28225 0
M  V30 6804 C 633.904 1.64429 -1.05936 0
M  V30 6805 C 634.284 2.07234 0.402139 0
M  V30 6806 O 633.632 1.81535 1.3877 0
M  V30 6807 C 633.842 2.83773 -2.03159 0
M  V30 6808 C 635.19 3.54852 -2.33164 0
M  V30 6809 O 636.214 2.93918 -2.01223 0
M  V30 6810 O 635.073 4.64663 -2.87664 0
M  V30 6811 H 632.167 0.721221 -0.404683 0
M  V30 6812 H 634.713 0.965838 -1.39534 0
M  V30 6813 H 633.485 2.49217 -3.01673 0
M  V30 6814 H 633.108 3.59333 -1.70192 0
M  V30 6815 N 634.105 1.10431 1.1244 0
M  V30 6816 C 635.516 0.864439 1.65482 0
M  V30 6817 C 635.867 -0.60527 1.8663 0
M  V30 6818 O 634.992 -1.46492 1.59276 0
M  V30 6819 C 635.587 1.56267 3.0061 0
M  V30 6820 C 634.146 1.3695 3.50602 0
M  V30 6821 C 633.293 1.61209 2.25626 0
M  V30 6822 H 636.244 1.26203 0.962209 0
M  V30 6823 H 636.265 1.00166 3.67079 0
M  V30 6824 H 635.777 2.63231 2.85186 0
M  V30 6825 H 633.878 0.321481 3.71211 0
M  V30 6826 H 633.991 2.11143 4.30064 0
M  V30 6827 H 632.355 1.03482 2.32731 0
M  V30 6828 H 633.138 2.69425 2.12756 0
M  V30 6829 N 635.583 -1.29855 0.893053 0
M  V30 6830 C 636.53 -2.27909 0.364161 0
M  V30 6831 C 637.5 -1.56726 -0.550093 0
M  V30 6832 O 638.685 -1.84747 -0.47677 0
M  V30 6833 C 635.825 -3.42678 -0.408178 0
M  V30 6834 C 634.938 -4.28659 0.536212 0
M  V30 6835 C 634.073 -5.30599 -0.252521 0
M  V30 6836 C 633.112 -6.08234 0.686822 0
M  V30 6837 N 632.249 -7.02068 -0.0670902 0
M  V30 6838 H 637.089 -2.72531 1.20544 0
M  V30 6839 H 634.626 -1.34047 0.605779 0
M  V30 6840 H 636.584 -4.07986 -0.871962 0
M  V30 6841 H 635.214 -2.99103 -1.21397 0
M  V30 6842 H 634.266 -3.63584 1.1185 0
M  V30 6843 H 635.578 -4.8274 1.25552 0
M  V30 6844 H 634.732 -6.01694 -0.777801 0
M  V30 6845 H 633.471 -4.77233 -1.005 0
M  V30 6846 H 632.476 -5.3601 1.22366 0
M  V30 6847 H 633.701 -6.63689 1.43852 0
M  V30 6848 H 631.647 -6.5108 -0.801955 0
M  V30 6849 H 631.564 -7.53675 0.59243 0
M  V30 6850 H 632.832 -7.77392 -0.572851 0
M  V30 6851 N 637.061 -0.65484 -1.43351 0
M  V30 6852 C 638.338 -0.0987371 -1.95351 0
M  V30 6853 C 638.718 1.38161 -1.59608 0
M  V30 6854 O 638.066 2.10791 -0.882021 0
M  V30 6855 C 638.276 -0.346684 -3.47274 0
M  V30 6856 C 639.624 -0.25249 -4.23849 0
M  V30 6857 O 640.648 -0.279332 -3.55103 0
M  V30 6858 O 639.507 -0.177584 -5.46211 0
M  V30 6859 H 636.601 0.0086829 -0.826954 0
M  V30 6860 H 639.147 -0.728189 -1.53282 0
M  V30 6861 H 637.919 -1.37296 -3.66423 0
M  V30 6862 H 637.542 0.315757 -3.96344 0
M  V30 6863 N 638.539 1.52521 -0.396863 0
M  V30 6864 C 639.787 2.01274 0.182536 0
M  V30 6865 C 640.108 1.28485 1.46685 0
M  V30 6866 O 639.378 0.407134 1.91623 0
M  V30 6867 H 637.958 0.743671 0.0704442 0
M  V30 6868 H 640.62 1.87547 -0.530289 0
M  V30 6869 H 639.716 3.09687 0.387385 0
M  V30 6870 N 640.017 0.126909 1.57088 0
M  V30 6871 C 640.98 -0.806097 2.14557 0
M  V30 6872 C 641.98 -1.18918 1.08236 0
M  V30 6873 O 643.17 -1.11339 1.33975 0
M  V30 6874 C 640.302 -2.09116 2.69227 0
M  V30 6875 H 641.495 -0.306522 2.98329 0
M  V30 6876 H 639.048 -0.122393 1.5582 0
M  V30 6877 H 639.783 -2.63486 1.89065 0
M  V30 6878 H 639.568 -1.82588 3.46993 0
M  V30 6879 H 641.058 -2.75794 3.13572 0
M  V30 6880 N 641.495 -1.56914 -0.146875 0
M  V30 6881 C 642.744 -1.82546 -0.857898 0
M  V30 6882 C 643.057 -0.708169 -1.8233 0
M  V30 6883 O 644.263 -0.850093 -2.57848 0
M  V30 6884 C 642.719 -3.23548 -1.57623 0
M  V30 6885 C 642.327 -4.43212 -0.653224 0
M  V30 6886 C 644.071 -3.58453 -2.27402 0
M  V30 6887 C 641.978 -5.75237 -1.37318 0
M  V30 6888 H 640.908 -0.680786 -0.32411 0
M  V30 6889 H 643.559 -1.83166 -0.110639 0
M  V30 6890 H 641.941 -3.17315 -2.36912 0
M  V30 6891 H 643.115 -4.60682 0.104452 0
M  V30 6892 H 641.43 -4.16351 -0.0638336 0
M  V30 6893 H 644.027 -4.54349 -2.81907 0
M  V30 6894 H 644.37 -2.84516 -3.03901 0
M  V30 6895 H 644.903 -3.66347 -1.55032 0
M  V30 6896 H 641.642 -6.52269 -0.650041 0
M  V30 6897 H 641.162 -5.61703 -2.10357 0
M  V30 6898 H 642.841 -6.18039 -1.91406 0
M  V30 6899 N 642.974 0.416227 -1.52004 0
M  V30 6900 C 644.39 0.754319 -1.40649 0
M  V30 6901 C 644.59 1.95059 -0.505392 0
M  V30 6902 O 643.646 2.5248 0.0315057 0
M  V30 6903 C 644.959 1.0149 -2.83055 0
M  V30 6904 C 646.507 1.11805 -2.9235 0
M  V30 6905 C 646.982 1.41144 -4.35709 0
M  V30 6906 N 648.473 1.48024 -4.38911 0
M  V30 6907 C 649.208 1.72338 -5.46889 0
M  V30 6908 N 648.704 1.94303 -6.64995 0
M  V30 6909 N 650.497 1.74294 -5.34395 0
M  V30 6910 H 642.648 -0.371324 -2.09129 0
M  V30 6911 H 644.911 -0.103811 -0.942299 0
M  V30 6912 H 644.617 0.208345 -3.51082 0
M  V30 6913 H 644.491 1.93697 -3.23668 0
M  V30 6914 H 646.878 1.91521 -2.24508 0
M  V30 6915 H 646.959 0.17451 -2.55204 0
M  V30 6916 H 646.603 0.619484 -5.04108 0
M  V30 6917 H 646.533 2.36739 -4.70385 0
M  V30 6918 H 649.024 1.32868 -3.53772 0
M  V30 6919 H 649.337 2.12286 -7.43071 0
M  V30 6920 H 647.682 1.91582 -6.68073 0
M  V30 6921 H 650.873 1.56667 -4.41104 0
M  V30 6922 H 651.046 1.92904 -6.18621 0
M  V30 6923 N 644.452 1.42507 0.673017 0
M  V30 6924 C 645.677 1.4668 1.46627 0
M  V30 6925 C 646.102 0.080066 1.8793 0
M  V30 6926 O 645.46 -0.921879 1.56112 0
M  V30 6927 C 645.508 2.40091 2.69051 0
M  V30 6928 O 644.612 1.8735 3.67387 0
M  V30 6929 H 643.953 0.496908 0.44043 0
M  V30 6930 H 646.483 1.87215 0.825334 0
M  V30 6931 H 646.493 2.56731 3.17101 0
M  V30 6932 H 645.168 3.4084 2.3833 0
M  V30 6933 H 643.745 1.80274 3.26429 0
M  V30 6934 N 645.93 -0.909495 1.28709 0
M  V30 6935 C 646.86 -2.0291 1.15542 0
M  V30 6936 C 647.841 -1.7002 0.0521017 0
M  V30 6937 O 649.026 -1.92835 0.229849 0
M  V30 6938 C 646.156 -3.37458 0.820935 0
M  V30 6939 C 645.11 -3.84524 1.87949 0
M  V30 6940 C 644.436 -5.16086 1.39854 0
M  V30 6941 C 645.736 -4.05918 3.28676 0
M  V30 6942 H 647.43 -2.14183 2.09203 0
M  V30 6943 H 644.976 -1.02913 1.00722 0
M  V30 6944 H 646.929 -4.1528 0.715571 0
M  V30 6945 H 645.653 -3.26249 -0.151374 0
M  V30 6946 H 644.312 -3.08911 1.97408 0
M  V30 6947 H 643.96 -5.01284 0.41518 0
M  V30 6948 H 643.66 -5.48547 2.1064 0
M  V30 6949 H 645.184 -5.96459 1.30649 0
M  V30 6950 H 646.598 -4.74252 3.22115 0
M  V30 6951 H 644.995 -4.49717 3.97334 0
M  V30 6952 H 646.065 -3.10583 3.72379 0
M  V30 6953 N 647.408 -1.11026 -1.11852 0
M  V30 6954 C 648.654 -0.857729 -1.83768 0
M  V30 6955 C 648.987 0.615143 -1.842 0
M  V30 6956 O 648.262 1.45391 -1.29196 0
M  V30 6957 C 648.545 -1.41453 -3.31154 0
M  V30 6958 C 648.398 -2.95471 -3.39142 0
M  V30 6959 C 649.717 -1.0619 -4.27097 0
M  V30 6960 H 646.836 -0.313044 -0.667212 0
M  V30 6961 H 649.478 -1.37443 -1.31185 0
M  V30 6962 H 647.628 -0.975052 -3.76065 0
M  V30 6963 H 649.3 -3.4799 -3.02821 0
M  V30 6964 H 647.543 -3.31759 -2.79497 0
M  V30 6965 H 648.214 -3.29515 -4.42859 0
M  V30 6966 H 650.69 -1.44122 -3.90344 0
M  V30 6967 H 649.566 -1.47832 -5.28618 0
M  V30 6968 H 649.827 0.0278912 -4.42091 0
M  V30 6969 N 648.886 1.2938 -0.899927 0
M  V30 6970 C 650.134 1.95164 -0.524924 0
M  V30 6971 C 650.455 1.71292 0.931888 0
M  V30 6972 O 649.725 1.04481 1.65712 0
M  V30 6973 H 648.305 0.722133 -0.191135 0
M  V30 6974 H 650.967 1.57628 -1.14627 0
M  V30 6975 H 650.063 3.0397 -0.707711 0
M  V30 6976 N 650.364 0.662433 1.43002 0
M  V30 6977 C 651.612 0.179237 2.01304 0
M  V30 6978 C 651.933 -1.21428 1.52579 0
M  V30 6979 O 651.203 -1.81294 0.742252 0
M  V30 6980 H 649.783 0.0632725 0.744316 0
M  V30 6981 H 652.445 0.856169 1.75088 0
M  V30 6982 H 651.541 0.170957 3.11631 0
M  V30 6983 N 651.842 -1.52309 0.404946 0
M  V30 6984 C 653.089 -2.01767 -0.1722 0
M  V30 6985 C 653.417 -1.29075 -1.45498 0
M  V30 6986 O 652.672 -0.3843 -1.9189 0
M  V30 6987 C 652.971 -3.54284 -0.470895 0
M  V30 6988 C 652.637 -4.45079 0.722194 0
M  V30 6989 C 651.299 -4.69617 1.04946 0
M  V30 6990 C 653.651 -4.98555 1.51962 0
M  V30 6991 C 650.979 -5.44878 2.17543 0
M  V30 6992 C 653.331 -5.75049 2.63632 0
M  V30 6993 C 651.995 -5.9786 2.9685 0
M  V30 6994 H 651.265 -0.738316 -0.0630125 0
M  V30 6995 H 653.912 -1.83566 0.545506 0
M  V30 6996 H 652.217 -3.70642 -1.27012 0
M  V30 6997 H 653.914 -3.90058 -0.930346 0
M  V30 6998 H 650.504 -4.26155 0.457131 0
M  V30 6999 H 654.688 -4.79509 1.28002 0
M  V30 7000 H 649.944 -5.60762 2.43631 0
M  V30 7001 H 654.118 -6.15483 3.25813 0
M  V30 7002 H 651.745 -6.5596 3.84215 0
M  V30 7003 N 653.32 -0.135238 -1.57019 0
M  V30 7004 C 654.545 0.529343 -2.00531 0
M  V30 7005 C 654.97 1.58391 -1.01459 0
M  V30 7006 O 654.328 1.81296 0.0113986 0
M  V30 7007 C 654.376 1.11748 -3.42848 0
M  V30 7008 O 653.48 2.23267 -3.46736 0
M  V30 7009 H 652.821 0.130669 -0.651016 0
M  V30 7010 H 655.351 -0.228503 -2.0332 0
M  V30 7011 H 655.361 1.44905 -3.81401 0
M  V30 7012 H 654.036 0.345147 -4.14465 0
M  V30 7013 H 652.613 1.91428 -3.20015 0
M  V30 7014 N 654.798 1.5699 0.138552 0
M  V30 7015 C 656.045 1.83809 0.849732 0
M  V30 7016 C 656.373 0.717409 1.80786 0
M  V30 7017 O 655.628 -0.292897 1.93496 0
M  V30 7018 C 655.927 3.17007 1.65049 0
M  V30 7019 C 655.593 4.43037 0.838398 0
M  V30 7020 C 654.255 4.77262 0.614385 0
M  V30 7021 C 656.607 5.20495 0.271044 0
M  V30 7022 C 653.935 5.864 -0.187552 0
M  V30 7023 C 656.287 6.30476 -0.517979 0
M  V30 7024 C 654.951 6.63245 -0.75249 0
M  V30 7025 H 654.221 0.672605 0.310939 0
M  V30 7026 H 656.868 1.91166 0.112971 0
M  V30 7027 H 655.173 3.05138 2.4576 0
M  V30 7028 H 656.87 3.34975 2.20437 0
M  V30 7029 H 653.46 4.16211 1.02307 0
M  V30 7030 H 657.644 4.94422 0.431371 0
M  V30 7031 H 652.9 6.10226 -0.378659 0
M  V30 7032 H 657.074 6.89686 -0.964694 0
M  V30 7033 H 654.701 7.47648 -1.37573 0
M  V30 7034 N 656.276 -0.40816 1.52223 0
M  V30 7035 C 657.186 -1.52202 1.78526 0
M  V30 7036 C 658.202 -1.60546 0.670892 0
M  V30 7037 O 659.378 -1.77242 0.956404 0
M  V30 7038 C 656.443 -2.87928 1.93128 0
M  V30 7039 C 655.504 -2.89463 3.17033 0
M  V30 7040 C 654.737 -4.18715 3.30929 0
M  V30 7041 O 654.96 -5.12662 2.50067 0
M  V30 7042 O 653.894 -4.27125 4.24084 0
M  V30 7043 H 657.72 -1.32911 2.73072 0
M  V30 7044 H 655.305 -0.594112 1.37079 0
M  V30 7045 H 657.187 -3.68426 2.04549 0
M  V30 7046 H 655.862 -3.07285 1.01772 0
M  V30 7047 H 654.769 -2.07815 3.11069 0
M  V30 7048 H 656.102 -2.75055 4.08174 0
M  V30 7049 N 657.755 -1.42862 -0.66545 0
M  V30 7050 C 658.687 -1.43026 -1.79098 0
M  V30 7051 C 659.7 -0.32803 -1.59461 0
M  V30 7052 O 660.889 -0.591709 -1.68407 0
M  V30 7053 C 657.989 -1.21566 -3.16346 0
M  V30 7054 C 657.162 -2.44399 -3.62751 0
M  V30 7055 C 656.221 -2.18344 -4.78761 0
M  V30 7056 O 655.247 -2.91611 -4.88827 0
M  V30 7057 N 656.449 -1.1924 -5.68122 0
M  V30 7058 H 659.214 -2.40045 -1.79439 0
M  V30 7059 H 656.775 -1.37861 -0.848872 0
M  V30 7060 H 658.767 -1.02037 -3.91625 0
M  V30 7061 H 657.337 -0.330368 -3.10849 0
M  V30 7062 H 656.557 -2.79433 -2.78048 0
M  V30 7063 H 657.845 -3.26173 -3.90498 0
M  V30 7064 H 657.243 -0.586603 -5.6265 0
M  V30 7065 H 655.8 -1.05698 -6.43173 0
M  V30 7066 N 659.233 0.902656 -1.29189 0
M  V30 7067 C 660.458 1.69167 -1.19989 0
M  V30 7068 C 660.883 1.86607 0.236495 0
M  V30 7069 O 660.241 1.38425 1.17082 0
M  V30 7070 C 660.289 3.05532 -1.91527 0
M  V30 7071 O 659.393 3.93621 -1.2303 0
M  V30 7072 H 658.734 0.517584 -0.415936 0
M  V30 7073 H 661.264 1.12785 -1.70706 0
M  V30 7074 H 661.274 3.55693 -1.99866 0
M  V30 7075 H 659.949 2.92156 -2.96003 0
M  V30 7076 H 658.526 3.52055 -1.22928 0
M  V30 7077 N 660.711 1.11618 1.11262 0
M  V30 7078 C 661.659 0.771291 2.1944 0
M  V30 7079 C 662.653 -0.238073 1.67719 0
M  V30 7080 O 663.859 -0.0971628 1.79738 0
M  V30 7081 H 660.234 0.231548 0.715465 0
M  V30 7082 H 662.205 1.69226 2.45775 0
M  V30 7083 C 660.954 0.232765 3.4692 0
M  V30 7084 H 660.277 1.00072 3.87073 0
M  V30 7085 H 661.717 0.0296561 4.2399 0
M  V30 7086 C 660.176 -1.03738 3.20531 0
M  V30 7087 O 660.706 -2.11675 3.41404 0
M  V30 7088 N 658.912 -0.960906 2.74253 0
M  V30 7089 H 658.459 -0.0824323 2.57468 0
M  V30 7090 H 658.417 -1.8114 2.56974 0
M  V30 7091 N 662.189 -1.289 0.906776 0
M  V30 7092 C 663.419 -1.99112 0.551168 0
M  V30 7093 C 663.827 -1.67998 -0.870243 0
M  V30 7094 O 663.17 -0.92525 -1.58697 0
M  V30 7095 C 663.232 -3.53162 0.672065 0
M  V30 7096 C 662.896 -4.07849 2.06174 0
M  V30 7097 C 663.893 -4.22212 3.0337 0
M  V30 7098 C 661.578 -4.4271 2.37304 0
M  V30 7099 C 663.572 -4.70678 4.29815 0
M  V30 7100 C 661.259 -4.90871 3.6399 0
M  V30 7101 C 662.257 -5.04811 4.6006 0
M  V30 7102 O 661.945 -5.51925 5.84495 0
M  V30 7103 H 661.677 -0.642728 0.209469 0
M  V30 7104 H 664.231 -1.65234 1.22012 0
M  V30 7105 H 662.461 -3.86662 -0.05394 0
M  V30 7106 H 664.15 -4.046 0.324579 0
M  V30 7107 H 664.916 -3.9556 2.80637 0
M  V30 7108 H 660.795 -4.31114 1.63283 0
M  V30 7109 H 664.339 -4.81474 5.04806 0
M  V30 7110 H 660.236 -5.16961 3.86551 0
M  V30 7111 H 661.004 -5.70225 5.87185 0
M  V30 7112 N 663.667 -0.670007 -1.42649 0
M  V30 7113 C 664.615 0.0230106 -2.32589 0
M  V30 7114 C 665.609 0.795585 -1.49555 0
M  V30 7115 O 666.815 0.70409 -1.65658 0
M  V30 7116 H 663.19 0.0262342 -0.751542 0
M  V30 7117 H 665.161 -0.753009 -2.88743 0
M  V30 7118 C 663.91 0.963872 -3.34073 0
M  V30 7119 H 663.233 0.378813 -3.98001 0
M  V30 7120 H 664.673 1.41755 -3.99602 0
M  V30 7121 C 663.132 2.06797 -2.65964 0
M  V30 7122 O 663.662 3.15383 -2.48789 0
M  V30 7123 N 661.868 1.83831 -2.25066 0
M  V30 7124 H 661.415 0.955235 -2.39234 0
M  V30 7125 H 661.373 2.57895 -1.79827 0
M  V30 7126 N 665.145 1.52092 -0.413018 0
M  V30 7127 C 666.561 1.59471 -0.0640836 0
M  V30 7128 C 666.761 1.42562 1.42402 0
M  V30 7129 O 665.817 1.25453 2.19129 0
M  V30 7130 C 667.13 2.95392 -0.562474 0
M  V30 7131 C 668.678 3.08637 -0.520788 0
M  V30 7132 C 669.153 4.47044 -0.995752 0
M  V30 7133 N 670.644 4.53296 -0.952732 0
M  V30 7134 C 671.379 5.58669 -1.29138 0
M  V30 7135 N 670.875 6.71576 -1.70168 0
M  V30 7136 N 672.668 5.48898 -1.2111 0
M  V30 7137 H 664.819 1.6133 -1.38153 0
M  V30 7138 H 667.082 0.75916 -0.567785 0
M  V30 7139 H 666.788 3.13059 -1.60271 0
M  V30 7140 H 666.662 3.77191 0.0257875 0
M  V30 7141 H 669.049 2.90652 0.510412 0
M  V30 7142 H 669.13 2.28735 -1.14515 0
M  V30 7143 H 668.774 4.65773 -2.0253 0
M  V30 7144 H 668.704 5.25448 -0.348162 0
M  V30 7145 H 671.195 3.72248 -0.651119 0
M  V30 7146 H 671.508 7.47973 -1.9431 0
M  V30 7147 H 669.853 6.72847 -1.74075 0
M  V30 7148 H 673.044 4.59573 -0.889396 0
M  V30 7149 H 673.217 6.30912 -1.47833 0
M  V30 7150 N 666.623 0.143563 1.56945 0
M  V30 7151 C 667.586 -0.783295 2.154 0
M  V30 7152 C 668.586 -1.17763 1.09492 0
M  V30 7153 O 669.776 -1.09912 1.35148 0
M  V30 7154 C 666.908 -2.06248 2.7143 0
M  V30 7155 H 668.101 -0.274863 2.98638 0
M  V30 7156 H 665.654 -0.105859 1.55941 0
M  V30 7157 H 666.389 -2.61466 1.91849 0
M  V30 7158 H 666.174 -1.78897 3.4891 0
M  V30 7159 H 667.664 -2.72453 3.16479 0
M  V30 7160 N 668.101 -1.57061 -0.130224 0
M  V30 7161 C 669.35 -1.83446 -0.838488 0
M  V30 7162 C 669.663 -0.727468 -1.81569 0
M  V30 7163 O 670.869 -0.877394 -2.56932 0
M  V30 7164 C 669.325 -3.25201 -1.54182 0
M  V30 7165 C 668.933 -4.4388 -0.606178 0
M  V30 7166 C 670.677 -3.60844 -2.23588 0
M  V30 7167 C 668.584 -5.76661 -1.31209 0
M  V30 7168 H 667.514 -0.684185 -0.316871 0
M  V30 7169 H 670.165 -1.83273 -0.0912059 0
M  V30 7170 H 668.547 -3.1981 -2.33533 0
M  V30 7171 H 669.721 -4.60545 0.153308 0
M  V30 7172 H 668.036 -4.16395 -0.0196705 0
M  V30 7173 H 670.633 -4.57313 -2.77072 0
M  V30 7174 H 670.976 -2.87724 -3.00867 0
M  V30 7175 H 671.509 -3.67971 -1.51137 0
M  V30 7176 H 668.248 -6.52922 -0.580823 0
M  V30 7177 H 667.768 -5.63902 -2.04387 0
M  V30 7178 H 669.447 -6.20035 -1.8484 0
M  V30 7179 N 669.579 0.400081 -1.52437 0
M  V30 7180 C 670.511 1.50729 -1.72666 0
M  V30 7181 C 671.524 1.51058 -0.607075 0
M  V30 7182 O 672.713 1.5516 -0.88248 0
M  V30 7183 C 669.813 2.89604 -1.76019 0
M  V30 7184 C 668.986 3.13365 -3.05157 0
M  V30 7185 C 668.045 4.32163 -3.00203 0
M  V30 7186 O 667.071 4.29004 -3.74092 0
M  V30 7187 N 668.273 5.3776 -2.18619 0
M  V30 7188 H 671.038 1.33767 -2.68191 0
M  V30 7189 H 668.599 0.58948 -1.50787 0
M  V30 7190 H 670.591 3.67159 -1.70225 0
M  V30 7191 H 669.161 2.99979 -0.879284 0
M  V30 7192 H 668.381 2.23774 -3.24529 0
M  V30 7193 H 669.669 3.26089 -3.90568 0
M  V30 7194 H 669.067 5.43177 -1.58035 0
M  V30 7195 H 667.624 6.14023 -2.18674 0
M  V30 7196 N 671.057 1.43213 0.657864 0
M  V30 7197 C 672.02 1.47687 1.75275 0
M  V30 7198 C 673.02 0.362179 1.56668 0
M  V30 7199 O 674.21 0.623734 1.62651 0
M  V30 7200 C 671.342 1.32497 3.14098 0
M  V30 7201 H 672.535 2.4519 1.7269 0
M  V30 7202 H 670.088 1.2991 0.869087 0
M  V30 7203 H 670.823 0.359831 3.22298 0
M  V30 7204 H 670.608 2.13299 3.29008 0
M  V30 7205 H 672.098 1.38549 3.93946 0
M  V30 7206 N 672.536 -0.895792 1.29666 0
M  V30 7207 C 673.483 -2.00035 1.15129 0
M  V30 7208 C 674.453 -1.66043 0.0435819 0
M  V30 7209 O 675.638 -1.89621 0.211811 0
M  V30 7210 C 672.778 -3.34774 0.83787 0
M  V30 7211 C 671.891 -3.81525 2.0264 0
M  V30 7212 C 671.026 -5.04858 1.65201 0
M  V30 7213 C 670.065 -5.43988 2.80612 0
M  V30 7214 N 669.202 -6.58507 2.43544 0
M  V30 7215 H 674.042 -2.11802 2.09628 0
M  V30 7216 H 671.579 -1.03719 1.04311 0
M  V30 7217 H 673.537 -4.12311 0.636824 0
M  V30 7218 H 672.167 -3.22724 -0.0702314 0
M  V30 7219 H 671.219 -2.9999 2.33903 0
M  V30 7220 H 672.531 -4.06472 2.89106 0
M  V30 7221 H 671.685 -5.8999 1.41408 0
M  V30 7222 H 670.424 -4.81759 0.758893 0
M  V30 7223 H 669.429 -4.57388 3.05083 0
M  V30 7224 H 670.654 -5.69066 3.70595 0
M  V30 7225 H 668.6 -6.37004 1.56724 0
M  V30 7226 H 668.517 -6.83269 3.23542 0
M  V30 7227 H 669.785 -7.46897 2.2308 0
M  V30 7228 N 674.014 -1.12206 -1.10668 0
M  V30 7229 C 675.43 -0.857619 -1.346 0
M  V30 7230 C 675.63 0.513542 -1.94846 0
M  V30 7231 O 674.686 1.26273 -2.18658 0
M  V30 7232 C 675.999 -1.97212 -2.26998 0
M  V30 7233 C 677.547 -2.00272 -2.40542 0
M  V30 7234 C 678.022 -3.10948 -3.36267 0
M  V30 7235 N 679.513 -3.10375 -3.43834 0
M  V30 7236 C 680.248 -3.92651 -4.17867 0
M  V30 7237 N 679.744 -4.84911 -4.94807 0
M  V30 7238 N 681.537 -3.80798 -4.1346 0
M  V30 7239 H 673.688 -2.00558 -0.699306 0
M  V30 7240 H 675.951 -0.872612 -0.370477 0
M  V30 7241 H 675.657 -2.96002 -1.89936 0
M  V30 7242 H 675.531 -1.87521 -3.27286 0
M  V30 7243 H 677.918 -1.02103 -2.76874 0
M  V30 7244 H 677.999 -2.14037 -1.40077 0
M  V30 7245 H 677.643 -4.09348 -3.00661 0
M  V30 7246 H 677.573 -2.94421 -4.36605 0
M  V30 7247 H 680.064 -2.43536 -2.88961 0
M  V30 7248 H 680.377 -5.44207 -5.48688 0
M  V30 7249 H 678.722 -4.88926 -4.93939 0
M  V30 7250 H 681.913 -3.08058 -3.52445 0
M  V30 7251 H 682.086 -4.4515 -4.70898 0
M  V30 7252 N 675.492 1.28418 -0.913599 0
M  V30 7253 C 676.424 2.26368 -0.359169 0
M  V30 7254 C 677.437 1.54858 0.502285 0
M  V30 7255 O 678.626 1.75659 0.31719 0
M  V30 7256 C 675.726 3.35112 0.50526 0
M  V30 7257 C 674.899 4.36126 -0.333648 0
M  V30 7258 C 673.958 5.24134 0.465845 0
M  V30 7259 O 672.984 5.6907 -0.121538 0
M  V30 7260 N 674.186 5.52892 1.76891 0
M  V30 7261 H 676.951 2.74579 -1.2011 0
M  V30 7262 H 674.512 1.41898 -0.779532 0
M  V30 7263 H 676.504 3.90926 1.04684 0
M  V30 7264 H 675.074 2.86611 1.2479 0
M  V30 7265 H 674.294 3.79776 -1.0566 0
M  V30 7266 H 675.582 5.00638 -0.907669 0
M  V30 7267 H 674.98 5.18217 2.26865 0
M  V30 7268 H 673.537 6.11464 2.25732 0
M  V30 7269 N 676.97 0.677563 1.42291 0
M  V30 7270 C 678.381 0.277912 1.8462 0
M  V30 7271 C 678.732 -1.18048 1.56714 0
M  V30 7272 O 677.857 -1.90404 1.02836 0
M  V30 7273 C 678.452 0.497619 3.35126 0
M  V30 7274 C 677.011 0.152063 3.76093 0
M  V30 7275 C 676.158 0.78872 2.65847 0
M  V30 7276 H 679.109 0.879527 1.32098 0
M  V30 7277 H 679.13 -0.24939 3.79682 0
M  V30 7278 H 678.642 1.55913 3.55405 0
M  V30 7279 H 676.743 -0.905896 3.6142 0
M  V30 7280 H 676.856 0.594514 4.75397 0
M  V30 7281 H 675.22 0.219813 2.5375 0
M  V30 7282 H 676.003 1.85374 2.88949 0
M  V30 7283 N 678.448 -1.51871 0.421078 0
M  V30 7284 C 679.696 -2.01539 -0.150492 0
M  V30 7285 C 680.017 -1.30803 -1.44623 0
M  V30 7286 O 679.287 -0.437568 -1.90951 0
M  V30 7287 H 677.867 -0.744698 -0.0586041 0
M  V30 7288 H 680.529 -1.8668 0.560059 0
M  V30 7289 H 679.625 -3.10264 -0.338068 0
M  V30 7290 N 679.926 -0.151884 -1.56866 0
M  V30 7291 C 681.151 0.508044 -2.01081 0
M  V30 7292 C 681.576 1.57306 -1.03134 0
M  V30 7293 O 680.934 1.81298 -0.0078309 0
M  V30 7294 C 680.982 1.08106 -3.44014 0
M  V30 7295 O 680.086 2.19577 -3.49084 0
M  V30 7296 H 679.427 0.123757 -0.652365 0
M  V30 7297 H 681.957 -0.250055 -2.03066 0
M  V30 7298 H 681.967 1.40851 -3.82916 0
M  V30 7299 H 680.642 0.301168 -4.14808 0
M  V30 7300 H 679.219 1.88023 -3.22027 0
M  V30 7301 N 681.404 1.57128 0.121893 0
M  V30 7302 C 682.629 1.89254 0.848385 0
M  V30 7303 C 683.054 0.743527 1.72781 0
M  V30 7304 O 682.412 -0.306056 1.78698 0
M  V30 7305 C 682.46 3.20113 1.66012 0
M  V30 7306 O 681.564 3.05815 2.76679 0
M  V30 7307 H 680.905 0.621103 0.234793 0
M  V30 7308 H 683.435 2.0433 0.10516 0
M  V30 7309 H 683.445 3.52761 2.04996 0
M  V30 7310 H 682.12 4.03336 1.01452 0
M  V30 7311 H 680.697 2.84627 2.40918 0
M  V30 7312 N 682.882 -0.391992 1.52647 0
M  V30 7313 C 684.129 -1.13732 1.67545 0
M  V30 7314 C 684.457 -1.90045 0.413881 0
M  V30 7315 O 683.712 -1.86157 -0.603646 0
M  V30 7316 C 684.011 -2.14401 2.85949 0
M  V30 7317 C 683.677 -1.54767 4.23507 0
M  V30 7318 C 682.339 -1.38229 4.60919 0
M  V30 7319 C 684.691 -1.11382 5.0916 0
M  V30 7320 C 682.019 -0.7685 5.81645 0
M  V30 7321 C 684.371 -0.514143 6.30507 0
M  V30 7322 C 683.035 -0.33604 6.66654 0
M  V30 7323 H 682.305 -0.416174 0.613091 0
M  V30 7324 H 684.952 -0.422327 1.86785 0
M  V30 7325 H 683.257 -2.92108 2.61114 0
M  V30 7326 H 684.954 -2.71974 2.94671 0
M  V30 7327 H 681.544 -1.68626 3.94035 0
M  V30 7328 H 685.728 -1.22962 4.80826 0
M  V30 7329 H 680.984 -0.618681 6.08262 0
M  V30 7330 H 685.158 -0.169657 6.96193 0
M  V30 7331 H 682.785 0.14166 7.60068 0
M  V30 7332 N 684.36 -1.4356 -0.65026 0
M  V30 7333 C 685.307 -1.48948 -1.76304 0
M  V30 7334 C 686.277 -0.338919 -1.62605 0
M  V30 7335 O 687.462 -0.54649 -1.82806 0
M  V30 7336 C 684.602 -1.42131 -3.14472 0
M  V30 7337 C 683.715 -2.67415 -3.39284 0
M  V30 7338 C 682.85 -2.52565 -4.67316 0
M  V30 7339 C 681.889 -3.73103 -4.85243 0
M  V30 7340 N 681.026 -3.57046 -6.04535 0
M  V30 7341 H 685.866 -2.44032 -1.71034 0
M  V30 7342 H 683.403 -1.21131 -0.834601 0
M  V30 7343 H 685.361 -1.36172 -3.94351 0
M  V30 7344 H 683.991 -0.506273 -3.18805 0
M  V30 7345 H 683.043 -2.8364 -2.53481 0
M  V30 7346 H 684.355 -3.56943 -3.48415 0
M  V30 7347 H 683.509 -2.44331 -5.55326 0
M  V30 7348 H 682.248 -1.60566 -4.60511 0
M  V30 7349 H 681.253 -3.81743 -3.95667 0
M  V30 7350 H 682.478 -4.66115 -4.93876 0
M  V30 7351 H 680.424 -2.67783 -5.98856 0
M  V30 7352 H 680.341 -4.40178 -6.14638 0
M  V30 7353 H 681.609 -3.52669 -6.95158 0
M  V30 7354 N 685.838 0.888903 -1.30139 0
M  V30 7355 C 687.249 1.45578 -1.16893 0
M  V30 7356 C 687.6 1.94825 0.231866 0
M  V30 7357 O 686.725 1.84661 1.12824 0
M  V30 7358 C 687.32 2.646 -2.11595 0
M  V30 7359 C 685.879 3.17389 -2.02339 0
M  V30 7360 C 685.026 1.90081 -2.01902 0
M  V30 7361 H 687.977 0.69921 -1.42467 0
M  V30 7362 H 687.998 3.40687 -1.69449 0
M  V30 7363 H 687.51 2.28726 -3.13538 0
M  V30 7364 H 685.611 3.5793 -1.03523 0
M  V30 7365 H 685.724 3.80955 -2.90534 0
M  V30 7366 H 684.088 2.08246 -1.46648 0
M  V30 7367 H 684.871 1.5647 -3.05568 0
M  V30 7368 N 687.317 1.12792 1.10072 0
M  V30 7369 C 688.564 0.885545 1.82111 0
M  V30 7370 C 688.892 -0.588519 1.85383 0
M  V30 7371 O 688.147 -1.45124 1.31292 0
M  V30 7372 C 688.446 1.4102 3.28403 0
M  V30 7373 C 688.112 2.89995 3.45273 0
M  V30 7374 C 686.774 3.30671 3.49585 0
M  V30 7375 C 689.126 3.85874 3.50358 0
M  V30 7376 C 686.454 4.65925 3.56553 0
M  V30 7377 C 688.806 5.20963 3.58859 0
M  V30 7378 C 687.47 5.61177 3.61437 0
M  V30 7379 H 686.74 0.324044 0.666391 0
M  V30 7380 H 689.387 1.40874 1.29718 0
M  V30 7381 H 687.692 0.807551 3.83387 0
M  V30 7382 H 689.389 1.19882 3.82661 0
M  V30 7383 H 685.979 2.57537 3.42597 0
M  V30 7384 H 690.163 3.5554 3.46273 0
M  V30 7385 H 685.419 4.96468 3.56833 0
M  V30 7386 H 689.593 5.95079 3.61738 0
M  V30 7387 H 687.22 6.6597 3.66589 0
M  V30 7388 N 688.795 -1.27931 0.920396 0
M  V30 7389 C 690.044 -1.93975 0.552867 0
M  V30 7390 C 690.357 -1.73193 -0.909035 0
M  V30 7391 O 691.563 -2.33515 -1.38502 0
M  V30 7392 C 690.019 -3.47463 0.937947 0
M  V30 7393 C 689.627 -3.77013 2.42003 0
M  V30 7394 C 691.371 -4.19628 0.64132 0
M  V30 7395 C 689.278 -5.23841 2.74489 0
M  V30 7396 H 688.208 -0.726146 0.203046 0
M  V30 7397 H 690.859 -1.45339 1.12022 0
M  V30 7398 H 689.241 -3.94867 0.299317 0
M  V30 7399 H 690.415 -3.40393 3.10595 0
M  V30 7400 H 688.73 -3.18035 2.6878 0
M  V30 7401 H 691.327 -5.27729 0.860622 0
M  V30 7402 H 691.67 -4.14164 -0.421168 0
M  V30 7403 H 692.203 -3.78022 1.23872 0
M  V30 7404 H 688.942 -5.34388 3.79618 0
M  V30 7405 H 688.462 -5.61634 2.1054 0
M  V30 7406 H 690.141 -5.91647 2.61845 0
M  V30 7407 N 690.273 -0.685099 -1.4193 0
M  V30 7408 C 691.503 -0.220052 -2.05425 0
M  V30 7409 C 691.911 1.13185 -1.51611 0
M  V30 7410 O 691.254 1.71631 -0.654875 0
M  V30 7411 C 691.316 -0.0888364 -3.5939 0
M  V30 7412 C 690.98 -1.37109 -4.35947 0
M  V30 7413 C 691.977 -2.30675 -4.65924 0
M  V30 7414 C 689.662 -1.62155 -4.75406 0
M  V30 7415 C 691.656 -3.47556 -5.34306 0
M  V30 7416 C 689.343 -2.79324 -5.43527 0
M  V30 7417 C 690.341 -3.71848 -5.72903 0
M  V30 7418 O 690.029 -4.86966 -6.39624 0
M  V30 7419 H 689.761 -0.102165 -0.668235 0
M  V30 7420 H 692.315 -0.935194 -1.82875 0
M  V30 7421 H 690.545 0.681981 -3.80639 0
M  V30 7422 H 692.234 0.337669 -4.04493 0
M  V30 7423 H 693 -2.12579 -4.3593 0
M  V30 7424 H 688.879 -0.910053 -4.51928 0
M  V30 7425 H 692.423 -4.19794 -5.57153 0
M  V30 7426 H 688.32 -2.97342 -5.72938 0
M  V30 7427 H 689.088 -4.86644 -6.58118 0
M  V30 7428 N 691.751 1.51645 -0.429126 0
M  V30 7429 C 692.976 2.06917 0.141399 0
M  V30 7430 C 693.401 1.29527 1.36398 0
M  V30 7431 O 692.759 0.33094 1.78254 0
M  V30 7432 C 692.807 3.57776 0.4504 0
M  V30 7433 O 691.911 3.82639 1.53821 0
M  V30 7434 H 691.252 0.663978 0.0054647 0
M  V30 7435 H 693.782 1.95355 -0.608093 0
M  V30 7436 H 693.792 4.01894 0.703249 0
M  V30 7437 H 692.467 4.13532 -0.443213 0
M  V30 7438 H 691.044 3.5039 1.27597 0
M  V30 7439 N 693.229 0.160201 1.56784 0
M  V30 7440 C 694.192 -0.760405 2.16219 0
M  V30 7441 C 695.192 -1.16595 1.10735 0
M  V30 7442 O 696.382 -1.08472 1.36306 0
M  V30 7443 C 693.514 -2.03358 2.73603 0
M  V30 7444 H 694.707 -0.243173 2.98912 0
M  V30 7445 H 692.26 -0.0893139 1.56045 0
M  V30 7446 H 692.995 -2.59416 1.94612 0
M  V30 7447 H 692.78 -1.75186 3.50788 0
M  V30 7448 H 694.27 -2.69081 3.19351 0
M  V30 7449 N 694.707 -1.5719 -0.113559 0
M  V30 7450 C 695.67 -1.99796 -1.12314 0
M  V30 7451 C 696.67 -0.888847 -1.34001 0
M  V30 7452 O 697.86 -1.15476 -1.30426 0
M  V30 7453 C 694.992 -2.34279 -2.47641 0
M  V30 7454 H 696.185 -2.90193 -0.756825 0
M  V30 7455 H 693.738 -1.52144 -0.358029 0
M  V30 7456 H 694.473 -1.46778 -2.89183 0
M  V30 7457 H 694.258 -3.15175 -2.33253 0
M  V30 7458 H 695.748 -2.67963 -3.2029 0
M  V30 7459 N 696.185 0.383891 -1.52853 0
M  V30 7460 C 697.115 1.47559 -1.80965 0
M  V30 7461 C 698.096 1.5669 -0.661986 0
M  V30 7462 O 699.281 1.71556 -0.910072 0
M  V30 7463 C 696.411 2.85114 -1.98312 0
M  V30 7464 C 695.365 2.9082 -3.14019 0
M  V30 7465 C 694.691 4.30873 -3.16627 0
M  V30 7466 C 695.991 2.60001 -4.52986 0
M  V30 7467 H 697.685 1.24283 -2.72386 0
M  V30 7468 H 695.231 0.596445 -1.31067 0
M  V30 7469 H 697.184 3.61496 -2.16561 0
M  V30 7470 H 695.908 3.09738 -1.03585 0
M  V30 7471 H 694.567 2.16886 -2.9556 0
M  V30 7472 H 694.215 4.52545 -2.19573 0
M  V30 7473 H 693.915 4.3561 -3.94357 0
M  V30 7474 H 695.439 5.09154 -3.37038 0
M  V30 7475 H 696.853 3.261 -4.71521 0
M  V30 7476 H 695.25 2.76081 -5.32822 0
M  V30 7477 H 696.32 1.5532 -4.59351 0
M  V30 7478 N 697.663 1.43903 0.642637 0
M  V30 7479 C 698.94 1.36556 1.40043 0
M  V30 7480 C 699.32 0.0185588 2.11092 0
M  V30 7481 O 698.668 -0.998438 2.05532 0
M  V30 7482 C 698.878 2.55596 2.37638 0
M  V30 7483 C 700.226 2.99153 3.01318 0
M  V30 7484 O 701.25 2.55719 2.47965 0
M  V30 7485 O 700.109 3.74427 3.98078 0
M  V30 7486 H 697.203 0.540189 0.626198 0
M  V30 7487 H 699.749 1.55971 0.668657 0
M  V30 7488 H 698.521 3.45256 1.84158 0
M  V30 7489 H 698.144 2.38334 3.18249 0
M  V30 7490 N 699.141 -0.881989 1.30609 0
M  V30 7491 C 700.089 -2.00942 1.17155 0
M  V30 7492 C 701.083 -1.69198 0.0827154 0
M  V30 7493 O 702.289 -1.78342 0.243775 0
M  V30 7494 H 698.664 -0.658913 0.362406 0
M  V30 7495 H 700.635 -2.09423 2.12567 0
M  V30 7496 C 699.384 -3.36294 0.883273 0
M  V30 7497 H 698.707 -3.61233 1.7132 0
M  V30 7498 H 700.147 -4.15812 0.829255 0
M  V30 7499 C 698.606 -3.34348 -0.413851 0
M  V30 7500 O 699.136 -3.75216 -1.43444 0
M  V30 7501 N 697.342 -2.87459 -0.426082 0
M  V30 7502 H 696.889 -2.54397 0.40493 0
M  V30 7503 H 696.847 -2.8654 -1.29391 0
M  V30 7504 N 700.619 -1.13374 -1.09472 0
M  V30 7505 C 701.867 -0.893422 -1.8128 0
M  V30 7506 C 702.188 0.582029 -1.86111 0
M  V30 7507 O 701.458 1.42305 -1.34633 0
M  V30 7508 H 700.038 -0.327543 -0.67136 0
M  V30 7509 H 702.7 -1.43018 -1.32408 0
M  V30 7510 H 701.796 -1.28374 -2.84476 0
M  V30 7511 N 702.098 1.27442 -0.927168 0
M  V30 7512 C 703.345 1.94391 -0.567324 0
M  V30 7513 C 703.673 1.72875 0.891321 0
M  V30 7514 O 702.928 1.05071 1.65102 0
M  V30 7515 C 703.227 3.47413 -0.838994 0
M  V30 7516 C 702.893 3.89049 -2.2793 0
M  V30 7517 C 701.555 4.00127 -2.67305 0
M  V30 7518 C 703.907 4.10154 -3.21595 0
M  V30 7519 C 701.235 4.29697 -3.99471 0
M  V30 7520 C 703.587 4.41208 -4.53341 0
M  V30 7521 C 702.251 4.50499 -4.92551 0
M  V30 7522 H 701.521 0.711325 -0.207598 0
M  V30 7523 H 704.168 1.51523 -1.17103 0
M  V30 7524 H 702.473 3.91503 -0.152609 0
M  V30 7525 H 704.17 3.97354 -0.53955 0
M  V30 7526 H 700.76 3.80962 -1.96381 0
M  V30 7527 H 704.944 4.01036 -2.92377 0
M  V30 7528 H 700.2 4.35099 -4.29533 0
M  V30 7529 H 704.374 4.56486 -5.25922 0
M  V30 7530 H 702.001 4.73167 -5.94994 0
M  V30 7531 N 703.576 0.692616 1.41565 0
M  V30 7532 C 704.804 0.231279 2.05603 0
M  V30 7533 C 705.219 -1.11837 1.52111 0
M  V30 7534 O 704.576 -1.6983 0.66813 0
M  V30 7535 C 704.627 0.177125 3.61066 0
M  V30 7536 O 704.348 1.47346 4.12578 0
M  V30 7537 C 705.849 -0.30556 4.42246 0
M  V30 7538 H 703.069 0.108238 0.662213 0
M  V30 7539 H 705.613 0.944369 1.81389 0
M  V30 7540 H 703.768 -0.486769 3.8433 0
M  V30 7541 H 704.182 1.35861 5.06599 0
M  V30 7542 H 705.656 -0.29233 5.51225 0
M  V30 7543 H 706.133 -1.34393 4.18133 0
M  V30 7544 H 706.739 0.327229 4.24039 0
M  V30 7545 N 705.054 -1.51416 0.437162 0
M  V30 7546 C 706.017 -2.26312 -0.362729 0
M  V30 7547 C 707.017 -1.29748 -0.949847 0
M  V30 7548 O 708.207 -1.53462 -0.824325 0
M  V30 7549 C 705.339 -3.05475 -1.5132 0
M  V30 7550 H 706.532 -2.98459 0.29365 0
M  V30 7551 H 704.085 -1.55137 0.190327 0
M  V30 7552 H 704.82 -2.37744 -2.20563 0
M  V30 7553 H 704.605 -3.76401 -1.09838 0
M  V30 7554 H 706.095 -3.62209 -2.07833 0
M  V30 7555 N 706.532 -0.168513 -1.56696 0
M  V30 7556 C 707.495 0.748928 -2.16619 0
M  V30 7557 C 708.495 1.16007 -1.11351 0
M  V30 7558 O 709.685 1.07748 -1.3688 0
M  V30 7559 C 706.817 2.01904 -2.74677 0
M  V30 7560 H 708.01 0.227317 -2.99037 0
M  V30 7561 H 705.563 0.0810372 -1.5609 0
M  V30 7562 H 706.298 2.58381 -1.95985 0
M  V30 7563 H 706.083 1.73323 -3.51712 0
M  V30 7564 H 707.573 2.67383 -3.20774 0
M  V30 7565 N 708.01 1.57248 0.105221 0
M  V30 7566 C 709.235 1.90143 0.828264 0
M  V30 7567 C 709.66 0.761811 1.71983 0
M  V30 7568 O 709.018 -0.287086 1.79013 0
M  V30 7569 C 709.066 3.21856 1.62608 0
M  V30 7570 O 708.17 3.08732 2.7342 0
M  V30 7571 H 707.511 0.623558 0.228192 0
M  V30 7572 H 710.041 2.0443 0.0834826 0
M  V30 7573 H 710.051 3.54916 2.01243 0
M  V30 7574 H 708.726 4.0439 0.971687 0
M  V30 7575 H 707.303 2.87167 2.37886 0
M  V30 7576 N 709.488 -0.375779 1.53054 0
M  V30 7577 C 710.418 -1.46598 1.81745 0
M  V30 7578 C 711.399 -1.56337 0.670286 0
M  V30 7579 O 712.584 -1.71071 0.919158 0
M  V30 7580 C 709.714 -2.84058 1.99821 0
M  V30 7581 C 708.668 -2.8915 3.15557 0
M  V30 7582 C 707.994 -4.29187 3.18908 0
M  V30 7583 C 709.294 -2.57595 4.54359 0
M  V30 7584 H 710.988 -1.22837 2.73041 0
M  V30 7585 H 708.534 -0.589485 1.31381 0
M  V30 7586 H 710.487 -3.60342 2.18475 0
M  V30 7587 H 709.211 -3.09184 1.05226 0
M  V30 7588 H 707.87 -2.15316 2.96706 0
M  V30 7589 H 707.518 -4.51374 2.2197 0
M  V30 7590 H 707.218 -4.33512 3.96662 0
M  V30 7591 H 708.742 -5.07359 3.39734 0
M  V30 7592 H 710.156 -3.23595 4.73243 0
M  V30 7593 H 708.553 -2.73252 5.34279 0
M  V30 7594 H 709.623 -1.52882 4.60169 0
M  V30 7595 N 710.966 -1.44241 -0.634997 0
M  V30 7596 C 712.212 -1.47038 -1.39669 0
M  V30 7597 C 712.545 -0.101122 -1.93937 0
M  V30 7598 O 711.82 0.880699 -1.73418 0
M  V30 7599 C 712.103 -2.52763 -2.56482 0
M  V30 7600 C 711.956 -3.99032 -2.07589 0
M  V30 7601 C 713.275 -2.55031 -3.58674 0
M  V30 7602 H 710.394 -0.53537 -0.506506 0
M  V30 7603 H 713.036 -1.75898 -0.718317 0
M  V30 7604 H 711.186 -2.28284 -3.14354 0
M  V30 7605 H 712.858 -4.3463 -1.54577 0
M  V30 7606 H 711.101 -4.10994 -1.38804 0
M  V30 7607 H 711.772 -4.68649 -2.91671 0
M  V30 7608 H 714.248 -2.76893 -3.10595 0
M  V30 7609 H 713.124 -3.30916 -4.37934 0
M  V30 7610 H 713.385 -1.59085 -4.12486 0
M  V30 7611 N 712.444 0.87505 -1.31075 0
M  V30 7612 C 713.392 2.00317 -1.18219 0
M  V30 7613 C 714.386 1.69152 -0.0916872 0
M  V30 7614 O 715.592 1.7821 -0.253229 0
M  V30 7615 H 711.967 0.656981 -0.365895 0
M  V30 7616 H 713.938 2.08293 -2.13674 0
M  V30 7617 C 712.687 3.35821 -0.901095 0
M  V30 7618 H 712.01 3.6032 -1.73233 0
M  V30 7619 H 713.45 4.15366 -0.851295 0
M  V30 7620 C 711.909 3.34563 0.396114 0
M  V30 7621 O 712.439 3.75971 1.41452 0
M  V30 7622 N 710.645 2.87681 0.410832 0
M  V30 7623 H 710.192 2.54179 -0.418415 0
M  V30 7624 H 710.15 2.87223 1.27869 0
M  V30 7625 N 713.922 1.13953 1.08869 0
M  V30 7626 C 715.199 0.815768 1.77777 0
M  V30 7627 C 715.579 -0.691624 1.99449 0
M  V30 7628 O 714.927 -1.63085 1.60049 0
M  V30 7629 C 715.137 1.60916 3.09689 0
M  V30 7630 C 716.485 1.80549 3.84301 0
M  V30 7631 O 717.509 1.57562 3.19457 0
M  V30 7632 O 716.368 2.18946 5.00724 0
M  V30 7633 H 713.462 0.298445 0.771271 0
M  V30 7634 H 716.008 1.24446 1.15374 0
M  V30 7635 H 714.78 2.6333 2.89435 0
M  V30 7636 H 714.403 1.17578 3.79817 0
M  V30 7637 N 715.4 -1.26948 0.933913 0
M  V30 7638 C 716.363 -2.24889 0.442457 0
M  V30 7639 C 717.363 -1.54594 -0.442426 0
M  V30 7640 O 718.553 -1.72502 -0.242629 0
M  V30 7641 C 715.685 -3.3896 -0.363173 0
M  V30 7642 H 716.878 -2.69879 1.30787 0
M  V30 7643 H 714.431 -1.38978 0.715187 0
M  V30 7644 H 715.166 -2.99361 -1.24714 0
M  V30 7645 H 714.951 -3.9116 0.271366 0
M  V30 7646 H 716.441 -4.11739 -0.697186 0
M  V30 7647 N 716.879 -0.700114 -1.41195 0
M  V30 7648 C 718.29 -0.307249 -1.84154 0
M  V30 7649 C 718.641 1.15539 -1.58572 0
M  V30 7650 O 717.766 1.88744 -1.05852 0
M  V30 7651 C 718.361 -0.550872 -3.34292 0
M  V30 7652 C 716.92 -0.211877 -3.75803 0
M  V30 7653 C 716.067 -0.830915 -2.64558 0
M  V30 7654 H 719.018 -0.900431 -1.30683 0
M  V30 7655 H 719.039 0.188954 -3.80031 0
M  V30 7656 H 718.551 -1.61548 -3.5288 0
M  V30 7657 H 716.652 0.848283 -3.62815 0
M  V30 7658 H 716.765 -0.67007 -4.74391 0
M  V30 7659 H 715.129 -0.260155 -2.53368 0
M  V30 7660 H 715.912 -1.89948 -2.85963 0
M  V30 7661 N 718.357 1.51182 -0.445186 0
M  V30 7662 C 719.606 2.01342 0.120189 0
M  V30 7663 C 719.919 1.33353 1.43095 0
M  V30 7664 O 721.125 1.74525 2.07974 0
M  V30 7665 C 719.581 3.58925 0.264732 0
M  V30 7666 C 719.189 4.35855 -1.03606 0
M  V30 7667 C 720.933 4.17208 0.783455 0
M  V30 7668 C 718.84 5.85162 -0.856731 0
M  V30 7669 H 717.77 0.752426 0.0486922 0
M  V30 7670 H 720.421 1.74221 -0.576143 0
M  V30 7671 H 718.803 3.82525 1.02425 0
M  V30 7672 H 719.977 4.23997 -1.80452 0
M  V30 7673 H 718.292 3.89062 -1.48391 0
M  V30 7674 H 720.889 5.26475 0.934239 0
M  V30 7675 H 721.232 3.76892 1.768 0
M  V30 7676 H 721.765 3.97715 0.0820346 0
M  V30 7677 H 718.504 6.29904 -1.81388 0
M  V30 7678 H 718.024 5.99663 -0.128206 0
M  V30 7679 H 719.703 6.44963 -0.513027 0
M  V30 7680 N 719.835 0.176821 1.56605 0
M  V30 7681 C 721.081 -0.467406 1.9734 0
M  V30 7682 C 721.414 -1.62523 1.06301 0
M  V30 7683 O 720.689 -1.94182 0.11125 0
M  V30 7684 C 720.972 -0.945106 3.47476 0
M  V30 7685 C 720.825 0.213273 4.49294 0
M  V30 7686 C 722.144 -1.8169 4.00845 0
M  V30 7687 H 719.263 -0.168426 0.717497 0
M  V30 7688 H 721.905 0.264065 1.88156 0
M  V30 7689 H 720.055 -1.56841 3.55434 0
M  V30 7690 H 721.727 0.850508 4.53392 0
M  V30 7691 H 719.97 0.867918 4.25029 0
M  V30 7692 H 720.641 -0.163187 5.51759 0
M  V30 7693 H 723.117 -1.29139 3.95553 0
M  V30 7694 H 721.993 -2.12015 5.06301 0
M  V30 7695 H 722.254 -2.76463 3.44994 0
M  V30 7696 N 721.313 -1.57302 -0.09688 0
M  V30 7697 C 722.56 -1.85997 -0.800699 0
M  V30 7698 C 722.888 -0.765089 -1.7882 0
M  V30 7699 O 722.143 0.241492 -1.94204 0
M  V30 7700 C 722.442 -3.21272 -1.56586 0
M  V30 7701 C 722.108 -4.45104 -0.72064 0
M  V30 7702 C 720.77 -4.78723 -0.487632 0
M  V30 7703 C 723.122 -5.2103 -0.132948 0
M  V30 7704 C 720.45 -5.85697 0.34296 0
M  V30 7705 C 722.802 -6.28881 0.684957 0
M  V30 7706 C 721.466 -6.61017 0.928073 0
M  V30 7707 H 720.736 -0.680613 -0.292997 0
M  V30 7708 H 723.383 -1.91399 -0.0622474 0
M  V30 7709 H 721.688 -3.11547 -2.37583 0
M  V30 7710 H 723.385 -3.40702 -2.11478 0
M  V30 7711 H 719.975 -4.18777 -0.912359 0
M  V30 7712 H 724.159 -4.95392 -0.300132 0
M  V30 7713 H 719.415 -6.09008 0.540317 0
M  V30 7714 H 723.589 -6.86886 1.14721 0
M  V30 7715 H 721.216 -7.43738 1.57348 0
M  V30 7716 N 722.791 0.367657 -1.53252 0
M  V30 7717 C 724.037 1.11216 -1.69584 0
M  V30 7718 C 724.37 1.89026 -0.445269 0
M  V30 7719 O 723.645 1.86342 0.557404 0
M  V30 7720 C 723.928 2.07308 -2.94441 0
M  V30 7721 C 723.781 1.3312 -4.2965 0
M  V30 7722 C 725.1 3.07459 -3.14892 0
M  V30 7723 H 722.219 0.40294 -0.617096 0
M  V30 7724 H 724.861 0.393201 -1.85887 0
M  V30 7725 H 723.011 2.68617 -2.80673 0
M  V30 7726 H 724.683 0.746111 -4.55226 0
M  V30 7727 H 722.926 0.633051 -4.29156 0
M  V30 7728 H 723.597 2.03443 -5.13142 0
M  V30 7729 H 726.073 2.56252 -3.27832 0
M  V30 7730 H 724.949 3.71919 -4.03693 0
M  V30 7731 H 725.21 3.77514 -2.30077 0
M  V30 7732 N 724.269 1.44576 0.627338 0
M  V30 7733 C 725.546 1.38033 1.38586 0
M  V30 7734 C 725.926 0.0409468 2.1106 0
M  V30 7735 O 725.274 -0.976582 2.0658 0
M  V30 7736 C 725.484 2.58102 2.34913 0
M  V30 7737 C 726.832 3.02332 2.98129 0
M  V30 7738 O 727.856 2.58334 2.45238 0
M  V30 7739 O 726.715 3.78628 3.94085 0
M  V30 7740 H 723.809 0.546801 0.620434 0
M  V30 7741 H 726.355 1.56672 0.652077 0
M  V30 7742 H 725.127 3.4719 1.80485 0
M  V30 7743 H 724.75 2.41696 3.15703 0
M  V30 7744 N 725.747 -0.868086 1.31537 0
M  V30 7745 C 726.657 -2.00801 1.21311 0
M  V30 7746 C 727.673 -1.73518 0.129431 0
M  V30 7747 O 728.849 -1.98378 0.347588 0
M  V30 7748 C 725.914 -3.3419 0.922935 0
M  V30 7749 C 724.975 -3.74783 2.0937 0
M  V30 7750 C 724.208 -5.01807 1.81728 0
M  V30 7751 O 724.431 -5.65404 0.753313 0
M  V30 7752 O 723.365 -5.39213 2.67457 0
M  V30 7753 H 727.191 -2.12361 2.17109 0
M  V30 7754 H 724.776 -0.996684 1.11295 0
M  V30 7755 H 726.658 -4.14174 0.777033 0
M  V30 7756 H 725.333 -3.237 -0.00500301 0
M  V30 7757 H 724.24 -2.95432 2.29501 0
M  V30 7758 H 725.573 -3.89902 3.00396 0
M  V30 7759 N 727.225 -1.14528 -1.08264 0
M  V30 7760 C 728.455 -0.936604 -1.8415 0
M  V30 7761 C 728.863 0.518298 -1.81962 0
M  V30 7762 O 728.206 1.37096 -1.22272 0
M  V30 7763 C 728.268 -1.36182 -3.32708 0
M  V30 7764 C 727.932 -2.83257 -3.58629 0
M  V30 7765 C 728.929 -3.81366 -3.5335 0
M  V30 7766 C 726.614 -3.20704 -3.86593 0
M  V30 7767 C 728.608 -5.14929 -3.75668 0
M  V30 7768 C 726.295 -4.54443 -4.08564 0
M  V30 7769 C 727.293 -5.51365 -4.03095 0
M  V30 7770 O 726.981 -6.8269 -4.24488 0
M  V30 7771 H 726.713 -0.333254 -0.588148 0
M  V30 7772 H 729.267 -1.5247 -1.3763 0
M  V30 7773 H 727.497 -0.717063 -3.79994 0
M  V30 7774 H 729.186 -1.12372 -3.90035 0
M  V30 7775 H 729.952 -3.53781 -3.31759 0
M  V30 7776 H 725.831 -2.45857 -3.89969 0
M  V30 7777 H 729.375 -5.90568 -3.71315 0
M  V30 7778 H 725.272 -4.81747 -4.29639 0
M  V30 7779 H 726.04 -6.8897 -4.41886 0
M  V30 7780 N 728.703 1.26451 -0.940633 0
M  V30 7781 C 729.633 2.28773 -0.467479 0
M  V30 7782 C 730.614 1.63218 0.478955 0
M  V30 7783 O 731.799 1.90427 0.380929 0
M  V30 7784 C 728.929 3.46259 0.268656 0
M  V30 7785 C 727.883 4.23898 -0.591171 0
M  V30 7786 C 727.209 5.33993 0.274891 0
M  V30 7787 C 728.509 4.87974 -1.86223 0
M  V30 7788 H 730.203 2.68601 -1.32265 0
M  V30 7789 H 727.749 1.29123 -0.637436 0
M  V30 7790 H 729.702 4.16951 0.610696 0
M  V30 7791 H 728.426 3.05383 1.15796 0
M  V30 7792 H 727.085 3.54969 -0.916098 0
M  V30 7793 H 726.733 4.89358 1.16353 0
M  V30 7794 H 726.433 5.86849 -0.297006 0
M  V30 7795 H 727.957 6.07523 0.612213 0
M  V30 7796 H 729.371 5.50883 -1.58747 0
M  V30 7797 H 727.768 5.50945 -2.37866 0
M  V30 7798 H 728.838 4.10945 -2.57394 0
M  V30 7799 N 730.181 0.707592 1.40822 0
M  V30 7800 C 731.458 0.171172 1.9485 0
M  V30 7801 C 731.838 -1.32143 1.64625 0
M  V30 7802 O 731.186 -2.07372 0.959647 0
M  V30 7803 C 731.396 0.475334 3.45748 0
M  V30 7804 C 732.744 0.409625 4.22619 0
M  V30 7805 O 733.768 0.410934 3.53822 0
M  V30 7806 O 732.627 0.380185 5.45176 0
M  V30 7807 H 729.721 0.022015 0.826707 0
M  V30 7808 H 732.267 0.784577 1.50474 0
M  V30 7809 H 731.039 1.50801 3.61075 0
M  V30 7810 H 730.662 -0.168439 3.97243 0
M  V30 7811 N 731.66 -1.50943 0.453197 0
M  V30 7812 C 732.607 -2.28128 -0.350197 0
M  V30 7813 C 733.577 -1.32398 -1.00299 0
M  V30 7814 O 734.762 -1.61319 -1.01887 0
M  V30 7815 C 731.902 -3.13782 -1.43649 0
M  V30 7816 C 731.015 -4.24523 -0.800255 0
M  V30 7817 C 730.15 -4.97462 -1.86293 0
M  V30 7818 C 729.189 -6.00102 -1.20598 0
M  V30 7819 N 728.326 -6.66387 -2.21071 0
M  V30 7820 H 733.166 -2.96337 0.31434 0
M  V30 7821 H 730.703 -1.46151 0.166863 0
M  V30 7822 H 732.661 -3.6178 -2.07776 0
M  V30 7823 H 731.291 -2.47655 -2.07044 0
M  V30 7824 H 730.343 -3.80371 -0.0468651 0
M  V30 7825 H 731.655 -4.98009 -0.280777 0
M  V30 7826 H 730.809 -5.49088 -2.58044 0
M  V30 7827 H 729.548 -4.23642 -2.41617 0
M  V30 7828 H 728.553 -5.47753 -0.474 0
M  V30 7829 H 729.778 -6.75887 -0.659859 0
M  V30 7830 H 727.724 -5.9537 -2.75446 0
M  V30 7831 H 727.641 -7.3569 -1.74058 0
M  V30 7832 H 728.909 -7.22638 -2.92257 0
M  V30 7833 N 733.138 -0.185124 -1.56509 0
M  V30 7834 C 734.384 0.456934 -1.97585 0
M  V30 7835 C 734.717 1.61957 -1.07161 0
M  V30 7836 O 733.992 1.9412 -0.121546 0
M  V30 7837 C 734.275 0.926666 -3.47973 0
M  V30 7838 C 734.128 -0.237097 -4.49175 0
M  V30 7839 C 735.447 1.79561 -4.01803 0
M  V30 7840 H 732.566 0.164619 -0.71838 0
M  V30 7841 H 735.208 -0.274039 -1.88013 0
M  V30 7842 H 733.358 1.54954 -3.56261 0
M  V30 7843 H 735.03 -0.87454 -4.52934 0
M  V30 7844 H 733.273 -0.890446 -4.24563 0
M  V30 7845 H 733.944 0.133924 -5.51838 0
M  V30 7846 H 736.42 1.27039 -3.96232 0
M  V30 7847 H 735.296 2.09327 -5.07418 0
M  V30 7848 H 735.557 2.74629 -3.46455 0
M  V30 7849 N 734.616 1.57351 0.0885366 0
M  V30 7850 C 735.862 1.87564 0.786842 0
M  V30 7851 C 736.217 0.776774 1.76023 0
M  V30 7852 O 735.51 -0.220637 1.90325 0
M  V30 7853 C 735.704 3.22098 1.5488 0
M  V30 7854 C 735.533 4.44967 0.650706 0
M  V30 7855 C 734.303 5.04444 0.293957 0
M  V30 7856 C 736.501 5.1428 -0.0452187 0
M  V30 7857 N 734.483 6.10846 -0.611609 0
M  V30 7858 C 735.854 6.14704 -0.808603 0
M  V30 7859 C 737.909 4.97759 -0.118451 0
M  V30 7860 C 736.612 7.00392 -1.63839 0
M  V30 7861 C 738.638 5.8396 -0.935157 0
M  V30 7862 C 738 6.83909 -1.68664 0
M  V30 7863 H 734.099 0.73613 0.263887 0
M  V30 7864 H 736.683 1.94638 0.049074 0
M  V30 7865 H 734.854 3.16064 2.2574 0
M  V30 7866 H 736.586 3.40015 2.19481 0
M  V30 7867 H 733.341 4.69214 0.643086 0
M  V30 7868 H 733.765 6.68695 -1.05714 0
M  V30 7869 H 738.407 4.20418 0.448202 0
M  V30 7870 H 736.125 7.7712 -2.21608 0
M  V30 7871 H 739.711 5.73236 -0.994579 0
M  V30 7872 H 738.591 7.49454 -2.30842 0
M  V30 7873 N 736.094 -0.359525 1.53444 0
M  V30 7874 C 737.51 -0.701599 1.43352 0
M  V30 7875 C 737.71 -1.93049 0.577439 0
M  V30 7876 O 736.766 -2.52423 0.0622224 0
M  V30 7877 C 738.079 -0.90915 2.86627 0
M  V30 7878 C 739.627 -1.00878 2.96298 0
M  V30 7879 C 740.102 -1.24876 4.40647 0
M  V30 7880 N 741.593 -1.31632 4.44103 0
M  V30 7881 C 742.328 -1.51922 5.52908 0
M  V30 7882 N 741.824 -1.69489 6.71748 0
M  V30 7883 N 743.617 -1.54341 5.40496 0
M  V30 7884 H 735.768 0.448685 2.07607 0
M  V30 7885 H 738.031 0.138713 0.937797 0
M  V30 7886 H 737.737 -0.0778997 3.51614 0
M  V30 7887 H 737.611 -1.81551 3.30634 0
M  V30 7888 H 739.998 -1.83057 2.31461 0
M  V30 7889 H 740.079 -0.0796721 2.55676 0
M  V30 7890 H 739.723 -0.431961 5.0606 0
M  V30 7891 H 739.653 -2.19118 4.78848 0
M  V30 7892 H 742.144 -1.19646 3.5846 0
M  V30 7893 H 742.457 -1.84561 7.50438 0
M  V30 7894 H 740.802 -1.66655 6.74723 0
M  V30 7895 H 743.993 -1.40188 4.46615 0
M  V30 7896 H 744.166 -1.69812 6.25354 0
M  V30 7897 N 737.572 -1.44907 -0.619662 0
M  V30 7898 C 738.983 -1.42905 -1.20146 0
M  V30 7899 C 739.334 -0.150341 -1.95623 0
M  V30 7900 O 738.459 0.748732 -2.03034 0
M  V30 7901 C 739.054 -2.58889 -2.18545 0
M  V30 7902 C 737.613 -2.60046 -2.72127 0
M  V30 7903 C 736.76 -2.3493 -1.4732 0
M  V30 7904 H 739.711 -1.53321 -0.409666 0
M  V30 7905 H 739.732 -2.32298 -3.0136 0
M  V30 7906 H 739.244 -3.51941 -1.63583 0
M  V30 7907 H 737.345 -1.70968 -3.3106 0
M  V30 7908 H 737.458 -3.58893 -3.17384 0
M  V30 7909 H 735.822 -1.84248 -1.75855 0
M  V30 7910 H 736.605 -3.3011 -0.942442 0
M  V30 7911 N 739.05 0.861098 -1.31996 0
M  V30 7912 C 739.997 1.96912 -1.20392 0
M  V30 7913 C 740.967 1.65869 -0.0875899 0
M  V30 7914 O 742.152 1.88992 -0.262011 0
M  V30 7915 C 739.292 3.32435 -0.926335 0
M  V30 7916 C 738.405 3.76018 -2.12684 0
M  V30 7917 C 737.54 5.00301 -1.78529 0
M  V30 7918 C 736.579 5.36357 -2.94937 0
M  V30 7919 N 735.716 6.51818 -2.60917 0
M  V30 7920 H 740.556 2.06169 -2.1517 0
M  V30 7921 H 738.093 1.00917 -1.07024 0
M  V30 7922 H 740.051 4.10478 -0.745917 0
M  V30 7923 H 738.681 3.22796 -0.0153578 0
M  V30 7924 H 737.733 2.93683 -2.41774 0
M  V30 7925 H 739.045 3.98664 -2.99781 0
M  V30 7926 H 738.199 5.86034 -1.57001 0
M  V30 7927 H 736.938 4.79578 -0.886356 0
M  V30 7928 H 735.943 4.49139 -3.17103 0
M  V30 7929 H 737.168 5.59041 -3.85552 0
M  V30 7930 H 735.114 6.32624 -1.73558 0
M  V30 7931 H 735.031 6.7445 -3.41544 0
M  V30 7932 H 736.299 7.4072 -2.42804 0
M  V30 7933 N 740.528 1.15101 1.07655 0
M  V30 7934 C 741.476 0.840714 2.16875 0
M  V30 7935 C 742.47 -0.184594 1.68391 0
M  V30 7936 O 743.676 -0.0399315 1.79956 0
M  V30 7937 H 740.051 0.254192 0.707736 0
M  V30 7938 H 742.022 1.76959 2.40266 0
M  V30 7939 C 740.771 0.343018 3.46004 0
M  V30 7940 H 740.094 1.12335 3.83694 0
M  V30 7941 H 741.534 0.16453 4.23681 0
M  V30 7942 C 739.993 -0.934881 3.23669 0
M  V30 7943 O 740.523 -2.00706 3.47965 0
M  V30 7944 N 738.729 -0.873167 2.77172 0
M  V30 7945 H 738.276 -0.000479072 2.576 0
M  V30 7946 H 738.234 -1.72873 2.62607 0
M  V30 7947 N 742.006 -1.2595 0.947325 0
M  V30 7948 C 743.283 -1.88676 0.515824 0
M  V30 7949 C 743.663 -1.85547 -1.00675 0
M  V30 7950 O 743.011 -1.31399 -1.8694 0
M  V30 7951 C 743.221 -3.31734 1.08415 0
M  V30 7952 C 744.569 -4.08545 1.15654 0
M  V30 7953 O 745.593 -3.40826 1.03517 0
M  V30 7954 O 744.452 -5.29663 1.34608 0
M  V30 7955 H 741.546 -0.809537 0.169055 0
M  V30 7956 H 744.092 -1.34075 1.04029 0
M  V30 7957 H 742.864 -3.28404 2.1276 0
M  V30 7958 H 742.487 -3.93882 0.542499 0
M  V30 7959 N 743.484 -0.715051 -1.40445 0
M  V30 7960 C 744.712 -0.263959 -2.05209 0
M  V30 7961 C 745.127 1.09403 -1.53871 0
M  V30 7962 O 744.484 1.68746 -0.695064 0
M  V30 7963 C 744.535 -0.234545 -3.60738 0
M  V30 7964 O 744.256 -1.53891 -4.10182 0
M  V30 7965 C 745.757 0.235164 -4.42676 0
M  V30 7966 H 742.977 -0.11876 -0.660407 0
M  V30 7967 H 745.521 -0.973107 -1.79864 0
M  V30 7968 H 743.676 0.425563 -3.85055 0
M  V30 7969 H 744.09 -1.43903 -5.04373 0
M  V30 7970 H 745.564 0.204598 -5.51621 0
M  V30 7971 H 746.041 1.27724 -4.20218 0
M  V30 7972 H 746.647 -0.394649 -4.23465 0
M  V30 7973 N 744.962 1.50701 -0.461195 0
M  V30 7974 C 745.91 2.29918 0.352231 0
M  V30 7975 C 746.904 1.36778 0.999403 0
M  V30 7976 O 748.11 1.54015 0.931639 0
M  V30 7977 H 744.485 0.740249 0.132423 0
M  V30 7978 H 746.456 2.96497 -0.336424 0
M  V30 7979 C 745.205 3.17052 1.42736 0
M  V30 7980 H 744.528 3.88623 0.938747 0
M  V30 7981 H 745.968 3.75493 1.96928 0
M  V30 7982 C 744.427 2.3399 2.42384 0
M  V30 7983 O 744.957 2.01608 3.47444 0
M  V30 7984 N 743.163 1.96758 2.13857 0
M  V30 7985 H 742.71 2.23292 1.28447 0
M  V30 7986 H 742.668 1.41484 2.80766 0
M  V30 7987 N 746.441 0.193421 1.56409 0
M  V30 7988 C 747.669 -0.451438 2.01915 0
M  V30 7989 C 748.084 -1.55306 1.07357 0
M  V30 7990 O 747.441 -1.82333 0.0781512 0
M  V30 7991 C 747.492 -1.00931 3.47124 0
M  V30 7992 O 747.213 0.0483623 4.38073 0
M  V30 7993 C 748.714 -1.73021 4.0814 0
M  V30 7994 H 745.934 -0.113495 0.661332 0
M  V30 7995 H 748.478 0.301636 2.02263 0
M  V30 7996 H 746.633 -1.71277 3.47481 0
M  V30 7997 H 747.047 -0.366644 5.23217 0
M  V30 7998 H 748.521 -2.07289 5.11601 0
M  V30 7999 H 748.998 -2.6333 3.51502 0
M  V30 8000 H 749.604 -1.07264 4.11551 0
M  V30 8001 N 747.919 -1.57396 -0.0801906 0
M  V30 8002 C 749.166 -1.86836 -0.780927 0
M  V30 8003 C 749.494 -0.784012 -1.77999 0
M  V30 8004 O 748.749 0.220881 -1.94449 0
M  V30 8005 C 749.048 -3.22915 -1.53169 0
M  V30 8006 C 748.714 -4.45843 -0.67339 0
M  V30 8007 C 747.376 -4.79213 -0.436829 0
M  V30 8008 C 749.728 -5.21142 -0.0776786 0
M  V30 8009 C 747.056 -5.853 0.405062 0
M  V30 8010 C 749.408 -6.28119 0.751619 0
M  V30 8011 C 748.072 -6.59995 0.998131 0
M  V30 8012 H 747.342 -0.683682 -0.285761 0
M  V30 8013 H 749.989 -1.91454 -0.0419435 0
M  V30 8014 H 748.294 -3.14049 -2.34265 0
M  V30 8015 H 749.991 -3.42926 -2.07853 0
M  V30 8016 H 746.581 -4.19721 -0.867891 0
M  V30 8017 H 750.765 -4.95682 -0.247572 0
M  V30 8018 H 746.021 -6.084 0.60488 0
M  V30 8019 H 750.195 -6.8563 1.22 0
M  V30 8020 H 747.822 -7.42027 1.65227 0
M  V30 8021 N 749.397 0.351382 -1.53633 0
M  V30 8022 C 750.327 1.43688 -1.84055 0
M  V30 8023 C 751.308 1.55251 -0.695073 0
M  V30 8024 O 752.493 1.69587 -0.946257 0
M  V30 8025 C 749.623 2.80843 -2.04315 0
M  V30 8026 C 748.577 2.84094 -3.20117 0
M  V30 8027 C 747.903 4.2406 -3.25696 0
M  V30 8028 C 749.203 2.50334 -4.58399 0
M  V30 8029 H 750.897 1.18478 -2.74961 0
M  V30 8030 H 748.443 0.568509 -1.32303 0
M  V30 8031 H 750.396 3.56821 -2.2418 0
M  V30 8032 H 749.12 3.07471 -1.10132 0
M  V30 8033 H 747.779 2.10568 -3.00094 0
M  V30 8034 H 747.427 4.47785 -2.29123 0
M  V30 8035 H 747.127 4.27147 -4.03509 0
M  V30 8036 H 748.651 5.0189 -3.47762 0
M  V30 8037 H 750.065 3.16025 -4.78332 0
M  V30 8038 H 748.462 2.64717 -5.38558 0
M  V30 8039 H 749.532 1.45542 -4.62543 0
M  V30 8040 N 750.875 1.45233 0.611969 0
M  V30 8041 C 752.123 1.48727 1.36838 0
M  V30 8042 C 752.444 0.128616 1.94575 0
M  V30 8043 O 751.714 -0.84149 1.76906 0
M  V30 8044 H 750.294 0.547695 0.507976 0
M  V30 8045 H 752.956 1.81156 0.718925 0
M  V30 8046 H 752.052 2.2236 2.19003 0
M  V30 8047 N 752.353 -0.854086 1.3245 0
M  V30 8048 C 753.764 -1.42427 1.20712 0
M  V30 8049 C 754.115 -1.95371 -0.18013 0
M  V30 8050 O 753.24 -1.87587 -1.07889 0
M  V30 8051 C 753.835 -2.58897 2.18536 0
M  V30 8052 C 752.394 -3.11913 2.10683 0
M  V30 8053 C 751.541 -1.84661 2.06871 0
M  V30 8054 H 754.492 -0.661192 1.4427 0
M  V30 8055 H 754.513 -3.36074 1.78422 0
M  V30 8056 H 754.025 -2.20333 3.19492 0
M  V30 8057 H 752.126 -3.55059 1.12977 0
M  V30 8058 H 752.239 -3.73119 3.00532 0
M  V30 8059 H 750.603 -2.04285 1.52118 0
M  V30 8060 H 751.386 -1.48314 3.09609 0
M  V30 8061 N 753.831 -1.1567 -1.07043 0
M  V30 8062 C 755.08 -0.928039 -1.79082 0
M  V30 8063 C 755.393 0.545968 -1.87826 0
M  V30 8064 O 756.599 0.892308 -2.56418 0
M  V30 8065 C 755.055 -1.61103 -3.21829 0
M  V30 8066 C 754.663 -3.12228 -3.21275 0
M  V30 8067 C 756.407 -1.46404 -3.98455 0
M  V30 8068 C 754.314 -3.733 -4.58695 0
M  V30 8069 H 753.244 -0.34357 -0.671175 0
M  V30 8070 H 755.895 -1.38718 -1.20123 0
M  V30 8071 H 754.277 -1.07958 -3.81 0
M  V30 8072 H 755.451 -3.72155 -2.71731 0
M  V30 8073 H 753.766 -3.26725 -2.58147 0
M  V30 8074 H 756.363 -1.8942 -5.00024 0
M  V30 8075 H 756.706 -0.41195 -4.14257 0
M  V30 8076 H 757.239 -1.96663 -3.45787 0
M  V30 8077 H 753.978 -4.78423 -4.48098 0
M  V30 8078 H 753.498 -3.18157 -5.08465 0
M  V30 8079 H 755.177 -3.7441 -5.27661 0
M  V30 8080 N 755.309 1.25446 -0.953992 0
M  V30 8081 C 756.72 1.75047 -0.649255 0
M  V30 8082 C 757.071 1.77527 0.835385 0
M  V30 8083 O 756.196 1.39569 1.65377 0
M  V30 8084 C 756.791 3.17889 -1.17183 0
M  V30 8085 C 755.35 3.65052 -0.917267 0
M  V30 8086 C 754.497 2.44124 -1.31525 0
M  V30 8087 H 757.448 1.11342 -1.13087 0
M  V30 8088 H 757.469 3.76768 -0.531616 0
M  V30 8089 H 756.981 3.16052 -2.25239 0
M  V30 8090 H 755.082 3.72305 0.148354 0
M  V30 8091 H 755.195 4.53222 -1.55328 0
M  V30 8092 H 753.559 2.43906 -0.733624 0
M  V30 8093 H 754.342 2.44979 -2.405 0
M  V30 8094 N 756.787 0.722489 1.40064 0
M  V30 8095 C 757.717 0.0892452 2.33329 0
M  V30 8096 C 758.698 -0.737992 1.53257 0
M  V30 8097 O 759.883 -0.685516 1.81698 0
M  V30 8098 C 757.013 -0.828139 3.37282 0
M  V30 8099 C 755.967 -0.106005 4.27869 0
M  V30 8100 C 755.293 -1.13957 5.22415 0
M  V30 8101 C 756.593 1.04395 5.11761 0
M  V30 8102 H 758.287 0.868269 2.86534 0
M  V30 8103 H 755.833 0.418982 1.3777 0
M  V30 8104 H 757.786 -1.28058 4.01471 0
M  V30 8105 H 756.51 -1.63914 2.82489 0
M  V30 8106 H 755.169 0.326683 3.65142 0
M  V30 8107 H 754.817 -1.9438 4.63924 0
M  V30 8108 H 754.517 -0.661233 5.83868 0
M  V30 8109 H 756.041 -1.59197 5.89482 0
M  V30 8110 H 757.455 0.670541 5.69365 0
M  V30 8111 H 755.852 1.4511 5.82291 0
M  V30 8112 H 756.922 1.87144 4.47331 0
M  V30 8113 N 758.265 -1.50454 0.469181 0
M  V30 8114 C 759.681 -1.59124 0.123226 0
M  V30 8115 C 759.881 -1.47749 -1.37013 0
M  V30 8116 O 758.937 -1.335 -2.14322 0
M  V30 8117 C 760.25 -2.93101 0.67172 0
M  V30 8118 C 761.798 -3.06491 0.634978 0
M  V30 8119 C 762.273 -4.43041 1.16098 0
M  V30 8120 N 763.764 -4.49448 1.12031 0
M  V30 8121 C 764.499 -5.53491 1.49784 0
M  V30 8122 N 763.995 -6.64798 1.94976 0
M  V30 8123 N 765.788 -5.44025 1.41399 0
M  V30 8124 H 757.939 -1.56091 1.44046 0
M  V30 8125 H 760.202 -0.737564 0.59557 0
M  V30 8126 H 759.908 -3.06895 1.7178 0
M  V30 8127 H 759.782 -3.77027 0.114222 0
M  V30 8128 H 762.169 -2.92346 -0.402187 0
M  V30 8129 H 762.25 -2.24328 1.22926 0
M  V30 8130 H 761.894 -4.57935 2.19677 0
M  V30 8131 H 761.824 -5.23794 0.542939 0
M  V30 8132 H 764.315 -3.69575 0.788828 0
M  V30 8133 H 764.628 -7.40246 2.21936 0
M  V30 8134 H 762.973 -6.65923 1.98927 0
M  V30 8135 H 766.164 -4.55955 1.05935 0
M  V30 8136 H 766.337 -6.2499 1.71147 0
M  V30 8137 N 759.743 -0.201713 -1.56304 0
M  V30 8138 C 760.653 0.728296 -2.23009 0
M  V30 8139 C 761.669 1.22945 -1.23128 0
M  V30 8140 O 762.845 1.27523 -1.55884 0
M  V30 8141 C 759.91 1.92792 -2.88153 0
M  V30 8142 C 758.971 1.47068 -4.03323 0
M  V30 8143 C 758.204 2.61312 -4.65351 0
M  V30 8144 O 758.427 3.7896 -4.26317 0
M  V30 8145 O 757.361 2.33646 -5.54701 0
M  V30 8146 H 761.187 0.190166 -3.03104 0
M  V30 8147 H 758.772 0.0278725 -1.49374 0
M  V30 8148 H 760.654 2.6289 -3.29343 0
M  V30 8149 H 759.329 2.45452 -2.11033 0
M  V30 8150 H 758.236 0.738299 -3.66742 0
M  V30 8151 H 759.569 0.990666 -4.82127 0
M  V30 8152 N 761.222 1.57436 0.0718424 0
M  V30 8153 C 762.185 2.02703 1.06977 0
M  V30 8154 C 763.185 0.924062 1.31597 0
M  V30 8155 O 764.375 1.18894 1.27318 0
M  V30 8156 C 761.507 2.40763 2.41342 0
M  V30 8157 H 762.7 2.92098 0.679619 0
M  V30 8158 H 760.253 1.5304 0.317565 0
M  V30 8159 H 760.988 1.54394 2.8519 0
M  V30 8160 H 760.773 3.21249 2.24814 0
M  V30 8161 H 762.263 2.76361 3.13073 0
M  V30 8162 N 762.7 -0.34323 1.53817 0
M  V30 8163 C 763.63 -1.42709 1.84814 0
M  V30 8164 C 764.611 -1.5488 0.703297 0
M  V30 8165 O 765.796 -1.69082 0.955237 0
M  V30 8166 C 762.926 -2.79756 2.05801 0
M  V30 8167 C 761.88 -2.82392 3.21619 0
M  V30 8168 C 761.206 -4.22326 3.2794 0
M  V30 8169 C 762.506 -2.479 4.59721 0
M  V30 8170 H 764.2 -1.17018 2.75585 0
M  V30 8171 H 761.746 -0.561485 1.32602 0
M  V30 8172 H 763.699 -3.55627 2.26069 0
M  V30 8173 H 762.423 -3.06883 1.11761 0
M  V30 8174 H 761.082 -2.08974 3.01207 0
M  V30 8175 H 760.73 -4.46564 2.31494 0
M  V30 8176 H 760.43 -4.25001 4.05768 0
M  V30 8177 H 761.954 -5.00039 3.50419 0
M  V30 8178 H 763.368 -3.13484 4.80001 0
M  V30 8179 H 761.765 -2.61857 5.39954 0
M  V30 8180 H 762.835 -1.43087 4.63308 0
M  V30 8181 N 764.178 -1.45556 -0.604258 0
M  V30 8182 C 765.408 -1.53056 -1.38771 0
M  V30 8183 C 765.816 -0.163092 -1.88496 0
M  V30 8184 O 765.159 0.846157 -1.63052 0
M  V30 8185 C 765.221 -2.45656 -2.62476 0
M  V30 8186 C 764.885 -3.92328 -2.34367 0
M  V30 8187 C 765.882 -4.82137 -1.94525 0
M  V30 8188 C 763.567 -4.37275 -2.47177 0
M  V30 8189 C 765.561 -6.14901 -1.67856 0
M  V30 8190 C 763.248 -5.70079 -2.20122 0
M  V30 8191 C 764.246 -6.58711 -1.80524 0
M  V30 8192 O 763.934 -7.89053 -1.53788 0
M  V30 8193 H 763.666 -0.520721 -0.431075 0
M  V30 8194 H 766.22 -1.91464 -0.743693 0
M  V30 8195 H 764.45 -2.02225 -3.29609 0
M  V30 8196 H 766.139 -2.43802 -3.24523 0
M  V30 8197 H 766.905 -4.48675 -1.84162 0
M  V30 8198 H 762.784 -3.68527 -2.76964 0
M  V30 8199 H 766.328 -6.8404 -1.36874 0
M  V30 8200 H 762.225 -6.03095 -2.30102 0
M  V30 8201 H 762.993 -8.01113 -1.67812 0
M  V30 8202 N 765.656 0.84705 -1.32902 0
M  V30 8203 C 766.603 1.95624 -1.22473 0
M  V30 8204 C 767.573 1.65767 -0.105178 0
M  V30 8205 O 768.758 1.88704 -0.282042 0
M  V30 8206 C 765.898 3.31434 -0.961542 0
M  V30 8207 C 765.011 3.73741 -2.1666 0
M  V30 8208 C 764.146 4.98379 -1.83825 0
M  V30 8209 C 763.185 5.33199 -3.00609 0
M  V30 8210 N 762.322 6.49014 -2.67816 0
M  V30 8211 H 767.162 2.03875 -2.17345 0
M  V30 8212 H 764.699 0.997764 -1.08088 0
M  V30 8213 H 766.657 4.09663 -0.789411 0
M  V30 8214 H 765.287 3.22762 -0.0495938 0
M  V30 8215 H 764.339 2.91102 -2.44875 0
M  V30 8216 H 765.651 3.95462 -3.03993 0
M  V30 8217 H 764.805 5.84336 -1.63208 0
M  V30 8218 H 763.544 4.78611 -0.937172 0
M  V30 8219 H 762.549 4.4575 -3.21849 0
M  V30 8220 H 763.774 5.5492 -3.9146 0
M  V30 8221 H 761.72 6.30748 -1.80258 0
M  V30 8222 H 761.637 6.7079 -3.48679 0
M  V30 8223 H 762.905 7.38103 -2.50647 0
M  V30 8224 N 767.134 1.16236 1.06428 0
M  V30 8225 C 768.359 0.967688 1.83441 0
M  V30 8226 C 768.784 -0.479167 1.81894 0
M  V30 8227 O 768.142 -1.34224 1.21875 0
M  V30 8228 C 768.19 1.49806 3.2801 0
M  V30 8229 O 767.294 0.703481 4.06356 0
M  V30 8230 H 766.635 0.344468 0.56766 0
M  V30 8231 H 769.165 1.54442 1.34197 0
M  V30 8232 H 769.175 1.51495 3.78831 0
M  V30 8233 H 767.85 2.55133 3.2845 0
M  V30 8234 H 766.427 0.756986 3.65136 0
M  V30 8235 N 768.612 -1.24939 0.960631 0
M  V30 8236 C 770.028 -1.45039 0.666018 0
M  V30 8237 C 770.228 -1.86021 -0.774501 0
M  V30 8238 O 769.284 -1.99392 -1.54916 0
M  V30 8239 C 770.597 -2.51775 1.64408 0
M  V30 8240 C 772.145 -2.6561 1.65592 0
M  V30 8241 C 772.62 -3.75536 2.62177 0
M  V30 8242 N 774.111 -3.82954 2.60577 0
M  V30 8243 C 774.846 -4.67517 3.31987 0
M  V30 8244 N 774.342 -5.56321 4.1289 0
M  V30 8245 N 776.135 -4.61535 3.20845 0
M  V30 8246 H 768.286 -0.96632 1.89145 0
M  V30 8247 H 770.549 -0.486034 0.813926 0
M  V30 8248 H 770.255 -2.28534 2.67329 0
M  V30 8249 H 770.129 -3.49804 1.41128 0
M  V30 8250 H 772.516 -2.88212 0.633846 0
M  V30 8251 H 772.597 -1.67962 1.92931 0
M  V30 8252 H 772.241 -3.53684 3.64514 0
M  V30 8253 H 772.171 -4.72682 2.32119 0
M  V30 8254 H 774.662 -3.19478 2.01847 0
M  V30 8255 H 774.975 -6.17787 4.64283 0
M  V30 8256 H 773.32 -5.5601 4.16987 0
M  V30 8257 H 776.511 -3.91169 2.57108 0
M  V30 8258 H 776.684 -5.27214 3.76762 0
M  V30 8259 N 770.09 -0.729906 -1.39679 0
M  V30 8260 C 771.038 -0.0756589 -2.32477 0
M  V30 8261 C 772.032 0.731438 -1.52795 0
M  V30 8262 O 773.238 0.633195 -1.68495 0
M  V30 8263 H 769.613 -0.00566492 -0.751979 0
M  V30 8264 H 771.584 -0.874797 -2.85289 0
M  V30 8265 C 770.333 0.821313 -3.37861 0
M  V30 8266 H 769.656 0.209666 -3.9925 0
M  V30 8267 H 771.096 1.24679 -4.05254 0
M  V30 8268 C 769.555 1.9533 -2.74495 0
M  V30 8269 O 770.085 3.04548 -2.61942 0
M  V30 8270 N 768.291 1.74119 -2.3266 0
M  V30 8271 H 767.838 0.852908 -2.4307 0
M  V30 8272 H 767.796 2.50036 -1.90603 0
M  V30 8273 N 771.568 1.50203 -0.477153 0
M  V30 8274 C 772.501 2.25343 0.359983 0
M  V30 8275 C 773.479 1.28909 0.991022 0
M  V30 8276 O 774.663 1.58146 1.02578 0
M  V30 8277 C 771.79 3.03431 1.5049 0
M  V30 8278 C 770.836 4.14836 0.99063 0
M  V30 8279 S 771.669 5.35407 -0.0995413 0
M  V30 8280 C 772.825 6.17045 1.04911 0
M  V30 8281 H 773.058 2.95999 -0.277836 0
M  V30 8282 H 770.591 1.52159 -0.262115 0
M  V30 8283 H 772.549 3.49012 2.16105 0
M  V30 8284 H 771.21 2.32289 2.11425 0
M  V30 8285 H 770.403 4.689 1.84794 0
M  V30 8286 H 770.005 3.71723 0.412097 0
M  V30 8287 H 772.297 6.48546 1.95946 0
M  V30 8288 H 773.24 7.05979 0.547596 0
M  V30 8289 H 773.648 5.49193 1.30567 0
M  V30 8290 N 773.046 0.209999 1.56195 0
M  V30 8291 C 774.292 -0.425442 1.98287 0
M  V30 8292 C 774.625 -1.60232 1.09724 0
M  V30 8293 O 773.9 -1.93902 0.152414 0
M  V30 8294 C 774.183 -0.871189 3.49403 0
M  V30 8295 C 774.036 0.308527 4.48741 0
M  V30 8296 C 775.355 -1.73146 4.04609 0
M  V30 8297 H 772.474 -0.153169 0.720908 0
M  V30 8298 H 775.116 0.303916 1.87554 0
M  V30 8299 H 773.266 -1.49266 3.58681 0
M  V30 8300 H 774.938 0.946487 4.51486 0
M  V30 8301 H 773.181 0.957878 4.23092 0
M  V30 8302 H 773.852 -0.0461143 5.51981 0
M  V30 8303 H 776.328 -1.2072 3.98203 0
M  V30 8304 H 775.204 -2.01228 5.10684 0
M  V30 8305 H 775.465 -2.69083 3.5078 0
M  V30 8306 N 774.524 -1.57472 -0.0634922 0
M  V30 8307 C 775.749 -1.92273 -0.77756 0
M  V30 8308 C 776.174 -0.807141 -1.69902 0
M  V30 8309 O 775.532 0.239523 -1.79711 0
M  V30 8310 C 775.58 -3.26054 -1.54017 0
M  V30 8311 O 774.684 -3.15873 -2.65138 0
M  V30 8312 H 774.025 -0.629389 -0.211579 0
M  V30 8313 H 776.555 -2.04579 -0.0292523 0
M  V30 8314 H 776.565 -3.60127 -1.91763 0
M  V30 8315 H 775.24 -4.06824 -0.864128 0
M  V30 8316 H 773.817 -2.93373 -2.30189 0
M  V30 8317 N 776.003 0.335068 -1.53997 0
M  V30 8318 C 777.252 1.07182 -1.70865 0
M  V30 8319 C 777.565 1.89541 -0.483078 0
M  V30 8320 O 778.771 2.66219 -0.532879 0
M  V30 8321 C 777.227 1.95497 -3.02174 0
M  V30 8322 C 776.835 1.18304 -4.32097 0
M  V30 8323 C 778.579 2.68978 -3.28407 0
M  V30 8324 C 776.486 2.05699 -5.54474 0
M  V30 8325 H 775.416 0.403857 -0.636722 0
M  V30 8326 H 778.067 0.33076 -1.80494 0
M  V30 8327 H 776.449 2.73456 -2.86423 0
M  V30 8328 H 777.623 0.451969 -4.58578 0
M  V30 8329 H 775.938 0.565556 -4.12541 0
M  V30 8330 H 778.535 3.34651 -4.17029 0
M  V30 8331 H 778.878 3.36 -2.45784 0
M  V30 8332 H 779.411 1.98087 -3.44973 0
M  V30 8333 H 776.15 1.43204 -6.39666 0
M  V30 8334 H 775.67 2.76572 -5.32229 0
M  V30 8335 H 777.349 2.64554 -5.90441 0
M  V30 8336 N 777.481 1.45874 0.596531 0
M  V30 8337 C 778.897 1.30524 0.918459 0
M  V30 8338 C 779.097 0.266429 1.99731 0
M  V30 8339 O 778.153 -0.335809 2.50257 0
M  V30 8340 C 779.466 2.68747 1.3489 0
M  V30 8341 C 781.014 2.7673 1.46251 0
M  V30 8342 C 781.489 4.15504 1.92667 0
M  V30 8343 N 782.98 4.17853 1.99883 0
M  V30 8344 C 783.715 5.22109 2.37044 0
M  V30 8345 N 783.211 6.36704 2.73094 0
M  V30 8346 N 785.004 5.09471 2.37479 0
M  V30 8347 H 777.155 2.12081 -0.116368 0
M  V30 8348 H 779.418 0.947941 0.0106033 0
M  V30 8349 H 779.124 3.46006 0.630288 0
M  V30 8350 H 778.998 2.97942 2.31323 0
M  V30 8351 H 781.385 1.99768 2.17202 0
M  V30 8352 H 781.466 2.51236 0.481054 0
M  V30 8353 H 781.11 4.92956 1.223 0
M  V30 8354 H 781.04 4.38396 2.91747 0
M  V30 8355 H 783.531 3.35163 1.74568 0
M  V30 8356 H 783.844 7.12041 3.00362 0
M  V30 8357 H 782.189 6.40087 2.70764 0
M  V30 8358 H 785.38 4.18987 2.08728 0
M  V30 8359 H 785.553 5.90837 2.66112 0
M  V30 8360 N 778.959 -0.83999 1.33349 0
M  V30 8361 C 780.205 -1.59753 1.24927 0
M  V30 8362 C 780.538 -1.93318 -0.184855 0
M  V30 8363 O 779.813 -1.586 -1.12589 0
M  V30 8364 C 780.096 -2.90829 2.12345 0
M  V30 8365 C 779.949 -2.63953 3.6421 0
M  V30 8366 C 781.268 -3.92246 1.99577 0
M  V30 8367 H 778.387 -0.579654 0.45516 0
M  V30 8368 H 781.029 -0.968909 1.63439 0
M  V30 8369 H 779.179 -3.44478 1.79631 0
M  V30 8370 H 780.851 -2.16745 4.07209 0
M  V30 8371 H 779.094 -1.97671 3.86146 0
M  V30 8372 H 779.765 -3.57348 4.20721 0
M  V30 8373 H 782.241 -3.479 2.28265 0
M  V30 8374 H 781.117 -4.81793 2.62996 0
M  V30 8375 H 781.378 -4.3138 0.967673 0
M  V30 8376 N 780.437 -1.16799 -1.0581 0
M  V30 8377 C 781.367 -0.902241 -2.15364 0
M  V30 8378 C 782.348 0.153351 -1.69407 0
M  V30 8379 O 783.533 0.00442032 -1.94199 0
M  V30 8380 C 780.663 -0.407911 -3.44896 0
M  V30 8381 C 779.617 -1.40197 -4.04387 0
M  V30 8382 C 778.943 -0.765848 -5.29187 0
M  V30 8383 C 780.243 -2.77316 -4.42598 0
M  V30 8384 H 781.937 -1.81841 -2.37853 0
M  V30 8385 H 779.483 -0.875731 -1.14311 0
M  V30 8386 H 781.436 -0.20945 -4.20879 0
M  V30 8387 H 780.16 0.54378 -3.22041 0
M  V30 8388 H 778.819 -1.58707 -3.30466 0
M  V30 8389 H 778.467 0.192482 -5.02632 0
M  V30 8390 H 778.167 -1.42939 -5.69949 0
M  V30 8391 H 779.691 -0.577519 -6.07863 0
M  V30 8392 H 781.105 -2.62561 -5.09642 0
M  V30 8393 H 779.502 -3.4019 -4.94359 0
M  V30 8394 H 780.572 -3.32199 -3.53231 0
M  V30 8395 N 781.915 1.24427 -0.967243 0
M  V30 8396 C 782.847 2.24641 -0.454856 0
M  V30 8397 C 783.86 1.56849 0.436152 0
M  V30 8398 O 785.049 1.76846 0.242401 0
M  V30 8399 C 782.149 3.36954 0.362672 0
M  V30 8400 C 781.322 4.34318 -0.518324 0
M  V30 8401 C 780.381 5.25638 0.243122 0
M  V30 8402 O 779.407 5.68043 -0.362791 0
M  V30 8403 N 780.609 5.59897 1.53282 0
M  V30 8404 H 783.374 2.69238 -1.31648 0
M  V30 8405 H 780.935 1.38464 -0.839015 0
M  V30 8406 H 782.927 3.95014 0.880094 0
M  V30 8407 H 781.497 2.91646 1.12522 0
M  V30 8408 H 780.717 3.74953 -1.21672 0
M  V30 8409 H 782.005 4.96338 -1.11919 0
M  V30 8410 H 781.403 5.27373 2.04682 0
M  V30 8411 H 779.96 6.20488 1.99594 0
M  V30 8412 N 783.393 0.737304 1.3929 0
M  V30 8413 C 784.641 0.285691 2.00071 0
M  V30 8414 C 784.962 -1.13169 1.58801 0
M  V30 8415 O 784.232 -1.77104 0.837308 0
M  V30 8416 H 782.812 0.102638 0.739915 0
M  V30 8417 H 785.474 0.947775 1.70303 0
M  V30 8418 H 784.57 0.335906 3.10287 0
M  V30 8419 N 784.871 -1.49948 0.485112 0
M  V30 8420 C 785.801 -2.31675 -0.291364 0
M  V30 8421 C 786.782 -1.39216 -0.977383 0
M  V30 8422 O 787.967 -1.68133 -0.971855 0
M  V30 8423 C 785.097 -3.19326 -1.36558 0
M  V30 8424 C 784.051 -4.2045 -0.800359 0
M  V30 8425 C 783.377 -4.96931 -1.97391 0
M  V30 8426 C 784.677 -5.21925 0.197867 0
M  V30 8427 H 786.371 -2.96839 0.390775 0
M  V30 8428 H 783.917 -1.42749 0.189375 0
M  V30 8429 H 785.87 -3.75304 -1.91638 0
M  V30 8430 H 784.594 -2.52074 -2.07668 0
M  V30 8431 H 783.253 -3.65594 -0.271428 0
M  V30 8432 H 782.901 -4.26141 -2.67232 0
M  V30 8433 H 782.601 -5.65344 -1.60187 0
M  V30 8434 H 784.125 -5.55749 -2.52935 0
M  V30 8435 H 785.539 -5.72691 -0.264239 0
M  V30 8436 H 783.936 -5.98138 0.484908 0
M  V30 8437 H 785.006 -4.71809 1.11912 0
M  V30 8438 N 786.349 -0.21828 -1.56081 0
M  V30 8439 C 787.597 0.413488 -1.97825 0
M  V30 8440 C 787.918 1.60527 -1.10707 0
M  V30 8441 O 787.188 1.9504 -0.183378 0
M  V30 8442 H 785.768 0.155757 -0.730581 0
M  V30 8443 H 788.43 -0.310413 -1.92412 0
M  V30 8444 H 787.526 0.742024 -3.03151 0
M  V30 8445 N 787.827 1.57504 0.0551401 0
M  V30 8446 C 789.076 1.87237 0.750009 0
M  V30 8447 C 789.389 0.813268 1.77891 0
M  V30 8448 O 790.595 0.99898 2.52453 0
M  V30 8449 C 789.051 3.32187 1.38491 0
M  V30 8450 C 788.659 4.46267 0.393707 0
M  V30 8451 C 790.403 3.71101 2.06117 0
M  V30 8452 C 788.31 5.82265 1.03547 0
M  V30 8453 H 787.24 0.698524 0.283866 0
M  V30 8454 H 789.891 1.835 0.00365997 0
M  V30 8455 H 788.273 3.30588 2.18008 0
M  V30 8456 H 789.447 4.59289 -0.372865 0
M  V30 8457 H 787.762 4.16015 -0.17902 0
M  V30 8458 H 790.359 4.70012 2.54937 0
M  V30 8459 H 790.702 3.01751 2.86796 0
M  V30 8460 H 791.235 3.74762 1.33409 0
M  V30 8461 H 787.974 6.54949 0.268644 0
M  V30 8462 H 787.494 5.73012 1.7725 0
M  V30 8463 H 789.173 6.28148 1.55047 0
M  V30 8464 N 789.305 -0.326896 1.54172 0
M  V30 8465 C 790.215 -1.42525 1.86343 0
M  V30 8466 C 791.231 -1.56764 0.75505 0
M  V30 8467 O 792.407 -1.71924 1.04901 0
M  V30 8468 C 789.472 -2.77286 2.08119 0
M  V30 8469 C 788.533 -2.7225 3.31931 0
M  V30 8470 C 787.766 -4.00584 3.52659 0
M  V30 8471 O 787.989 -4.98686 2.76891 0
M  V30 8472 O 786.923 -4.04045 4.46129 0
M  V30 8473 H 790.749 -1.18249 2.79734 0
M  V30 8474 H 788.334 -0.520614 1.40036 0
M  V30 8475 H 790.216 -3.57065 2.23791 0
M  V30 8476 H 788.891 -3.01459 1.17917 0
M  V30 8477 H 787.798 -1.91033 3.21647 0
M  V30 8478 H 789.131 -2.53032 4.2218 0
M  V30 8479 N 790.784 -1.46188 -0.588786 0
M  V30 8480 C 792.2 -1.31009 -0.911524 0
M  V30 8481 C 792.4 -0.277017 -1.99587 0
M  V30 8482 O 791.456 0.322532 -2.50432 0
M  V30 8483 C 792.769 -2.69459 -1.33463 0
M  V30 8484 C 794.317 -2.77502 -1.44782 0
M  V30 8485 C 794.792 -4.1652 -1.90461 0
M  V30 8486 N 796.283 -4.18907 -1.97665 0
M  V30 8487 C 797.018 -5.23359 -2.34271 0
M  V30 8488 N 796.514 -6.38143 -2.69714 0
M  V30 8489 N 798.307 -5.10723 -2.34774 0
M  V30 8490 H 790.458 -2.12016 0.127614 0
M  V30 8491 H 792.721 -0.947984 -0.00557599 0
M  V30 8492 H 792.427 -3.46336 -0.611929 0
M  V30 8493 H 792.301 -2.99165 -2.2974 0
M  V30 8494 H 794.688 -2.00917 -2.1614 0
M  V30 8495 H 794.769 -2.51488 -0.467724 0
M  V30 8496 H 794.413 -4.93597 -1.19684 0
M  V30 8497 H 794.343 -4.39937 -2.89418 0
M  V30 8498 H 796.834 -3.36084 -1.72789 0
M  V30 8499 H 797.147 -7.13624 -2.96582 0
M  V30 8500 H 795.492 -6.41514 -2.67366 0
M  V30 8501 H 798.683 -4.20088 -2.06503 0
M  V30 8502 H 798.856 -5.9224 -2.62975 0
M  V30 8503 N 792.262 0.832906 -1.33792 0
M  V30 8504 C 793.225 1.92471 -1.24449 0
M  V30 8505 C 794.225 1.59981 -0.162085 0
M  V30 8506 O 795.415 1.69208 -0.414029 0
M  V30 8507 C 792.547 3.28278 -0.919044 0
M  V30 8508 H 793.74 2.0218 -2.21502 0
M  V30 8509 H 791.293 1.0257 -1.17936 0
M  V30 8510 H 792.028 3.24263 0.048738 0
M  V30 8511 H 791.813 3.53241 -1.70187 0
M  V30 8512 H 793.303 4.08253 -0.878576 0
M  V30 8513 N 793.74 1.17359 1.05189 0
M  V30 8514 C 794.989 0.956412 1.77583 0
M  V30 8515 C 795.302 -0.516018 1.88671 0
M  V30 8516 O 796.508 -0.851401 2.57805 0
M  V30 8517 C 794.964 1.66203 3.19225 0
M  V30 8518 C 794.572 3.17299 3.16267 0
M  V30 8519 C 796.316 1.52725 3.96075 0
M  V30 8520 C 794.223 3.8055 4.52698 0
M  V30 8521 H 793.153 0.354204 0.665624 0
M  V30 8522 H 795.804 1.40612 1.17901 0
M  V30 8523 H 794.186 1.14006 3.79234 0
M  V30 8524 H 795.36 3.76431 2.65776 0
M  V30 8525 H 793.675 3.3079 2.52917 0
M  V30 8526 H 796.272 1.97351 4.96947 0
M  V30 8527 H 796.615 0.477803 4.13549 0
M  V30 8528 H 797.148 2.02139 3.42614 0
M  V30 8529 H 793.887 4.85492 4.4043 0
M  V30 8530 H 793.407 3.26206 5.03339 0
M  V30 8531 H 795.086 3.82757 5.21638 0
M  V30 8532 N 795.218 -1.23913 0.973828 0
M  V30 8533 C 796.443 -1.96735 0.656511 0
M  V30 8534 C 796.868 -1.71682 -0.768571 0
M  V30 8535 O 796.226 -0.984267 -1.52256 0
M  V30 8536 C 796.274 -3.48004 0.944735 0
M  V30 8537 O 795.378 -4.12387 0.0333357 0
M  V30 8538 H 794.719 -0.616119 0.247575 0
M  V30 8539 H 797.249 -1.57525 1.30564 0
M  V30 8540 H 797.259 -3.98424 0.87876 0
M  V30 8541 H 795.934 -3.65567 1.98328 0
M  V30 8542 H 794.511 -3.72585 0.153157 0
M  V30 8543 N 796.696 -0.74468 -1.38897 0
M  V30 8544 C 797.926 -0.306982 -2.04307 0
M  V30 8545 C 798.334 1.06652 -1.56275 0
M  V30 8546 O 797.677 1.68699 -0.72708 0
M  V30 8547 C 797.739 -0.241186 -3.5869 0
M  V30 8548 C 797.403 -1.55476 -4.2974 0
M  V30 8549 C 798.4 -2.50229 -4.55721 0
M  V30 8550 C 796.085 -1.82173 -4.68101 0
M  V30 8551 C 798.079 -3.69905 -5.19085 0
M  V30 8552 C 795.766 -3.02125 -5.31191 0
M  V30 8553 C 796.764 -3.95812 -5.56616 0
M  V30 8554 O 796.452 -5.13656 -6.18395 0
M  V30 8555 H 796.184 -0.130416 -0.663301 0
M  V30 8556 H 798.738 -1.01192 -1.78744 0
M  V30 8557 H 796.968 0.519925 -3.83189 0
M  V30 8558 H 798.657 0.165806 -4.05561 0
M  V30 8559 H 799.423 -2.30877 -4.26522 0
M  V30 8560 H 795.302 -1.10091 -4.47662 0
M  V30 8561 H 798.846 -4.43047 -5.38846 0
M  V30 8562 H 794.743 -3.21374 -5.59811 0
M  V30 8563 H 795.511 -5.14119 -6.36886 0
M  V30 8564 N 798.174 1.49689 -0.493057 0
M  V30 8565 C 799.423 2.01622 0.0560733 0
M  V30 8566 C 799.736 1.37838 1.3878 0
M  V30 8567 O 800.942 1.81054 2.02316 0
M  V30 8568 C 799.398 3.59586 0.150409 0
M  V30 8569 C 799.006 4.32338 -1.1742 0
M  V30 8570 C 800.75 4.19489 0.650327 0
M  V30 8571 C 798.657 5.8214 -1.04246 0
M  V30 8572 H 797.587 0.753594 0.0247297 0
M  V30 8573 H 800.238 1.723 -0.631279 0
M  V30 8574 H 798.62 3.8559 0.902035 0
M  V30 8575 H 799.794 4.18042 -1.9385 0
M  V30 8576 H 798.109 3.84144 -1.60694 0
M  V30 8577 H 800.706 5.29181 0.766272 0
M  V30 8578 H 801.049 3.82326 1.6472 0
M  V30 8579 H 801.582 3.97775 -0.0445371 0
M  V30 8580 H 798.321 6.23814 -2.01336 0
M  V30 8581 H 797.841 5.98952 -0.31892 0
M  V30 8582 H 799.52 6.43004 -0.717957 0
M  V30 8583 N 799.652 0.226554 1.55963 0
M  V30 8584 C 800.88 -0.408507 2.02827 0
M  V30 8585 C 801.295 -1.52994 1.10627 0
M  V30 8586 O 800.652 -1.82126 0.116809 0
M  V30 8587 C 800.703 -0.93545 3.49187 0
M  V30 8588 O 800.424 0.141273 4.37872 0
M  V30 8589 C 801.925 -1.64325 4.11719 0
M  V30 8590 H 799.145 -0.099442 0.66359 0
M  V30 8591 H 801.689 0.344471 2.01578 0
M  V30 8592 H 799.844 -1.63868 3.51036 0
M  V30 8593 H 800.258 -0.25558 5.23877 0
M  V30 8594 H 801.732 -1.9639 5.15883 0
M  V30 8595 H 802.209 -2.55815 3.57009 0
M  V30 8596 H 802.815 -0.9851 4.13734 0
M  V30 8597 N 801.13 -1.57531 -0.0467866 0
M  V30 8598 C 802.077 -2.05387 -1.05285 0
M  V30 8599 C 803.047 -0.939385 -1.36985 0
M  V30 8600 O 804.232 -1.20877 -1.47626 0
M  V30 8601 C 801.372 -2.52343 -2.35408 0
M  V30 8602 C 800.485 -3.77512 -2.10022 0
M  V30 8603 C 799.62 -4.1315 -3.33887 0
M  V30 8604 C 798.659 -5.31286 -3.03976 0
M  V30 8605 N 797.796 -5.62441 -4.20243 0
M  V30 8606 H 802.636 -2.91095 -0.637788 0
M  V30 8607 H 800.173 -1.43939 -0.303322 0
M  V30 8608 H 802.131 -2.77628 -3.11413 0
M  V30 8609 H 800.761 -1.69577 -2.7467 0
M  V30 8610 H 799.813 -3.59417 -1.24594 0
M  V30 8611 H 801.125 -4.63644 -1.83945 0
M  V30 8612 H 800.279 -4.39469 -4.18273 0
M  V30 8613 H 799.018 -3.25634 -3.63062 0
M  V30 8614 H 798.023 -5.04738 -2.17991 0
M  V30 8615 H 799.248 -6.20441 -2.76098 0
M  V30 8616 H 797.194 -4.77885 -4.49402 0
M  V30 8617 H 797.111 -6.43046 -3.97528 0
M  V30 8618 H 798.379 -5.93327 -5.05553 0
M  V30 8619 N 802.608 0.318715 -1.54344 0
M  V30 8620 C 803.855 1.05608 -1.72781 0
M  V30 8621 C 804.183 1.87854 -0.504083 0
M  V30 8622 O 803.438 1.88826 0.51414 0
M  V30 8623 C 803.737 2.00514 -2.95853 0
M  V30 8624 C 803.403 1.34385 -4.30409 0
M  V30 8625 C 802.065 1.16081 -4.66989 0
M  V30 8626 C 804.417 0.869627 -5.13894 0
M  V30 8627 C 801.745 0.490114 -5.84649 0
M  V30 8628 C 804.097 0.212735 -6.32242 0
M  V30 8629 C 802.761 0.0175882 -6.67498 0
M  V30 8630 H 802.031 0.386449 -0.632249 0
M  V30 8631 H 804.678 0.332729 -1.88587 0
M  V30 8632 H 802.983 2.79317 -2.74753 0
M  V30 8633 H 804.68 2.57605 -3.07312 0
M  V30 8634 H 801.27 1.49634 -4.01631 0
M  V30 8635 H 805.454 0.998809 -4.86146 0
M  V30 8636 H 800.71 0.327767 -6.10521 0
M  V30 8637 H 804.884 -0.162699 -6.9621 0
M  V30 8638 H 802.511 -0.504137 -7.58527 0
M  V30 8639 N 804.086 1.46499 0.581025 0
M  V30 8640 C 805.334 1.51596 1.33653 0
M  V30 8641 C 805.655 0.169859 1.94259 0
M  V30 8642 O 804.925 -0.803776 1.78651 0
M  V30 8643 H 803.505 0.558346 0.496244 0
M  V30 8644 H 806.167 1.8264 0.680338 0
M  V30 8645 H 805.263 2.26956 2.14237 0
M  V30 8646 N 805.565 -0.825799 1.34232 0
M  V30 8647 C 806.812 -1.58185 1.26427 0
M  V30 8648 C 807.14 -1.93786 -0.166533 0
M  V30 8649 O 806.395 -1.59986 -1.12707 0
M  V30 8650 C 806.694 -2.89362 2.09772 0
M  V30 8651 C 806.36 -2.73066 3.58812 0
M  V30 8652 C 805.022 -2.68329 3.99441 0
M  V30 8653 C 807.374 -2.56946 4.53462 0
M  V30 8654 C 804.702 -2.4539 5.32917 0
M  V30 8655 C 807.054 -2.35538 5.87115 0
M  V30 8656 C 805.718 -2.29212 6.26912 0
M  V30 8657 H 804.988 -0.57884 0.462629 0
M  V30 8658 H 807.635 -0.955714 1.65947 0
M  V30 8659 H 805.94 -3.56251 1.63071 0
M  V30 8660 H 807.637 -3.4694 2.01081 0
M  V30 8661 H 804.227 -2.77591 3.26559 0
M  V30 8662 H 808.411 -2.59631 4.22972 0
M  V30 8663 H 803.667 -2.38947 5.62774 0
M  V30 8664 H 807.841 -2.22051 6.6005 0
M  V30 8665 H 805.468 -2.11197 7.30274 0
M  V30 8666 N 807.043 -1.17915 -1.04565 0
M  V30 8667 C 807.975 -0.859359 -2.1248 0
M  V30 8668 C 808.988 0.140922 -1.62189 0
M  V30 8669 O 810.177 -0.0862361 -1.78292 0
M  V30 8670 C 807.277 -0.261811 -3.37887 0
M  V30 8671 C 806.45 -1.30651 -4.17431 0
M  V30 8672 C 805.509 -0.725575 -5.21174 0
M  V30 8673 O 804.535 -1.39901 -5.51739 0
M  V30 8674 N 805.737 0.479351 -5.78517 0
M  V30 8675 H 808.502 -1.78818 -2.40508 0
M  V30 8676 H 806.063 -1.07885 -1.20716 0
M  V30 8677 H 808.055 0.14028 -4.04457 0
M  V30 8678 H 806.625 0.570929 -3.07342 0
M  V30 8679 H 805.845 -1.88412 -3.46258 0
M  V30 8680 H 807.133 -2.01099 -4.67372 0
M  V30 8681 H 806.531 1.04431 -5.55977 0
M  V30 8682 H 805.088 0.823427 -6.46578 0
M  V30 8683 N 808.521 1.23394 -0.980386 0
M  V30 8684 C 809.937 1.43961 -0.689008 0
M  V30 8685 C 810.137 1.87229 0.744809 0
M  V30 8686 O 809.193 2.01831 1.51725 0
M  V30 8687 C 810.506 2.49128 -1.68392 0
M  V30 8688 C 812.054 2.62941 -1.69796 0
M  V30 8689 C 812.529 3.71317 -2.68118 0
M  V30 8690 N 814.02 3.7876 -2.66636 0
M  V30 8691 C 814.755 4.62176 -3.39383 0
M  V30 8692 N 814.251 5.49682 -4.21688 0
M  V30 8693 N 816.044 4.56372 -3.28147 0
M  V30 8694 H 808.195 0.936106 -1.90659 0
M  V30 8695 H 810.458 0.473023 -0.821555 0
M  V30 8696 H 810.164 2.24252 -2.70931 0
M  V30 8697 H 810.038 3.47514 -1.46675 0
M  V30 8698 H 812.425 2.87168 -0.679617 0
M  V30 8699 H 812.506 1.64871 -1.95579 0
M  V30 8700 H 812.15 3.4784 -3.70095 0
M  V30 8701 H 812.08 4.68929 -2.3961 0
M  V30 8702 H 814.571 3.16226 -2.06904 0
M  V30 8703 H 814.884 6.10323 -4.74053 0
M  V30 8704 H 813.229 5.49306 -4.25779 0
M  V30 8705 H 816.42 3.87029 -2.63299 0
M  V30 8706 H 816.593 5.21153 -3.85102 0
M  V30 8707 N 809.999 0.752036 1.385 0
M  V30 8708 C 811.276 0.233075 1.94206 0
M  V30 8709 C 811.656 -1.26838 1.68746 0
M  V30 8710 O 811.004 -2.04214 1.02513 0
M  V30 8711 C 811.214 0.58509 3.44061 0
M  V30 8712 C 812.562 0.543871 4.21102 0
M  V30 8713 O 813.586 0.523291 3.52335 0
M  V30 8714 O 812.445 0.553436 5.4369 0
M  V30 8715 H 809.539 0.0483049 0.825588 0
M  V30 8716 H 812.085 0.832053 1.47902 0
M  V30 8717 H 810.857 1.62212 3.56094 0
M  V30 8718 H 810.48 -0.0419738 3.97578 0
M  V30 8719 N 811.477 -1.49425 0.500989 0
M  V30 8720 C 812.387 -2.32899 -0.282011 0
M  V30 8721 C 813.403 -1.44632 -0.967346 0
M  V30 8722 O 814.579 -1.77654 -0.94873 0
M  V30 8723 C 811.644 -3.20069 -1.33253 0
M  V30 8724 C 810.705 -4.24186 -0.660636 0
M  V30 8725 C 809.938 -5.07191 -1.6611 0
M  V30 8726 O 810.161 -4.91712 -2.89094 0
M  V30 8727 O 809.095 -5.8948 -1.21643 0
M  V30 8728 H 812.921 -3.01038 0.401224 0
M  V30 8729 H 810.506 -1.47079 0.262323 0
M  V30 8730 H 812.388 -3.74071 -1.94033 0
M  V30 8731 H 811.063 -2.54625 -1.9987 0
M  V30 8732 H 809.97 -3.74098 -0.0130959 0
M  V30 8733 H 811.303 -4.92186 -0.0369179 0
M  V30 8734 N 812.955 -0.234822 -1.55841 0
M  V30 8735 C 813.885 0.664217 -2.23854 0
M  V30 8736 C 814.866 1.19076 -1.2147 0
M  V30 8737 O 816.051 1.23232 -1.50091 0
M  V30 8738 C 813.181 1.86666 -2.9287 0
M  V30 8739 C 812.135 1.47341 -4.01839 0
M  V30 8740 C 811.461 2.75571 -4.58219 0
M  V30 8741 C 812.761 0.653479 -5.18196 0
M  V30 8742 H 814.455 0.0971213 -2.99242 0
M  V30 8743 H 812.001 0.0452724 -1.43929 0
M  V30 8744 H 813.954 2.50116 -3.39146 0
M  V30 8745 H 812.678 2.45894 -2.1495 0
M  V30 8746 H 811.337 0.862314 -3.56314 0
M  V30 8747 H 810.985 3.32971 -3.77014 0
M  V30 8748 H 810.685 2.49987 -5.31771 0
M  V30 8749 H 812.209 3.39939 -5.07221 0
M  V30 8750 H 813.623 1.19198 -5.60771 0
M  V30 8751 H 812.02 0.494188 -5.98062 0
M  V30 8752 H 813.09 -0.337004 -4.83728 0
M  V30 8753 N 814.433 1.57553 0.0384317 0
M  V30 8754 C 815.844 1.77258 0.586211 0
M  V30 8755 C 816.195 0.864706 1.76117 0
M  V30 8756 O 815.32 0.057141 2.16325 0
M  V30 8757 C 815.915 3.21453 1.07021 0
M  V30 8758 C 814.474 3.42387 1.56358 0
M  V30 8759 C 813.621 2.72801 0.497508 0
M  V30 8760 H 816.572 1.57585 -0.187796 0
M  V30 8761 H 816.593 3.27451 1.93794 0
M  V30 8762 H 816.105 3.87505 0.214851 0
M  V30 8763 H 814.206 2.81497 2.44111 0
M  V30 8764 H 814.319 4.50968 1.61754 0
M  V30 8765 H 812.683 2.36305 0.95038 0
M  V30 8766 H 813.466 3.41529 -0.348234 0
M  V30 8767 N 815.911 -0.310526 1.54511 0
M  V30 8768 C 817.327 -0.655637 1.45511 0
M  V30 8769 C 817.527 -1.91114 0.638564 0
M  V30 8770 O 816.583 -2.52098 0.142497 0
M  V30 8771 C 817.896 -0.817501 2.89374 0
M  V30 8772 C 819.444 -0.914003 2.99358 0
M  V30 8773 C 819.919 -1.10794 4.44397 0
M  V30 8774 N 821.41 -1.17437 4.48066 0
M  V30 8775 C 822.145 -1.34255 5.57461 0
M  V30 8776 N 821.641 -1.48032 6.768 0
M  V30 8777 N 823.434 -1.37067 5.45132 0
M  V30 8778 H 815.585 0.514506 2.06074 0
M  V30 8779 H 817.848 0.168478 0.932909 0
M  V30 8780 H 817.554 0.034003 3.51684 0
M  V30 8781 H 817.428 -1.7094 3.36243 0
M  V30 8782 H 819.815 -1.756 2.37168 0
M  V30 8783 H 819.896 0.00170958 2.558 0
M  V30 8784 H 819.54 -0.270743 5.07178 0
M  V30 8785 H 819.47 -2.03773 4.85576 0
M  V30 8786 H 821.961 -1.08181 3.62084 0
M  V30 8787 H 822.274 -1.60593 7.5593 0
M  V30 8788 H 820.619 -1.45105 6.79683 0
M  V30 8789 H 823.81 -1.25909 4.50849 0
M  V30 8790 H 823.983 -1.49831 6.3044 0
M  V30 8791 N 817.389 -1.46805 -0.573248 0
M  V30 8792 C 818.337 -1.58468 -1.70267 0
M  V30 8793 C 819.331 -0.452694 -1.63239 0
M  V30 8794 O 820.537 -0.629915 -1.68618 0
M  V30 8795 H 816.912 -0.498408 -0.56311 0
M  V30 8796 H 818.883 -2.5341 -1.57563 0
M  V30 8797 C 817.632 -1.60104 -3.08645 0
M  V30 8798 H 816.955 -2.4655 -3.14727 0
M  V30 8799 H 818.395 -1.72318 -3.87405 0
M  V30 8800 C 816.854 -0.33138 -3.35266 0
M  V30 8801 O 817.384 0.57438 -3.97572 0
M  V30 8802 N 815.59 -0.216358 -2.89793 0
M  V30 8803 H 815.137 -0.954345 -2.3927 0
M  V30 8804 H 815.095 0.632253 -3.07977 0
M  V30 8805 N 818.867 0.818669 -1.34668 0
M  V30 8806 C 820.114 1.57512 -1.27264 0
M  V30 8807 C 820.442 1.93871 0.156254 0
M  V30 8808 O 819.697 1.60582 1.11857 0
M  V30 8809 C 819.996 2.88245 -2.11304 0
M  V30 8810 C 819.662 2.71159 -3.60255 0
M  V30 8811 C 818.324 2.66207 -4.00858 0
M  V30 8812 C 820.676 2.54538 -4.54819 0
M  V30 8813 C 818.004 2.4256 -5.34211 0
M  V30 8814 C 820.356 2.32421 -5.88356 0
M  V30 8815 C 819.02 2.25884 -6.28118 0
M  V30 8816 H 818.29 0.576378 -0.465692 0
M  V30 8817 H 820.937 0.9469 -1.66451 0
M  V30 8818 H 819.242 3.55381 -1.64958 0
M  V30 8819 H 820.939 3.45869 -2.02919 0
M  V30 8820 H 817.529 2.75856 -3.28027 0
M  V30 8821 H 821.713 2.57384 -4.24343 0
M  V30 8822 H 816.969 2.35959 -5.64033 0
M  V30 8823 H 821.143 2.18548 -6.61218 0
M  V30 8824 H 818.77 2.07322 -7.31383 0
M  V30 8825 N 820.346 1.18468 1.03938 0
M  V30 8826 C 821.571 1.00638 1.81347 0
M  V30 8827 C 821.996 -0.440477 1.8287 0
M  V30 8828 O 821.354 -1.31609 1.24695 0
M  V30 8829 C 821.402 1.5673 3.24759 0
M  V30 8830 O 820.506 0.789517 4.04772 0
M  V30 8831 H 819.847 0.356432 0.560225 0
M  V30 8832 H 822.377 1.57253 1.30891 0
M  V30 8833 H 822.387 1.59496 3.75533 0
M  V30 8834 H 821.062 2.62043 3.22965 0
M  V30 8835 H 819.639 0.834267 3.63448 0
M  V30 8836 N 821.824 -1.22873 0.986916 0
M  V30 8837 C 822.754 -2.2688 0.552064 0
M  V30 8838 C 823.735 -1.64883 -0.418048 0
M  V30 8839 O 824.92 -1.9171 -0.30999 0
M  V30 8840 C 822.05 -3.47018 -0.139959 0
M  V30 8841 C 821.004 -4.21411 0.748091 0
M  V30 8842 C 820.33 -5.34645 -0.0765132 0
M  V30 8843 C 821.63 -4.80726 2.04206 0
M  V30 8844 H 823.324 -2.63507 1.42143 0
M  V30 8845 H 820.87 -1.26668 0.68492 0
M  V30 8846 H 822.823 -4.18931 -0.455527 0
M  V30 8847 H 821.547 -3.0947 -1.04382 0
M  V30 8848 H 820.206 -3.51325 1.04721 0
M  V30 8849 H 819.854 -4.93339 -0.981109 0
M  V30 8850 H 819.554 -5.85342 0.514606 0
M  V30 8851 H 821.078 -6.09377 -0.386313 0
M  V30 8852 H 822.492 -5.44612 1.79083 0
M  V30 8853 H 820.889 -5.41737 2.5815 0
M  V30 8854 H 821.959 -4.01109 2.72469 0
M  V30 8855 N 823.302 -0.75937 -1.38099 0
M  V30 8856 C 824.265 -0.14372 -2.28749 0
M  V30 8857 C 825.265 0.641338 -1.47457 0
M  V30 8858 O 826.455 0.466751 -1.67831 0
M  V30 8859 C 823.587 0.804545 -3.3127 0
M  V30 8860 H 824.78 -0.942663 -2.847 0
M  V30 8861 H 822.333 -0.526757 -1.47156 0
M  V30 8862 H 823.068 1.62895 -2.80421 0
M  V30 8863 H 822.853 0.243939 -3.9134 0
M  V30 8864 H 824.343 1.23111 -3.99041 0
M  V30 8865 N 824.78 1.49157 -0.508906 0
M  V30 8866 C 825.71 2.32109 0.254469 0
M  V30 8867 C 826.691 1.40754 0.955111 0
M  V30 8868 O 827.876 1.69658 0.944983 0
M  V30 8869 C 825.006 3.21458 1.3146 0
M  V30 8870 C 823.96 4.2167 0.733368 0
M  V30 8871 C 823.286 5.00009 1.8946 0
M  V30 8872 C 824.586 5.21544 -0.280875 0
M  V30 8873 H 826.28 2.9618 -0.43795 0
M  V30 8874 H 823.826 1.4243 -0.212062 0
M  V30 8875 H 825.779 3.78305 1.85643 0
M  V30 8876 H 824.503 2.55346 2.03632 0
M  V30 8877 H 823.162 3.65979 0.213231 0
M  V30 8878 H 822.81 4.30338 2.60419 0
M  V30 8879 H 822.51 5.67821 1.51173 0
M  V30 8880 H 824.034 5.59702 2.44061 0
M  V30 8881 H 825.448 5.73039 0.173095 0
M  V30 8882 H 823.845 5.97291 -0.580006 0
M  V30 8883 H 824.915 4.69969 -1.19404 0
M  V30 8884 N 826.258 0.243083 1.55714 0
M  V30 8885 C 827.506 -0.381964 1.98458 0
M  V30 8886 C 827.827 -1.58745 1.13247 0
M  V30 8887 O 827.097 -1.94723 0.214384 0
M  V30 8888 H 825.677 -0.144114 0.732967 0
M  V30 8889 H 828.339 0.340985 1.91894 0
M  V30 8890 H 827.435 -0.693702 3.04293 0
M  V30 8891 N 827.736 -1.57571 -0.0300757 0
M  V30 8892 C 828.964 -1.93485 -0.732891 0
M  V30 8893 C 829.379 -0.842758 -1.68947 0
M  V30 8894 O 828.736 0.180904 -1.81601 0
M  V30 8895 C 828.787 -3.29328 -1.49082 0
M  V30 8896 O 828.508 -4.34341 -0.572639 0
M  V30 8897 C 830.009 -3.79517 -2.29088 0
M  V30 8898 H 827.229 -0.638588 -0.206026 0
M  V30 8899 H 829.773 -2.04496 0.0120966 0
M  V30 8900 H 827.928 -3.19716 -2.1877 0
M  V30 8901 H 828.342 -5.12748 -1.10406 0
M  V30 8902 H 829.816 -4.77081 -2.77665 0
M  V30 8903 H 830.293 -3.10659 -3.10464 0
M  V30 8904 H 830.899 -3.92208 -1.64477 0
M  V30 8905 N 829.214 0.302327 -1.54673 0
M  V30 8906 C 830.177 1.35592 -1.8479 0
M  V30 8907 C 831.177 1.43743 -0.72073 0
M  V30 8908 O 832.367 1.43402 -0.989017 0
M  V30 8909 C 829.499 2.74091 -2.02699 0
M  V30 8910 H 830.692 1.10132 -2.78946 0
M  V30 8911 H 828.245 0.538926 -1.46715 0
M  V30 8912 H 828.98 3.04775 -1.10826 0
M  V30 8913 H 828.765 2.69565 -2.8474 0
M  V30 8914 H 830.255 3.50272 -2.27374 0
M  V30 8915 N 830.692 1.47107 0.565454 0
M  V30 8916 C 831.92 1.56909 1.3486 0
M  V30 8917 C 832.335 0.216312 1.87557 0
M  V30 8918 O 831.692 -0.789168 1.64555 0
M  V30 8919 C 831.743 2.58776 2.52423 0
M  V30 8920 O 831.464 3.888 2.01906 0
M  V30 8921 C 832.965 2.78683 3.44747 0
M  V30 8922 H 830.185 0.530096 0.411387 0
M  V30 8923 H 832.729 1.92658 0.685782 0
M  V30 8924 H 830.884 2.25983 3.1466 0
M  V30 8925 H 831.298 4.44393 2.78595 0
M  V30 8926 H 832.772 3.53842 4.23674 0
M  V30 8927 H 833.249 1.86208 3.97773 0
M  V30 8928 H 833.855 3.12641 2.88333 0
M  V30 8929 N 832.17 -0.811516 1.35101 0
M  V30 8930 C 833.416 -1.57068 1.28287 0
M  V30 8931 C 833.749 -1.93667 -0.143808 0
M  V30 8932 O 833.024 -1.60953 -1.09199 0
M  V30 8933 C 833.307 -2.86259 2.18466 0
M  V30 8934 C 833.16 -2.56168 3.69727 0
M  V30 8935 C 834.479 -3.87924 2.07852 0
M  V30 8936 H 831.598 -0.569869 0.467353 0
M  V30 8937 H 834.24 -0.934023 1.65457 0
M  V30 8938 H 832.39 -3.4059 1.86898 0
M  V30 8939 H 834.062 -2.08059 4.11715 0
M  V30 8940 H 832.305 -1.89436 3.90252 0
M  V30 8941 H 832.976 -3.48344 4.28206 0
M  V30 8942 H 835.452 -3.4298 2.35593 0
M  V30 8943 H 834.328 -4.76106 2.73157 0
M  V30 8944 H 834.589 -4.2923 1.05896 0
M  V30 8945 N 833.648 -1.19017 -1.03309 0
M  V30 8946 C 834.876 -1.01534 -1.80273 0
M  V30 8947 C 835.291 0.43605 -1.83696 0
M  V30 8948 O 834.648 1.30288 -1.27794 0
M  V30 8949 C 834.699 -1.5722 -3.25522 0
M  V30 8950 O 834.42 -2.96677 -3.22358 0
M  V30 8951 C 835.921 -1.4446 -4.19102 0
M  V30 8952 H 833.141 -0.358094 -0.567459 0
M  V30 8953 H 835.685 -1.57738 -1.3015 0
M  V30 8954 H 833.84 -1.05174 -3.7285 0
M  V30 8955 H 834.254 -3.22795 -4.13405 0
M  V30 8956 H 835.728 -1.88209 -5.18923 0
M  V30 8957 H 836.205 -0.394471 -4.37425 0
M  V30 8958 H 836.811 -1.95616 -3.77643 0
M  V30 8959 N 835.127 1.22348 -0.993418 0
M  V30 8960 C 836.538 1.72893 -0.704616 0
M  V30 8961 C 836.889 1.80095 0.778483 0
M  V30 8962 O 836.014 1.4476 1.60853 0
M  V30 8963 C 836.609 3.14 -1.27237 0
M  V30 8964 C 835.168 3.61949 -1.03294 0
M  V30 8965 C 834.315 2.39816 -1.39225 0
M  V30 8966 H 837.266 1.07688 -1.16572 0
M  V30 8967 H 837.287 3.74886 -0.651212 0
M  V30 8968 H 836.799 3.08727 -2.3518 0
M  V30 8969 H 834.9 3.72588 0.0298329 0
M  V30 8970 H 835.013 4.48051 -1.69668 0
M  V30 8971 H 833.377 2.41448 -0.810849 0
M  V30 8972 H 834.16 2.37203 -2.48172 0
M  V30 8973 N 836.605 0.766683 1.37694 0
M  V30 8974 C 837.538 0.0959288 2.27998 0
M  V30 8975 C 838.516 -0.714493 1.46061 0
M  V30 8976 O 839.7 -0.690337 1.75404 0
M  V30 8977 C 836.827 -0.87057 3.27321 0
M  V30 8978 C 835.873 -0.144771 4.26254 0
M  V30 8979 S 836.706 1.16365 5.22704 0
M  V30 8980 C 837.862 0.200564 6.25579 0
M  V30 8981 H 838.095 0.861666 2.84539 0
M  V30 8982 H 835.628 0.559845 1.43893 0
M  V30 8983 H 837.586 -1.42282 3.85053 0
M  V30 8984 H 836.247 -1.60938 2.69737 0
M  V30 8985 H 835.44 -0.877259 4.96307 0
M  V30 8986 H 835.042 0.33633 3.72485 0
M  V30 8987 H 837.334 -0.628833 6.74575 0
M  V30 8988 H 838.277 0.869117 7.02746 0
M  V30 8989 H 838.685 -0.185972 5.64194 0
M  V30 8990 N 838.083 -1.48885 0.516809 0
M  V30 8991 C 838.993 -2.33185 -0.257293 0
M  V30 8992 C 840.009 -1.4565 -0.951952 0
M  V30 8993 O 841.185 -1.78651 -0.929834 0
M  V30 8994 C 838.25 -3.21465 -1.29851 0
M  V30 8995 C 837.311 -4.24863 -0.615608 0
M  V30 8996 C 836.544 -5.08925 -1.60722 0
M  V30 8997 O 836.767 -4.9475 -2.83863 0
M  V30 8998 O 835.701 -5.90737 -1.15384 0
M  V30 8999 H 839.527 -3.00596 0.433131 0
M  V30 9000 H 837.112 -1.46792 0.277908 0
M  V30 9001 H 838.994 -3.76108 -1.90055 0
M  V30 9002 H 837.669 -2.5673 -1.97158 0
M  V30 9003 H 836.576 -3.74091 0.0265829 0
M  V30 9004 H 837.909 -4.92198 0.0152871 0
M  V30 9005 N 839.561 -0.251338 -1.55583 0
M  V30 9006 C 840.81 0.372681 -1.98227 0
M  V30 9007 C 841.123 1.58743 -1.1428 0
M  V30 9008 O 842.329 2.28289 -1.46957 0
M  V30 9009 C 840.785 0.714439 -3.52738 0
M  V30 9010 C 840.393 -0.479168 -4.4543 0
M  V30 9011 C 842.137 1.3024 -4.04027 0
M  V30 9012 C 840.044 -0.113318 -5.91291 0
M  V30 9013 H 838.974 0.14302 -0.740312 0
M  V30 9014 H 841.625 -0.352253 -1.80087 0
M  V30 9015 H 840.007 1.49762 -3.66589 0
M  V30 9016 H 841.181 -1.25644 -4.4334 0
M  V30 9017 H 839.496 -0.982359 -4.04646 0
M  V30 9018 H 842.093 1.58953 -5.10527 0
M  V30 9019 H 842.436 2.22837 -3.51638 0
M  V30 9020 H 842.969 0.582024 -3.93519 0
M  V30 9021 H 839.708 -1.00654 -6.47726 0
M  V30 9022 H 839.228 0.627666 -5.96507 0
M  V30 9023 H 840.907 0.30293 -6.4629 0
M  V30 9024 N 841.039 1.57585 0.0217189 0
M  V30 9025 C 842.002 2.06004 1.00474 0
M  V30 9026 C 843.002 0.965461 1.2859 0
M  V30 9027 O 844.192 1.22884 1.23471 0
M  V30 9028 C 841.324 2.48319 2.33561 0
M  V30 9029 H 842.517 2.94112 0.586346 0
M  V30 9030 H 840.07 1.53973 0.268716 0
M  V30 9031 H 840.805 1.63389 2.80133 0
M  V30 9032 H 840.59 3.28239 2.1448 0
M  V30 9033 H 842.08 2.86181 3.04122 0
M  V30 9034 N 842.517 -0.29412 1.54831 0
M  V30 9035 C 843.765 -1.02643 1.74094 0
M  V30 9036 C 844.086 -1.87563 0.533402 0
M  V30 9037 O 843.356 -1.9061 -0.452192 0
M  V30 9038 H 841.936 -0.381959 0.641963 0
M  V30 9039 H 844.598 -0.323444 1.92197 0
M  V30 9040 H 843.694 -1.67558 2.63307 0
M  V30 9041 N 843.995 -1.47404 -0.557645 0
M  V30 9042 C 844.958 -1.59411 -1.64684 0
M  V30 9043 C 845.958 -0.469244 -1.53801 0
M  V30 9044 O 847.148 -0.734298 -1.57967 0
M  V30 9045 C 844.28 -1.5382 -3.04224 0
M  V30 9046 H 845.473 -2.56504 -1.55389 0
M  V30 9047 H 843.026 -1.35588 -0.777531 0
M  V30 9048 H 843.761 -0.581 -3.19053 0
M  V30 9049 H 843.546 -2.35456 -3.13533 0
M  V30 9050 H 845.036 -1.65358 -3.83466 0
M  V30 9051 N 845.473 0.80434 -1.35529 0
M  V30 9052 C 846.719 1.56328 -1.30127 0
M  V30 9053 C 847.074 1.92008 0.122699 0
M  V30 9054 O 846.367 1.58693 1.07364 0
M  V30 9055 C 846.561 2.85988 -2.14349 0
M  V30 9056 C 846.39 2.62977 -3.64792 0
M  V30 9057 C 845.16 2.58757 -4.34019 0
M  V30 9058 C 847.358 2.332 -4.58391 0
M  V30 9059 N 845.34 2.27487 -5.70195 0
M  V30 9060 C 846.711 2.11788 -5.82706 0
M  V30 9061 C 848.766 2.19082 -4.4711 0
M  V30 9062 C 847.469 1.77688 -6.97008 0
M  V30 9063 C 849.495 1.86378 -5.61264 0
M  V30 9064 C 848.857 1.65804 -6.84608 0
M  V30 9065 H 844.956 0.57368 -0.531428 0
M  V30 9066 H 847.54 0.941313 -1.70433 0
M  V30 9067 H 845.711 3.46077 -1.76311 0
M  V30 9068 H 847.443 3.51571 -2.00449 0
M  V30 9069 H 844.198 2.73484 -3.86656 0
M  V30 9070 H 844.622 2.1464 -6.42074 0
M  V30 9071 H 849.264 2.33686 -3.5235 0
M  V30 9072 H 846.982 1.61822 -7.91732 0
M  V30 9073 H 850.568 1.7616 -5.5449 0
M  V30 9074 H 849.448 1.40868 -7.71444 0
M  V30 9075 N 846.951 1.19563 1.02676 0
M  V30 9076 C 848.176 1.02556 1.80269 0
M  V30 9077 C 848.601 -0.421056 1.83327 0
M  V30 9078 O 847.959 -1.30279 1.26084 0
M  V30 9079 C 848.007 1.60165 3.23078 0
M  V30 9080 O 847.111 0.832404 4.03912 0
M  V30 9081 H 846.452 0.362354 0.556413 0
M  V30 9082 H 848.982 1.58633 1.29216 0
M  V30 9083 H 848.992 1.6347 3.7382 0
M  V30 9084 H 847.667 2.65454 3.20167 0
M  V30 9085 H 846.244 0.872768 3.62543 0
M  V30 9086 N 848.429 -1.21819 0.999893 0
M  V30 9087 C 849.675 -1.91035 0.680701 0
M  V30 9088 C 850.008 -1.77582 -0.786021 0
M  V30 9089 O 849.283 -1.14917 -1.56921 0
M  V30 9090 C 849.566 -3.43013 1.0961 0
M  V30 9091 C 849.419 -3.65481 2.6219 0
M  V30 9092 C 850.738 -4.35204 0.654616 0
M  V30 9093 H 847.857 -0.693748 0.248763 0
M  V30 9094 H 850.499 -1.43555 1.24466 0
M  V30 9095 H 848.649 -3.83581 0.616253 0
M  V30 9096 H 850.321 -3.34273 3.17899 0
M  V30 9097 H 848.564 -3.09522 3.03938 0
M  V30 9098 H 849.235 -4.71945 2.86307 0
M  V30 9099 H 851.711 -4.0219 1.06688 0
M  V30 9100 H 850.587 -5.40198 0.973492 0
M  V30 9101 H 850.848 -4.3986 -0.444458 0
M  V30 9102 N 849.908 -0.773975 -1.37286 0
M  V30 9103 C 851.155 -0.339306 -1.99637 0
M  V30 9104 C 851.483 1.08478 -1.61439 0
M  V30 9105 O 850.738 1.7612 -0.853252 0
M  V30 9106 C 851.037 -0.432651 -3.54772 0
M  V30 9107 C 850.703 -1.81531 -4.12744 0
M  V30 9108 C 849.365 -2.19366 -4.2829 0
M  V30 9109 C 851.717 -2.72137 -4.44512 0
M  V30 9110 C 849.045 -3.47239 -4.72908 0
M  V30 9111 C 851.397 -3.99421 -4.90556 0
M  V30 9112 C 850.061 -4.37298 -5.04308 0
M  V30 9113 H 849.331 -0.124161 -0.730524 0
M  V30 9114 H 851.978 -0.988432 -1.64019 0
M  V30 9115 H 850.283 0.30001 -3.9065 0
M  V30 9116 H 851.98 -0.0776 -4.00925 0
M  V30 9117 H 848.57 -1.51126 -4.01072 0
M  V30 9118 H 852.754 -2.44165 -4.32084 0
M  V30 9119 H 848.01 -3.76477 -4.81742 0
M  V30 9120 H 852.184 -4.69756 -5.14104 0
M  V30 9121 H 849.811 -5.36442 -5.38641 0
M  V30 9122 N 851.386 1.48609 -0.524698 0
M  V30 9123 C 852.349 2.28041 0.230166 0
M  V30 9124 C 853.349 1.35065 0.872584 0
M  V30 9125 O 854.539 1.58007 0.73345 0
M  V30 9126 C 851.671 3.13778 1.33252 0
M  V30 9127 H 852.864 2.96239 -0.467161 0
M  V30 9128 H 850.417 1.53763 -0.280452 0
M  V30 9129 H 851.152 2.502 2.06327 0
M  V30 9130 H 850.937 3.82165 0.877058 0
M  V30 9131 H 852.427 3.7371 1.86362 0
M  V30 9132 N 852.864 0.259585 1.55447 0
M  V30 9133 C 853.812 -0.6507 2.23313 0
M  V30 9134 C 854.806 -1.17014 1.22491 0
M  V30 9135 O 856.012 -1.12557 1.40467 0
M  V30 9136 H 852.387 -0.228354 0.71649 0
M  V30 9137 H 854.358 -0.0553039 2.98349 0
M  V30 9138 C 853.107 -1.83081 2.95596 0
M  V30 9139 H 852.43 -1.44027 3.72956 0
M  V30 9140 H 853.87 -2.44469 3.46426 0
M  V30 9141 C 852.329 -2.70976 2.00184 0
M  V30 9142 O 852.859 -3.70882 1.54304 0
M  V30 9143 N 851.065 -2.37813 1.67014 0
M  V30 9144 H 850.612 -1.5662 2.04519 0
M  V30 9145 H 850.57 -2.96896 1.03443 0
M  V30 9146 N 854.342 -1.57594 -0.0133615 0
M  V30 9147 C 855.59 -1.89605 -0.699596 0
M  V30 9148 C 855.911 -0.85926 -1.75048 0
M  V30 9149 O 855.181 0.105112 -1.95618 0
M  V30 9150 H 853.761 -0.699776 -0.261385 0
M  V30 9151 H 856.423 -1.94885 0.0244044 0
M  V30 9152 H 855.519 -2.88962 -1.17928 0
M  V30 9153 N 855.82 0.285905 -1.54985 0
M  V30 9154 C 857.068 1.01718 -1.74636 0
M  V30 9155 C 857.389 1.87277 -0.543342 0
M  V30 9156 O 856.659 1.90847 0.442078 0
M  V30 9157 H 855.239 0.378549 -0.643979 0
M  V30 9158 H 857.901 0.313247 -1.92366 0
M  V30 9159 H 856.997 1.66159 -2.64192 0
M  V30 9160 N 857.298 1.47698 0.54982 0
M  V30 9161 C 858.528 1.58101 1.32995 0
M  V30 9162 C 858.936 0.232939 1.87761 0
M  V30 9163 O 858.279 -0.785058 1.6608 0
M  V30 9164 C 858.341 2.55228 2.53178 0
M  V30 9165 C 858.005 4.00756 2.19645 0
M  V30 9166 C 859.002 4.89025 1.76496 0
M  V30 9167 C 856.687 4.46147 2.30777 0
M  V30 9168 C 858.681 6.20707 1.44919 0
M  V30 9169 C 856.368 5.77856 1.98812 0
M  V30 9170 C 857.366 6.64957 1.55952 0
M  V30 9171 O 857.054 7.94217 1.24396 0
M  V30 9172 H 856.786 0.536362 0.411451 0
M  V30 9173 H 859.34 1.94092 0.67212 0
M  V30 9174 H 857.57 2.14319 3.21876 0
M  V30 9175 H 859.259 2.55678 3.15251 0
M  V30 9176 H 860.025 4.55201 1.67383 0
M  V30 9177 H 855.904 3.78552 2.63096 0
M  V30 9178 H 859.448 6.88649 1.11392 0
M  V30 9179 H 855.345 6.11219 2.0756 0
M  V30 9180 H 856.113 8.06789 1.37964 0
M  V30 9181 N 858.776 -0.797141 1.35954 0
M  V30 9182 C 859.723 -1.90944 1.2965 0
M  V30 9183 C 860.693 -1.65262 0.166628 0
M  V30 9184 O 861.878 -1.87527 0.351883 0
M  V30 9185 C 859.018 -3.27637 1.08389 0
M  V30 9186 C 858.131 -3.65442 2.30382 0
M  V30 9187 C 857.266 -4.91213 2.02195 0
M  V30 9188 C 856.305 -5.21674 3.20191 0
M  V30 9189 N 855.442 -6.38627 2.91719 0
M  V30 9190 H 860.282 -1.95668 2.24762 0
M  V30 9191 H 857.819 -0.95696 1.11717 0
M  V30 9192 H 859.777 -4.06451 0.940912 0
M  V30 9193 H 858.407 -3.22355 0.169351 0
M  V30 9194 H 857.459 -2.81813 2.55511 0
M  V30 9195 H 858.771 -3.83907 3.18461 0
M  V30 9196 H 857.925 -5.77876 1.84783 0
M  V30 9197 H 856.664 -4.74803 1.11416 0
M  V30 9198 H 855.669 -4.33498 3.38171 0
M  V30 9199 H 856.894 -5.40009 4.11786 0
M  V30 9200 H 854.84 -6.23623 2.03543 0
M  V30 9201 H 854.757 -6.57387 3.73334 0
M  V30 9202 H 856.025 -7.28292 2.77868 0
M  V30 9203 N 860.254 -1.20106 -1.0204 0
M  V30 9204 C 861.5 -1.01039 -1.75838 0
M  V30 9205 C 861.833 0.456819 -1.88751 0
M  V30 9206 O 861.108 1.33919 -1.41053 0
M  V30 9207 C 861.391 -1.69009 -3.17975 0
M  V30 9208 C 861.244 -3.2315 -3.1288 0
M  V30 9209 C 862.563 -1.42005 -4.16561 0
M  V30 9210 H 859.682 -0.368465 -0.638281 0
M  V30 9211 H 862.324 -1.48066 -1.19064 0
M  V30 9212 H 860.474 -1.29026 -3.66449 0
M  V30 9213 H 862.146 -3.72402 -2.72239 0
M  V30 9214 H 860.389 -3.54253 -2.50374 0
M  V30 9215 H 861.06 -3.65862 -4.13339 0
M  V30 9216 H 863.536 -1.76685 -3.76725 0
M  V30 9217 H 862.412 -1.92101 -5.14187 0
M  V30 9218 H 862.673 -0.346884 -4.40737 0
M  V30 9219 N 861.732 1.21287 -1.00634 0
M  V30 9220 C 862.68 2.25733 -0.561026 0
M  V30 9221 C 863.674 1.64728 0.395095 0
M  V30 9222 O 864.88 1.78022 0.266141 0
M  V30 9223 H 861.255 0.734104 -0.163081 0
M  V30 9224 H 863.226 2.60631 -1.45307 0
M  V30 9225 C 861.975 3.47569 0.0952587 0
M  V30 9226 H 861.298 3.94782 -0.631427 0
M  V30 9227 H 862.738 4.22382 0.370105 0
M  V30 9228 C 861.197 3.09326 1.33488 0
M  V30 9229 O 861.727 3.19933 2.42912 0
M  V30 9230 N 859.933 2.63976 1.21512 0
M  V30 9231 H 859.48 2.55545 0.324741 0
M  V30 9232 H 859.438 2.38757 2.04555 0
M  V30 9233 N 863.21 0.781244 1.36873 0
M  V30 9234 C 864.621 0.414093 1.8205 0
M  V30 9235 C 864.972 -1.06098 1.65039 0
M  V30 9236 O 864.097 -1.82251 1.16677 0
M  V30 9237 C 864.692 0.744837 3.30511 0
M  V30 9238 C 863.251 0.430621 3.73929 0
M  V30 9239 C 862.398 0.983746 2.59264 0
M  V30 9240 H 865.349 0.975091 1.2521 0
M  V30 9241 H 865.37 0.032936 3.80486 0
M  V30 9242 H 864.882 1.81847 3.42861 0
M  V30 9243 H 862.983 -0.635308 3.67144 0
M  V30 9244 H 863.096 0.945514 4.69677 0
M  V30 9245 H 861.46 0.407433 2.5142 0
M  V30 9246 H 862.243 2.06297 2.74402 0
M  V30 9247 N 864.689 -1.48329 0.532571 0
M  V30 9248 C 865.919 -2.066 0.00353785 0
M  V30 9249 C 866.327 -1.38913 -1.28451 0
M  V30 9250 O 865.67 -0.471385 -1.77549 0
M  V30 9251 C 865.732 -3.58342 -0.288324 0
M  V30 9252 C 865.396 -4.47917 0.906631 0
M  V30 9253 C 866.393 -4.87534 1.80572 0
M  V30 9254 C 864.078 -4.89783 1.11436 0
M  V30 9255 C 866.072 -5.6779 2.89642 0
M  V30 9256 C 863.759 -5.69809 2.20819 0
M  V30 9257 C 864.757 -6.08721 3.09755 0
M  V30 9258 O 864.445 -6.8714 4.17246 0
M  V30 9259 H 864.177 -0.675263 0.0315661 0
M  V30 9260 H 866.731 -1.91669 0.738375 0
M  V30 9261 H 864.961 -3.71395 -1.07717 0
M  V30 9262 H 866.65 -3.98726 -0.759752 0
M  V30 9263 H 867.416 -4.5581 1.65719 0
M  V30 9264 H 863.295 -4.58977 0.431382 0
M  V30 9265 H 866.839 -5.98082 3.59087 0
M  V30 9266 H 862.736 -6.00947 2.35655 0
M  V30 9267 H 863.504 -7.05498 4.14988 0
M  V30 9268 N 866.167 -0.267825 -1.55308 0
M  V30 9269 C 867.413 0.351556 -1.9973 0
M  V30 9270 C 867.746 1.56049 -1.15596 0
M  V30 9271 O 867.021 1.93203 -0.224274 0
M  V30 9272 C 867.304 0.74091 -3.52395 0
M  V30 9273 C 867.157 -0.474861 -4.47286 0
M  V30 9274 C 868.476 1.5801 -4.10756 0
M  V30 9275 H 865.595 0.126308 -0.726096 0
M  V30 9276 H 868.237 -0.373316 -1.86296 0
M  V30 9277 H 866.387 1.35851 -3.63973 0
M  V30 9278 H 868.059 -1.1134 -4.47662 0
M  V30 9279 H 866.302 -1.11425 -4.19246 0
M  V30 9280 H 866.973 -0.158782 -5.51772 0
M  V30 9281 H 869.449 1.05857 -4.0241 0
M  V30 9282 H 868.325 1.82135 -5.17801 0
M  V30 9283 H 868.586 2.55878 -3.60526 0
M  V30 9284 N 867.645 1.57599 0.00500368 0
M  V30 9285 C 868.894 1.89528 0.690061 0
M  V30 9286 C 869.207 0.869451 1.75214 0
M  V30 9287 O 870.413 1.07879 2.49147 0
M  V30 9288 C 868.869 3.36425 1.27852 0
M  V30 9289 C 868.477 4.47293 0.251531 0
M  V30 9290 C 870.221 3.77471 1.94206 0
M  V30 9291 C 868.128 5.85264 0.8497 0
M  V30 9292 H 867.058 0.707201 0.2615 0
M  V30 9293 H 869.709 1.83418 -0.0547209 0
M  V30 9294 H 868.091 3.37356 2.07381 0
M  V30 9295 H 869.265 4.5787 -0.518796 0
M  V30 9296 H 867.58 4.15235 -0.311281 0
M  V30 9297 H 870.177 4.77884 2.39855 0
M  V30 9298 H 870.52 3.10722 2.77051 0
M  V30 9299 H 871.053 3.78817 1.21419 0
M  V30 9300 H 867.792 6.55472 0.0601408 0
M  V30 9301 H 867.312 5.78361 1.5893 0
M  V30 9302 H 868.991 6.32762 1.34984 0
M  V30 9303 N 869.123 -0.277682 1.55134 0
M  V30 9304 C 870.033 -1.36524 1.90783 0
M  V30 9305 C 871.049 -1.54283 0.804542 0
M  V30 9306 O 872.225 -1.68499 1.10318 0
M  V30 9307 C 869.29 -2.70524 2.16835 0
M  V30 9308 C 868.351 -2.61552 3.40424 0
M  V30 9309 C 867.584 -3.89162 3.65224 0
M  V30 9310 O 867.807 -4.89624 2.92616 0
M  V30 9311 O 866.741 -3.89647 4.58758 0
M  V30 9312 H 870.567 -1.0929 2.83354 0
M  V30 9313 H 868.152 -0.475799 1.41621 0
M  V30 9314 H 870.034 -3.49765 2.35038 0
M  V30 9315 H 868.709 -2.97555 1.27448 0
M  V30 9316 H 867.616 -1.80704 3.27562 0
M  V30 9317 H 868.949 -2.39472 4.30016 0
M  V30 9318 N 870.601 -1.47988 -0.541979 0
M  V30 9319 C 872.017 -1.33843 -0.869383 0
M  V30 9320 C 872.217 -0.340374 -1.98604 0
M  V30 9321 O 871.273 0.242696 -2.51331 0
M  V30 9322 C 872.586 -2.73568 -1.24823 0
M  V30 9323 C 874.134 -2.81967 -1.3588 0
M  V30 9324 C 874.609 -4.22368 -1.77114 0
M  V30 9325 N 876.1 -4.24983 -1.84237 0
M  V30 9326 C 876.835 -5.30547 -2.17503 0
M  V30 9327 N 876.331 -6.46401 -2.49275 0
M  V30 9328 N 878.124 -5.17933 -2.18406 0
M  V30 9329 H 870.275 -2.11503 0.195001 0
M  V30 9330 H 872.538 -0.947681 0.0245862 0
M  V30 9331 H 872.244 -3.48107 -0.501435 0
M  V30 9332 H 872.118 -3.06322 -2.20106 0
M  V30 9333 H 874.505 -2.07692 -2.09638 0
M  V30 9334 H 874.586 -2.52848 -0.387478 0
M  V30 9335 H 874.23 -4.97155 -1.0392 0
M  V30 9336 H 874.16 -4.48922 -2.75275 0
M  V30 9337 H 876.651 -3.41411 -1.62009 0
M  V30 9338 H 876.964 -7.22698 -2.73729 0
M  V30 9339 H 875.309 -6.49696 -2.46821 0
M  V30 9340 H 878.5 -4.26445 -1.93034 0
M  V30 9341 H 878.673 -6.00307 -2.44 0
M  V30 9342 N 872.079 0.78992 -1.36375 0
M  V30 9343 C 873.328 1.54296 -1.29906 0
M  V30 9344 C 873.641 1.95234 0.119651 0
M  V30 9345 O 874.847 2.69762 0.306708 0
M  V30 9346 C 873.303 2.78533 -2.27919 0
M  V30 9347 C 872.911 2.44767 -3.75224 0
M  V30 9348 C 874.655 3.56516 -2.30427 0
M  V30 9349 C 872.562 3.65397 -4.65015 0
M  V30 9350 H 871.492 0.579214 -0.482729 0
M  V30 9351 H 874.143 0.866845 -1.61735 0
M  V30 9352 H 872.525 3.47941 -1.89084 0
M  V30 9353 H 873.699 1.83259 -4.22792 0
M  V30 9354 H 872.014 1.79996 -3.75487 0
M  V30 9355 H 874.611 4.46143 -2.94722 0
M  V30 9356 H 874.954 3.95063 -1.31266 0
M  V30 9357 H 875.487 2.94087 -2.67876 0
M  V30 9358 H 872.226 3.31946 -5.65236 0
M  V30 9359 H 871.746 4.26072 -4.22164 0
M  V30 9360 H 873.425 4.32431 -4.81261 0
M  V30 9361 N 873.557 1.20646 1.01402 0
M  V30 9362 C 874.467 0.973385 2.13453 0
M  V30 9363 C 875.483 -0.0715865 1.73853 0
M  V30 9364 O 876.659 0.116438 2.01063 0
M  V30 9365 C 873.724 0.531285 3.42605 0
M  V30 9366 C 872.785 1.64741 3.96433 0
M  V30 9367 C 872.018 1.22631 5.1942 0
M  V30 9368 O 872.241 0.0960891 5.70319 0
M  V30 9369 O 871.175 2.03474 5.66465 0
M  V30 9370 H 875.001 1.91164 2.35987 0
M  V30 9371 H 872.586 0.990553 1.11841 0
M  V30 9372 H 874.468 0.294095 4.20373 0
M  V30 9373 H 873.143 -0.378358 3.21481 0
M  V30 9374 H 872.05 1.93891 3.19933 0
M  V30 9375 H 873.383 2.53415 4.2195 0
M  V30 9376 N 875.035 -1.20752 1.01276 0
M  V30 9377 C 876.26 -1.94547 0.718769 0
M  V30 9378 C 876.685 -1.7404 -0.713563 0
M  V30 9379 O 876.043 -1.03221 -1.49047 0
M  V30 9380 C 876.091 -3.44823 1.05497 0
M  V30 9381 O 875.195 -4.12072 0.164516 0
M  V30 9382 H 874.536 -0.607931 0.267051 0
M  V30 9383 H 877.066 -1.53292 1.35509 0
M  V30 9384 H 877.076 -3.95427 1.00507 0
M  V30 9385 H 875.751 -3.59072 2.09858 0
M  V30 9386 H 874.328 -3.71909 0.271615 0
M  V30 9387 N 876.513 -0.788492 -1.36457 0
M  V30 9388 C 877.929 -0.470063 -1.52521 0
M  V30 9389 C 878.129 1.01176 -1.74258 0
M  V30 9390 O 877.185 1.79726 -1.77355 0
M  V30 9391 C 878.498 -1.2997 -2.71161 0
M  V30 9392 C 880.046 -1.2933 -2.85031 0
M  V30 9393 C 880.521 -2.10665 -4.06674 0
M  V30 9394 N 882.012 -2.08107 -4.13819 0
M  V30 9395 C 882.747 -2.6781 -5.07016 0
M  V30 9396 N 882.243 -3.36369 -6.05663 0
M  V30 9397 N 884.036 -2.57549 -4.99625 0
M  V30 9398 H 876.187 -1.7484 -1.20602 0
M  V30 9399 H 878.45 -0.743159 -0.588574 0
M  V30 9400 H 878.156 -2.35051 -2.61618 0
M  V30 9401 H 878.03 -0.940367 -3.6529 0
M  V30 9402 H 880.417 -0.250414 -2.94036 0
M  V30 9403 H 880.498 -1.69239 -1.91812 0
M  V30 9404 H 880.142 -3.14984 -3.98431 0
M  V30 9405 H 880.072 -1.68128 -4.9904 0
M  V30 9406 H 882.563 -1.58208 -3.43189 0
M  V30 9407 H 882.876 -3.79258 -6.73338 0
M  V30 9408 H 881.221 -3.40471 -6.05891 0
M  V30 9409 H 884.412 -2.0359 -4.21508 0
M  V30 9410 H 884.585 -3.0437 -5.72069 0
M  V30 9411 N 877.991 1.48044 -0.54043 0
M  V30 9412 C 879.268 1.95523 0.0547302 0
M  V30 9413 C 879.648 1.48284 1.5025 0
M  V30 9414 O 878.996 0.714037 2.17057 0
M  V30 9415 C 879.206 3.48923 -0.0733393 0
M  V30 9416 C 880.554 4.24523 0.0806026 0
M  V30 9417 O 881.578 3.562 -5.58687e-05 0
M  V30 9418 O 880.437 5.45922 0.251216 0
M  V30 9419 H 877.531 0.823728 0.073493 0
M  V30 9420 H 880.077 1.5852 -0.605768 0
M  V30 9421 H 878.849 3.76059 -1.08144 0
M  V30 9422 H 878.472 3.92648 0.625536 0
M  V30 9423 N 879.47 0.276058 1.55163 0
M  V30 9424 C 880.718 -0.339782 1.99223 0
M  V30 9425 C 881.039 -1.56307 1.16589 0
M  V30 9426 O 880.309 -1.94225 0.25564 0
M  V30 9427 H 878.889 -0.128534 0.735859 0
M  V30 9428 H 881.551 0.381612 1.91128 0
M  V30 9429 H 880.647 -0.629 3.05696 0
M  V30 9430 N 880.948 -1.576 0.00335426 0
M  V30 9431 C 881.88 -2.0549 -1.01521 0
M  V30 9432 C 882.893 -0.973441 -1.30491 0
M  V30 9433 O 884.082 -1.25017 -1.27409 0
M  V30 9434 C 881.182 -2.44272 -2.34914 0
M  V30 9435 C 880.355 -3.75191 -2.24835 0
M  V30 9436 C 879.414 -4.00804 -3.40944 0
M  V30 9437 O 878.44 -4.71423 -3.18981 0
M  V30 9438 N 879.642 -3.48961 -4.63904 0
M  V30 9439 H 882.407 -2.93493 -0.60678 0
M  V30 9440 H 879.968 -1.60851 -0.18396 0
M  V30 9441 H 881.96 -2.58518 -3.11369 0
M  V30 9442 H 880.53 -1.6177 -2.67487 0
M  V30 9443 H 879.75 -3.70989 -1.3327 0
M  V30 9444 H 881.038 -4.61013 -2.15277 0
M  V30 9445 H 880.436 -2.9178 -4.84645 0
M  V30 9446 H 878.993 -3.68531 -5.37613 0
M  V30 9447 N 882.426 0.269451 -1.5528 0
M  V30 9448 C 883.672 1.00206 -1.76314 0
M  V30 9449 C 884.005 1.85812 -0.564581 0
M  V30 9450 O 883.28 1.89509 0.437769 0
M  V30 9451 C 883.563 1.88163 -3.07029 0
M  V30 9452 C 883.416 1.05527 -4.37246 0
M  V30 9453 C 884.735 2.8681 -3.33808 0
M  V30 9454 H 881.854 0.36288 -0.641473 0
M  V30 9455 H 884.496 0.274188 -1.88011 0
M  V30 9456 H 882.646 2.50224 -2.97187 0
M  V30 9457 H 884.318 0.455094 -4.5905 0
M  V30 9458 H 882.561 0.358842 -4.32313 0
M  V30 9459 H 883.232 1.70397 -5.25042 0
M  V30 9460 H 885.708 2.34884 -3.43466 0
M  V30 9461 H 884.584 3.45492 -4.26528 0
M  V30 9462 H 884.845 3.62118 -2.5362 0
M  V30 9463 N 883.904 1.48273 0.534124 0
M  V30 9464 C 884.834 1.6538 1.64839 0
M  V30 9465 C 885.815 0.502741 1.62501 0
M  V30 9466 O 887 0.734799 1.79762 0
M  V30 9467 C 884.13 1.68949 3.03436 0
M  V30 9468 C 883.084 2.83513 3.20631 0
M  V30 9469 C 882.41 2.72169 4.60248 0
M  V30 9470 C 883.71 4.24858 3.03797 0
M  V30 9471 H 885.404 2.58663 1.50777 0
M  V30 9472 H 882.95 1.24479 0.723937 0
M  V30 9473 H 884.903 1.79505 3.81256 0
M  V30 9474 H 883.627 0.722415 3.1851 0
M  V30 9475 H 882.286 2.72505 2.45227 0
M  V30 9476 H 881.934 1.7344 4.72152 0
M  V30 9477 H 881.634 3.49042 4.72698 0
M  V30 9478 H 883.158 2.84687 5.40172 0
M  V30 9479 H 884.572 4.36721 3.71413 0
M  V30 9480 H 882.969 5.02697 3.27743 0
M  V30 9481 H 884.039 4.41611 2.0027 0
M  V30 9482 N 885.382 -0.782676 1.36792 0
M  V30 9483 C 886.612 -1.56934 1.3437 0
M  V30 9484 C 887.02 -1.89049 -0.0754828 0
M  V30 9485 O 886.363 -1.51103 -1.04467 0
M  V30 9486 C 886.425 -2.91311 2.10661 0
M  V30 9487 C 886.089 -2.81889 3.59705 0
M  V30 9488 C 887.086 -2.53668 4.53815 0
M  V30 9489 C 884.771 -3.00254 4.02682 0
M  V30 9490 C 886.765 -2.43925 5.8888 0
M  V30 9491 C 884.452 -2.90132 5.37835 0
M  V30 9492 C 885.45 -2.62006 6.30747 0
M  V30 9493 O 885.138 -2.5189 7.63418 0
M  V30 9494 H 884.87 -0.493194 0.462316 0
M  V30 9495 H 887.424 -0.978791 1.80579 0
M  V30 9496 H 885.654 -3.52443 1.59125 0
M  V30 9497 H 887.343 -3.52632 2.01012 0
M  V30 9498 H 888.109 -2.39176 4.21924 0
M  V30 9499 H 883.988 -3.21151 3.30731 0
M  V30 9500 H 887.532 -2.21892 6.6137 0
M  V30 9501 H 883.429 -3.04189 5.69332 0
M  V30 9502 H 884.197 -2.67321 7.73616 0
M  V30 9503 N 886.86 -1.21182 -1.00761 0
M  V30 9504 C 887.792 -0.926523 -2.09638 0
M  V30 9505 C 888.805 0.0892511 -1.62555 0
M  V30 9506 O 889.994 -0.142915 -1.77927 0
M  V30 9507 C 887.094 -0.369175 -3.36883 0
M  V30 9508 C 886.267 -1.43866 -4.13063 0
M  V30 9509 C 885.326 -0.891015 -5.18601 0
M  V30 9510 O 884.352 -1.57384 -5.47009 0
M  V30 9511 N 885.554 0.295057 -5.7975 0
M  V30 9512 H 888.319 -1.8638 -2.34697 0
M  V30 9513 H 885.88 -1.11671 -1.17223 0
M  V30 9514 H 887.872 0.011534 -4.04698 0
M  V30 9515 H 886.442 0.472861 -3.09003 0
M  V30 9516 H 885.662 -1.99332 -3.40089 0
M  V30 9517 H 886.95 -2.15866 -4.60738 0
M  V30 9518 H 886.348 0.8669 -5.59018 0
M  V30 9519 H 884.905 0.617306 -6.4887 0
M  V30 9520 N 888.338 1.20213 -1.01915 0
M  V30 9521 C 889.301 2.21307 -0.596327 0
M  V30 9522 C 890.301 1.57274 0.334879 0
M  V30 9523 O 891.491 1.73764 0.12322 0
M  V30 9524 C 888.623 3.40657 0.128808 0
M  V30 9525 H 889.816 2.60228 -1.49068 0
M  V30 9526 H 887.369 1.33721 -0.809226 0
M  V30 9527 H 888.104 3.07241 1.03796 0
M  V30 9528 H 887.889 3.88361 -0.540183 0
M  V30 9529 H 889.379 4.15564 0.411892 0
M  V30 9530 N 889.816 0.795718 1.36037 0
M  V30 9531 C 890.764 0.18649 2.31851 0
M  V30 9532 C 891.758 -0.657704 1.56111 0
M  V30 9533 O 892.964 -0.552083 1.71324 0
M  V30 9534 H 889.339 0.0415363 0.750852 0
M  V30 9535 H 891.31 1.00992 2.8079 0
M  V30 9536 C 890.059 -0.65918 3.41394 0
M  V30 9537 H 889.382 -0.01894 3.99796 0
M  V30 9538 H 890.822 -1.05202 4.10741 0
M  V30 9539 C 889.281 -1.82011 2.83502 0
M  V30 9540 O 889.811 -2.91703 2.76174 0
M  V30 9541 N 888.017 -1.62821 2.40703 0
M  V30 9542 H 887.564 -0.735965 2.46863 0
M  V30 9543 H 887.522 -2.40657 2.02316 0
M  V30 9544 N 891.294 -1.47756 0.548274 0
M  V30 9545 C 892.705 -1.8636 0.112547 0
M  V30 9546 C 893.056 -1.45589 -1.31523 0
M  V30 9547 O 892.181 -0.854874 -1.98799 0
M  V30 9548 C 892.776 -3.38224 0.197473 0
M  V30 9549 C 891.335 -3.75954 -0.183163 0
M  V30 9550 C 890.482 -2.7181 0.549059 0
M  V30 9551 H 893.433 -1.394 0.758506 0
M  V30 9552 H 893.454 -3.75957 -0.586217 0
M  V30 9553 H 892.966 -3.67868 1.23673 0
M  V30 9554 H 891.067 -3.51926 -1.22387 0
M  V30 9555 H 891.18 -4.78801 0.169178 0
M  V30 9556 H 889.544 -2.54699 -0.00682862 0
M  V30 9557 H 890.327 -3.04296 1.5893 0
M  V30 9558 N 892.772 -0.284283 -1.55015 0
M  V30 9559 C 894.183 0.211681 -1.85496 0
M  V30 9560 C 894.534 1.54735 -1.2063 0
M  V30 9561 O 893.659 2.10594 -0.497918 0
M  V30 9562 C 894.254 0.390864 -3.36538 0
M  V30 9563 C 892.813 0.831055 -3.67111 0
M  V30 9564 C 891.96 -0.0703581 -2.77211 0
M  V30 9565 H 894.911 -0.505803 -1.50424 0
M  V30 9566 H 894.932 1.22803 -3.60138 0
M  V30 9567 H 894.444 -0.581409 -3.8372 0
M  V30 9568 H 892.545 1.81447 -3.25434 0
M  V30 9569 H 892.658 0.662026 -4.74504 0
M  V30 9570 H 891.022 0.447528 -2.50737 0
M  V30 9571 H 891.805 -1.03868 -3.2721 0
M  V30 9572 N 894.251 1.57596 -0.0117121 0
M  V30 9573 C 895.667 1.55837 0.344506 0
M  V30 9574 C 895.867 1.01557 1.74036 0
M  V30 9575 O 894.923 0.654563 2.43868 0
M  V30 9576 C 896.236 2.99973 0.209023 0
M  V30 9577 C 897.784 3.11717 0.283092 0
M  V30 9578 C 898.259 4.57659 0.176599 0
M  V30 9579 N 899.75 4.62608 0.234133 0
M  V30 9580 C 900.485 5.73132 0.175252 0
M  V30 9581 N 899.981 6.92768 0.0662888 0
M  V30 9582 N 901.774 5.61638 0.227972 0
M  V30 9583 H 893.925 1.91215 -0.924692 0
M  V30 9584 H 896.188 0.878807 -0.355531 0
M  V30 9585 H 895.894 3.4357 -0.751826 0
M  V30 9586 H 895.768 3.64075 0.98635 0
M  V30 9587 H 898.155 2.68043 1.23439 0
M  V30 9588 H 898.236 2.50369 -0.52431 0
M  V30 9589 H 897.88 5.02011 -0.771205 0
M  V30 9590 H 897.81 5.16967 1.00264 0
M  V30 9591 H 900.301 3.76549 0.319203 0
M  V30 9592 H 900.614 7.72795 0.0275765 0
M  V30 9593 H 898.959 6.94993 0.0317502 0
M  V30 9594 H 902.15 4.67063 0.311377 0
M  V30 9595 H 902.323 6.47754 0.178621 0
M  V30 9596 N 895.729 -0.261212 1.5542 0
M  V30 9597 C 896.975 -0.992699 1.76843 0
M  V30 9598 C 897.308 -1.8551 0.574428 0
M  V30 9599 O 896.583 -1.89739 -0.427713 0
M  V30 9600 C 896.866 -1.86532 3.08022 0
M  V30 9601 C 896.719 -1.03206 4.378 0
M  V30 9602 C 898.038 -2.85036 3.35324 0
M  V30 9603 H 895.157 -0.359473 0.643388 0
M  V30 9604 H 897.799 -0.264214 1.88154 0
M  V30 9605 H 895.949 -2.48644 2.9851 0
M  V30 9606 H 897.621 -0.430743 4.59285 0
M  V30 9607 H 895.864 -0.335911 4.32497 0
M  V30 9608 H 896.535 -1.6761 5.25938 0
M  V30 9609 H 899.011 -2.3306 3.44706 0
M  V30 9610 H 897.887 -3.43226 4.28354 0
M  V30 9611 H 898.148 -3.60768 2.55537 0
M  V30 9612 N 897.207 -1.48554 -0.526253 0
M  V30 9613 C 898.618 -1.50256 -1.10815 0
M  V30 9614 C 898.969 -0.274445 -1.94271 0
M  V30 9615 O 898.094 0.618094 -2.07385 0
M  V30 9616 C 898.689 -2.72264 -2.01638 0
M  V30 9617 C 897.248 -2.76826 -2.55038 0
M  V30 9618 C 896.395 -2.43823 -1.32081 0
M  V30 9619 H 899.346 -1.55616 -0.31133 0
M  V30 9620 H 899.367 -2.50993 -2.85977 0
M  V30 9621 H 898.879 -3.61632 -1.4087 0
M  V30 9622 H 896.98 -1.91676 -3.19517 0
M  V30 9623 H 897.093 -3.78351 -2.93917 0
M  V30 9624 H 895.457 -1.95058 -1.63781 0
M  V30 9625 H 896.24 -3.35436 -0.730596 0
M  V30 9626 N 898.685 0.775411 -1.37205 0
M  V30 9627 C 899.931 1.53611 -1.32407 0
M  V30 9628 C 900.264 1.9398 0.0924103 0
M  V30 9629 O 899.539 1.63791 1.04893 0
M  V30 9630 C 899.822 2.80367 -2.25979 0
M  V30 9631 C 899.675 2.46275 -3.76389 0
M  V30 9632 C 900.994 3.82277 -2.18064 0
M  V30 9633 H 898.113 0.557278 -0.482297 0
M  V30 9634 H 900.755 0.889826 -1.67875 0
M  V30 9635 H 898.905 3.35515 -1.95862 0
M  V30 9636 H 900.577 1.9707 -4.17087 0
M  V30 9637 H 898.82 1.79023 -3.95137 0
M  V30 9638 H 899.491 3.36868 -4.37291 0
M  V30 9639 H 901.967 3.36613 -2.44604 0
M  V30 9640 H 900.843 4.68696 -2.85684 0
M  V30 9641 H 901.104 4.26272 -1.17239 0
M  V30 9642 N 900.163 1.21714 1.00117 0
M  V30 9643 C 901.073 0.99597 2.12409 0
M  V30 9644 C 902.089 -0.0531431 1.73919 0
M  V30 9645 O 903.265 0.137757 2.00928 0
M  V30 9646 C 900.33 0.567593 3.42022 0
M  V30 9647 C 899.391 1.68936 3.94663 0
M  V30 9648 C 898.624 1.28133 5.1809 0
M  V30 9649 O 898.847 0.156574 5.70185 0
M  V30 9650 O 897.781 2.0947 5.64275 0
M  V30 9651 H 901.607 1.93657 2.33946 0
M  V30 9652 H 899.192 1.00236 1.10784 0
M  V30 9653 H 901.074 0.338664 4.20037 0
M  V30 9654 H 899.749 -0.34424 3.21864 0
M  V30 9655 H 898.656 1.97274 3.17858 0
M  V30 9656 H 899.989 2.57876 4.19238 0
M  V30 9657 N 901.641 -1.19671 1.02551 0
M  V30 9658 C 902.551 -2.26441 0.613329 0
M  V30 9659 C 903.567 -1.70375 -0.353339 0
M  V30 9660 O 904.743 -2.0028 -0.212064 0
M  V30 9661 C 901.808 -3.46684 -0.0329028 0
M  V30 9662 C 900.869 -4.17945 0.980837 0
M  V30 9663 C 900.102 -5.32448 0.36535 0
M  V30 9664 O 900.325 -5.64291 -0.832596 0
M  V30 9665 O 899.259 -5.92012 1.08652 0
M  V30 9666 H 903.085 -2.63932 1.50246 0
M  V30 9667 H 900.67 -1.2646 0.795502 0
M  V30 9668 H 902.552 -4.1956 -0.393395 0
M  V30 9669 H 901.227 -3.1105 -0.896089 0
M  V30 9670 H 900.134 -3.47204 1.39286 0
M  V30 9671 H 901.467 -4.57542 1.81428 0
M  V30 9672 N 903.119 -0.802921 -1.35613 0
M  V30 9673 C 904.051 -0.168461 -2.2858 0
M  V30 9674 C 905.064 0.630123 -1.50111 0
M  V30 9675 O 906.253 0.463086 -1.72388 0
M  V30 9676 C 903.353 0.783943 -3.29708 0
M  V30 9677 C 902.526 0.0325165 -4.37388 0
M  V30 9678 C 901.585 0.902859 -5.18396 0
M  V30 9679 O 900.611 0.355144 -5.68091 0
M  V30 9680 N 901.813 2.22542 -5.36149 0
M  V30 9681 H 904.578 -0.96709 -2.83668 0
M  V30 9682 H 902.139 -0.658043 -1.47924 0
M  V30 9683 H 904.131 1.37034 -3.80794 0
M  V30 9684 H 902.701 1.48339 -2.75162 0
M  V30 9685 H 901.921 -0.735057 -3.87286 0
M  V30 9686 H 903.209 -0.485499 -5.06478 0
M  V30 9687 H 902.607 2.69439 -4.97412 0
M  V30 9688 H 901.164 2.76113 -5.90428 0
M  V30 9689 N 904.597 1.47463 -0.556102 0
M  V30 9690 C 905.843 2.02775 -0.0316806 0
M  V30 9691 C 906.176 1.42967 1.3143 0
M  V30 9692 O 905.451 0.584847 1.85499 0
M  V30 9693 C 905.734 3.60046 0.0625742 0
M  V30 9694 C 905.587 4.30288 -1.31043 0
M  V30 9695 C 906.906 4.33195 0.776553 0
M  V30 9696 H 904.025 0.736886 -0.0129869 0
M  V30 9697 H 906.667 1.75904 -0.718177 0
M  V30 9698 H 904.817 3.83071 0.647231 0
M  V30 9699 H 906.489 4.18607 -1.9382 0
M  V30 9700 H 904.732 3.90685 -1.8854 0
M  V30 9701 H 905.403 5.38861 -1.1972 0
M  V30 9702 H 907.879 4.15156 0.280147 0
M  V30 9703 H 906.755 5.42869 0.81146 0
M  V30 9704 H 907.016 4.02336 1.83244 0
M  V30 9705 N 906.075 0.2925 1.54862 0
M  V30 9706 C 907.038 -0.574423 2.21885 0
M  V30 9707 C 908.038 -1.06791 1.20218 0
M  V30 9708 O 909.228 -0.9653 1.45009 0
M  V30 9709 C 906.36 -1.79438 2.89853 0
M  V30 9710 H 907.553 0.0110319 2.99898 0
M  V30 9711 H 905.106 0.043256 1.5624 0
M  V30 9712 H 905.841 -2.4199 2.15897 0
M  V30 9713 H 905.626 -1.44827 3.64373 0
M  V30 9714 H 907.116 -2.41048 3.41007 0
M  V30 9715 N 907.553 -1.57587 0.0200696 0
M  V30 9716 C 908.516 -2.08595 -0.949767 0
M  V30 9717 C 909.516 -0.999215 -1.25985 0
M  V30 9718 O 910.706 -1.26115 -1.2017 0
M  V30 9719 C 907.838 -2.54424 -2.26895 0
M  V30 9720 H 909.031 -2.95563 -0.508161 0
M  V30 9721 H 906.584 -1.54631 -0.227798 0
M  V30 9722 H 907.319 -1.70758 -2.75703 0
M  V30 9723 H 907.104 -3.3381 -2.05702 0
M  V30 9724 H 908.594 -2.94144 -2.96427 0
M  V30 9725 N 909.032 0.252966 -1.55557 0
M  V30 9726 C 910.309 1.00432 -1.67847 0
M  V30 9727 C 910.689 2.03587 -0.55816 0
M  V30 9728 O 910.037 2.24239 0.439197 0
M  V30 9729 C 910.247 1.64313 -3.079 0
M  V30 9730 C 911.595 2.14726 -3.66303 0
M  V30 9731 O 912.619 1.74264 -3.10661 0
M  V30 9732 O 911.478 2.89 -4.63833 0
M  V30 9733 H 908.572 0.467102 -0.682455 0
M  V30 9734 H 911.118 0.247233 -1.67889 0
M  V30 9735 H 909.89 0.896681 -3.80888 0
M  V30 9736 H 909.513 2.46657 -3.11843 0
M  V30 9737 N 910.51 1.48831 0.518367 0
M  V30 9738 C 911.473 1.63721 1.604 0
M  V30 9739 C 912.473 0.509857 1.52503 0
M  V30 9740 O 913.663 0.775922 1.55965 0
M  V30 9741 C 910.795 1.61831 3.00039 0
M  V30 9742 H 911.988 2.60534 1.48533 0
M  V30 9743 H 909.541 1.37602 0.741309 0
M  V30 9744 H 910.276 0.665387 3.17401 0
M  V30 9745 H 910.061 2.43686 3.0718 0
M  V30 9746 H 911.551 1.75467 3.78947 0
M  V30 9747 N 911.988 -0.768124 1.37614 0
M  V30 9748 C 912.898 -1.91249 1.35871 0
M  V30 9749 C 913.914 -1.7208 0.257786 0
M  V30 9750 O 915.09 -1.95253 0.493782 0
M  V30 9751 C 912.155 -3.26423 1.16829 0
M  V30 9752 C 911.216 -3.5822 2.36594 0
M  V30 9753 C 910.449 -4.86945 2.1845 0
M  V30 9754 O 910.672 -5.58258 1.17064 0
M  V30 9755 O 909.606 -5.17888 3.06718 0
M  V30 9756 H 913.432 -1.95671 2.32264 0
M  V30 9757 H 911.017 -0.911382 1.18382 0
M  V30 9758 H 912.899 -4.07269 1.08212 0
M  V30 9759 H 911.574 -3.22845 0.235123 0
M  V30 9760 H 910.481 -2.77594 2.50783 0
M  V30 9761 H 911.814 -3.66545 3.2849 0
M  V30 9762 N 913.466 -1.22244 -0.994698 0
M  V30 9763 C 914.743 -0.954459 -1.70732 0
M  V30 9764 C 915.123 0.530945 -2.04314 0
M  V30 9765 O 914.471 1.49851 -1.72502 0
M  V30 9766 C 914.681 -1.85016 -2.95922 0
M  V30 9767 C 916.029 -2.10517 -3.68738 0
M  V30 9768 O 917.053 -1.82449 -3.05926 0
M  V30 9769 O 915.912 -2.58044 -4.81742 0
M  V30 9770 H 913.006 -0.35879 -0.745116 0
M  V30 9771 H 915.552 -1.33221 -1.0512 0
M  V30 9772 H 914.324 -2.85498 -2.67594 0
M  V30 9773 H 913.947 -1.47388 -3.69273 0
M  V30 9774 N 914.944 1.19125 -1.03184 0
M  V30 9775 C 915.907 2.20662 -0.619766 0
M  V30 9776 C 916.907 1.57621 0.318179 0
M  V30 9777 O 918.097 1.73885 0.104783 0
M  V30 9778 C 915.229 3.40774 0.0926696 0
M  V30 9779 H 916.422 2.58633 -1.5182 0
M  V30 9780 H 913.975 1.32855 -0.823364 0
M  V30 9781 H 914.71 3.08324 1.00531 0
M  V30 9782 H 914.495 3.87766 -0.581344 0
M  V30 9783 H 915.985 4.15977 0.367792 0
M  V30 9784 N 916.422 0.810101 1.35185 0
M  V30 9785 C 917.67 0.391343 1.98275 0
M  V30 9786 C 917.991 -1.04592 1.64577 0
M  V30 9787 O 917.261 -1.72417 0.93001 0
M  V30 9788 H 915.841 0.141715 0.733434 0
M  V30 9789 H 918.503 1.03672 1.6504 0
M  V30 9790 H 917.599 0.49991 3.0807 0
M  V30 9791 N 917.9 -1.47166 0.563914 0
M  V30 9792 C 918.848 -2.31798 -0.193009 0
M  V30 9793 C 919.842 -1.43338 -0.902805 0
M  V30 9794 O 921.048 -1.60067 -0.823328 0
M  V30 9795 H 917.423 -0.747613 -0.0811139 0
M  V30 9796 H 919.394 -2.93476 0.539876 0
M  V30 9797 C 918.143 -3.26131 -1.20555 0
M  V30 9798 H 917.466 -3.94166 -0.668803 0
M  V30 9799 H 918.906 -3.88167 -1.70593 0
M  V30 9800 C 917.365 -2.50132 -2.25689 0
M  V30 9801 O 917.895 -2.25064 -3.3273 0
M  V30 9802 N 916.101 -2.11022 -1.99795 0
M  V30 9803 H 915.648 -2.3161 -1.1276 0
M  V30 9804 H 915.606 -1.60489 -2.70353 0
M  V30 9805 N 919.378 -0.300708 -1.54705 0
M  V30 9806 C 920.789 0.191995 -1.8571 0
M  V30 9807 C 921.14 1.53447 -1.22264 0
M  V30 9808 O 920.265 2.10054 -0.520226 0
M  V30 9809 C 920.86 0.355148 -3.36933 0
M  V30 9810 C 919.419 0.792071 -3.67972 0
M  V30 9811 C 918.566 -0.099756 -2.77121 0
M  V30 9812 H 921.517 -0.521729 -1.49879 0
M  V30 9813 H 921.538 1.18977 -3.61421 0
M  V30 9814 H 921.05 -0.622075 -3.83082 0
M  V30 9815 H 919.151 1.77986 -3.27341 0
M  V30 9816 H 919.264 0.611661 -4.75179 0
M  V30 9817 H 917.628 0.420909 -2.51198 0
M  V30 9818 H 918.411 -1.07333 -3.2609 0
M  V30 9819 N 920.856 1.57574 -0.0284266 0
M  V30 9820 C 922.104 1.91393 0.649079 0
M  V30 9821 C 922.425 0.905368 1.72708 0
M  V30 9822 O 921.695 -0.0532107 1.95828 0
M  V30 9823 H 920.275 0.70646 0.24274 0
M  V30 9824 H 922.937 1.94752 -0.076066 0
M  V30 9825 H 922.033 2.91988 1.10226 0
M  V30 9826 N 922.334 -0.244713 1.55689 0
M  V30 9827 C 923.611 -0.995407 1.68378 0
M  V30 9828 C 923.991 -2.03288 0.568949 0
M  V30 9829 O 923.339 -2.24469 -0.427299 0
M  V30 9830 C 923.549 -1.62678 3.08767 0
M  V30 9831 C 924.897 -2.1278 3.67437 0
M  V30 9832 O 925.921 -1.72614 3.11581 0
M  V30 9833 O 924.78 -2.86536 4.65359 0
M  V30 9834 H 921.874 -0.463476 0.684923 0
M  V30 9835 H 924.42 -0.238326 1.68018 0
M  V30 9836 H 923.192 -0.876469 3.81358 0
M  V30 9837 H 922.815 -2.45 3.13146 0
M  V30 9838 N 923.813 -1.49104 -0.510467 0
M  V30 9839 C 925.224 -1.51423 -1.09215 0
M  V30 9840 C 925.575 -0.295035 -1.93969 0
M  V30 9841 O 924.7 0.596064 -2.08029 0
M  V30 9842 C 925.295 -2.74387 -1.98739 0
M  V30 9843 C 923.854 -2.79515 -2.52088 0
M  V30 9844 C 923.001 -2.4521 -1.29488 0
M  V30 9845 H 925.952 -1.55938 -0.294807 0
M  V30 9846 H 925.973 -2.54012 -2.83298 0
M  V30 9847 H 925.485 -3.63105 -1.37026 0
M  V30 9848 H 923.586 -1.95054 -3.17466 0
M  V30 9849 H 923.699 -3.81447 -2.89887 0
M  V30 9850 H 922.063 -1.96785 -1.61703 0
M  V30 9851 H 922.846 -3.36192 -0.694978 0
M  V30 9852 N 925.291 0.760815 -1.38019 0
M  V30 9853 C 926.201 1.90526 -1.36884 0
M  V30 9854 C 927.217 1.71941 -0.266908 0
M  V30 9855 O 928.393 1.94988 -0.50413 0
M  V30 9856 C 925.458 3.25799 -1.18558 0
M  V30 9857 C 924.519 3.56961 -2.3849 0
M  V30 9858 C 923.752 4.8578 -2.21029 0
M  V30 9859 O 923.975 5.57629 -1.20023 0
M  V30 9860 O 922.909 5.16254 -3.0946 0
M  V30 9861 H 926.735 1.94437 -2.33298 0
M  V30 9862 H 924.32 0.905091 -1.18863 0
M  V30 9863 H 926.202 4.0669 -1.1037 0
M  V30 9864 H 924.877 3.22716 -0.252241 0
M  V30 9865 H 923.784 2.7626 -2.52252 0
M  V30 9866 H 925.117 3.64798 -3.30429 0
M  V30 9867 N 926.769 1.22769 0.988202 0
M  V30 9868 C 927.719 0.969202 2.06375 0
M  V30 9869 C 928.703 -0.0819274 1.60691 0
M  V30 9870 O 929.895 0.129201 1.76528 0
M  V30 9871 C 927.024 0.553919 3.38802 0
M  V30 9872 C 926.11 1.64003 3.91106 0
M  V30 9873 N 926.501 2.86872 4.16579 0
M  V30 9874 C 924.799 1.5128 4.1956 0
M  V30 9875 C 925.5 3.57137 4.5916 0
M  V30 9876 N 924.476 2.84624 4.63131 0
M  V30 9877 H 928.278 1.90247 2.24017 0
M  V30 9878 H 925.792 1.12592 1.17033 0
M  V30 9879 H 927.789 0.350033 4.15428 0
M  V30 9880 H 926.449 -0.37239 3.22558 0
M  V30 9881 H 927.46 3.23254 4.04632 0
M  V30 9882 H 924.137 0.653032 4.12361 0
M  V30 9883 H 925.527 4.62428 4.87452 0
M  V30 9884 N 928.247 -1.18576 1.03814 0
M  V30 9885 C 929.658 -1.70159 0.768299 0
M  V30 9886 C 930.009 -1.8286 -0.711106 0
M  V30 9887 O 929.134 -1.5063 -1.55369 0
M  V30 9888 C 929.729 -3.09062 1.38804 0
M  V30 9889 C 928.288 -3.57866 1.16656 0
M  V30 9890 C 927.435 -2.34484 1.48029 0
M  V30 9891 H 930.386 -1.03287 1.20488 0
M  V30 9892 H 930.407 -3.72211 0.7899 0
M  V30 9893 H 929.919 -2.99785 2.46476 0
M  V30 9894 H 928.02 -3.72442 0.108471 0
M  V30 9895 H 928.133 -4.41445 1.8618 0
M  V30 9896 H 926.497 -2.38273 0.899902 0
M  V30 9897 H 927.28 -2.27829 2.56805 0
M  V30 9898 N 929.725 -0.817259 -1.34754 0
M  V30 9899 C 930.635 -0.236946 -2.334 0
M  V30 9900 C 931.651 0.625685 -1.62361 0
M  V30 9901 O 932.827 0.534921 -1.94166 0
M  V30 9902 C 929.892 0.596215 -3.41535 0
M  V30 9903 C 928.953 -0.288154 -4.28332 0
M  V30 9904 C 928.186 0.505337 -5.31302 0
M  V30 9905 O 928.409 1.73912 -5.43241 0
M  V30 9906 O 927.343 -0.109374 -6.01801 0
M  V30 9907 H 931.169 -1.05327 -2.84851 0
M  V30 9908 H 928.754 -0.579275 -1.37713 0
M  V30 9909 H 930.636 1.07041 -4.07578 0
M  V30 9910 H 929.311 1.38997 -2.92338 0
M  V30 9911 H 928.218 -0.809724 -3.65232 0
M  V30 9912 H 929.551 -1.04612 -4.80955 0
M  V30 9913 N 931.203 1.46865 -0.571711 0
M  V30 9914 C 932.428 2.07323 -0.0564655 0
M  V30 9915 C 932.853 1.41938 1.23431 0
M  V30 9916 O 932.211 0.499334 1.74288 0
M  V30 9917 C 932.259 3.6044 0.107339 0
M  V30 9918 O 931.363 3.95558 1.1665 0
M  V30 9919 H 930.704 0.661475 -0.0578465 0
M  V30 9920 H 933.234 1.88669 -0.791524 0
M  V30 9921 H 933.244 4.06767 0.316987 0
M  V30 9922 H 931.919 4.07425 -0.835348 0
M  V30 9923 H 930.496 3.60957 0.936189 0
M  V30 9924 N 932.681 0.308908 1.54543 0
M  V30 9925 C 933.644 -0.550857 2.22482 0
M  V30 9926 C 934.644 -1.0551 1.21344 0
M  V30 9927 O 935.834 -0.949866 1.46025 0
M  V30 9928 C 932.966 -1.76354 2.9174 0
M  V30 9929 H 934.159 0.0428395 2.99869 0
M  V30 9930 H 931.712 0.059825 1.56185 0
M  V30 9931 H 932.447 -2.39686 2.18451 0
M  V30 9932 H 932.232 -1.40954 3.65889 0
M  V30 9933 H 933.722 -2.37417 3.43545 0
M  V30 9934 N 934.159 -1.57557 0.0367827 0
M  V30 9935 C 935.069 -2.14148 -0.958017 0
M  V30 9936 C 936.085 -1.09564 -1.35173 0
M  V30 9937 O 937.261 -1.4166 -1.43158 0
M  V30 9938 C 934.326 -2.6636 -2.21931 0
M  V30 9939 C 933.387 -3.85688 -1.8853 0
M  V30 9940 C 932.62 -4.35401 -3.08645 0
M  V30 9941 O 932.843 -3.8425 -4.21554 0
M  V30 9942 O 931.777 -5.27158 -2.90497 0
M  V30 9943 H 935.603 -2.99442 -0.506797 0
M  V30 9944 H 933.188 -1.48259 -0.184275 0
M  V30 9945 H 935.07 -2.99976 -2.9596 0
M  V30 9946 H 933.745 -1.84145 -2.66219 0
M  V30 9947 H 932.652 -3.56985 -1.11861 0
M  V30 9948 H 933.985 -4.69089 -1.49052 0
M  V30 9949 N 935.637 0.236453 -1.55816 0
M  V30 9950 C 936.885 0.96111 -1.77784 0
M  V30 9951 C 937.206 1.85454 -0.602648 0
M  V30 9952 O 936.476 1.92157 0.381137 0
M  V30 9953 H 935.056 0.35787 -0.655697 0
M  V30 9954 H 937.718 0.251888 -1.93265 0
M  V30 9955 H 936.814 1.5767 -2.69345 0
M  V30 9956 N 937.115 1.49373 0.502552 0
M  V30 9957 C 938.025 1.68659 1.63068 0
M  V30 9958 C 939.041 0.569182 1.64427 0
M  V30 9959 O 940.217 0.843695 1.82876 0
M  V30 9960 C 937.282 1.74745 2.99441 0
M  V30 9961 C 936.343 2.98311 3.08721 0
M  V30 9962 C 935.576 3.04097 4.38589 0
M  V30 9963 O 935.799 2.17519 5.27297 0
M  V30 9964 O 934.733 3.96544 4.52809 0
M  V30 9965 H 938.559 2.64226 1.49727 0
M  V30 9966 H 936.144 1.33096 0.67867 0
M  V30 9967 H 938.026 1.8111 3.80496 0
M  V30 9968 H 936.701 0.823565 3.13048 0
M  V30 9969 H 935.608 2.97465 2.2686 0
M  V30 9970 H 936.941 3.90174 3.00041 0
M  V30 9971 N 938.594 -0.753485 1.38421 0
M  V30 9972 C 939.842 -1.50962 1.34368 0
M  V30 9973 C 940.163 -1.94889 -0.0656895 0
M  V30 9974 O 939.433 -1.67652 -1.01339 0
M  V30 9975 H 938.013 -0.559967 0.494415 0
M  V30 9976 H 940.675 -0.895665 1.73101 0
M  V30 9977 H 939.771 -2.40048 1.99458 0
M  V30 9978 N 940.072 -1.23292 -0.981677 0
M  V30 9979 C 941.297 -1.09176 -1.76339 0
M  V30 9980 C 941.722 0.352726 -1.84763 0
M  V30 9981 O 941.08 1.25509 -1.30832 0
M  V30 9982 C 941.128 -1.72046 -3.16911 0
M  V30 9983 O 940.232 -0.98174 -4.00544 0
M  V30 9984 H 939.573 -0.382755 -0.542581 0
M  V30 9985 H 942.103 -1.63319 -1.23239 0
M  V30 9986 H 942.113 -1.77232 -3.67495 0
M  V30 9987 H 940.788 -2.77154 -3.10095 0
M  V30 9988 H 939.365 -1.00672 -3.59054 0
M  V30 9989 N 941.55 1.18024 -1.04442 0
M  V30 9990 C 942.799 1.8743 -0.745185 0
M  V30 9991 C 943.112 1.81459 0.730206 0
M  V30 9992 O 944.318 2.46263 1.1431 0
M  V30 9993 C 942.774 3.36266 -1.28271 0
M  V30 9994 C 942.382 3.50757 -2.787 0
M  V30 9995 C 944.126 4.11048 -1.06018 0
M  V30 9996 C 942.033 4.93573 -3.25791 0
M  V30 9997 H 940.963 0.702038 -0.27506 0
M  V30 9998 H 943.614 1.33333 -1.26073 0
M  V30 9999 H 941.996 3.89853 -0.695002 0
M  V30 10000 H 943.17 3.07423 -3.43261 0
M  V30 10001 H 941.485 2.89385 -2.99408 0
M  V30 10002 H 944.082 5.16395 -1.38711 0
M  V30 10003 H 944.425 4.163 0.00241716 0
M  V30 10004 H 944.958 3.63644 -1.61269 0
M  V30 10005 H 941.697 4.93491 -4.31447 0
M  V30 10006 H 941.217 5.37607 -2.65968 0
M  V30 10007 H 942.896 5.62307 -3.20031 0
M  V30 10008 N 943.028 0.824394 1.34319 0
M  V30 10009 C 943.938 0.24932 2.33271 0
M  V30 10010 C 944.954 -0.617066 1.62691 0
M  V30 10011 O 946.13 -0.524616 1.94447 0
M  V30 10012 C 943.195 -0.578094 3.41846 0
M  V30 10013 C 942.256 0.310866 4.28173 0
M  V30 10014 C 941.489 -0.477153 5.31563 0
M  V30 10015 O 941.712 -1.71028 5.44156 0
M  V30 10016 O 940.646 0.141287 6.01734 0
M  V30 10017 H 944.472 1.06837 2.84288 0
M  V30 10018 H 942.057 0.58657 1.37403 0
M  V30 10019 H 943.939 -1.04878 4.0814 0
M  V30 10020 H 942.614 -1.37444 2.93071 0
M  V30 10021 H 941.521 0.829081 3.64797 0
M  V30 10022 H 942.854 1.07161 4.80393 0
M  V30 10023 N 944.506 -1.46559 0.579492 0
M  V30 10024 C 945.469 -2.28739 -0.145371 0
M  V30 10025 C 946.469 -1.38211 -0.821854 0
M  V30 10026 O 947.659 -1.6062 -0.674302 0
M  V30 10027 C 944.791 -3.18507 -1.21515 0
M  V30 10028 H 945.984 -2.94301 0.576786 0
M  V30 10029 H 943.537 -1.52616 0.337327 0
M  V30 10030 H 944.272 -2.57685 -1.96899 0
M  V30 10031 H 944.057 -3.85157 -0.734616 0
M  V30 10032 H 945.547 -3.80369 -1.72363 0
M  V30 10033 N 945.984 -0.3171 -1.54377 0
M  V30 10034 C 946.916 0.58571 -2.2159 0
M  V30 10035 C 947.929 1.08495 -1.21378 0
M  V30 10036 O 949.118 0.999638 -1.47883 0
M  V30 10037 C 946.218 1.8157 -2.86156 0
M  V30 10038 C 945.391 1.45625 -4.12447 0
M  V30 10039 C 944.45 2.54308 -4.60667 0
M  V30 10040 O 943.476 2.18724 -5.25498 0
M  V30 10041 N 944.678 3.85129 -4.34345 0
M  V30 10042 H 947.443 0.0102247 -2.99698 0
M  V30 10043 H 945.004 -0.140011 -1.61293 0
M  V30 10044 H 946.996 2.53657 -3.15341 0
M  V30 10045 H 945.566 2.29919 -2.11793 0
M  V30 10046 H 944.786 0.567294 -3.90097 0
M  V30 10047 H 946.074 1.19169 -4.94648 0
M  V30 10048 H 945.472 4.16841 -3.8244 0
M  V30 10049 H 944.029 4.53466 -4.68201 0
M  V30 10050 N 947.462 1.57535 -0.0451378 0
M  V30 10051 C 948.394 2.08109 0.960372 0
M  V30 10052 C 949.407 1.0077 1.27864 0
M  V30 10053 O 950.596 1.28351 1.24049 0
M  V30 10054 C 947.696 2.50414 2.28355 0
M  V30 10055 C 946.869 3.8102 2.14808 0
M  V30 10056 C 945.928 4.09702 3.30198 0
M  V30 10057 O 944.954 4.79715 3.0637 0
M  V30 10058 N 946.156 3.61138 4.54489 0
M  V30 10059 H 948.921 2.94999 0.528752 0
M  V30 10060 H 946.482 1.61283 0.141248 0
M  V30 10061 H 948.474 2.66683 3.04405 0
M  V30 10062 H 947.044 1.68805 2.63104 0
M  V30 10063 H 946.264 3.74392 1.23387 0
M  V30 10064 H 947.552 4.66559 2.02978 0
M  V30 10065 H 946.95 3.04527 4.76739 0
M  V30 10066 H 945.507 3.82656 5.27653 0
M  V30 10067 N 948.94 -0.228186 1.55939 0
M  V30 10068 C 950.186 -0.954964 1.78909 0
M  V30 10069 C 950.519 -1.8425 0.613648 0
M  V30 10070 O 949.794 -1.90604 -0.38737 0
M  V30 10071 C 950.077 -1.79957 3.1191 0
M  V30 10072 C 949.93 -0.938968 4.3989 0
M  V30 10073 C 951.249 -2.77859 3.41295 0
M  V30 10074 H 948.368 -0.345745 0.650868 0
M  V30 10075 H 951.01 -0.224244 1.88672 0
M  V30 10076 H 949.16 -2.42256 3.03717 0
M  V30 10077 H 950.832 -0.333225 4.60095 0
M  V30 10078 H 949.075 -0.244096 4.33113 0
M  V30 10079 H 949.746 -1.56416 5.29375 0
M  V30 10080 H 952.222 -2.25695 3.49572 0
M  V30 10081 H 951.098 -3.34062 4.35538 0
M  V30 10082 H 951.359 -3.55266 2.63132 0
M  V30 10083 N 950.418 -1.49637 -0.494624 0
M  V30 10084 C 951.381 -1.66252 -1.57775 0
M  V30 10085 C 952.381 -0.534054 -1.51672 0
M  V30 10086 O 953.571 -0.800637 -1.54711 0
M  V30 10087 C 950.703 -1.66584 -2.97426 0
M  V30 10088 H 951.896 -2.62864 -1.4437 0
M  V30 10089 H 949.449 -1.38764 -0.719323 0
M  V30 10090 H 950.184 -0.715798 -3.16302 0
M  V30 10091 H 949.969 -2.48543 -3.03264 0
M  V30 10092 H 951.459 -1.81474 -3.76108 0
M  V30 10093 N 951.896 0.746133 -1.38819 0
M  V30 10094 C 952.859 1.84167 -1.36437 0
M  V30 10095 C 953.859 1.58626 -0.263499 0
M  V30 10096 O 955.049 1.66233 -0.520801 0
M  V30 10097 C 952.181 3.21769 -1.12596 0
M  V30 10098 H 953.374 1.87684 -2.33912 0
M  V30 10099 H 950.927 0.948625 -1.24221 0
M  V30 10100 H 951.662 3.23917 -0.15758 0
M  V30 10101 H 951.447 3.41702 -1.92307 0
M  V30 10102 H 952.937 4.0184 -1.13643 0
M  V30 10103 N 953.375 1.23811 0.975125 0
M  V30 10104 C 954.322 1.02394 2.06843 0
M  V30 10105 C 955.292 -0.060337 1.6599 0
M  V30 10106 O 956.477 0.0928187 1.90574 0
M  V30 10107 C 953.617 0.626882 3.39359 0
M  V30 10108 C 952.73 1.78385 3.9345 0
M  V30 10109 C 951.865 1.33307 5.14201 0
M  V30 10110 C 950.904 2.46045 5.60471 0
M  V30 10111 N 950.041 2.01888 6.72448 0
M  V30 10112 H 954.881 1.95973 2.24496 0
M  V30 10113 H 952.418 0.976206 1.10039 0
M  V30 10114 H 954.376 0.377742 4.15486 0
M  V30 10115 H 953.006 -0.271907 3.21653 0
M  V30 10116 H 952.058 2.14685 3.14029 0
M  V30 10117 H 953.37 2.63122 4.23755 0
M  V30 10118 H 952.524 1.04237 5.97678 0
M  V30 10119 H 951.263 0.456143 4.85562 0
M  V30 10120 H 950.268 2.75884 4.75571 0
M  V30 10121 H 951.493 3.34283 5.91127 0
M  V30 10122 H 949.439 1.16583 6.45558 0
M  V30 10123 H 949.356 2.80182 7.02164 0
M  V30 10124 H 950.624 1.75937 7.59386 0
M  V30 10125 N 954.853 -1.17469 1.05066 0
M  V30 10126 C 955.816 -2.19648 0.654793 0
M  V30 10127 C 956.816 -1.58107 -0.293063 0
M  V30 10128 O 958.006 -1.74029 -0.077106 0
M  V30 10129 C 955.138 -3.40878 -0.0384437 0
M  V30 10130 H 956.331 -2.56184 1.55915 0
M  V30 10131 H 953.884 -1.31528 0.844396 0
M  V30 10132 H 954.619 -3.09885 -0.956133 0
M  V30 10133 H 954.404 -3.86792 0.642961 0
M  V30 10134 H 955.894 -4.1651 -0.301568 0
M  V30 10135 N 956.331 -0.831506 -1.3388 0
M  V30 10136 C 957.263 -0.216908 -2.28171 0
M  V30 10137 C 958.276 0.598141 -1.51414 0
M  V30 10138 O 959.465 0.426416 -1.73332 0
M  V30 10139 C 956.565 0.713831 -3.31297 0
M  V30 10140 C 955.738 -0.0602673 -4.37358 0
M  V30 10141 C 954.797 0.792696 -5.20195 0
M  V30 10142 O 953.823 0.234564 -5.68716 0
M  V30 10143 N 955.025 2.11119 -5.40748 0
M  V30 10144 H 957.79 -1.02704 -2.81553 0
M  V30 10145 H 955.351 -0.689272 -1.46495 0
M  V30 10146 H 957.343 1.28925 -3.83615 0
M  V30 10147 H 955.913 1.42469 -2.78247 0
M  V30 10148 H 955.133 -0.817041 -3.8564 0
M  V30 10149 H 956.421 -0.592822 -5.05335 0
M  V30 10150 H 955.819 2.58828 -5.03016 0
M  V30 10151 H 954.376 2.63527 -5.96151 0
M  V30 10152 N 957.809 1.4625 -0.587256 0
M  V30 10153 C 959.037 2.06744 -0.08033 0
M  V30 10154 C 959.452 1.43527 1.2266 0
M  V30 10155 O 958.809 0.542168 1.74261 0
M  V30 10156 C 958.86 3.61394 0.0873469 0
M  V30 10157 O 958.581 4.22247 -1.16785 0
M  V30 10158 C 960.082 4.38828 0.628095 0
M  V30 10159 H 957.302 0.668354 -0.0595301 0
M  V30 10160 H 959.846 1.87808 -0.809217 0
M  V30 10161 H 958.001 3.79742 0.766473 0
M  V30 10162 H 958.415 5.15176 -0.984565 0
M  V30 10163 H 959.889 5.47613 0.694583 0
M  V30 10164 H 960.366 4.07188 1.64606 0
M  V30 10165 H 960.972 4.25297 -0.0163115 0
M  V30 10166 N 959.287 0.325282 1.54207 0
M  V30 10167 C 960.515 -0.27869 2.05014 0
M  V30 10168 C 960.93 -1.45649 1.20133 0
M  V30 10169 O 960.287 -1.81014 0.232398 0
M  V30 10170 C 960.338 -0.711486 3.54429 0
M  V30 10171 O 960.059 0.419458 4.36087 0
M  V30 10172 C 961.56 -1.37809 4.21336 0
M  V30 10173 H 958.78 -0.0570388 0.668571 0
M  V30 10174 H 961.324 0.47197 1.98979 0
M  V30 10175 H 959.479 -1.41212 3.60746 0
M  V30 10176 H 959.893 0.0781037 5.24442 0
M  V30 10177 H 961.367 -1.63184 5.27328 0
M  V30 10178 H 961.844 -2.32593 3.72555 0
M  V30 10179 H 962.45 -0.719987 4.19161 0
M  V30 10180 N 960.765 -1.57509 0.0534917 0
M  V30 10181 C 962.012 -1.92782 -0.619772 0
M  V30 10182 C 962.34 -0.932046 -1.70714 0
M  V30 10183 O 961.595 0.0552891 -1.95622 0
M  V30 10184 C 961.894 -3.34734 -1.25251 0
M  V30 10185 C 961.56 -4.49946 -0.293113 0
M  V30 10186 C 960.222 -4.81191 -0.0291223 0
M  V30 10187 C 962.574 -5.19925 0.364271 0
M  V30 10188 C 959.902 -5.79761 0.899649 0
M  V30 10189 C 962.254 -6.19489 1.28125 0
M  V30 10190 C 960.918 -6.49161 1.55389 0
M  V30 10191 H 960.188 -0.705441 -0.226791 0
M  V30 10192 H 962.835 -1.91121 0.120466 0
M  V30 10193 H 961.14 -3.32774 -2.06807 0
M  V30 10194 H 962.837 -3.59308 -1.78042 0
M  V30 10195 H 959.427 -4.25566 -0.509053 0
M  V30 10196 H 963.611 -4.95997 0.173411 0
M  V30 10197 H 958.867 -6.01085 1.11833 0
M  V30 10198 H 963.041 -6.72824 1.79669 0
M  V30 10199 H 960.668 -7.25354 2.2752 0
M  V30 10200 N 962.243 0.219913 -1.56058 0
M  V30 10201 C 963.153 1.29349 -1.95719 0
M  V30 10202 C 964.169 1.5119 -0.861248 0
M  V30 10203 O 965.345 1.64289 -1.16495 0
M  V30 10204 C 962.41 2.6229 -2.26726 0
M  V30 10205 C 961.471 2.48738 -3.49897 0
M  V30 10206 C 960.704 3.75339 -3.79416 0
M  V30 10207 O 960.927 4.78427 -3.10586 0
M  V30 10208 O 959.861 3.72352 -4.72903 0
M  V30 10209 H 963.687 0.986979 -2.87215 0
M  V30 10210 H 961.272 0.42291 -1.43289 0
M  V30 10211 H 963.154 3.408 -2.47857 0
M  V30 10212 H 961.829 2.92619 -1.38404 0
M  V30 10213 H 960.736 1.68422 -3.34043 0
M  V30 10214 H 962.069 2.23347 -4.38608 0
M  V30 10215 N 963.721 1.49897 0.486681 0
M  V30 10216 C 965.132 1.53142 1.06792 0
M  V30 10217 C 965.483 0.325856 1.93475 0
M  V30 10218 O 964.608 -0.562893 2.08951 0
M  V30 10219 C 965.203 2.77514 1.94348 0
M  V30 10220 C 963.762 2.83491 2.47609 0
M  V30 10221 C 962.909 2.47239 1.2557 0
M  V30 10222 H 965.86 1.56387 0.269962 0
M  V30 10223 H 965.881 2.58487 2.79221 0
M  V30 10224 H 965.393 3.65239 1.31232 0
M  V30 10225 H 963.494 2.0008 3.14323 0
M  V30 10226 H 963.607 3.86011 2.83782 0
M  V30 10227 H 961.971 1.99332 1.58552 0
M  V30 10228 H 962.754 3.37255 0.641404 0
M  V30 10229 N 965.199 -0.738761 1.39212 0
M  V30 10230 C 966.427 -1.52801 1.39497 0
M  V30 10231 C 966.842 -1.88797 -0.0114917 0
M  V30 10232 O 966.199 -1.53835 -0.981887 0
M  V30 10233 C 966.25 -2.81793 2.2644 0
M  V30 10234 O 965.971 -2.47328 3.61608 0
M  V30 10235 C 967.472 -3.75844 2.35067 0
M  V30 10236 H 964.692 -0.472322 0.476606 0
M  V30 10237 H 967.236 -0.913153 1.8298 0
M  V30 10238 H 965.391 -3.3962 1.8638 0
M  V30 10239 H 965.805 -3.30162 4.07545 0
M  V30 10240 H 967.279 -4.6326 3.00157 0
M  V30 10241 H 967.756 -4.17329 1.3687 0
M  V30 10242 H 968.362 -3.23937 2.75581 0
M  V30 10243 N 966.677 -1.24326 -0.968545 0
M  V30 10244 C 968.088 -1.07561 -1.52603 0
M  V30 10245 C 968.439 0.353245 -1.92994 0
M  V30 10246 O 967.564 1.24151 -1.77244 0
M  V30 10247 C 968.159 -1.94634 -2.77314 0
M  V30 10248 C 966.718 -1.82095 -3.29421 0
M  V30 10249 C 965.865 -1.8962 -2.02335 0
M  V30 10250 H 968.816 -1.37815 -0.786932 0
M  V30 10251 H 968.837 -1.47812 -3.50616 0
M  V30 10252 H 968.349 -2.98621 -2.47885 0
M  V30 10253 H 966.45 -0.809376 -3.63703 0
M  V30 10254 H 966.563 -2.66142 -3.98378 0
M  V30 10255 H 964.927 -1.33339 -2.17009 0
M  V30 10256 H 965.71 -2.95185 -1.75273 0
M  V30 10257 N 968.156 1.1691 -1.05688 0
M  V30 10258 C 969.119 2.19297 -0.666433 0
M  V30 10259 C 970.119 1.5826 0.284674 0
M  V30 10260 O 971.309 1.74068 0.0678757 0
M  V30 10261 C 968.441 3.40894 0.0203656 0
M  V30 10262 H 969.634 2.55354 -1.57272 0
M  V30 10263 H 967.187 1.31078 -0.851359 0
M  V30 10264 H 967.922 3.10388 0.939686 0
M  V30 10265 H 967.707 3.86446 -0.663464 0
M  V30 10266 H 969.197 4.16664 0.279475 0
M  V30 10267 N 969.634 0.838594 1.33437 0
M  V30 10268 C 970.544 0.274048 2.32994 0
M  V30 10269 C 971.56 -0.599776 1.63336 0
M  V30 10270 O 972.736 -0.503963 1.94993 0
M  V30 10271 C 969.801 -0.541804 3.4244 0
M  V30 10272 C 968.862 0.356262 4.27819 0
M  V30 10273 C 968.095 -0.420747 5.32039 0
M  V30 10274 O 968.318 -1.65247 5.45939 0
M  V30 10275 O 967.252 0.205101 6.0155 0
M  V30 10276 H 971.078 1.09846 2.83139 0
M  V30 10277 H 968.663 0.601111 1.36774 0
M  V30 10278 H 970.545 -1.00544 4.0923 0
M  V30 10279 H 969.22 -1.34328 2.94513 0
M  V30 10280 H 968.127 0.867726 3.63897 0
M  V30 10281 H 969.46 1.1225 4.79229 0
M  V30 10282 N 971.112 -1.45937 0.595003 0
M  V30 10283 C 972.528 -1.57507 0.257641 0
M  V30 10284 C 972.728 -1.58829 -1.23998 0
M  V30 10285 O 971.784 -1.51183 -2.02237 0
M  V30 10286 C 973.097 -2.86354 0.917708 0
M  V30 10287 C 974.645 -3.00007 0.892446 0
M  V30 10288 C 975.12 -4.31607 1.53229 0
M  V30 10289 N 976.611 -4.38336 1.49719 0
M  V30 10290 C 977.346 -5.38805 1.96154 0
M  V30 10291 N 976.842 -6.45882 2.50617 0
M  V30 10292 N 978.635 -5.30084 1.86997 0
M  V30 10293 H 970.786 -1.43322 1.56756 0
M  V30 10294 H 973.049 -0.684436 0.655936 0
M  V30 10295 H 972.755 -2.91233 1.97171 0
M  V30 10296 H 972.629 -3.74703 0.433344 0
M  V30 10297 H 975.016 -2.94703 -0.152975 0
M  V30 10298 H 975.097 -2.13103 1.41495 0
M  V30 10299 H 974.741 -4.3767 2.57697 0
M  V30 10300 H 974.671 -5.17308 0.984903 0
M  V30 10301 H 977.162 -3.6156 1.09921 0
M  V30 10302 H 977.475 -7.18774 2.83874 0
M  V30 10303 H 975.82 -6.46668 2.54649 0
M  V30 10304 H 979.011 -4.45337 1.44196 0
M  V30 10305 H 979.184 -6.08237 2.23499 0
M  V30 10306 N 972.59 -0.333456 -1.54032 0
M  V30 10307 C 973.839 0.267081 -1.99924 0
M  V30 10308 C 974.152 1.52463 -1.22534 0
M  V30 10309 O 975.358 2.20178 -1.58852 0
M  V30 10310 C 973.814 0.526456 -3.56029 0
M  V30 10311 C 973.422 -0.714607 -4.42264 0
M  V30 10312 C 975.166 1.0864 -4.10363 0
M  V30 10313 C 973.073 -0.42659 -5.89859 0
M  V30 10314 H 972.003 0.103577 -0.746852 0
M  V30 10315 H 974.654 -0.447218 -1.77967 0
M  V30 10316 H 973.036 1.3012 -3.74012 0
M  V30 10317 H 974.21 -1.48968 -4.36056 0
M  V30 10318 H 972.525 -1.19547 -3.9887 0
M  V30 10319 H 975.122 1.31668 -5.18235 0
M  V30 10320 H 975.465 2.03884 -3.62956 0
M  V30 10321 H 975.998 0.37261 -3.96051 0
M  V30 10322 H 972.737 -1.34847 -6.4148 0
M  V30 10323 H 972.257 0.310588 -5.98995 0
M  V30 10324 H 973.936 -0.0400807 -6.46988 0
M  V30 10325 N 974.068 1.57479 -0.061844 0
M  V30 10326 C 975.317 1.92285 0.609055 0
M  V30 10327 C 975.63 0.942983 1.71369 0
M  V30 10328 O 976.836 1.18349 2.44348 0
M  V30 10329 C 975.292 3.41545 1.13468 0
M  V30 10330 C 974.9 4.47958 0.0615926 0
M  V30 10331 C 976.644 3.85368 1.78022 0
M  V30 10332 C 974.551 5.88341 0.600705 0
M  V30 10333 H 973.481 0.717656 0.23127 0
M  V30 10334 H 976.132 1.83021 -0.132466 0
M  V30 10335 H 974.514 3.45848 1.92886 0
M  V30 10336 H 975.688 4.55258 -0.712527 0
M  V30 10337 H 974.003 4.13541 -0.487116 0
M  V30 10338 H 976.6 4.87627 2.19371 0
M  V30 10339 H 976.943 3.22193 2.63623 0
M  V30 10340 H 977.476 3.83626 1.05242 0
M  V30 10341 H 974.215 6.55138 -0.217922 0
M  V30 10342 H 973.735 5.84581 1.34257 0
M  V30 10343 H 975.414 6.37918 1.08025 0
M  V30 10344 N 975.546 -0.211634 1.56173 0
M  V30 10345 C 976.823 -0.959467 1.70451 0
M  V30 10346 C 977.203 -2.02036 0.611942 0
M  V30 10347 O 976.551 -2.25325 -0.37959 0
M  V30 10348 C 976.761 -1.56092 3.12148 0
M  V30 10349 C 978.109 -2.04939 3.71867 0
M  V30 10350 O 979.133 -1.65966 3.15172 0
M  V30 10351 O 977.992 -2.766 4.71333 0
M  V30 10352 H 975.086 -0.448844 0.6946 0
M  V30 10353 H 977.632 -0.202633 1.68486 0
M  V30 10354 H 976.404 -0.79538 3.83131 0
M  V30 10355 H 976.027 -2.38303 3.18273 0
M  V30 10356 N 977.024 -1.50153 -0.478725 0
M  V30 10357 C 977.987 -1.67916 -1.56003 0
M  V30 10358 C 978.987 -0.550111 -1.51097 0
M  V30 10359 O 980.177 -0.817001 -1.53853 0
M  V30 10360 C 977.309 -1.6973 -2.95643 0
M  V30 10361 H 978.502 -2.6438 -1.41573 0
M  V30 10362 H 976.055 -1.39519 -0.704565 0
M  V30 10363 H 976.79 -0.749306 -3.15525 0
M  V30 10364 H 976.575 -2.51745 -3.00611 0
M  V30 10365 H 978.065 -1.85453 -3.74162 0
M  V30 10366 N 978.502 0.731368 -1.39602 0
M  V30 10367 C 979.918 1.03739 -1.21286 0
M  V30 10368 C 980.118 2.01353 -0.0769875 0
M  V30 10369 O 979.174 2.45978 0.570193 0
M  V30 10370 C 980.487 1.59621 -2.54837 0
M  V30 10371 C 982.035 1.71683 -2.61713 0
M  V30 10372 C 982.51 2.30973 -3.95494 0
M  V30 10373 N 984.001 2.38378 -3.97153 0
M  V30 10374 C 984.736 2.852 -4.97442 0
M  V30 10375 N 984.232 3.31891 -6.08129 0
M  V30 10376 N 986.025 2.84441 -4.84819 0
M  V30 10377 H 978.176 0.0840456 -2.12234 0
M  V30 10378 H 980.439 0.0999038 -0.942721 0
M  V30 10379 H 980.145 0.953608 -3.38525 0
M  V30 10380 H 980.019 2.58375 -2.74813 0
M  V30 10381 H 982.406 2.35064 -1.78406 0
M  V30 10382 H 982.487 0.715714 -2.45583 0
M  V30 10383 H 982.131 1.68219 -4.79234 0
M  V30 10384 H 982.061 3.31769 -4.08946 0
M  V30 10385 H 984.552 2.05382 -3.17217 0
M  V30 10386 H 984.865 3.66138 -6.8056 0
M  V30 10387 H 983.21 3.2989 -6.11717 0
M  V30 10388 H 986.401 2.4729 -3.97448 0
M  V30 10389 H 986.574 3.20616 -5.63124 0
M  V30 10390 N 979.98 1.24838 0.961938 0
M  V30 10391 C 981.208 1.11871 1.74047 0
M  V30 10392 C 981.623 -0.328209 1.85925 0
M  V30 10393 O 980.98 -1.22616 1.35173 0
M  V30 10394 C 981.031 1.75931 3.15801 0
M  V30 10395 O 980.752 3.14967 3.04512 0
M  V30 10396 C 982.253 1.68649 4.09966 0
M  V30 10397 H 979.473 0.390569 0.545616 0
M  V30 10398 H 982.017 1.65058 1.20732 0
M  V30 10399 H 980.172 1.26733 3.66084 0
M  V30 10400 H 980.586 3.46349 3.93882 0
M  V30 10401 H 982.06 2.18144 5.07067 0
M  V30 10402 H 982.537 0.648831 4.34381 0
M  V30 10403 H 983.143 2.17301 3.65596 0
M  V30 10404 N 981.458 -1.16348 1.06306 0
M  V30 10405 C 982.421 -2.18941 0.678053 0
M  V30 10406 C 983.421 -1.58409 -0.276277 0
M  V30 10407 O 984.611 -1.74101 -0.0586435 0
M  V30 10408 C 981.743 -3.409 -0.00228684 0
M  V30 10409 H 982.936 -2.54516 1.58624 0
M  V30 10410 H 980.489 -1.30625 0.858298 0
M  V30 10411 H 981.224 -3.10881 -0.923212 0
M  V30 10412 H 981.009 -3.86089 0.683949 0
M  V30 10413 H 982.499 -4.16806 -0.257374 0
M  V30 10414 N 982.937 -0.845659 -1.3299 0
M  V30 10415 C 984.167 -0.457686 -2.01467 0
M  V30 10416 C 984.575 0.947664 -1.63756 0
M  V30 10417 O 983.918 1.62841 -0.850213 0
M  V30 10418 C 983.98 -0.506589 -3.55913 0
M  V30 10419 C 983.644 -1.86924 -4.17023 0
M  V30 10420 C 984.641 -2.83344 -4.35904 0
M  V30 10421 C 982.326 -2.16394 -4.53298 0
M  V30 10422 C 984.32 -4.07391 -4.90216 0
M  V30 10423 C 982.007 -3.40695 -5.07316 0
M  V30 10424 C 983.005 -4.3601 -5.25722 0
M  V30 10425 O 982.693 -5.58112 -5.7859 0
M  V30 10426 H 982.425 -0.179258 -0.651799 0
M  V30 10427 H 984.979 -1.14172 -1.70745 0
M  V30 10428 H 983.209 0.234253 -3.8599 0
M  V30 10429 H 984.898 -0.135487 -4.05674 0
M  V30 10430 H 985.664 -2.61879 -4.08221 0
M  V30 10431 H 981.543 -1.42994 -4.38262 0
M  V30 10432 H 985.087 -4.81796 -5.04498 0
M  V30 10433 H 980.984 -3.62014 -5.3443 0
M  V30 10434 H 981.752 -5.59946 -5.96995 0
M  V30 10435 N 984.415 1.45619 -0.602734 0
M  V30 10436 C 985.664 2.01483 -0.0936395 0
M  V30 10437 C 985.977 1.47753 1.28173 0
M  V30 10438 O 987.183 1.95562 1.88329 0
M  V30 10439 C 985.639 3.59711 -0.116738 0
M  V30 10440 C 985.247 4.22437 -1.49166 0
M  V30 10441 C 986.991 4.23157 0.337368 0
M  V30 10442 C 984.898 5.72803 -1.47141 0
M  V30 10443 H 983.828 0.753353 -0.0312382 0
M  V30 10444 H 986.479 1.67142 -0.757347 0
M  V30 10445 H 984.861 3.91218 0.613529 0
M  V30 10446 H 986.035 4.02511 -2.24325 0
M  V30 10447 H 984.35 3.71166 -1.88746 0
M  V30 10448 H 986.947 5.33407 0.371628 0
M  V30 10449 H 987.29 3.93491 1.35906 0
M  V30 10450 H 987.823 3.96349 -0.339474 0
M  V30 10451 H 984.562 6.07161 -2.47055 0
M  V30 10452 H 984.082 5.94936 -0.762329 0
M  V30 10453 H 985.761 6.35907 -1.19294 0
M  V30 10454 N 985.893 0.34162 1.53853 0
M  V30 10455 C 986.826 -0.559051 2.21246 0
M  V30 10456 C 987.804 -1.10179 1.1958 0
M  V30 10457 O 988.988 -1.16242 1.48392 0
M  V30 10458 C 986.115 -1.7689 2.88838 0
M  V30 10459 C 985.161 -1.3558 4.04377 0
M  V30 10460 S 985.994 -0.377225 5.3417 0
M  V30 10461 C 987.15 -1.59395 6.05264 0
M  V30 10462 H 987.383 0.013373 2.97297 0
M  V30 10463 H 984.916 0.125694 1.53888 0
M  V30 10464 H 986.874 -2.463 3.284 0
M  V30 10465 H 985.535 -2.31254 2.12557 0
M  V30 10466 H 984.728 -2.25781 4.50599 0
M  V30 10467 H 984.33 -0.741197 3.66582 0
M  V30 10468 H 986.622 -2.52872 6.2854 0
M  V30 10469 H 987.565 -1.17356 6.98307 0
M  V30 10470 H 987.973 -1.78913 5.35397 0
M  V30 10471 N 987.371 -1.57444 0.0701946 0
M  V30 10472 C 988.599 -1.97754 -0.608358 0
M  V30 10473 C 989.014 -0.948496 -1.63245 0
M  V30 10474 O 988.371 0.065046 -1.82384 0
M  V30 10475 C 988.422 -3.38142 -1.27836 0
M  V30 10476 O 988.143 -4.37104 -0.295255 0
M  V30 10477 C 989.644 -3.93318 -2.04489 0
M  V30 10478 H 986.864 -0.650398 -0.164997 0
M  V30 10479 H 989.408 -2.04006 0.142124 0
M  V30 10480 H 987.563 -3.32982 -1.97994 0
M  V30 10481 H 987.977 -5.18732 -0.77574 0
M  V30 10482 H 989.451 -4.93774 -2.46762 0
M  V30 10483 H 989.928 -3.29774 -2.90079 0
M  V30 10484 H 990.534 -4.01875 -1.39201 0
M  V30 10485 N 988.849 0.203349 -1.56283 0
M  V30 10486 C 990.074 0.945548 -1.84592 0
M  V30 10487 C 990.499 1.7641 -0.652772 0
M  V30 10488 O 989.857 1.76867 0.398468 0
M  V30 10489 C 989.905 1.82416 -3.11057 0
M  V30 10490 O 989.009 2.92191 -2.9103 0
M  V30 10491 H 988.35 0.266739 -0.608068 0
M  V30 10492 H 990.88 0.211158 -2.03507 0
M  V30 10493 H 990.89 2.23044 -3.41636 0
M  V30 10494 H 989.565 1.22267 -3.97522 0
M  V30 10495 H 988.142 2.55378 -2.71728 0
M  V30 10496 N 990.327 1.50405 0.470755 0
M  V30 10497 C 991.26 1.63933 1.58749 0
M  V30 10498 C 992.238 0.487444 1.55122 0
M  V30 10499 O 993.422 0.706992 1.74739 0
M  V30 10500 C 990.549 1.62222 2.97324 0
M  V30 10501 C 989.595 2.82975 3.19104 0
M  V30 10502 S 990.428 4.44272 2.98969 0
M  V30 10503 C 991.584 4.45254 4.39886 0
M  V30 10504 H 991.817 2.58396 1.47034 0
M  V30 10505 H 989.35 1.39672 0.658115 0
M  V30 10506 H 991.308 1.6192 3.77217 0
M  V30 10507 H 989.969 0.689944 3.06429 0
M  V30 10508 H 989.162 2.78083 4.2034 0
M  V30 10509 H 988.764 2.80846 2.46984 0
M  V30 10510 H 991.056 4.18837 5.32524 0
M  V30 10511 H 991.999 5.4687 4.49821 0
M  V30 10512 H 992.407 3.74958 4.2198 0
M  V30 10513 N 991.805 -0.723954 1.39988 0
M  V30 10514 C 992.735 -1.85103 1.42335 0
M  V30 10515 C 993.716 -1.6769 0.285297 0
M  V30 10516 O 994.901 -1.87846 0.492716 0
M  V30 10517 C 992.031 -3.22972 1.27697 0
M  V30 10518 C 990.985 -3.55041 2.39018 0
M  V30 10519 C 990.311 -4.91965 2.09462 0
M  V30 10520 C 991.611 -3.56889 3.8135 0
M  V30 10521 H 993.305 -1.83396 2.36656 0
M  V30 10522 H 990.851 -0.880926 1.13911 0
M  V30 10523 H 992.804 -4.01503 1.27958 0
M  V30 10524 H 991.528 -3.25233 0.298487 0
M  V30 10525 H 990.187 -2.78845 2.37993 0
M  V30 10526 H 989.835 -4.90819 1.10025 0
M  V30 10527 H 989.535 -5.14389 2.84038 0
M  V30 10528 H 991.059 -5.7284 2.11391 0
M  V30 10529 H 992.473 -4.25476 3.84243 0
M  V30 10530 H 990.87 -3.90836 4.55376 0
M  V30 10531 H 991.94 -2.56452 4.11534 0
M  V30 10532 N 993.283 -1.25346 -0.955304 0
M  V30 10533 C 994.215 -1.0146 -2.0552 0
M  V30 10534 C 995.228 0.0202256 -1.62787 0
M  V30 10535 O 996.417 -0.218251 -1.77161 0
M  V30 10536 C 993.517 -0.511727 -3.35014 0
M  V30 10537 C 992.69 -1.61256 -4.0659 0
M  V30 10538 C 991.749 -1.11017 -5.14356 0
M  V30 10539 O 990.775 -1.80443 -5.39842 0
M  V30 10540 N 991.977 0.0489001 -5.80479 0
M  V30 10541 H 994.742 -1.96166 -2.26581 0
M  V30 10542 H 992.303 -1.16543 -1.12381 0
M  V30 10543 H 994.295 -0.160123 -4.04383 0
M  V30 10544 H 992.865 0.341377 -3.1073 0
M  V30 10545 H 992.085 -2.13577 -3.31328 0
M  V30 10546 H 993.373 -2.35213 -4.51168 0
M  V30 10547 H 992.771 0.629021 -5.62192 0
M  V30 10548 H 991.328 0.341542 -6.50905 0
M  V30 10549 N 994.761 1.15782 -1.06922 0
M  V30 10550 C 996.038 1.8253 -0.703 0
M  V30 10551 C 996.418 1.94733 0.814994 0
M  V30 10552 O 995.766 1.49537 1.72774 0
M  V30 10553 C 995.976 3.19145 -1.41234 0
M  V30 10554 C 997.324 3.94839 -1.56164 0
M  V30 10555 O 998.348 3.28685 -1.37277 0
M  V30 10556 O 997.207 5.13436 -1.87205 0
M  V30 10557 H 994.301 0.788425 -0.24963 0
M  V30 10558 H 996.847 1.22931 -1.16988 0
M  V30 10559 H 995.619 3.05336 -2.44715 0
M  V30 10560 H 995.242 3.86427 -0.935959 0
M  V30 10561 N 996.239 0.8527 1.3254 0
M  V30 10562 C 997.485 0.455798 1.97612 0
M  V30 10563 C 997.818 -0.985616 1.6733 0
M  V30 10564 O 997.093 -1.69129 0.960493 0
M  V30 10565 C 997.376 0.69312 3.53366 0
M  V30 10566 C 997.229 2.18281 3.93285 0
M  V30 10567 C 998.548 0.148236 4.3985 0
M  V30 10568 H 995.667 0.167078 0.717812 0
M  V30 10569 H 998.309 1.07076 1.56954 0
M  V30 10570 H 996.459 0.169677 3.88129 0
M  V30 10571 H 998.131 2.77218 3.68711 0
M  V30 10572 H 996.374 2.66206 3.42515 0
M  V30 10573 H 997.045 2.29957 5.01821 0
M  V30 10574 H 999.521 0.595834 4.11812 0
M  V30 10575 H 998.397 0.343873 5.47822 0
M  V30 10576 H 998.658 -0.948872 4.31797 0
M  V30 10577 N 997.718 -1.45297 0.610449 0
M  V30 10578 C 998.967 -2.0143 0.104323 0
M  V30 10579 C 999.28 -1.48431 -1.27388 0
M  V30 10580 O 1000.49 -1.96558 -1.87289 0
M  V30 10581 C 998.942 -3.59644 0.135812 0
M  V30 10582 C 998.55 -4.2164 1.51405 0
M  V30 10583 C 1000.29 -4.2333 -0.314922 0
M  V30 10584 C 998.201 -5.72015 1.50176 0
M  V30 10585 H 997.131 -0.753176 0.035233 0
M  V30 10586 H 999.782 -1.66738 0.7662 0
M  V30 10587 H 998.164 -3.91538 -0.592773 0
M  V30 10588 H 999.338 -4.01315 2.26457 0
M  V30 10589 H 997.653 -3.70159 1.90712 0
M  V30 10590 H 1000.25 -5.33597 -0.343335 0
M  V30 10591 H 1000.59 -3.94206 -1.33817 0
M  V30 10592 H 1001.13 -3.96163 0.360489 0
M  V30 10593 H 997.865 -6.05842 2.50271 0
M  V30 10594 H 997.385 -5.94523 0.793869 0
M  V30 10595 H 999.064 -6.35266 1.22665 0
M  V30 10596 N 999.196 -0.349774 -1.5367 0
M  V30 10597 C 1000.14 0.504121 -2.25227 0
M  V30 10598 C 1001.11 1.09048 -1.2529 0
M  V30 10599 O 1002.3 1.12594 -1.54037 0
M  V30 10600 C 999.438 1.64601 -3.03316 0
M  V30 10601 C 998.551 1.08635 -4.18118 0
M  V30 10602 C 997.686 2.19605 -4.83681 0
M  V30 10603 C 996.725 1.61023 -5.90541 0
M  V30 10604 N 995.862 2.6576 -6.49858 0
M  V30 10605 H 1000.7 -0.112621 -2.97787 0
M  V30 10606 H 998.239 -0.0673503 -1.46946 0
M  V30 10607 H 1000.2 2.31836 -3.46854 0
M  V30 10608 H 998.827 2.23364 -2.33041 0
M  V30 10609 H 997.879 0.304748 -3.79177 0
M  V30 10610 H 999.191 0.617911 -4.94958 0
M  V30 10611 H 998.345 2.94693 -5.30322 0
M  V30 10612 H 997.084 2.69795 -4.06278 0
M  V30 10613 H 996.089 0.844428 -5.43277 0
M  V30 10614 H 997.314 1.11677 -6.69855 0
M  V30 10615 H 995.26 3.15193 -5.75317 0
M  V30 10616 H 995.177 2.23557 -7.2219 0
M  V30 10617 H 996.445 3.40598 -7.01151 0
M  V30 10618 N 1000.67 1.57404 -0.0785433 0
M  V30 10619 C 1002.09 1.57158 0.2781 0
M  V30 10620 C 1002.29 1.08847 1.69572 0
M  V30 10621 O 1001.35 0.757407 2.40873 0
M  V30 10622 C 1002.66 3.00589 0.0816067 0
M  V30 10623 C 1004.21 3.12637 0.150627 0
M  V30 10624 C 1004.68 4.57997 -0.0176685 0
M  V30 10625 N 1006.17 4.63185 0.0377145 0
M  V30 10626 C 1006.91 5.7336 -0.0679907 0
M  V30 10627 N 1006.4 6.92426 -0.227598 0
M  V30 10628 N 1008.2 5.62099 -0.0104424 0
M  V30 10629 H 1000.35 1.87121 -1.00496 0
M  V30 10630 H 1002.61 0.862937 -0.392484 0
M  V30 10631 H 1002.32 3.40072 -0.896869 0
M  V30 10632 H 1002.19 3.67931 0.831046 0
M  V30 10633 H 1004.58 2.73037 1.11959 0
M  V30 10634 H 1004.66 2.4792 -0.630028 0
M  V30 10635 H 1004.3 4.98288 -0.983431 0
M  V30 10636 H 1004.23 5.20754 0.782475 0
M  V30 10637 H 1006.72 3.77564 0.159208 0
M  V30 10638 H 1007.04 7.72217 -0.300217 0
M  V30 10639 H 1005.38 6.94502 -0.263049 0
M  V30 10640 H 1008.57 4.67964 0.112999 0
M  V30 10641 H 1008.75 6.47928 -0.0962747 0
M  V30 10642 N 1002.15 -0.195058 1.56388 0
M  V30 10643 C 1003.4 -0.913636 1.8027 0
M  V30 10644 C 1003.72 -1.83791 0.651606 0
M  V30 10645 O 1002.99 -1.931 -0.330057 0
M  V30 10646 H 1001.57 -0.34036 0.664954 0
M  V30 10647 H 1004.23 -0.200559 1.93865 0
M  V30 10648 H 1003.33 -1.50473 2.7343 0
M  V30 10649 N 1003.63 -1.50653 -0.462772 0
M  V30 10650 C 1004.86 -1.65826 -1.23731 0
M  V30 10651 C 1005.27 -0.345002 -1.85621 0
M  V30 10652 O 1004.63 0.673935 -1.69601 0
M  V30 10653 C 1004.68 -2.7555 -2.33997 0
M  V30 10654 O 1004.4 -4.01785 -1.74643 0
M  V30 10655 C 1005.9 -3.0177 -3.2473 0
M  V30 10656 H 1003.12 -0.557177 -0.373892 0
M  V30 10657 H 1005.67 -1.96925 -0.551434 0
M  V30 10658 H 1003.82 -2.47122 -2.98345 0
M  V30 10659 H 1004.24 -4.62529 -2.4732 0
M  V30 10660 H 1005.71 -3.82188 -3.98292 0
M  V30 10661 H 1006.19 -2.13167 -3.84001 0
M  V30 10662 H 1006.79 -3.31761 -2.66111 0
M  V30 10663 N 1005.11 0.71652 -1.4037 0
M  V30 10664 C 1006.36 1.47347 -1.38324 0
M  V30 10665 C 1006.68 1.94995 0.0139949 0
M  V30 10666 O 1005.95 1.7028 0.968585 0
M  V30 10667 H 1004.53 0.546662 -0.509087 0
M  V30 10668 H 1007.19 0.849455 -1.75415 0
M  V30 10669 H 1006.29 2.34675 -2.05752 0
M  V30 10670 N 1006.59 1.25851 0.948643 0
M  V30 10671 C 1008 1.02802 1.22081 0
M  V30 10672 C 1008.2 -0.251461 1.99925 0
M  V30 10673 O 1007.26 -0.962592 2.33432 0
M  V30 10674 C 1008.57 2.25489 1.98936 0
M  V30 10675 C 1010.12 2.30312 2.11956 0
M  V30 10676 C 1010.59 3.52671 2.92211 0
M  V30 10677 N 1012.09 3.53103 2.99787 0
M  V30 10678 C 1012.82 4.44445 3.62294 0
M  V30 10679 N 1012.32 5.46065 4.26362 0
M  V30 10680 N 1014.11 4.32113 3.59493 0
M  V30 10681 H 1006.26 2.08042 0.428044 0
M  V30 10682 H 1008.52 0.913928 0.251872 0
M  V30 10683 H 1008.23 3.18513 1.4914 0
M  V30 10684 H 1008.1 2.2914 2.99624 0
M  V30 10685 H 1010.49 1.37808 2.60946 0
M  V30 10686 H 1010.57 2.30676 1.10554 0
M  V30 10687 H 1010.22 4.45501 2.43909 0
M  V30 10688 H 1010.15 3.49554 3.93853 0
M  V30 10689 H 1012.64 2.79597 2.54232 0
M  V30 10690 H 1012.95 6.11964 4.71932 0
M  V30 10691 H 1011.29 5.49931 4.24972 0
M  V30 10692 H 1014.49 3.51946 3.08629 0
M  V30 10693 H 1014.66 5.03493 4.0792 0
M  V30 10694 N 1008.06 -1.15214 1.07534 0
M  V30 10695 C 1009.48 -1.38031 0.801228 0
M  V30 10696 C 1009.68 -1.92556 -0.593672 0
M  V30 10697 O 1008.74 -2.1325 -1.35206 0
M  V30 10698 C 1010.05 -2.34958 1.87657 0
M  V30 10699 C 1011.6 -2.48617 1.90154 0
M  V30 10700 C 1012.07 -3.48837 2.96777 0
M  V30 10701 N 1013.56 -3.56374 2.95892 0
M  V30 10702 C 1014.3 -4.33746 3.75036 0
M  V30 10703 N 1013.79 -5.14435 4.64036 0
M  V30 10704 N 1015.59 -4.28853 3.63375 0
M  V30 10705 H 1007.74 -0.781639 1.97495 0
M  V30 10706 H 1010 -0.406243 0.856546 0
M  V30 10707 H 1009.71 -2.02013 2.87895 0
M  V30 10708 H 1009.58 -3.3476 1.73827 0
M  V30 10709 H 1011.97 -2.80859 0.905666 0
M  V30 10710 H 1012.05 -1.48808 2.08062 0
M  V30 10711 H 1011.69 -3.1733 3.96565 0
M  V30 10712 H 1011.62 -4.48406 2.76116 0
M  V30 10713 H 1014.11 -2.98784 2.31379 0
M  V30 10714 H 1014.43 -5.70722 5.21053 0
M  V30 10715 H 1012.77 -5.13734 4.68084 0
M  V30 10716 H 1015.96 -3.64882 2.93221 0
M  V30 10717 H 1016.14 -4.88903 4.25298 0
M  V30 10718 N 1009.54 -0.859717 -1.32086 0
M  V30 10719 C 1010.51 -0.313005 -2.27053 0
M  V30 10720 C 1011.51 0.530191 -1.51808 0
M  V30 10721 O 1012.7 0.340972 -1.7083 0
M  V30 10722 C 1009.83 0.5566 -3.36325 0
M  V30 10723 H 1011.02 -1.15125 -2.76923 0
M  V30 10724 H 1008.57 -0.634463 -1.42843 0
M  V30 10725 H 1009.31 1.41645 -2.91731 0
M  V30 10726 H 1009.09 -0.0470197 -3.92072 0
M  V30 10727 H 1010.58 0.931725 -4.07073 0
M  V30 10728 N 1011.02 1.44971 -0.618145 0
M  V30 10729 C 1011.95 2.33357 0.0815955 0
M  V30 10730 C 1012.93 1.47451 0.848072 0
M  V30 10731 O 1014.12 1.762 0.816532 0
M  V30 10732 C 1011.25 3.30324 1.07253 0
M  V30 10733 C 1010.2 4.25948 0.418563 0
M  V30 10734 C 1009.53 5.12685 1.51849 0
M  V30 10735 C 1010.83 5.18024 -0.66697 0
M  V30 10736 H 1012.52 2.92115 -0.656442 0
M  V30 10737 H 1010.07 1.40465 -0.317129 0
M  V30 10738 H 1012.02 3.91033 1.57069 0
M  V30 10739 H 1010.74 2.69748 1.8413 0
M  V30 10740 H 1009.4 3.66553 -0.0588308 0
M  V30 10741 H 1009.05 4.4847 2.2778 0
M  V30 10742 H 1008.75 5.7747 1.08637 0
M  V30 10743 H 1010.27 5.76264 2.01871 0
M  V30 10744 H 1011.69 5.72744 -0.252448 0
M  V30 10745 H 1010.09 5.91343 -1.02146 0
M  V30 10746 H 1011.16 4.59817 -1.53936 0
M  V30 10747 N 1012.5 0.357919 1.53482 0
M  V30 10748 C 1013.46 -0.479797 2.24122 0
M  V30 10749 C 1014.46 -1.01596 1.24639 0
M  V30 10750 O 1015.65 -0.902928 1.48973 0
M  V30 10751 C 1012.78 -1.66983 2.97203 0
M  V30 10752 H 1013.98 0.138219 2.99581 0
M  V30 10753 H 1011.53 0.109484 1.55916 0
M  V30 10754 H 1012.26 -2.32615 2.25966 0
M  V30 10755 H 1012.05 -1.29242 3.70188 0
M  V30 10756 H 1013.54 -2.26367 3.50924 0
M  V30 10757 N 1013.98 -1.5736 0.0868897 0
M  V30 10758 C 1014.91 -2.16596 -0.872252 0
M  V30 10759 C 1015.89 -1.09706 -1.29995 0
M  V30 10760 O 1017.07 -1.37808 -1.36831 0
M  V30 10761 C 1014.2 -2.73972 -2.1344 0
M  V30 10762 C 1013.16 -3.86163 -1.8456 0
M  V30 10763 C 1012.48 -4.30206 -3.17533 0
M  V30 10764 C 1013.78 -5.0973 -1.13899 0
M  V30 10765 H 1015.48 -2.96995 -0.378738 0
M  V30 10766 H 1013.02 -1.42861 -0.18073 0
M  V30 10767 H 1014.98 -3.14062 -2.80968 0
M  V30 10768 H 1013.7 -1.90817 -2.6506 0
M  V30 10769 H 1012.36 -3.466 -1.19432 0
M  V30 10770 H 1012.01 -3.43951 -3.67024 0
M  V30 10771 H 1011.71 -5.05841 -2.98996 0
M  V30 10772 H 1013.23 -4.72922 -3.86234 0
M  V30 10773 H 1014.64 -5.4704 -1.71523 0
M  V30 10774 H 1013.04 -5.90741 -1.05569 0
M  V30 10775 H 1014.11 -4.8475 -0.120432 0
M  V30 10776 N 1015.45 0.186762 -1.56489 0
M  V30 10777 C 1016.4 1.23141 -1.95205 0
M  V30 10778 C 1017.37 1.44799 -0.81378 0
M  V30 10779 O 1018.56 1.57795 -1.07263 0
M  V30 10780 C 1015.7 2.56926 -2.30397 0
M  V30 10781 C 1014.81 2.42777 -3.57328 0
M  V30 10782 C 1013.94 3.69323 -3.81804 0
M  V30 10783 C 1012.98 3.50041 -5.02133 0
M  V30 10784 N 1012.12 4.68619 -5.2282 0
M  V30 10785 H 1016.96 0.894256 -2.84266 0
M  V30 10786 H 1014.5 0.430187 -1.40669 0
M  V30 10787 H 1016.46 3.3488 -2.4882 0
M  V30 10788 H 1015.09 2.88668 -1.44466 0
M  V30 10789 H 1014.14 1.56078 -3.46906 0
M  V30 10790 H 1015.45 2.24468 -4.45439 0
M  V30 10791 H 1014.6 4.55715 -4.00511 0
M  V30 10792 H 1013.34 3.90595 -2.92039 0
M  V30 10793 H 1012.35 2.62034 -4.8334 0
M  V30 10794 H 1013.57 3.30206 -5.93414 0
M  V30 10795 H 1011.52 4.90139 -4.36005 0
M  V30 10796 H 1011.44 4.53165 -6.05126 0
M  V30 10797 H 1012.7 5.56338 -5.45993 0
M  V30 10798 N 1016.93 1.50896 0.454776 0
M  V30 10799 C 1018.35 1.38684 0.78987 0
M  V30 10800 C 1018.55 0.455587 1.96282 0
M  V30 10801 O 1017.6 -0.0957503 2.52318 0
M  V30 10802 C 1018.92 2.80381 1.08661 0
M  V30 10803 C 1020.47 2.8941 1.19209 0
M  V30 10804 C 1020.94 4.31976 1.52187 0
M  V30 10805 N 1022.43 4.35002 1.59146 0
M  V30 10806 C 1023.17 5.42326 1.862 0
M  V30 10807 N 1022.66 6.59835 2.11164 0
M  V30 10808 N 1024.46 5.29786 1.87838 0
M  V30 10809 H 1016.61 2.10006 -0.317981 0
M  V30 10810 H 1018.87 0.944636 -0.0797969 0
M  V30 10811 H 1018.58 3.50438 0.297626 0
M  V30 10812 H 1018.45 3.18634 2.01872 0
M  V30 10813 H 1020.84 2.19561 1.97173 0
M  V30 10814 H 1020.92 2.54677 0.239401 0
M  V30 10815 H 1020.56 5.02368 0.747576 0
M  V30 10816 H 1020.49 4.64208 2.48633 0
M  V30 10817 H 1022.98 3.50276 1.41828 0
M  V30 10818 H 1023.3 7.37428 2.31128 0
M  V30 10819 H 1021.64 6.62981 2.08522 0
M  V30 10820 H 1024.83 4.36974 1.67843 0
M  V30 10821 H 1025 6.13511 2.08585 0
M  V30 10822 N 1018.41 -0.709066 1.40748 0
M  V30 10823 C 1019.64 -1.49808 1.42707 0
M  V30 10824 C 1020.05 -1.88778 0.0285574 0
M  V30 10825 O 1019.41 -1.55883 -0.949035 0
M  V30 10826 C 1019.46 -2.76926 2.32366 0
M  V30 10827 O 1019.18 -2.39602 3.66773 0
M  V30 10828 C 1020.68 -3.70773 2.42986 0
M  V30 10829 H 1017.9 -0.462106 0.486517 0
M  V30 10830 H 1020.45 -0.874135 1.84876 0
M  V30 10831 H 1018.6 -3.3559 1.93541 0
M  V30 10832 H 1019.02 -3.21443 4.14457 0
M  V30 10833 H 1020.49 -4.56789 3.09916 0
M  V30 10834 H 1020.97 -4.14332 1.45691 0
M  V30 10835 H 1021.57 -3.18019 2.8239 0
M  V30 10836 N 1019.89 -1.26353 -0.941956 0
M  V30 10837 C 1021.17 -1.02601 -1.6653 0
M  V30 10838 C 1021.55 0.44381 -2.06382 0
M  V30 10839 O 1020.89 1.42399 -1.78703 0
M  V30 10840 C 1021.1 -1.97401 -2.87809 0
M  V30 10841 C 1022.45 -2.25967 -3.59478 0
M  V30 10842 O 1023.48 -1.95261 -2.97912 0
M  V30 10843 O 1022.34 -2.78244 -4.70364 0
M  V30 10844 H 1019.43 -0.39007 -0.729228 0
M  V30 10845 H 1021.98 -1.37559 -0.993754 0
M  V30 10846 H 1020.75 -2.9659 -2.55245 0
M  V30 10847 H 1020.37 -1.62918 -3.62689 0
M  V30 10848 N 1021.37 1.14642 -1.08144 0
M  V30 10849 C 1022.3 2.21775 -0.730609 0
M  V30 10850 C 1023.28 1.67683 0.285702 0
M  V30 10851 O 1024.46 1.93567 0.156667 0
M  V30 10852 C 1021.59 3.47033 -0.136242 0
M  V30 10853 C 1020.55 4.14134 -1.0806 0
M  V30 10854 C 1019.87 5.33563 -0.348585 0
M  V30 10855 C 1021.17 4.62978 -2.41761 0
M  V30 10856 H 1022.87 2.51378 -1.62633 0
M  V30 10857 H 1020.41 1.20825 -0.783411 0
M  V30 10858 H 1022.37 4.21226 0.121182 0
M  V30 10859 H 1021.09 3.16786 0.7946 0
M  V30 10860 H 1019.75 3.41892 -1.32308 0
M  V30 10861 H 1019.4 4.99575 0.585974 0
M  V30 10862 H 1019.1 5.79402 -0.978122 0
M  V30 10863 H 1020.62 6.10519 -0.0991508 0
M  V30 10864 H 1022.04 5.28659 -2.21795 0
M  V30 10865 H 1020.43 5.1951 -3.00383 0
M  V30 10866 H 1021.5 3.78189 -3.03482 0
M  V30 10867 N 1022.85 0.866709 1.31628 0
M  V30 10868 C 1023.81 0.325041 2.26883 0
M  V30 10869 C 1024.81 -0.522133 1.52087 0
M  V30 10870 O 1026 -0.331908 1.71009 0
M  V30 10871 C 1023.13 -0.538756 3.36616 0
M  V30 10872 H 1024.32 1.16592 2.76308 0
M  V30 10873 H 1021.88 0.642029 1.42505 0
M  V30 10874 H 1022.61 -1.40096 2.92478 0
M  V30 10875 H 1022.4 0.0678115 3.92041 0
M  V30 10876 H 1023.89 -0.910123 4.07562 0
M  V30 10877 N 1024.32 -1.44642 0.625825 0
M  V30 10878 C 1025.57 -2.01695 0.127948 0
M  V30 10879 C 1025.89 -1.49439 -1.25271 0
M  V30 10880 O 1025.16 -0.695873 -1.83124 0
M  V30 10881 H 1023.74 -0.745685 0.0443096 0
M  V30 10882 H 1026.4 -1.7721 0.811332 0
M  V30 10883 H 1025.5 -3.11966 0.0915933 0
M  V30 10884 N 1025.8 -0.366053 -1.5329 0
M  V30 10885 C 1026.75 0.480205 -2.25749 0
M  V30 10886 C 1027.72 1.07713 -1.2644 0
M  V30 10887 O 1028.9 1.10953 -1.55222 0
M  V30 10888 C 1026.04 1.61374 -3.05045 0
M  V30 10889 C 1025.16 1.04194 -4.19246 0
M  V30 10890 C 1024.29 2.14462 -4.85983 0
M  V30 10891 C 1023.33 1.5475 -5.92215 0
M  V30 10892 N 1022.47 2.58852 -6.52641 0
M  V30 10893 H 1027.31 -0.144199 -2.97651 0
M  V30 10894 H 1024.84 -0.0829321 -1.46866 0
M  V30 10895 H 1026.8 2.28144 -3.49294 0
M  V30 10896 H 1025.43 2.2088 -2.35397 0
M  V30 10897 H 1024.48 0.264514 -3.79479 0
M  V30 10898 H 1025.8 0.565379 -4.95585 0
M  V30 10899 H 1024.95 2.89051 -5.33418 0
M  V30 10900 H 1023.69 2.6547 -4.09117 0
M  V30 10901 H 1022.69 0.786759 -5.44142 0
M  V30 10902 H 1023.92 1.04566 -6.71001 0
M  V30 10903 H 1021.87 3.09073 -5.78627 0
M  V30 10904 H 1021.78 2.15884 -7.24521 0
M  V30 10905 H 1023.05 3.33142 -7.04724 0
M  V30 10906 N 1027.28 1.57312 -0.0952337 0
M  V30 10907 C 1028.51 1.98697 0.57682 0
M  V30 10908 C 1028.92 0.974347 1.61716 0
M  V30 10909 O 1028.28 -0.036022 1.82464 0
M  V30 10910 C 1028.33 3.40133 1.2244 0
M  V30 10911 O 1028.05 4.37518 0.225678 0
M  V30 10912 C 1029.55 3.96522 1.98205 0
M  V30 10913 H 1026.77 0.65294 0.154629 0
M  V30 10914 H 1029.32 2.03754 -0.174562 0
M  V30 10915 H 1027.47 3.3609 1.92671 0
M  V30 10916 H 1027.89 5.199 0.693116 0
M  V30 10917 H 1029.36 4.97637 2.38875 0
M  V30 10918 H 1029.84 3.34347 2.84796 0
M  V30 10919 H 1030.44 4.04038 1.3279 0
M  V30 10920 N 1028.76 -0.17846 1.56586 0
M  V30 10921 C 1030.01 -0.894464 1.81228 0
M  V30 10922 C 1030.33 -1.83089 0.671062 0
M  V30 10923 O 1029.6 -1.93439 -0.309557 0
M  V30 10924 H 1028.18 -0.333288 0.668527 0
M  V30 10925 H 1030.84 -0.179986 1.94067 0
M  V30 10926 H 1029.93 -1.47565 2.75011 0
M  V30 10927 N 1030.24 -1.51135 -0.446768 0
M  V30 10928 C 1031.46 -1.67129 -1.21965 0
M  V30 10929 C 1031.88 -0.36467 -1.85245 0
M  V30 10930 O 1031.24 0.655908 -1.70306 0
M  V30 10931 C 1031.29 -2.78016 -2.31061 0
M  V30 10932 O 1031.01 -4.03615 -1.70371 0
M  V30 10933 C 1032.51 -3.05197 -3.21511 0
M  V30 10934 H 1029.73 -0.561111 -0.367961 0
M  V30 10935 H 1032.27 -1.97499 -0.530517 0
M  V30 10936 H 1030.43 -2.50272 -2.95707 0
M  V30 10937 H 1030.84 -4.65126 -2.424 0
M  V30 10938 H 1032.32 -3.8639 -3.94216 0
M  V30 10939 H 1032.79 -2.17228 -3.81718 0
M  V30 10940 H 1033.4 -3.34565 -2.62577 0
M  V30 10941 N 1031.71 0.701592 -1.41122 0
M  V30 10942 C 1032.94 1.49049 -1.43499 0
M  V30 10943 C 1033.36 1.88761 -0.0385684 0
M  V30 10944 O 1032.71 1.56384 0.940755 0
M  V30 10945 C 1032.76 2.7569 -2.33832 0
M  V30 10946 O 1032.49 2.37653 -3.68039 0
M  V30 10947 C 1033.99 3.69479 -2.44949 0
M  V30 10948 H 1031.21 0.459519 -0.488961 0
M  V30 10949 H 1033.75 0.864318 -1.85337 0
M  V30 10950 H 1031.91 3.34559 -1.95318 0
M  V30 10951 H 1032.32 3.19241 -4.16156 0
M  V30 10952 H 1033.79 4.55139 -3.12334 0
M  V30 10953 H 1034.27 4.13553 -1.47887 0
M  V30 10954 H 1034.88 3.16517 -2.84072 0
M  V30 10955 N 1033.19 1.2685 0.935242 0
M  V30 10956 C 1034.14 1.08746 2.05614 0
M  V30 10957 C 1035.13 0.012681 1.69395 0
M  V30 10958 O 1036.34 0.169822 1.79197 0
M  V30 10959 H 1032.71 0.33485 0.673335 0
M  V30 10960 H 1034.69 2.03725 2.18033 0
M  V30 10961 C 1033.43 0.74346 3.39659 0
M  V30 10962 H 1032.76 1.56236 3.68008 0
M  V30 10963 H 1034.2 0.656607 4.18885 0
M  V30 10964 C 1032.66 -0.551751 3.32351 0
M  V30 10965 O 1033.19 -1.58836 3.68963 0
M  V30 10966 N 1031.39 -0.544583 2.85452 0
M  V30 10967 H 1030.94 0.29939 2.55854 0
M  V30 10968 H 1030.9 -1.41129 2.80945 0
M  V30 10969 N 1034.67 -1.14067 1.0875 0
M  V30 10970 C 1035.95 -1.81389 0.73195 0
M  V30 10971 C 1036.33 -1.96005 -0.78391 0
M  V30 10972 O 1035.68 -1.52267 -1.70373 0
M  V30 10973 C 1035.89 -3.16858 1.46294 0
M  V30 10974 C 1037.23 -3.92305 1.62426 0
M  V30 10975 O 1038.26 -3.26459 1.42488 0
M  V30 10976 O 1037.12 -5.10393 1.9535 0
M  V30 10977 H 1034.21 -0.784354 0.262141 0
M  V30 10978 H 1036.76 -1.21054 1.18929 0
M  V30 10979 H 1035.53 -3.01404 2.49542 0
M  V30 10980 H 1035.15 -3.84889 0.997318 0
M  V30 10981 N 1036.15 -0.873678 -1.31166 0
M  V30 10982 C 1037.37 -0.500242 -2.01277 0
M  V30 10983 C 1037.8 0.900811 -1.65127 0
M  V30 10984 O 1037.16 1.59504 -0.861862 0
M  V30 10985 C 1037.2 -0.668976 -3.5434 0
M  V30 10986 O 1036.31 0.290096 -4.11378 0
M  V30 10987 H 1035.65 -0.198507 -0.633633 0
M  V30 10988 H 1038.18 -1.17811 -1.67277 0
M  V30 10989 H 1038.19 -0.563673 -4.04088 0
M  V30 10990 H 1036.86 -1.69055 -3.79991 0
M  V30 10991 H 1035.44 0.139437 -3.72639 0
M  V30 10992 N 1037.63 1.44308 -0.633487 0
M  V30 10993 C 1038.57 2.30694 0.0700257 0
M  V30 10994 C 1039.54 1.43618 0.834447 0
M  V30 10995 O 1040.73 1.72517 0.815014 0
M  V30 10996 C 1037.87 3.28929 1.04403 0
M  V30 10997 C 1036.98 4.31106 0.277779 0
M  V30 10998 C 1036.12 5.16433 1.24381 0
M  V30 10999 C 1035.16 6.10317 0.466855 0
M  V30 11000 N 1034.29 6.88335 1.38347 0
M  V30 11001 H 1039.13 2.90311 -0.672567 0
M  V30 11002 H 1036.67 1.43034 -0.343449 0
M  V30 11003 H 1038.63 3.84373 1.62214 0
M  V30 11004 H 1037.26 2.71006 1.75372 0
M  V30 11005 H 1036.31 3.78115 -0.416292 0
M  V30 11006 H 1037.62 4.97725 -0.327251 0
M  V30 11007 H 1036.78 5.76406 1.89318 0
M  V30 11008 H 1035.51 4.49893 1.88276 0
M  V30 11009 H 1034.52 5.49451 -0.195989 0
M  V30 11010 H 1035.74 6.78894 -0.167414 0
M  V30 11011 H 1033.69 6.24461 2.00959 0
M  V30 11012 H 1033.61 7.51402 0.832517 0
M  V30 11013 H 1034.88 7.52829 2.0216 0
M  V30 11014 N 1039.1 0.374177 1.53094 0
M  V30 11015 C 1040.38 -0.269632 1.93733 0
M  V30 11016 C 1040.76 -1.6566 1.30843 0
M  V30 11017 O 1040.11 -2.23598 0.470759 0
M  V30 11018 C 1040.32 -0.311204 3.4761 0
M  V30 11019 C 1041.67 -0.547432 4.21056 0
M  V30 11020 O 1042.69 -0.392053 3.54036 0
M  V30 11021 O 1041.55 -0.850645 5.39839 0
M  V30 11022 H 1038.64 -0.163723 0.810632 0
M  V30 11023 H 1041.19 0.427586 1.64225 0
M  V30 11024 H 1039.96 0.660897 3.85678 0
M  V30 11025 H 1039.59 -1.05397 3.83376 0
M  V30 11026 N 1040.58 -1.57259 0.103575 0
M  V30 11027 C 1041.83 -1.94272 -0.557024 0
M  V30 11028 C 1042.15 -0.986739 -1.68192 0
M  V30 11029 O 1041.42 -0.0402818 -1.95859 0
M  V30 11030 H 1040 -0.717237 -0.208757 0
M  V30 11031 H 1042.66 -1.94167 0.168898 0
M  V30 11032 H 1041.76 -2.96914 -0.961691 0
M  V30 11033 N 1042.06 0.170153 -1.56679 0
M  V30 11034 C 1043.31 0.883211 -1.83224 0
M  V30 11035 C 1043.66 1.7982 -0.68429 0
M  V30 11036 O 1042.95 1.88922 0.319204 0
M  V30 11037 C 1043.15 1.71402 -3.13618 0
M  V30 11038 C 1042.98 0.880967 -4.40986 0
M  V30 11039 C 1041.75 0.555594 -5.02236 0
M  V30 11040 C 1043.95 0.221986 -5.13821 0
M  V30 11041 N 1041.93 -0.293479 -6.13198 0
M  V30 11042 C 1043.3 -0.488202 -6.18075 0
M  V30 11043 C 1045.35 0.14027 -4.97702 0
M  V30 11044 C 1044.06 -1.27236 -7.07957 0
M  V30 11045 C 1046.08 -0.630556 -5.88029 0
M  V30 11046 C 1045.44 -1.3291 -6.91747 0
M  V30 11047 H 1041.54 0.301769 -0.721429 0
M  V30 11048 H 1044.13 0.150113 -1.9412 0
M  V30 11049 H 1042.3 2.41853 -3.03911 0
M  V30 11050 H 1044.03 2.36847 -3.28155 0
M  V30 11051 H 1040.79 0.885952 -4.6524 0
M  V30 11052 H 1041.21 -0.708359 -6.73284 0
M  V30 11053 H 1045.85 0.665983 -4.17522 0
M  V30 11054 H 1043.57 -1.80941 -7.87582 0
M  V30 11055 H 1047.16 -0.695468 -5.77628 0
M  V30 11056 H 1046.04 -1.916 -7.60433 0
M  V30 11057 N 1043.54 1.5137 0.438746 0
M  V30 11058 C 1044.79 1.63969 1.1883 0
M  V30 11059 C 1045.11 0.355245 1.91228 0
M  V30 11060 O 1044.37 -0.660605 1.84213 0
M  V30 11061 C 1044.67 2.79221 2.23093 0
M  V30 11062 C 1044.33 4.18547 1.67717 0
M  V30 11063 C 1043 4.5645 1.52337 0
M  V30 11064 C 1045.35 5.05494 1.26986 0
M  V30 11065 C 1042.68 5.79007 0.946996 0
M  V30 11066 C 1045.03 6.28628 0.707785 0
M  V30 11067 C 1043.69 6.65305 0.540881 0
M  V30 11068 H 1042.96 0.600003 0.43483 0
M  V30 11069 H 1045.61 1.85398 0.479565 0
M  V30 11070 H 1043.91 2.52008 2.99999 0
M  V30 11071 H 1045.61 2.86168 2.80907 0
M  V30 11072 H 1042.2 3.88663 1.80663 0
M  V30 11073 H 1046.38 4.76818 1.37689 0
M  V30 11074 H 1041.64 6.06072 0.805432 0
M  V30 11075 H 1045.81 6.95342 0.38366 0
M  V30 11076 H 1043.44 7.60144 0.0921324 0
M  V30 11077 N 1045.02 -0.694098 1.41492 0
M  V30 11078 C 1046.24 -1.48789 1.44488 0
M  V30 11079 C 1046.67 -1.88028 0.0521588 0
M  V30 11080 O 1046.02 -1.54727 -0.944952 0
M  V30 11081 C 1046.07 -2.72586 2.3607 0
M  V30 11082 O 1045.18 -3.70128 1.81876 0
M  V30 11083 H 1044.52 -0.447758 0.490315 0
M  V30 11084 H 1047.05 -0.853036 1.85969 0
M  V30 11085 H 1047.06 -3.20877 2.51995 0
M  V30 11086 H 1045.73 -2.43363 3.37264 0
M  V30 11087 H 1044.31 -3.29069 1.75408 0
M  V30 11088 N 1046.49 -1.27344 -0.928501 0
M  V30 11089 C 1047.74 -1.13411 -1.67279 0
M  V30 11090 C 1048.06 0.320698 -1.92345 0
M  V30 11091 O 1047.33 1.2245 -1.52915 0
M  V30 11092 H 1045.91 -0.416712 -0.619968 0
M  V30 11093 H 1048.58 -1.5986 -1.11493 0
M  V30 11094 H 1047.67 -1.66256 -2.64131 0
M  V30 11095 N 1047.97 1.13488 -1.09353 0
M  V30 11096 C 1049.2 1.88319 -0.849681 0
M  V30 11097 C 1049.61 1.79347 0.602616 0
M  V30 11098 O 1048.95 1.15744 1.4265 0
M  V30 11099 C 1049.02 3.38698 -1.20514 0
M  V30 11100 C 1048.68 3.71452 -2.66219 0
M  V30 11101 C 1049.68 3.70755 -3.64467 0
M  V30 11102 C 1047.36 4.01132 -3.02321 0
M  V30 11103 C 1049.36 3.9928 -4.96845 0
M  V30 11104 C 1047.04 4.29318 -4.3489 0
M  V30 11105 C 1048.04 4.28376 -5.31961 0
M  V30 11106 O 1047.73 4.55872 -6.62145 0
M  V30 11107 H 1047.46 0.603053 -0.305455 0
M  V30 11108 H 1050.01 1.44592 -1.45884 0
M  V30 11109 H 1048.24 3.82925 -0.539022 0
M  V30 11110 H 1049.93 3.94852 -0.940552 0
M  V30 11111 H 1050.7 3.47901 -3.3792 0
M  V30 11112 H 1046.58 4.01013 -2.27398 0
M  V30 11113 H 1050.12 3.9846 -5.72604 0
M  V30 11114 H 1046.02 4.51644 -4.61181 0
M  V30 11115 H 1046.79 4.73544 -6.67607 0
M  V30 11116 N 1049.45 0.880621 1.30701 0
M  V30 11117 C 1050.4 0.333562 2.30196 0
M  V30 11118 C 1051.39 -0.557092 1.59978 0
M  V30 11119 O 1052.6 -0.442009 1.74489 0
M  V30 11120 H 1048.97 0.0892036 0.746691 0
M  V30 11121 H 1050.95 1.18644 2.73799 0
M  V30 11122 C 1049.69 -0.440731 3.44895 0
M  V30 11123 H 1049.02 0.235353 3.99107 0
M  V30 11124 H 1050.46 -0.788676 4.166 0
M  V30 11125 C 1048.92 -1.63613 2.94504 0
M  V30 11126 O 1049.45 -2.73549 2.94166 0
M  V30 11127 N 1047.65 -1.47183 2.5057 0
M  V30 11128 H 1047.2 -0.577479 2.51044 0
M  V30 11129 H 1047.16 -2.27303 2.17211 0
M  V30 11130 N 1050.93 -1.4397 0.641131 0
M  V30 11131 C 1052.15 -2.06818 0.155318 0
M  V30 11132 C 1052.58 -1.47665 -1.16519 0
M  V30 11133 O 1051.94 -0.58192 -1.71707 0
M  V30 11134 C 1051.99 -3.60542 0.0647537 0
M  V30 11135 O 1051.09 -4.00674 -0.976447 0
M  V30 11136 H 1050.43 -0.657962 0.0893404 0
M  V30 11137 H 1052.96 -1.84678 0.88064 0
M  V30 11138 H 1052.97 -4.07816 -0.122552 0
M  V30 11139 H 1051.65 -4.02975 1.02878 0
M  V30 11140 H 1050.22 -3.65013 -0.762905 0
M  V30 11141 N 1052.41 -0.382291 -1.52893 0
M  V30 11142 C 1053.68 0.259354 -1.93873 0
M  V30 11143 C 1054.06 1.64964 -1.3172 0
M  V30 11144 O 1053.41 2.23345 -0.482611 0
M  V30 11145 C 1053.62 0.292765 -3.4777 0
M  V30 11146 C 1054.97 0.525095 -4.21341 0
M  V30 11147 O 1055.99 0.373272 -3.54239 0
M  V30 11148 O 1054.85 0.822004 -5.40283 0
M  V30 11149 H 1051.95 0.159422 -0.811489 0
M  V30 11150 H 1054.49 -0.436289 -1.63996 0
M  V30 11151 H 1053.27 -0.681341 -3.85323 0
M  V30 11152 H 1052.89 1.03362 -3.8393 0
M  V30 11153 N 1053.89 1.57202 -0.111913 0
M  V30 11154 C 1055.12 1.99008 0.554907 0
M  V30 11155 C 1055.52 0.990323 1.61212 0
M  V30 11156 O 1054.87 -0.0259612 1.83682 0
M  V30 11157 C 1054.93 3.37218 1.24598 0
M  V30 11158 C 1054.59 4.55752 0.337549 0
M  V30 11159 C 1055.59 5.18192 -0.421026 0
M  V30 11160 C 1053.27 5.01674 0.25069 0
M  V30 11161 C 1055.27 6.24938 -1.25426 0
M  V30 11162 C 1052.96 6.08282 -0.586186 0
M  V30 11163 C 1053.95 6.6978 -1.3373 0
M  V30 11164 O 1053.64 7.7433 -2.16029 0
M  V30 11165 H 1053.37 0.658669 0.152091 0
M  V30 11166 H 1055.93 2.04492 -0.192937 0
M  V30 11167 H 1054.16 3.28467 2.04074 0
M  V30 11168 H 1055.85 3.63359 1.809 0
M  V30 11169 H 1056.61 4.83634 -0.363752 0
M  V30 11170 H 1052.49 4.53558 0.825005 0
M  V30 11171 H 1056.04 6.72869 -1.84102 0
M  V30 11172 H 1051.93 6.42271 -0.64488 0
M  V30 11173 H 1052.7 7.91395 -2.08894 0
M  V30 11174 N 1055.36 -0.161842 1.56767 0
M  V30 11175 C 1056.61 -0.878224 1.82798 0
M  V30 11176 C 1056.94 -1.81481 0.691242 0
M  V30 11177 O 1056.22 -1.92075 -0.30618 0
M  V30 11178 C 1056.5 -1.66565 3.19262 0
M  V30 11179 C 1056.35 -0.751551 4.43477 0
M  V30 11180 C 1057.67 -2.63134 3.52773 0
M  V30 11181 H 1054.79 -0.317828 0.664947 0
M  V30 11182 H 1057.43 -0.14402 1.89453 0
M  V30 11183 H 1055.58 -2.29157 3.13719 0
M  V30 11184 H 1057.26 -0.137783 4.61094 0
M  V30 11185 H 1055.5 -0.0601785 4.33758 0
M  V30 11186 H 1056.17 -1.33823 5.35533 0
M  V30 11187 H 1058.65 -2.10666 3.5883 0
M  V30 11188 H 1057.52 -3.15289 4.49315 0
M  V30 11189 H 1057.78 -3.43786 2.77963 0
M  V30 11190 N 1056.84 -1.516 -0.430713 0
M  V30 11191 C 1058.07 -1.68414 -1.20185 0
M  V30 11192 C 1058.48 -0.384297 -1.84847 0
M  V30 11193 O 1057.84 0.637808 -1.70992 0
M  V30 11194 C 1057.89 -2.80451 -2.28099 0
M  V30 11195 O 1057.61 -4.05399 -1.66081 0
M  V30 11196 C 1059.11 -3.0859 -3.18256 0
M  V30 11197 H 1056.33 -0.564982 -0.361989 0
M  V30 11198 H 1058.88 -1.9805 -0.50954 0
M  V30 11199 H 1057.03 -2.53395 -2.93036 0
M  V30 11200 H 1057.45 -4.67671 -2.37453 0
M  V30 11201 H 1058.92 -3.9055 -3.90096 0
M  V30 11202 H 1059.4 -2.21264 -3.79393 0
M  V30 11203 H 1060 -3.37331 -2.59014 0
M  V30 11204 N 1058.32 0.686584 -1.41858 0
M  V30 11205 C 1059.54 1.4802 -1.45275 0
M  V30 11206 C 1059.97 1.87997 -0.0621297 0
M  V30 11207 O 1059.33 1.55226 0.936733 0
M  V30 11208 C 1059.38 2.7133 -2.37513 0
M  V30 11209 O 1058.48 3.69159 -1.83836 0
M  V30 11210 H 1057.82 0.445152 -0.492682 0
M  V30 11211 H 1060.35 0.843161 -1.86419 0
M  V30 11212 H 1060.36 3.19537 -2.53693 0
M  V30 11213 H 1059.04 2.41571 -3.3855 0
M  V30 11214 H 1057.61 3.28134 -1.77151 0
M  V30 11215 N 1059.8 1.27835 0.921735 0
M  V30 11216 C 1061.04 1.14692 1.67253 0
M  V30 11217 C 1061.38 -0.305384 1.91784 0
M  V30 11218 O 1060.65 -1.22286 1.51249 0
M  V30 11219 C 1060.93 1.93743 3.03539 0
M  V30 11220 C 1060.79 3.46991 2.86212 0
M  V30 11221 C 1062.11 1.74658 4.03959 0
M  V30 11222 H 1059.23 0.418021 0.606983 0
M  V30 11223 H 1061.87 1.5706 1.06922 0
M  V30 11224 H 1060.02 1.57738 3.55037 0
M  V30 11225 H 1061.69 3.92858 2.41785 0
M  V30 11226 H 1059.93 3.73029 2.21432 0
M  V30 11227 H 1060.6 3.97551 3.82958 0
M  V30 11228 H 1063.08 2.06063 3.61493 0
M  V30 11229 H 1061.96 2.32353 4.97296 0
M  V30 11230 H 1062.22 0.696019 4.36587 0
M  V30 11231 N 1061.28 -1.12907 1.09954 0
M  V30 11232 C 1062.52 -1.84786 0.850039 0
M  V30 11233 C 1062.88 -1.82214 -0.617724 0
M  V30 11234 O 1062.17 -1.25319 -1.44934 0
M  V30 11235 C 1062.36 -3.31885 1.32616 0
M  V30 11236 C 1062.19 -3.48782 2.83868 0
M  V30 11237 C 1060.96 -3.62708 3.51811 0
M  V30 11238 C 1063.16 -3.44367 3.8199 0
M  V30 11239 N 1061.14 -3.67921 4.91434 0
M  V30 11240 C 1062.51 -3.56015 5.07596 0
M  V30 11241 C 1064.57 -3.27801 3.74768 0
M  V30 11242 C 1063.27 -3.52807 6.26833 0
M  V30 11243 C 1065.3 -3.25904 4.93499 0
M  V30 11244 C 1064.66 -3.38108 6.1795 0
M  V30 11245 H 1060.76 -0.692126 0.363986 0
M  V30 11246 H 1063.34 -1.35208 1.40096 0
M  V30 11247 H 1061.51 -3.80016 0.802625 0
M  V30 11248 H 1063.25 -3.91598 1.02142 0
M  V30 11249 H 1060 -3.64613 3.02248 0
M  V30 11250 H 1060.42 -3.74204 5.64181 0
M  V30 11251 H 1065.07 -3.17264 2.7947 0
M  V30 11252 H 1062.78 -3.62116 7.22425 0
M  V30 11253 H 1066.37 -3.14275 4.89615 0
M  V30 11254 H 1065.25 -3.36607 7.08283 0
M  V30 11255 N 1062.75 -0.88754 -1.30232 0
M  V30 11256 C 1064 -0.508031 -1.96334 0
M  V30 11257 C 1064.33 0.940905 -1.69884 0
M  V30 11258 O 1063.61 1.66523 -1.005 0
M  V30 11259 C 1063.89 -0.786566 -3.51405 0
M  V30 11260 C 1063.74 -2.28632 -3.8736 0
M  V30 11261 C 1065.06 -0.264803 -4.39303 0
M  V30 11262 H 1062.18 -0.186051 -0.71313 0
M  V30 11263 H 1064.82 -1.112 -1.5406 0
M  V30 11264 H 1062.97 -0.272523 -3.87543 0
M  V30 11265 H 1064.65 -2.86896 -3.61231 0
M  V30 11266 H 1062.89 -2.75194 -3.35337 0
M  V30 11267 H 1063.56 -2.43181 -4.95547 0
M  V30 11268 H 1066.04 -0.704809 -4.10087 0
M  V30 11269 H 1064.91 -0.488998 -5.46717 0
M  V30 11270 H 1065.17 0.834055 -4.34161 0
M  V30 11271 N 1064.23 1.43628 -0.648757 0
M  V30 11272 C 1065.48 2.01465 -0.16002 0
M  V30 11273 C 1065.8 1.51413 1.22878 0
M  V30 11274 O 1065.07 0.724919 1.81994 0
M  V30 11275 H 1063.65 0.744885 -0.0561672 0
M  V30 11276 H 1066.31 1.75897 -0.839422 0
M  V30 11277 H 1065.41 3.1178 -0.141213 0
M  V30 11278 N 1065.71 0.390394 1.52688 0
M  V30 11279 C 1066.96 -0.191445 2.01593 0
M  V30 11280 C 1067.29 -1.46723 1.27681 0
M  V30 11281 O 1066.54 -1.92248 0.365972 0
M  V30 11282 C 1066.84 -0.50468 3.53819 0
M  V30 11283 C 1066.51 0.679691 4.45748 0
M  V30 11284 C 1065.17 1.0046 4.70597 0
M  V30 11285 C 1067.52 1.47198 4.99982 0
M  V30 11286 C 1064.85 2.12334 5.46929 0
M  V30 11287 C 1067.2 2.58133 5.77538 0
M  V30 11288 C 1065.86 2.91131 6.00665 0
M  V30 11289 H 1065.13 -0.0700548 0.737681 0
M  V30 11290 H 1067.78 0.527965 1.84078 0
M  V30 11291 H 1066.09 -1.30543 3.69413 0
M  V30 11292 H 1067.78 -0.967524 3.89153 0
M  V30 11293 H 1064.37 0.416446 4.26572 0
M  V30 11294 H 1068.56 1.2342 4.80709 0
M  V30 11295 H 1063.81 2.38269 5.63061 0
M  V30 11296 H 1067.99 3.19925 6.18564 0
M  V30 11297 H 1065.61 3.77938 6.59596 0
M  V30 11298 N 1067.19 -1.57141 0.120249 0
M  V30 11299 C 1068.47 -1.8677 -0.581075 0
M  V30 11300 C 1068.85 -1.02163 -1.84732 0
M  V30 11301 O 1068.19 -0.100897 -2.28277 0
M  V30 11302 C 1068.4 -3.37923 -0.872316 0
M  V30 11303 C 1069.75 -4.0655 -1.22483 0
M  V30 11304 O 1070.78 -3.42948 -0.962539 0
M  V30 11305 O 1069.63 -5.18821 -1.71717 0
M  V30 11306 H 1066.73 -0.773219 -0.293362 0
M  V30 11307 H 1069.27 -1.68992 0.154846 0
M  V30 11308 H 1068.05 -3.91292 0.0249416 0
M  V30 11309 H 1067.67 -3.61135 -1.66335 0
M  V30 11310 N 1068.67 0.153526 -1.5685 0
M  V30 11311 C 1069.6 1.2147 -1.94365 0
M  V30 11312 C 1070.61 1.39532 -0.838726 0
M  V30 11313 O 1071.8 1.39219 -1.11715 0
M  V30 11314 C 1068.9 2.5806 -2.19677 0
M  V30 11315 C 1068.07 2.61062 -3.50949 0
M  V30 11316 C 1067.13 3.79144 -3.64878 0
M  V30 11317 O 1066.16 3.64319 -4.37333 0
M  V30 11318 N 1067.36 4.96333 -3.01054 0
M  V30 11319 H 1070.13 0.895889 -2.85996 0
M  V30 11320 H 1067.69 0.343147 -1.58222 0
M  V30 11321 H 1069.68 3.35553 -2.26243 0
M  V30 11322 H 1068.25 2.8226 -1.34343 0
M  V30 11323 H 1067.47 1.69533 -3.55882 0
M  V30 11324 H 1068.76 2.60094 -4.37297 0
M  V30 11325 H 1068.15 5.1128 -2.42093 0
M  V30 11326 H 1066.71 5.71625 -3.13191 0
M  V30 11327 N 1070.14 1.51827 0.422667 0
M  V30 11328 C 1071.56 1.57533 1.00201 0
M  V30 11329 C 1071.91 0.407623 1.91919 0
M  V30 11330 O 1071.03 -0.473763 2.1115 0
M  V30 11331 C 1071.63 2.85508 1.82403 0
M  V30 11332 C 1070.19 2.93737 2.35362 0
M  V30 11333 C 1069.33 2.52343 1.14971 0
M  V30 11334 H 1072.28 1.57391 0.20339 0
M  V30 11335 H 1072.3 2.70097 2.68007 0
M  V30 11336 H 1071.82 3.70477 1.15623 0
M  V30 11337 H 1069.92 2.13231 3.05554 0
M  V30 11338 H 1070.03 3.977 2.67155 0
M  V30 11339 H 1068.39 2.05878 1.49955 0
M  V30 11340 H 1069.18 3.39672 0.497786 0
M  V30 11341 N 1071.62 -0.679052 1.4222 0
M  V30 11342 C 1072.53 -1.82221 1.47759 0
M  V30 11343 C 1073.55 -1.70092 0.3667 0
M  V30 11344 O 1074.72 -1.91718 0.616957 0
M  V30 11345 C 1071.79 -3.18332 1.37351 0
M  V30 11346 C 1070.85 -3.42449 2.58896 0
M  V30 11347 C 1070.08 -4.72067 2.48976 0
M  V30 11348 O 1070.31 -5.49683 1.5233 0
M  V30 11349 O 1069.24 -4.97333 3.39033 0
M  V30 11350 H 1073.07 -1.80504 2.44238 0
M  V30 11351 H 1070.65 -0.834251 1.23938 0
M  V30 11352 H 1072.53 -3.99563 1.33893 0
M  V30 11353 H 1071.21 -3.20696 0.439965 0
M  V30 11354 H 1070.12 -2.61083 2.6793 0
M  V30 11355 H 1071.45 -3.44912 3.51136 0
M  V30 11356 N 1073.1 -1.28322 -0.914942 0
M  V30 11357 C 1074.33 -1.18254 -1.69775 0
M  V30 11358 C 1074.74 0.258978 -1.87015 0
M  V30 11359 O 1074.1 1.17514 -1.3963 0
M  V30 11360 C 1074.15 -1.8753 -3.09054 0
M  V30 11361 O 1073.87 -3.26051 -2.92613 0
M  V30 11362 C 1075.37 -1.83749 -4.03424 0
M  V30 11363 H 1072.59 -0.41055 -0.530744 0
M  V30 11364 H 1075.14 -1.69425 -1.14523 0
M  V30 11365 H 1073.29 -1.40233 -3.61128 0
M  V30 11366 H 1073.71 -3.60729 -3.80756 0
M  V30 11367 H 1075.18 -2.36813 -4.98622 0
M  V30 11368 H 1075.66 -0.809601 -4.31674 0
M  V30 11369 H 1076.26 -2.3072 -3.57279 0
M  V30 11370 N 1074.58 1.12322 -1.10551 0
M  V30 11371 C 1075.51 2.20176 -0.777486 0
M  V30 11372 C 1076.49 1.68252 0.250069 0
M  V30 11373 O 1077.67 1.93856 0.115574 0
M  V30 11374 C 1074.8 3.46666 -0.209822 0
M  V30 11375 C 1073.76 4.11749 -1.1682 0
M  V30 11376 C 1073.08 5.32703 -0.461684 0
M  V30 11377 C 1074.38 4.57746 -2.51527 0
M  V30 11378 H 1076.08 2.47872 -1.67928 0
M  V30 11379 H 1073.62 1.19136 -0.808863 0
M  V30 11380 H 1075.58 4.21388 0.0318068 0
M  V30 11381 H 1074.3 3.18401 0.727226 0
M  V30 11382 H 1072.96 3.39009 -1.3953 0
M  V30 11383 H 1072.61 5.00706 0.479875 0
M  V30 11384 H 1072.31 5.77197 -1.1008 0
M  V30 11385 H 1073.83 6.10172 -0.228629 0
M  V30 11386 H 1075.25 5.23835 -2.32958 0
M  V30 11387 H 1073.64 5.13021 -3.11335 0
M  V30 11388 H 1074.71 3.71667 -3.11435 0
M  V30 11389 N 1076.06 0.894434 1.2976 0
M  V30 11390 C 1077.3 0.516646 1.95385 0
M  V30 11391 C 1077.63 -0.939141 1.70895 0
M  V30 11392 O 1076.9 -1.66153 1.03778 0
M  V30 11393 H 1075.48 0.188072 0.722937 0
M  V30 11394 H 1078.14 1.13958 1.58113 0
M  V30 11395 H 1077.23 0.694819 3.04267 0
M  V30 11396 N 1077.53 -1.43282 0.656365 0
M  V30 11397 C 1078.95 -1.56272 0.324213 0
M  V30 11398 C 1079.15 -1.63946 -1.1715 0
M  V30 11399 O 1078.21 -1.59625 -1.95643 0
M  V30 11400 C 1079.52 -2.82204 1.03833 0
M  V30 11401 C 1081.07 -2.95952 1.01889 0
M  V30 11402 C 1081.54 -4.2472 1.71397 0
M  V30 11403 N 1083.03 -4.31591 1.68176 0
M  V30 11404 C 1083.77 -5.30001 2.1883 0
M  V30 11405 N 1083.26 -6.34671 2.77785 0
M  V30 11406 N 1085.06 -5.21676 2.09311 0
M  V30 11407 H 1077.21 -1.36544 1.62694 0
M  V30 11408 H 1079.47 -0.655999 0.684375 0
M  V30 11409 H 1079.18 -2.82608 2.09346 0
M  V30 11410 H 1079.05 -3.72527 0.591878 0
M  V30 11411 H 1081.44 -2.95087 -0.0278431 0
M  V30 11412 H 1081.52 -2.0691 1.50406 0
M  V30 11413 H 1081.16 -4.26346 2.76028 0
M  V30 11414 H 1081.09 -5.12665 1.20342 0
M  V30 11415 H 1083.58 -3.56573 1.25157 0
M  V30 11416 H 1083.9 -7.06087 3.14104 0
M  V30 11417 H 1082.24 -6.35285 2.81847 0
M  V30 11418 H 1085.43 -4.3882 1.62955 0
M  V30 11419 H 1085.61 -5.9821 2.49095 0
M  V30 11420 N 1079.01 -0.398486 -1.52479 0
M  V30 11421 C 1080.43 -0.0488635 -1.59525 0
M  V30 11422 C 1080.63 1.43756 -1.41197 0
M  V30 11423 O 1079.69 2.20317 -1.23357 0
M  V30 11424 C 1081 -0.534262 -2.95916 0
M  V30 11425 C 1082.55 -0.491314 -3.0912 0
M  V30 11426 C 1083.02 -0.953049 -4.47974 0
M  V30 11427 N 1084.51 -0.909434 -4.54184 0
M  V30 11428 C 1085.25 -1.23801 -5.59876 0
M  V30 11429 N 1084.74 -1.63752 -6.73169 0
M  V30 11430 N 1086.54 -1.15867 -5.50028 0
M  V30 11431 H 1078.69 -1.36608 -1.62641 0
M  V30 11432 H 1080.95 -0.560515 -0.764544 0
M  V30 11433 H 1080.66 -1.57277 -3.14574 0
M  V30 11434 H 1080.53 0.0617787 -3.77149 0
M  V30 11435 H 1082.92 0.538123 -2.90152 0
M  V30 11436 H 1083 -1.12327 -2.29818 0
M  V30 11437 H 1082.64 -1.98076 -4.67684 0
M  V30 11438 H 1082.57 -0.298007 -5.25756 0
M  V30 11439 H 1085.06 -0.615569 -3.72853 0
M  V30 11440 H 1085.38 -1.87163 -7.49793 0
M  V30 11441 H 1083.72 -1.67647 -6.74477 0
M  V30 11442 H 1086.91 -0.845502 -4.60401 0
M  V30 11443 H 1087.09 -1.41805 -6.32294 0
M  V30 11444 N 1080.49 1.57075 -0.12858 0
M  V30 11445 C 1081.4 2.19369 0.831533 0
M  V30 11446 C 1082.42 1.17258 1.28555 0
M  V30 11447 O 1083.59 1.49766 1.34656 0
M  V30 11448 C 1080.66 2.78846 2.06024 0
M  V30 11449 C 1079.72 3.96024 1.65722 0
M  V30 11450 C 1078.95 4.52655 2.82735 0
M  V30 11451 O 1079.18 4.08175 3.98434 0
M  V30 11452 O 1078.11 5.43198 2.59268 0
M  V30 11453 H 1081.94 3.01887 0.331352 0
M  V30 11454 H 1079.52 1.49081 0.0975226 0
M  V30 11455 H 1081.4 3.16721 2.77967 0
M  V30 11456 H 1080.08 1.99353 2.5503 0
M  V30 11457 H 1078.98 3.62899 0.908574 0
M  V30 11458 H 1080.32 4.76981 1.21449 0
M  V30 11459 N 1081.97 -0.145205 1.5693 0
M  V30 11460 C 1083.2 -0.871133 1.87336 0
M  V30 11461 C 1083.61 -1.7517 0.714992 0
M  V30 11462 O 1082.95 -1.80815 -0.324304 0
M  V30 11463 C 1083.01 -1.77775 3.12468 0
M  V30 11464 C 1082.68 -1.07416 4.44197 0
M  V30 11465 C 1083.67 -0.42722 5.18142 0
M  V30 11466 C 1081.36 -1.06313 4.9092 0
M  V30 11467 C 1083.35 0.221348 6.37016 0
M  V30 11468 C 1081.04 -0.410755 6.09718 0
M  V30 11469 C 1082.04 0.230357 6.82611 0
M  V30 11470 O 1081.73 0.872389 7.99152 0
M  V30 11471 H 1081.46 -0.257174 0.62517 0
M  V30 11472 H 1084.01 -0.142159 2.04907 0
M  V30 11473 H 1082.24 -2.54771 2.9091 0
M  V30 11474 H 1083.93 -2.37579 3.29107 0
M  V30 11475 H 1084.7 -0.427536 4.83112 0
M  V30 11476 H 1080.58 -1.55156 4.34105 0
M  V30 11477 H 1084.12 0.722349 6.9385 0
M  V30 11478 H 1080.02 -0.408112 6.44209 0
M  V30 11479 H 1080.78 0.774236 8.1483 0
M  V30 11480 N 1083.45 -1.52049 -0.414609 0
M  V30 11481 C 1084.7 -1.65511 -1.15977 0
M  V30 11482 C 1085.02 -0.384703 -1.91168 0
M  V30 11483 O 1084.29 0.600247 -1.86477 0
M  V30 11484 H 1082.87 -0.610039 -0.431116 0
M  V30 11485 H 1085.53 -1.8907 -0.473139 0
M  V30 11486 H 1084.62 -2.4936 -1.87686 0
M  V30 11487 N 1084.93 0.6715 -1.42579 0
M  V30 11488 C 1086.17 1.42871 -1.42941 0
M  V30 11489 C 1086.49 1.94941 -0.0480483 0
M  V30 11490 O 1085.76 1.73275 0.913921 0
M  V30 11491 H 1084.34 0.530189 -0.526221 0
M  V30 11492 H 1087.01 0.793219 -1.78028 0
M  V30 11493 H 1086.1 2.2801 -2.13114 0
M  V30 11494 N 1086.4 1.28806 0.908124 0
M  V30 11495 C 1087.63 1.19153 1.69146 0
M  V30 11496 C 1088.05 -0.249056 1.8715 0
M  V30 11497 O 1087.4 -1.16772 1.40251 0
M  V30 11498 C 1087.45 1.89167 3.08055 0
M  V30 11499 O 1087.18 3.27599 2.90879 0
M  V30 11500 C 1088.68 1.85886 4.02444 0
M  V30 11501 H 1085.9 0.413359 0.528559 0
M  V30 11502 H 1088.44 1.7003 1.13622 0
M  V30 11503 H 1086.6 1.42146 3.60379 0
M  V30 11504 H 1087.01 3.62743 3.78837 0
M  V30 11505 H 1088.48 2.39454 4.97359 0
M  V30 11506 H 1088.96 0.832483 4.31238 0
M  V30 11507 H 1089.57 2.32612 3.5605 0
M  V30 11508 N 1087.88 -1.11734 1.11145 0
M  V30 11509 C 1089.13 -1.83677 0.859684 0
M  V30 11510 C 1089.46 -1.84265 -0.613182 0
M  V30 11511 O 1088.74 -1.29351 -1.45254 0
M  V30 11512 C 1089.02 -3.31003 1.41805 0
M  V30 11513 C 1088.87 -3.38827 2.95831 0
M  V30 11514 C 1090.19 -4.26984 1.06645 0
M  V30 11515 H 1087.31 -0.666879 0.313754 0
M  V30 11516 H 1089.95 -1.31038 1.37583 0
M  V30 11517 H 1088.1 -3.75961 0.979054 0
M  V30 11518 H 1089.77 -3.02451 3.48312 0
M  V30 11519 H 1088.02 -2.79143 3.32056 0
M  V30 11520 H 1088.69 -4.42508 3.29986 0
M  V30 11521 H 1091.16 -3.9019 1.44537 0
M  V30 11522 H 1090.04 -5.2846 1.48394 0
M  V30 11523 H 1090.3 -4.42094 -0.0231866 0
M  V30 11524 N 1089.36 -0.901303 -1.29284 0
M  V30 11525 C 1090.32 -0.385081 -2.25942 0
M  V30 11526 C 1091.32 0.481626 -1.53418 0
M  V30 11527 O 1092.51 0.286451 -1.71829 0
M  V30 11528 C 1089.64 0.449319 -3.37926 0
M  V30 11529 H 1090.84 -1.23877 -2.7312 0
M  V30 11530 H 1088.39 -0.679586 -1.40753 0
M  V30 11531 H 1089.13 1.32292 -2.9609 0
M  V30 11532 H 1088.91 -0.171731 -3.91724 0
M  V30 11533 H 1090.4 0.801746 -4.09831 0
M  V30 11534 N 1090.84 1.42931 -0.663954 0
M  V30 11535 C 1091.77 2.33499 0.00731327 0
M  V30 11536 C 1092.75 1.50074 0.800733 0
M  V30 11537 O 1093.93 1.78708 0.760062 0
M  V30 11538 C 1091.06 3.33569 0.966897 0
M  V30 11539 C 1090.02 4.27064 0.282839 0
M  V30 11540 C 1089.34 5.17257 1.35461 0
M  V30 11541 C 1090.64 5.1564 -0.831438 0
M  V30 11542 H 1092.34 2.89879 -0.749044 0
M  V30 11543 H 1089.88 1.39385 -0.361656 0
M  V30 11544 H 1091.84 3.95833 1.44549 0
M  V30 11545 H 1090.56 2.75469 1.75455 0
M  V30 11546 H 1089.22 3.6618 -0.175417 0
M  V30 11547 H 1088.87 4.5549 2.13397 0
M  V30 11548 H 1088.57 5.80634 0.902098 0
M  V30 11549 H 1090.09 5.82395 1.83436 0
M  V30 11550 H 1091.51 5.71651 -0.434534 0
M  V30 11551 H 1089.9 5.87794 -1.20908 0
M  V30 11552 H 1090.97 4.54687 -1.68487 0
M  V30 11553 N 1092.32 0.406567 1.52266 0
M  V30 11554 C 1093.73 -0.063607 1.86592 0
M  V30 11555 C 1094.08 -1.4466 1.32544 0
M  V30 11556 O 1093.2 -2.05971 0.663692 0
M  V30 11557 C 1093.8 -0.122198 3.3858 0
M  V30 11558 C 1092.36 -0.536701 3.72554 0
M  V30 11559 C 1091.5 0.290422 2.75775 0
M  V30 11560 H 1094.45 0.623738 1.45929 0
M  V30 11561 H 1094.48 -0.937964 3.68758 0
M  V30 11562 H 1093.99 0.884495 3.77887 0
M  V30 11563 H 1092.09 -1.55013 3.38824 0
M  V30 11564 H 1092.2 -0.282867 4.78264 0
M  V30 11565 H 1090.57 -0.246864 2.53501 0
M  V30 11566 H 1091.35 1.29541 3.17921 0
M  V30 11567 N 1093.79 -1.57004 0.136909 0
M  V30 11568 C 1095.04 -1.94972 -0.51662 0
M  V30 11569 C 1095.36 -1.02367 -1.66674 0
M  V30 11570 O 1096.56 -1.29873 -2.38423 0
M  V30 11571 C 1095.02 -3.4657 -0.970435 0
M  V30 11572 C 1094.63 -4.47741 0.152204 0
M  V30 11573 C 1096.37 -3.93423 -1.59432 0
M  V30 11574 C 1094.28 -5.90537 -0.319315 0
M  V30 11575 H 1093.21 -0.727873 -0.196766 0
M  V30 11576 H 1095.86 -1.82181 0.219637 0
M  V30 11577 H 1094.24 -3.54657 -1.76165 0
M  V30 11578 H 1095.41 -4.5134 0.928925 0
M  V30 11579 H 1093.73 -4.10746 0.683867 0
M  V30 11580 H 1096.33 -4.97539 -1.95856 0
M  V30 11581 H 1096.67 -3.34404 -2.47951 0
M  V30 11582 H 1097.2 -3.8821 -0.868193 0
M  V30 11583 H 1093.94 -6.53352 0.530248 0
M  V30 11584 H 1093.46 -5.90321 -1.06213 0
M  V30 11585 H 1095.14 -6.42346 -0.774662 0
M  V30 11586 N 1095.27 0.136881 -1.57004 0
M  V30 11587 C 1096.52 0.844147 -1.85056 0
M  V30 11588 C 1096.87 1.78328 -0.722278 0
M  V30 11589 O 1096.17 1.89557 0.279059 0
M  V30 11590 C 1096.36 1.64711 -3.17183 0
M  V30 11591 C 1096.19 0.787229 -4.42756 0
M  V30 11592 C 1094.96 0.448938 -5.03302 0
M  V30 11593 C 1097.16 0.112947 -5.14176 0
M  V30 11594 N 1095.14 -0.423481 -6.12438 0
M  V30 11595 C 1096.51 -0.619195 -6.169 0
M  V30 11596 C 1098.57 0.0346687 -4.97888 0
M  V30 11597 C 1097.27 -1.42224 -7.05099 0
M  V30 11598 C 1099.29 -0.755143 -5.86559 0
M  V30 11599 C 1098.66 -1.47553 -6.88772 0
M  V30 11600 H 1094.76 0.286398 -0.727668 0
M  V30 11601 H 1097.34 0.108903 -1.94395 0
M  V30 11602 H 1095.51 2.35352 -3.08972 0
M  V30 11603 H 1097.24 2.29833 -3.33105 0
M  V30 11604 H 1094 0.787068 -4.67014 0
M  V30 11605 H 1094.42 -0.851013 -6.7163 0
M  V30 11606 H 1099.06 0.577271 -4.18841 0
M  V30 11607 H 1096.78 -1.97606 -7.83567 0
M  V30 11608 H 1100.37 -0.817835 -5.76023 0
M  V30 11609 H 1099.25 -2.07687 -7.56198 0
M  V30 11610 N 1096.75 1.52266 0.40654 0
M  V30 11611 C 1098 1.6568 1.15035 0
M  V30 11612 C 1098.31 0.394135 1.91588 0
M  V30 11613 O 1099.52 0.408113 2.68415 0
M  V30 11614 C 1097.97 2.92725 2.0938 0
M  V30 11615 C 1097.58 4.26108 1.38332 0
M  V30 11616 C 1099.33 3.15502 2.84004 0
M  V30 11617 C 1097.23 5.44275 2.3134 0
M  V30 11618 H 1096.16 0.61719 0.43312 0
M  V30 11619 H 1098.81 1.78755 0.414598 0
M  V30 11620 H 1097.2 2.73355 2.86519 0
M  V30 11621 H 1098.37 4.55971 0.665396 0
M  V30 11622 H 1096.69 4.09454 0.757384 0
M  V30 11623 H 1099.28 4.00964 3.5374 0
M  V30 11624 H 1099.63 2.29842 3.471 0
M  V30 11625 H 1100.16 3.35357 2.13964 0
M  V30 11626 H 1096.9 6.3229 1.72887 0
M  V30 11627 H 1096.42 5.18749 3.01098 0
M  V30 11628 H 1098.1 5.77457 2.91809 0
M  V30 11629 N 1098.23 -0.663929 1.42933 0
M  V30 11630 C 1099.64 -0.978346 1.26097 0
M  V30 11631 C 1099.84 -2.00756 0.172968 0
M  V30 11632 O 1098.9 -2.48418 -0.452184 0
M  V30 11633 C 1100.21 -1.4728 2.62162 0
M  V30 11634 C 1101.76 -1.59001 2.69606 0
M  V30 11635 C 1102.24 -2.1184 4.06064 0
M  V30 11636 N 1103.73 -2.19158 4.08074 0
M  V30 11637 C 1104.46 -2.61141 5.10483 0
M  V30 11638 N 1103.96 -3.02498 6.23271 0
M  V30 11639 N 1105.75 -2.60986 4.97838 0
M  V30 11640 H 1097.9 0.0173096 2.12393 0
M  V30 11641 H 1100.17 -0.0548116 0.946414 0
M  V30 11642 H 1099.87 -0.791008 3.42689 0
M  V30 11643 H 1099.75 -2.4497 2.86827 0
M  V30 11644 H 1102.13 -2.26284 1.89418 0
M  V30 11645 H 1102.21 -0.597728 2.48718 0
M  V30 11646 H 1101.86 -1.45162 4.86714 0
M  V30 11647 H 1101.79 -3.1188 4.2431 0
M  V30 11648 H 1104.28 -1.90013 3.26655 0
M  V30 11649 H 1104.59 -3.33251 6.97254 0
M  V30 11650 H 1102.94 -3.00328 6.2676 0
M  V30 11651 H 1106.13 -2.28046 4.08794 0
M  V30 11652 H 1106.3 -2.93384 5.7778 0
M  V30 11653 N 1099.71 -1.29285 -0.901281 0
M  V30 11654 C 1100.94 -1.19874 -1.68267 0
M  V30 11655 C 1101.34 0.243387 -1.87628 0
M  V30 11656 O 1100.69 1.17497 -1.41209 0
M  V30 11657 C 1100.75 -1.83907 -3.08899 0
M  V30 11658 C 1100.41 -3.33198 -3.12775 0
M  V30 11659 C 1101.41 -4.29446 -2.9304 0
M  V30 11660 C 1099.1 -3.7437 -3.34892 0
M  V30 11661 C 1101.09 -5.64842 -2.95352 0
M  V30 11662 C 1098.78 -5.09888 -3.36834 0
M  V30 11663 C 1099.77 -6.04934 -3.17087 0
M  V30 11664 O 1099.46 -7.37979 -3.18815 0
M  V30 11665 H 1099.19 -0.416601 -0.532372 0
M  V30 11666 H 1101.75 -1.71154 -1.13558 0
M  V30 11667 H 1099.98 -1.27136 -3.65203 0
M  V30 11668 H 1101.67 -1.6884 -3.69118 0
M  V30 11669 H 1102.43 -3.9897 -2.75767 0
M  V30 11670 H 1098.31 -3.00846 -3.49303 0
M  V30 11671 H 1101.86 -6.39004 -2.79856 0
M  V30 11672 H 1097.75 -5.40009 -3.53638 0
M  V30 11673 H 1098.52 -7.46763 -3.35092 0
M  V30 11674 N 1101.18 1.11143 -1.11736 0
M  V30 11675 C 1102.12 2.16467 -0.722299 0
M  V30 11676 C 1103.1 1.60118 0.283006 0
M  V30 11677 O 1104.28 1.87651 0.178696 0
M  V30 11678 C 1101.41 3.38632 -0.0679339 0
M  V30 11679 C 1100.45 4.13654 -1.03888 0
M  V30 11680 S 1101.29 4.70187 -2.5629 0
M  V30 11681 C 1102.44 5.95671 -1.92163 0
M  V30 11682 H 1102.67 2.49644 -1.61447 0
M  V30 11683 H 1100.21 1.22816 -0.935708 0
M  V30 11684 H 1102.17 4.09378 0.303253 0
M  V30 11685 H 1100.83 3.03709 0.80124 0
M  V30 11686 H 1100.02 5.01221 -0.528522 0
M  V30 11687 H 1099.62 3.48683 -1.35265 0
M  V30 11688 H 1101.91 6.65681 -1.25994 0
M  V30 11689 H 1102.86 6.51357 -2.77741 0
M  V30 11690 H 1103.26 5.47359 -1.3805 0
M  V30 11691 N 1102.66 0.908147 1.28804 0
M  V30 11692 C 1103.91 0.53734 1.94826 0
M  V30 11693 C 1104.23 -0.920962 1.71882 0
M  V30 11694 O 1103.5 -1.65043 1.05534 0
M  V30 11695 H 1102.08 0.195729 0.720902 0
M  V30 11696 H 1104.74 1.15628 1.56895 0
M  V30 11697 H 1103.84 0.727052 3.03513 0
M  V30 11698 N 1104.14 -1.42577 0.671525 0
M  V30 11699 C 1105.39 -2.01584 0.192431 0
M  V30 11700 C 1105.72 -1.53076 -1.19992 0
M  V30 11701 O 1104.97 -0.722196 -1.81887 0
M  V30 11702 C 1105.27 -3.56985 0.172097 0
M  V30 11703 C 1104.94 -4.24912 1.50867 0
M  V30 11704 C 1103.6 -4.43182 1.87464 0
M  V30 11705 C 1105.95 -4.6322 2.38908 0
M  V30 11706 C 1103.28 -4.97031 3.11732 0
M  V30 11707 C 1105.63 -5.18447 3.62485 0
M  V30 11708 C 1104.29 -5.34932 3.99255 0
M  V30 11709 H 1103.56 -0.737647 0.0704155 0
M  V30 11710 H 1106.21 -1.70807 0.865862 0
M  V30 11711 H 1104.52 -3.87411 -0.584835 0
M  V30 11712 H 1106.21 -4.00419 -0.215749 0
M  V30 11713 H 1102.8 -4.11048 1.21397 0
M  V30 11714 H 1106.99 -4.4878 2.1192 0
M  V30 11715 H 1102.24 -5.07979 3.40246 0
M  V30 11716 H 1106.42 -5.47075 4.30909 0
M  V30 11717 H 1104.04 -5.76422 4.95623 0
M  V30 11718 N 1105.62 -0.414636 -1.52048 0
M  V30 11719 C 1106.58 0.396285 -2.25748 0
M  V30 11720 C 1107.58 0.969003 -1.28324 0
M  V30 11721 O 1108.77 0.847016 -1.52221 0
M  V30 11722 C 1105.9 1.55838 -3.03195 0
M  V30 11723 H 1107.1 -0.249311 -2.98862 0
M  V30 11724 H 1104.65 -0.167276 -1.55402 0
M  V30 11725 H 1105.38 2.24068 -2.34444 0
M  V30 11726 H 1105.17 1.15414 -3.74729 0
M  V30 11727 H 1106.66 2.13187 -3.59084 0
M  V30 11728 N 1107.1 1.56929 -0.145233 0
M  V30 11729 C 1108.03 2.19685 0.791263 0
M  V30 11730 C 1109.01 1.14455 1.25833 0
M  V30 11731 O 1110.19 1.42791 1.31622 0
M  V30 11732 C 1107.32 2.81705 2.03124 0
M  V30 11733 C 1106.28 3.92746 1.70101 0
M  V30 11734 C 1105.6 4.41694 3.01347 0
M  V30 11735 C 1106.9 5.13606 0.949025 0
M  V30 11736 H 1108.6 2.98196 0.26825 0
M  V30 11737 H 1106.14 1.43434 0.127584 0
M  V30 11738 H 1108.1 3.24273 2.69119 0
M  V30 11739 H 1106.82 2.00523 2.57795 0
M  V30 11740 H 1105.48 3.50794 1.06486 0
M  V30 11741 H 1105.13 3.57336 3.54006 0
M  V30 11742 H 1104.83 5.1659 2.80016 0
M  V30 11743 H 1106.35 4.86931 3.68416 0
M  V30 11744 H 1107.76 5.53029 1.51102 0
M  V30 11745 H 1106.16 5.94252 0.835711 0
M  V30 11746 H 1107.23 4.84863 -0.0595631 0
M  V30 11747 N 1108.58 -0.128553 1.57075 0
M  V30 11748 C 1109.52 -1.15812 1.9964 0
M  V30 11749 C 1110.49 -1.41679 0.86696 0
M  V30 11750 O 1111.68 -1.53705 1.13046 0
M  V30 11751 C 1108.82 -2.48198 2.39774 0
M  V30 11752 C 1107.93 -2.29348 3.66092 0
M  V30 11753 C 1107.07 -3.54898 3.95248 0
M  V30 11754 C 1106.1 -3.31164 5.14779 0
M  V30 11755 N 1105.24 -4.48891 5.39853 0
M  V30 11756 H 1110.08 -0.788136 2.87389 0
M  V30 11757 H 1107.62 -0.377682 1.42169 0
M  V30 11758 H 1109.58 -3.25414 2.61077 0
M  V30 11759 H 1108.21 -2.83108 1.5508 0
M  V30 11760 H 1107.26 -1.43095 3.5246 0
M  V30 11761 H 1108.57 -2.07781 4.53463 0
M  V30 11762 H 1107.72 -4.40536 4.17148 0
M  V30 11763 H 1106.46 -3.79487 3.06335 0
M  V30 11764 H 1105.47 -2.43915 4.92733 0
M  V30 11765 H 1106.69 -3.07954 6.05261 0
M  V30 11766 H 1104.64 -4.73619 4.53895 0
M  V30 11767 H 1104.56 -4.30394 6.21528 0
M  V30 11768 H 1105.82 -5.35691 5.66265 0
M  V30 11769 N 1110.05 -1.5248 -0.398459 0
M  V30 11770 C 1111.33 -1.57634 -1.15805 0
M  V30 11771 C 1111.71 -0.363785 -2.07942 0
M  V30 11772 O 1111.06 0.648598 -2.19101 0
M  V30 11773 C 1111.27 -2.91042 -1.92602 0
M  V30 11774 C 1112.62 -3.44433 -2.48296 0
M  V30 11775 O 1113.64 -2.92853 -2.0277 0
M  V30 11776 O 1112.5 -4.34529 -3.31432 0
M  V30 11777 H 1109.59 -0.63539 -0.529347 0
M  V30 11778 H 1112.14 -1.64812 -0.404376 0
M  V30 11779 H 1110.91 -3.7074 -1.25169 0
M  V30 11780 H 1110.53 -2.87206 -2.74952 0
M  V30 11781 N 1111.53 0.65634 -1.43283 0
M  V30 11782 C 1112.48 1.76934 -1.48199 0
M  V30 11783 C 1113.45 1.62748 -0.332023 0
M  V30 11784 O 1114.63 1.83036 -0.538735 0
M  V30 11785 C 1111.77 3.15072 -1.40797 0
M  V30 11786 C 1110.89 3.40414 -2.65974 0
M  V30 11787 C 1110.02 4.68383 -2.50582 0
M  V30 11788 C 1109.06 4.8682 -3.71043 0
M  V30 11789 N 1108.2 6.06043 -3.5448 0
M  V30 11790 H 1113.04 1.72067 -2.43304 0
M  V30 11791 H 1110.57 0.839728 -1.20777 0
M  V30 11792 H 1112.53 3.94925 -1.345 0
M  V30 11793 H 1111.16 3.19017 -0.492754 0
M  V30 11794 H 1110.21 2.54681 -2.82563 0
M  V30 11795 H 1111.53 3.49925 -3.55463 0
M  V30 11796 H 1110.68 5.56357 -2.41975 0
M  V30 11797 H 1109.42 4.61187 -1.58612 0
M  V30 11798 H 1108.42 3.97282 -3.80062 0
M  V30 11799 H 1109.65 4.95847 -4.64017 0
M  V30 11800 H 1107.6 5.99985 -2.65242 0
M  V30 11801 H 1107.51 6.16498 -4.37568 0
M  V30 11802 H 1108.78 6.96647 -3.49719 0
M  V30 11803 N 1113.01 1.29761 0.894412 0
M  V30 11804 C 1114.42 1.16275 1.46072 0
M  V30 11805 C 1114.77 -0.240123 1.94725 0
M  V30 11806 O 1113.9 -1.13606 1.84181 0
M  V30 11807 C 1114.49 2.10471 2.65494 0
M  V30 11808 C 1113.05 2.00992 3.18244 0
M  V30 11809 C 1112.2 2.01094 1.90936 0
M  V30 11810 H 1115.15 1.42169 0.705243 0
M  V30 11811 H 1115.17 1.68003 3.41402 0
M  V30 11812 H 1114.68 3.12566 2.30053 0
M  V30 11813 H 1112.78 1.02005 3.58365 0
M  V30 11814 H 1112.9 2.88916 3.82184 0
M  V30 11815 H 1111.26 1.45764 2.08866 0
M  V30 11816 H 1112.04 3.04902 1.57764 0
M  V30 11817 N 1114.49 -1.10549 1.12324 0
M  V30 11818 C 1115.42 -2.16081 0.733768 0
M  V30 11819 C 1116.4 -1.60266 -0.274511 0
M  V30 11820 O 1117.58 -1.87743 -0.168742 0
M  V30 11821 C 1114.71 -3.38591 0.0858914 0
M  V30 11822 C 1113.76 -4.13097 1.0608 0
M  V30 11823 S 1114.59 -4.68821 2.5878 0
M  V30 11824 C 1115.74 -5.94644 1.95319 0
M  V30 11825 H 1115.98 -2.48784 1.62769 0
M  V30 11826 H 1113.51 -1.22318 0.942209 0
M  V30 11827 H 1115.47 -4.09533 -0.281538 0
M  V30 11828 H 1114.13 -3.04129 -0.785122 0
M  V30 11829 H 1113.32 -5.00934 0.555095 0
M  V30 11830 H 1112.92 -3.4796 1.37112 0
M  V30 11831 H 1115.22 -6.65004 1.29523 0
M  V30 11832 H 1116.16 -6.49875 2.81191 0
M  V30 11833 H 1116.57 -5.4662 1.40951 0
M  V30 11834 N 1115.97 -0.914965 -1.28321 0
M  V30 11835 C 1116.92 -0.375436 -2.24888 0
M  V30 11836 C 1117.9 0.51313 -1.52498 0
M  V30 11837 O 1119.09 0.352654 -1.73451 0
M  V30 11838 C 1116.22 0.382266 -3.41165 0
M  V30 11839 C 1115.31 -0.522089 -4.20874 0
M  V30 11840 N 1115.7 -1.63623 -4.78603 0
M  V30 11841 C 1114 -0.322703 -4.44831 0
M  V30 11842 C 1114.7 -2.19766 -5.38589 0
M  V30 11843 N 1113.67 -1.48878 -5.22816 0
M  V30 11844 H 1117.47 -1.2263 -2.67094 0
M  V30 11845 H 1114.99 -0.767759 -1.43106 0
M  V30 11846 H 1116.99 0.785641 -4.0943 0
M  V30 11847 H 1115.65 1.23021 -3.00493 0
M  V30 11848 H 1116.66 -2.01879 -4.76933 0
M  V30 11849 H 1113.33 0.485627 -4.14666 0
M  V30 11850 H 1114.72 -3.13494 -5.94282 0
M  V30 11851 N 1117.44 1.42219 -0.679077 0
M  V30 11852 C 1118.67 2.05815 -0.211649 0
M  V30 11853 C 1119.09 1.51037 1.13284 0
M  V30 11854 O 1118.44 0.651894 1.7046 0
M  V30 11855 C 1118.49 3.61218 -0.142663 0
M  V30 11856 O 1118.22 4.13965 -1.43402 0
M  V30 11857 C 1119.72 4.41934 0.347746 0
M  V30 11858 H 1116.94 0.663215 -0.101914 0
M  V30 11859 H 1119.48 1.82282 -0.927017 0
M  V30 11860 H 1117.64 3.83848 0.52342 0
M  V30 11861 H 1118.05 5.07872 -1.31021 0
M  V30 11862 H 1119.52 5.50921 0.344916 0
M  V30 11863 H 1120 4.16832 1.38377 0
M  V30 11864 H 1120.61 4.24332 -0.286751 0
M  V30 11865 N 1118.92 0.422693 1.51826 0
M  V30 11866 C 1119.85 -0.440987 2.23899 0
M  V30 11867 C 1120.83 -1.03685 1.25252 0
M  V30 11868 O 1122.02 -1.08212 1.54345 0
M  V30 11869 C 1119.14 -1.61331 2.97809 0
M  V30 11870 C 1118.19 -1.13954 4.10995 0
M  V30 11871 S 1119.02 -0.0935426 5.35418 0
M  V30 11872 C 1120.18 -1.27087 6.12862 0
M  V30 11873 H 1120.41 0.170945 2.96808 0
M  V30 11874 H 1117.94 0.20709 1.53005 0
M  V30 11875 H 1119.9 -2.28546 3.40994 0
M  V30 11876 H 1118.56 -2.19662 2.24516 0
M  V30 11877 H 1117.76 -2.01578 4.61933 0
M  V30 11878 H 1117.36 -0.545838 3.69995 0
M  V30 11879 H 1119.65 -2.19199 6.4106 0
M  V30 11880 H 1120.59 -0.801752 7.03546 0
M  V30 11881 H 1121 -1.50281 5.44129 0
M  V30 11882 N 1120.4 -1.5685 0.153553 0
M  V30 11883 C 1121.36 -2.15894 -0.769564 0
M  V30 11884 C 1122.36 -1.10239 -1.17064 0
M  V30 11885 O 1123.55 -1.35845 -1.09049 0
M  V30 11886 C 1120.68 -2.72738 -2.04516 0
M  V30 11887 H 1121.88 -2.98807 -0.255842 0
M  V30 11888 H 1119.43 -1.56005 -0.0959279 0
M  V30 11889 H 1120.17 -1.9351 -2.60239 0
M  V30 11890 H 1119.95 -3.50042 -1.76672 0
M  V30 11891 H 1121.44 -3.18208 -2.70432 0
M  V30 11892 N 1121.88 0.120221 -1.57141 0
M  V30 11893 C 1122.79 1.16641 -2.03549 0
M  V30 11894 C 1123.8 1.45407 -0.955656 0
M  V30 11895 O 1124.98 1.56547 -1.26708 0
M  V30 11896 C 1122.04 2.4734 -2.42948 0
M  V30 11897 C 1121.11 2.25982 -3.65008 0
M  V30 11898 C 1120.34 3.50449 -4.02518 0
M  V30 11899 O 1120.56 4.57706 -3.40384 0
M  V30 11900 O 1119.5 3.41524 -4.95626 0
M  V30 11901 H 1123.32 0.802323 -2.9291 0
M  V30 11902 H 1120.91 0.330927 -1.45689 0
M  V30 11903 H 1122.79 3.24348 -2.69029 0
M  V30 11904 H 1121.46 2.83225 -1.56733 0
M  V30 11905 H 1120.37 1.46837 -3.44078 0
M  V30 11906 H 1121.7 1.95002 -4.51924 0
M  V30 11907 N 1123.36 1.52689 0.390367 0
M  V30 11908 C 1124.77 1.59623 0.968366 0
M  V30 11909 C 1125.12 0.44824 1.91011 0
M  V30 11910 O 1124.24 -0.428868 2.12108 0
M  V30 11911 C 1124.84 2.89312 1.76306 0
M  V30 11912 C 1123.4 2.98664 2.29079 0
M  V30 11913 C 1122.54 2.54725 1.09593 0
M  V30 11914 H 1125.5 1.57787 0.169959 0
M  V30 11915 H 1125.52 2.75721 2.62217 0
M  V30 11916 H 1125.03 3.72846 1.07738 0
M  V30 11917 H 1123.13 2.19665 3.00962 0
M  V30 11918 H 1123.24 4.03277 2.58659 0
M  V30 11919 H 1121.61 2.09012 1.45554 0
M  V30 11920 H 1122.39 3.40651 0.425625 0
M  V30 11921 N 1124.83 -0.648732 1.43629 0
M  V30 11922 C 1126.25 -1.23001 1.40455 0
M  V30 11923 C 1126.6 -1.95886 0.110897 0
M  V30 11924 O 1125.72 -2.01485 -0.789487 0
M  V30 11925 C 1126.32 -2.23716 2.54434 0
M  V30 11926 C 1124.88 -2.77311 2.54511 0
M  V30 11927 C 1124.02 -1.52024 2.31914 0
M  V30 11928 H 1126.97 -0.440473 1.52465 0
M  V30 11929 H 1126.99 -3.05979 2.26179 0
M  V30 11930 H 1126.51 -1.7064 3.48574 0
M  V30 11931 H 1124.61 -3.34437 1.64263 0
M  V30 11932 H 1124.72 -3.2455 3.52426 0
M  V30 11933 H 1123.08 -1.79531 1.80667 0
M  V30 11934 H 1123.87 -1.00876 3.28145 0
M  V30 11935 N 1126.31 -1.30234 -0.887518 0
M  V30 11936 C 1127.56 -1.18675 -1.63587 0
M  V30 11937 C 1127.88 0.259342 -1.93268 0
M  V30 11938 O 1127.15 1.17523 -1.56733 0
M  V30 11939 H 1125.73 -0.436224 -0.606397 0
M  V30 11940 H 1128.39 -1.63326 -1.06351 0
M  V30 11941 H 1127.49 -1.74575 -2.58708 0
M  V30 11942 N 1127.79 1.09952 -1.12909 0
M  V30 11943 C 1129.04 1.81386 -0.882163 0
M  V30 11944 C 1129.35 1.86376 0.593592 0
M  V30 11945 O 1130.56 2.54064 0.957275 0
M  V30 11946 C 1129.01 3.25824 -1.52861 0
M  V30 11947 C 1128.62 3.29117 -3.0395 0
M  V30 11948 C 1130.37 4.02051 -1.36216 0
M  V30 11949 C 1128.27 4.68047 -3.61505 0
M  V30 11950 H 1127.2 0.679701 -0.326378 0
M  V30 11951 H 1129.85 1.23614 -1.35616 0
M  V30 11952 H 1128.24 3.83624 -0.982271 0
M  V30 11953 H 1129.41 2.81114 -3.65119 0
M  V30 11954 H 1127.73 2.66379 -3.20049 0
M  V30 11955 H 1130.32 5.04683 -1.76633 0
M  V30 11956 H 1130.67 4.15171 -0.306391 0
M  V30 11957 H 1131.2 3.5068 -1.87799 0
M  V30 11958 H 1127.94 4.60128 -4.66865 0
M  V30 11959 H 1127.46 5.16397 -3.05114 0
M  V30 11960 H 1129.14 5.37018 -3.6086 0
M  V30 11961 N 1129.27 0.921757 1.27833 0
M  V30 11962 C 1130.51 0.559906 1.94918 0
M  V30 11963 C 1130.85 -0.895532 1.72319 0
M  V30 11964 O 1130.12 -1.638 1.04879 0
M  V30 11965 C 1130.41 0.879458 3.49196 0
M  V30 11966 C 1130.26 2.38821 3.81162 0
M  V30 11967 C 1131.58 0.381183 4.38446 0
M  V30 11968 H 1128.7 0.204893 0.707946 0
M  V30 11969 H 1131.34 1.15246 1.51058 0
M  V30 11970 H 1129.49 0.375177 3.86684 0
M  V30 11971 H 1131.16 2.96373 3.53498 0
M  V30 11972 H 1129.4 2.83988 3.27923 0
M  V30 11973 H 1130.07 2.56234 4.88926 0
M  V30 11974 H 1132.55 0.813289 4.08075 0
M  V30 11975 H 1131.43 0.633778 5.45229 0
M  V30 11976 H 1131.69 -0.718651 4.3622 0
M  V30 11977 N 1130.75 -1.41857 0.686609 0
M  V30 11978 C 1131.97 -2.06219 0.221037 0
M  V30 11979 C 1132.4 -1.51298 -1.11762 0
M  V30 11980 O 1131.75 -0.636253 -1.69769 0
M  V30 11981 C 1131.8 -3.60153 0.179425 0
M  V30 11982 O 1130.91 -4.03577 -0.848481 0
M  V30 11983 H 1130.25 -0.654787 0.110228 0
M  V30 11984 H 1132.78 -1.81783 0.938948 0
M  V30 11985 H 1132.79 -4.07999 0.00725332 0
M  V30 11986 H 1131.46 -3.99498 1.15647 0
M  V30 11987 H 1130.04 -3.67255 -0.646393 0
M  V30 11988 N 1132.22 -0.430739 -1.51599 0
M  V30 11989 C 1133.15 0.374695 -2.30474 0
M  V30 11990 C 1134.14 1.02694 -1.35602 0
M  V30 11991 O 1135.32 1.03184 -1.6452 0
M  V30 11992 C 1132.45 1.47981 -3.14196 0
M  V30 11993 C 1131.4 0.951415 -4.17291 0
M  V30 11994 C 1130.73 2.15177 -4.89492 0
M  V30 11995 C 1132.03 -0.00957951 -5.22299 0
M  V30 11996 H 1133.72 -0.283508 -2.98055 0
M  V30 11997 H 1131.27 -0.13779 -1.43339 0
M  V30 11998 H 1133.22 2.05043 -3.68151 0
M  V30 11999 H 1131.95 2.16621 -2.44424 0
M  V30 12000 H 1130.61 0.403052 -3.64378 0
M  V30 12001 H 1130.25 2.82421 -4.1623 0
M  V30 12002 H 1129.95 1.80464 -5.59202 0
M  V30 12003 H 1131.48 2.72806 -5.46269 0
M  V30 12004 H 1132.89 0.470527 -5.71366 0
M  V30 12005 H 1131.29 -0.268959 -5.99497 0
M  V30 12006 H 1132.36 -0.948297 -4.75537 0
M  V30 12007 N 1133.7 1.56767 -0.161869 0
M  V30 12008 C 1135.12 1.58412 0.194403 0
M  V30 12009 C 1135.32 1.17682 1.63564 0
M  V30 12010 O 1134.37 0.884024 2.36519 0
M  V30 12011 C 1135.69 3.00599 -0.0778438 0
M  V30 12012 C 1137.24 3.12996 -0.015307 0
M  V30 12013 C 1137.71 4.57259 -0.260418 0
M  V30 12014 N 1139.2 4.62733 -0.207863 0
M  V30 12015 C 1139.94 5.72193 -0.371821 0
M  V30 12016 N 1139.43 6.90246 -0.594318 0
M  V30 12017 N 1141.23 5.61253 -0.308384 0
M  V30 12018 H 1133.38 1.81531 -1.10274 0
M  V30 12019 H 1135.64 0.840919 -0.437675 0
M  V30 12020 H 1135.35 3.3484 -1.07587 0
M  V30 12021 H 1135.22 3.71819 0.634845 0
M  V30 12022 H 1137.61 2.78588 0.97329 0
M  V30 12023 H 1137.69 2.44232 -0.760559 0
M  V30 12024 H 1137.33 4.92375 -1.24618 0
M  V30 12025 H 1137.26 5.2417 0.505334 0
M  V30 12026 H 1139.75 3.77878 -0.0411541 0
M  V30 12027 H 1140.07 7.6954 -0.70913 0
M  V30 12028 H 1138.41 6.92131 -0.630819 0
M  V30 12029 H 1141.6 4.67905 -0.135217 0
M  V30 12030 H 1141.77 6.46507 -0.439592 0
M  V30 12031 N 1135.18 -0.111886 1.57202 0
M  V30 12032 C 1136.43 -0.817022 1.84412 0
M  V30 12033 C 1136.74 -1.80708 0.748608 0
M  V30 12034 O 1137.95 -2.55891 0.907319 0
M  V30 12035 C 1136.4 -1.50376 3.26979 0
M  V30 12036 C 1136.01 -0.554334 4.44557 0
M  V30 12037 C 1137.76 -2.19361 3.63429 0
M  V30 12038 C 1135.66 -1.24471 5.78153 0
M  V30 12039 H 1134.59 -0.308864 0.687836 0
M  V30 12040 H 1137.24 -0.0698109 1.83367 0
M  V30 12041 H 1135.63 -2.29785 3.22514 0
M  V30 12042 H 1136.8 0.207045 4.60335 0
M  V30 12043 H 1135.12 0.0289261 4.1639 0
M  V30 12044 H 1137.71 -2.71716 4.60515 0
M  V30 12045 H 1138.06 -2.97488 2.91215 0
M  V30 12046 H 1138.59 -1.46833 3.69709 0
M  V30 12047 H 1135.33 -0.504584 6.53555 0
M  V30 12048 H 1134.85 -1.97792 5.66249 0
M  V30 12049 H 1136.53 -1.77591 6.2215 0
M  V30 12050 N 1136.66 -1.52894 -0.382264 0
M  V30 12051 C 1137.94 -1.58853 -1.14127 0
M  V30 12052 C 1138.32 -0.38582 -2.07544 0
M  V30 12053 O 1137.66 0.625323 -2.19777 0
M  V30 12054 C 1137.87 -2.93068 -1.89504 0
M  V30 12055 C 1139.22 -3.47048 -2.44629 0
M  V30 12056 O 1140.25 -2.94987 -1.99652 0
M  V30 12057 O 1139.1 -4.3802 -3.26804 0
M  V30 12058 H 1136.2 -0.640969 -0.522578 0
M  V30 12059 H 1138.74 -1.65231 -0.386873 0
M  V30 12060 H 1137.52 -3.72047 -1.2123 0
M  V30 12061 H 1137.14 -2.90106 -2.7189 0
M  V30 12062 N 1138.14 0.641106 -1.43971 0
M  V30 12063 C 1139.55 1.22254 -1.41106 0
M  V30 12064 C 1139.9 1.95825 -0.121284 0
M  V30 12065 O 1139.02 2.01901 0.77879 0
M  V30 12066 C 1139.62 2.22364 -2.55617 0
M  V30 12067 C 1138.18 2.75957 -2.55978 0
M  V30 12068 C 1137.33 1.50792 -2.32717 0
M  V30 12069 H 1140.28 0.432381 -1.52696 0
M  V30 12070 H 1140.3 3.04775 -2.27799 0
M  V30 12071 H 1139.81 1.68789 -3.49474 0
M  V30 12072 H 1137.91 3.33562 -1.66034 0
M  V30 12073 H 1138.02 3.22676 -3.54142 0
M  V30 12074 H 1136.39 1.7857 -1.81617 0
M  V30 12075 H 1137.17 0.991343 -3.28675 0
M  V30 12076 N 1139.62 1.30703 0.880598 0
M  V30 12077 C 1140.86 1.19955 1.63519 0
M  V30 12078 C 1141.19 -0.244214 1.92658 0
M  V30 12079 O 1140.47 -1.17412 1.55063 0
M  V30 12080 C 1140.75 2.03302 2.97221 0
M  V30 12081 C 1140.61 3.55921 2.75028 0
M  V30 12082 C 1141.92 1.87421 3.98198 0
M  V30 12083 H 1139.04 0.43712 0.593376 0
M  V30 12084 H 1141.69 1.60382 1.01871 0
M  V30 12085 H 1139.84 1.68953 3.49839 0
M  V30 12086 H 1141.51 4.00352 2.29164 0
M  V30 12087 H 1139.75 3.79885 2.09452 0
M  V30 12088 H 1140.42 4.09533 3.70117 0
M  V30 12089 H 1142.9 2.17459 3.54755 0
M  V30 12090 H 1141.77 2.48057 4.89652 0
M  V30 12091 H 1142.03 0.834563 4.34151 0
M  V30 12092 N 1141.09 -1.09351 1.1349 0
M  V30 12093 C 1142.32 -1.85304 0.920324 0
M  V30 12094 C 1142.74 -1.81182 -0.530883 0
M  V30 12095 O 1142.09 -1.20853 -1.36751 0
M  V30 12096 C 1142.14 -3.33249 1.40098 0
M  V30 12097 O 1141.87 -3.37333 2.79531 0
M  V30 12098 C 1143.37 -4.2604 1.22495 0
M  V30 12099 H 1140.59 -0.585294 0.328134 0
M  V30 12100 H 1143.13 -1.38168 1.50765 0
M  V30 12101 H 1141.29 -3.7781 0.85664 0
M  V30 12102 H 1141.7 -4.29614 3.00885 0
M  V30 12103 H 1143.17 -5.27999 1.61 0
M  V30 12104 H 1143.65 -4.38883 0.166717 0
M  V30 12105 H 1144.26 -3.87295 1.75735 0
M  V30 12106 N 1142.57 -0.928524 -1.27343 0
M  V30 12107 C 1143.82 -0.568267 -1.93946 0
M  V30 12108 C 1144.14 0.893501 -1.73325 0
M  V30 12109 O 1143.41 1.63344 -1.08147 0
M  V30 12110 H 1141.99 -0.207173 -0.717696 0
M  V30 12111 H 1144.65 -1.1811 -1.55036 0
M  V30 12112 H 1143.75 -0.775246 -3.02318 0
M  V30 12113 N 1144.05 1.41491 -0.694123 0
M  V30 12114 C 1145.47 1.55358 -0.365532 0
M  V30 12115 C 1145.67 1.66994 1.12762 0
M  V30 12116 O 1144.72 1.64756 1.91342 0
M  V30 12117 C 1146.03 2.79352 -1.11279 0
M  V30 12118 C 1147.58 2.93147 -1.097 0
M  V30 12119 C 1148.06 4.20027 -1.82597 0
M  V30 12120 N 1149.55 4.26981 -1.7956 0
M  V30 12121 C 1150.28 5.24013 -2.32805 0
M  V30 12122 N 1149.78 6.27083 -2.94515 0
M  V30 12123 N 1151.57 5.15943 -2.23069 0
M  V30 12124 H 1143.72 1.32183 -1.66257 0
M  V30 12125 H 1145.99 0.637624 -0.701527 0
M  V30 12126 H 1145.69 2.76958 -2.16765 0
M  V30 12127 H 1145.57 3.70827 -0.690439 0
M  V30 12128 H 1147.95 2.95057 -0.0504037 0
M  V30 12129 H 1148.03 2.02849 -1.55839 0
M  V30 12130 H 1147.68 4.18878 -2.87235 0
M  V30 12131 H 1147.61 5.09294 -1.33893 0
M  V30 12132 H 1150.1 3.53129 -1.34567 0
M  V30 12133 H 1150.41 6.97511 -3.32714 0
M  V30 12134 H 1148.76 6.27589 -2.98592 0
M  V30 12135 H 1151.95 4.34346 -1.74532 0
M  V30 12136 H 1152.12 5.91396 -2.64868 0
M  V30 12137 N 1145.53 0.438773 1.51369 0
M  V30 12138 C 1146.75 -0.128221 2.07003 0
M  V30 12139 C 1147.18 -1.3557 1.30393 0
M  V30 12140 O 1146.54 -1.7804 0.342283 0
M  V30 12141 C 1146.58 -0.42761 3.58056 0
M  V30 12142 O 1145.69 -1.51382 3.83611 0
M  V30 12143 H 1145.03 -0.00123679 0.663999 0
M  V30 12144 H 1147.56 0.62052 1.94963 0
M  V30 12145 H 1147.57 -0.677645 4.02333 0
M  V30 12146 H 1146.24 0.469535 4.13241 0
M  V30 12147 H 1144.82 -1.25363 3.51196 0
M  V30 12148 N 1147.01 -1.56678 0.170181 0
M  V30 12149 C 1147.97 -2.16698 -0.746622 0
M  V30 12150 C 1148.97 -1.11475 -1.15888 0
M  V30 12151 O 1150.16 -1.36994 -1.07602 0
M  V30 12152 C 1147.29 -2.74892 -2.01612 0
M  V30 12153 H 1148.48 -2.99061 -0.224135 0
M  V30 12154 H 1146.04 -1.56098 -0.0793761 0
M  V30 12155 H 1146.77 -1.96259 -2.58172 0
M  V30 12156 H 1146.56 -3.51896 -1.72949 0
M  V30 12157 H 1148.05 -3.21058 -2.67042 0
M  V30 12158 N 1148.48 0.103547 -1.57259 0
M  V30 12159 C 1149.45 1.11039 -2.00507 0
M  V30 12160 C 1150.45 1.33432 -0.897361 0
M  V30 12161 O 1151.64 1.29688 -1.16304 0
M  V30 12162 C 1148.77 2.46144 -2.35851 0
M  V30 12163 H 1149.96 0.738332 -2.90669 0
M  V30 12164 H 1147.51 0.348334 -1.52369 0
M  V30 12165 H 1148.25 2.88242 -1.48617 0
M  V30 12166 H 1148.03 2.31241 -3.16654 0
M  V30 12167 H 1149.52 3.18577 -2.69997 0
M  V30 12168 N 1149.96 1.53094 0.37415 0
M  V30 12169 C 1151.37 1.60641 0.951381 0
M  V30 12170 C 1151.72 0.468474 1.90525 0
M  V30 12171 O 1150.85 -0.406347 2.12551 0
M  V30 12172 C 1151.44 2.91166 1.73228 0
M  V30 12173 C 1150 3.01077 2.25898 0
M  V30 12174 C 1149.15 2.55873 1.06885 0
M  V30 12175 H 1152.1 1.57959 0.153214 0
M  V30 12176 H 1152.12 2.78487 2.59278 0
M  V30 12177 H 1151.63 3.73968 1.03778 0
M  V30 12178 H 1149.73 2.22844 2.98615 0
M  V30 12179 H 1149.85 4.05998 2.54367 0
M  V30 12180 H 1148.21 2.10544 1.43329 0
M  V30 12181 H 1148.99 3.41084 0.38947 0
M  V30 12182 N 1151.44 -0.633461 1.44309 0
M  V30 12183 C 1152.69 -1.39031 1.46679 0
M  V30 12184 C 1153.01 -1.94745 0.0997165 0
M  V30 12185 O 1152.28 -1.75637 -0.867659 0
M  V30 12186 H 1150.86 -0.516051 0.540093 0
M  V30 12187 H 1153.52 -0.745739 1.80069 0
M  V30 12188 H 1152.62 -2.2228 2.19085 0
M  V30 12189 N 1152.92 -1.31168 -0.873655 0
M  V30 12190 C 1154.15 -1.23595 -1.65927 0
M  V30 12191 C 1154.56 0.199349 -1.87745 0
M  V30 12192 O 1153.92 1.13013 -1.43298 0
M  V30 12193 C 1153.97 -1.97268 -3.02932 0
M  V30 12194 O 1153.69 -3.35196 -2.82091 0
M  V30 12195 C 1155.19 -1.9649 -3.97374 0
M  V30 12196 H 1152.41 -0.427228 -0.517414 0
M  V30 12197 H 1154.96 -1.72983 -1.09074 0
M  V30 12198 H 1153.11 -1.51651 -3.56484 0
M  V30 12199 H 1153.52 -3.7266 -3.69087 0
M  V30 12200 H 1155 -2.52557 -4.90835 0
M  V30 12201 H 1155.48 -0.946525 -4.28879 0
M  V30 12202 H 1156.08 -2.4197 -3.49758 0
M  V30 12203 N 1154.4 1.08748 -1.14068 0
M  V30 12204 C 1155.81 1.62551 -0.918379 0
M  V30 12205 C 1156.16 1.8852 0.543583 0
M  V30 12206 O 1155.28 1.64007 1.41176 0
M  V30 12207 C 1155.88 2.95309 -1.66066 0
M  V30 12208 C 1154.44 3.4591 -1.48403 0
M  V30 12209 C 1153.58 2.20204 -1.6854 0
M  V30 12210 H 1156.54 0.920196 -1.29298 0
M  V30 12211 H 1156.56 3.63587 -1.12181 0
M  V30 12212 H 1156.07 2.76377 -2.72465 0
M  V30 12213 H 1154.17 3.69953 -0.443353 0
M  V30 12214 H 1154.28 4.2289 -2.25169 0
M  V30 12215 H 1152.65 2.29203 -1.11077 0
M  V30 12216 H 1153.43 2.03783 -2.76274 0
M  V30 12217 N 1155.87 0.935264 1.26849 0
M  V30 12218 C 1157.12 0.578545 1.93642 0
M  V30 12219 C 1157.44 -0.884296 1.73796 0
M  V30 12220 O 1156.71 -1.62768 1.09011 0
M  V30 12221 H 1155.29 0.210976 0.716588 0
M  V30 12222 H 1157.96 1.1893 1.54407 0
M  V30 12223 H 1157.05 0.791268 3.01903 0
M  V30 12224 N 1157.35 -1.41121 0.701616 0
M  V30 12225 C 1158.32 -2.29148 0.0490091 0
M  V30 12226 C 1159.32 -1.44679 -0.701763 0
M  V30 12227 O 1160.51 -1.65757 -0.53575 0
M  V30 12228 C 1157.64 -3.2766 -0.940837 0
M  V30 12229 H 1158.83 -2.88354 0.824133 0
M  V30 12230 H 1156.38 -1.49209 0.465457 0
M  V30 12231 H 1157.12 -2.73445 -1.74351 0
M  V30 12232 H 1156.9 -3.89997 -0.405551 0
M  V30 12233 H 1158.39 -3.93609 -1.39507 0
M  V30 12234 N 1158.83 -0.446794 -1.51134 0
M  V30 12235 C 1160.06 0.114727 -2.06281 0
M  V30 12236 C 1160.47 1.36192 -1.31333 0
M  V30 12237 O 1159.81 1.79956 -0.368982 0
M  V30 12238 C 1159.87 0.492968 -3.56104 0
M  V30 12239 C 1159.54 -0.648755 -4.52372 0
M  V30 12240 C 1160.53 -1.52369 -4.97071 0
M  V30 12241 C 1158.22 -0.832177 -4.95359 0
M  V30 12242 C 1160.21 -2.56667 -5.83439 0
M  V30 12243 C 1157.9 -1.87841 -5.81514 0
M  V30 12244 C 1158.9 -2.74404 -6.25453 0
M  V30 12245 O 1158.59 -3.7723 -7.09896 0
M  V30 12246 H 1158.32 0.007138 -0.675962 0
M  V30 12247 H 1160.87 -0.627452 -1.95582 0
M  V30 12248 H 1159.1 1.28799 -3.6462 0
M  V30 12249 H 1160.79 0.986739 -3.93724 0
M  V30 12250 H 1161.56 -1.39356 -4.64548 0
M  V30 12251 H 1157.44 -0.167954 -4.60694 0
M  V30 12252 H 1160.98 -3.24264 -6.17656 0
M  V30 12253 H 1156.88 -2.00871 -6.1345 0
M  V30 12254 H 1157.65 -3.73924 -7.28095 0
M  V30 12255 N 1160.31 1.56586 -0.178487 0
M  V30 12256 C 1161.56 1.97098 0.464617 0
M  V30 12257 C 1161.88 1.06476 1.62767 0
M  V30 12258 O 1161.14 0.100337 1.95443 0
M  V30 12259 C 1161.44 3.43629 0.982552 0
M  V30 12260 C 1161.1 4.50853 -0.0653645 0
M  V30 12261 C 1159.77 4.79901 -0.353349 0
M  V30 12262 C 1162.12 5.15387 -0.776279 0
M  V30 12263 C 1159.45 5.70779 -1.35751 0
M  V30 12264 C 1161.8 6.07349 -1.76948 0
M  V30 12265 C 1160.46 6.34761 -2.06483 0
M  V30 12266 H 1159.73 0.721232 0.170016 0
M  V30 12267 H 1162.38 1.89559 -0.271959 0
M  V30 12268 H 1160.68 3.48155 1.79709 0
M  V30 12269 H 1162.38 3.7232 1.48926 0
M  V30 12270 H 1158.97 4.28266 0.169266 0
M  V30 12271 H 1163.15 4.9305 -0.567008 0
M  V30 12272 H 1158.41 5.90298 -1.59244 0
M  V30 12273 H 1162.58 6.56419 -2.32567 0
M  V30 12274 H 1160.21 7.0498 -2.84441 0
M  V30 12275 N 1161.79 -0.095206 1.57312 0
M  V30 12276 C 1162.7 -1.13388 2.05379 0
M  V30 12277 C 1163.71 -1.43868 0.978668 0
M  V30 12278 O 1164.89 -1.54512 1.29182 0
M  V30 12279 C 1161.95 -2.43444 2.46852 0
M  V30 12280 C 1161.01 -2.20146 3.68557 0
M  V30 12281 C 1160.25 -3.44001 4.08043 0
M  V30 12282 O 1160.47 -4.52233 3.47623 0
M  V30 12283 O 1159.4 -3.33596 5.00997 0
M  V30 12284 H 1163.23 -0.755622 2.9415 0
M  V30 12285 H 1160.82 -0.307707 1.46197 0
M  V30 12286 H 1162.7 -3.20027 2.74155 0
M  V30 12287 H 1161.37 -2.80696 1.61219 0
M  V30 12288 H 1160.28 -1.41345 3.46371 0
M  V30 12289 H 1161.61 -1.87787 4.54969 0
M  V30 12290 N 1163.26 -1.53291 -0.366026 0
M  V30 12291 C 1164.2 -1.7448 -1.47079 0
M  V30 12292 C 1165.18 -0.593147 -1.51395 0
M  V30 12293 O 1166.36 -0.825686 -1.69454 0
M  V30 12294 C 1163.49 -1.82319 -2.85443 0
M  V30 12295 C 1162.53 -3.04285 -2.98852 0
M  V30 12296 S 1163.37 -4.63812 -2.67653 0
M  V30 12297 C 1164.52 -4.74499 -4.08168 0
M  V30 12298 H 1164.75 -2.67911 -1.28884 0
M  V30 12299 H 1162.29 -1.43874 -0.560335 0
M  V30 12300 H 1164.25 -1.87521 -3.65166 0
M  V30 12301 H 1162.91 -0.899398 -3.00948 0
M  V30 12302 H 1162.1 -3.06379 -4.00185 0
M  V30 12303 H 1161.7 -2.97193 -2.27051 0
M  V30 12304 H 1163.99 -4.54527 -5.02406 0
M  V30 12305 H 1164.94 -5.76558 -4.1108 0
M  V30 12306 H 1165.34 -4.03136 -3.95147 0
M  V30 12307 N 1164.74 0.6258 -1.44643 0
M  V30 12308 C 1165.99 1.38525 -1.47706 0
M  V30 12309 C 1166.32 1.94179 -0.111703 0
M  V30 12310 O 1165.57 1.74432 0.887237 0
M  V30 12311 C 1165.87 2.56466 -2.48917 0
M  V30 12312 C 1165.54 2.19069 -3.94106 0
M  V30 12313 C 1164.2 2.08583 -4.33643 0
M  V30 12314 C 1166.55 1.89608 -4.85488 0
M  V30 12315 C 1163.88 1.66831 -5.6248 0
M  V30 12316 C 1166.23 1.49347 -6.14718 0
M  V30 12317 C 1164.9 1.37406 -6.53204 0
M  V30 12318 H 1164.17 0.506899 -0.540494 0
M  V30 12319 H 1166.81 0.709128 -1.77887 0
M  V30 12320 H 1165.12 3.29335 -2.12239 0
M  V30 12321 H 1166.81 3.14695 -2.48532 0
M  V30 12322 H 1163.4 2.28151 -3.62829 0
M  V30 12323 H 1167.59 1.96616 -4.55693 0
M  V30 12324 H 1162.84 1.56195 -5.91112 0
M  V30 12325 H 1167.02 1.2559 -6.84982 0
M  V30 12326 H 1164.65 1.04826 -7.52938 0
M  V30 12327 N 1166.22 1.31629 0.866686 0
M  V30 12328 C 1167.17 1.19556 1.97421 0
M  V30 12329 C 1168.14 0.0805578 1.65905 0
M  V30 12330 O 1169.32 0.253997 1.89102 0
M  V30 12331 C 1166.46 0.912234 3.32825 0
M  V30 12332 C 1165.58 2.11088 3.76916 0
M  V30 12333 C 1164.71 1.76406 5.01053 0
M  V30 12334 C 1163.75 2.9266 5.37602 0
M  V30 12335 N 1162.89 2.58152 6.52918 0
M  V30 12336 H 1167.73 2.14294 2.0708 0
M  V30 12337 H 1165.26 1.06595 1.0137 0
M  V30 12338 H 1167.22 0.72851 4.1079 0
M  V30 12339 H 1165.85 0.00167404 3.228 0
M  V30 12340 H 1164.9 2.40527 2.94705 0
M  V30 12341 H 1166.22 2.98089 3.99931 0
M  V30 12342 H 1165.37 1.54515 5.86694 0
M  V30 12343 H 1164.11 0.866018 4.79949 0
M  V30 12344 H 1163.11 3.15196 4.50479 0
M  V30 12345 H 1164.34 3.83179 5.6067 0
M  V30 12346 H 1162.28 1.70874 6.33355 0
M  V30 12347 H 1162.2 3.38682 6.75892 0
M  V30 12348 H 1163.47 2.39662 7.41743 0
M  V30 12349 N 1167.7 -1.08142 1.14644 0
M  V30 12350 C 1168.65 -2.17229 0.831513 0
M  V30 12351 C 1169.64 -1.68311 -0.19173 0
M  V30 12352 O 1170.85 -1.79937 -0.0475596 0
M  V30 12353 H 1167.22 -0.708807 0.25119 0
M  V30 12354 H 1169.19 -2.41014 1.75939 0
M  V30 12355 C 1167.94 -3.46146 0.328347 0
M  V30 12356 H 1167.27 -3.84166 1.10708 0
M  V30 12357 H 1168.71 -4.23747 0.146568 0
M  V30 12358 C 1167.16 -3.2327 -0.948594 0
M  V30 12359 O 1167.69 -3.47111 -2.0218 0
M  V30 12360 N 1165.9 -2.76799 -0.884909 0
M  V30 12361 H 1165.45 -2.57597 -0.011399 0
M  V30 12362 H 1165.41 -2.61871 -1.73985 0
M  V30 12363 N 1169.18 -0.941978 -1.26351 0
M  V30 12364 C 1170.09 -0.45833 -2.30079 0
M  V30 12365 C 1171.1 0.468084 -1.67586 0
M  V30 12366 O 1172.28 0.347418 -1.98381 0
M  V30 12367 C 1169.34 0.26797 -3.45663 0
M  V30 12368 C 1168.41 -0.695102 -4.23635 0
M  V30 12369 C 1167.64 -0.003369 -5.337 0
M  V30 12370 O 1167.86 1.21342 -5.57344 0
M  V30 12371 O 1166.8 -0.682476 -5.98018 0
M  V30 12372 H 1170.62 -1.31998 -2.73514 0
M  V30 12373 H 1168.21 -0.707897 -1.31564 0
M  V30 12374 H 1170.09 0.677061 -4.15925 0
M  V30 12375 H 1168.76 1.105 -3.04256 0
M  V30 12376 H 1167.67 -1.15415 -3.55851 0
M  V30 12377 H 1169 -1.49977 -4.68794 0
M  V30 12378 N 1170.66 1.40747 -0.709091 0
M  V30 12379 C 1171.93 1.94831 -0.173246 0
M  V30 12380 C 1172.31 1.64766 1.31967 0
M  V30 12381 O 1171.66 0.961853 2.07269 0
M  V30 12382 C 1171.87 3.45697 -0.479013 0
M  V30 12383 C 1173.22 4.22576 -0.414122 0
M  V30 12384 O 1174.24 3.53778 -0.414699 0
M  V30 12385 O 1173.1 5.45135 -0.385986 0
M  V30 12386 H 1170.2 0.826683 -0.0228947 0
M  V30 12387 H 1172.74 1.50391 -0.786178 0
M  V30 12388 H 1171.51 3.60914 -1.51185 0
M  V30 12389 H 1171.14 3.97261 0.164211 0
M  V30 12390 N 1172.13 0.454803 1.50895 0
M  V30 12391 C 1173.36 -0.103936 2.06639 0
M  V30 12392 C 1173.78 -1.34943 1.32044 0
M  V30 12393 O 1173.13 -1.78393 0.384972 0
M  V30 12394 C 1173.18 -0.408546 3.59184 0
M  V30 12395 O 1172.91 0.787535 4.30963 0
M  V30 12396 C 1174.41 -1.01605 4.31499 0
M  V30 12397 H 1171.63 -0.000171839 0.671 0
M  V30 12398 H 1174.17 0.638907 1.94263 0
M  V30 12399 H 1172.33 -1.1013 3.71416 0
M  V30 12400 H 1172.74 0.52229 5.21893 0
M  V30 12401 H 1174.21 -1.17906 5.39261 0
M  V30 12402 H 1174.69 -2.00182 3.90927 0
M  V30 12403 H 1175.3 -0.362155 4.23755 0
M  V30 12404 N 1173.61 -1.56489 0.186789 0
M  V30 12405 C 1175.02 -1.83809 -0.327265 0
M  V30 12406 C 1175.37 -1.10718 -1.61976 0
M  V30 12407 O 1174.5 -0.36525 -2.13295 0
M  V30 12408 C 1175.09 -3.33435 -0.600551 0
M  V30 12409 C 1173.65 -3.61195 -1.059 0
M  V30 12410 C 1172.8 -2.77108 -0.103131 0
M  V30 12411 H 1175.75 -1.53292 0.410747 0
M  V30 12412 H 1175.77 -3.51754 -1.45084 0
M  V30 12413 H 1175.28 -3.86605 0.340315 0
M  V30 12414 H 1173.38 -3.13451 -2.01443 0
M  V30 12415 H 1173.5 -4.69435 -0.957458 0
M  V30 12416 H 1171.86 -2.47448 -0.603449 0
M  V30 12417 H 1172.64 -3.33065 0.832031 0
M  V30 12418 N 1175.09 0.086862 -1.5736 0
M  V30 12419 C 1176.5 0.640442 -1.75372 0
M  V30 12420 C 1176.85 1.78693 -0.81014 0
M  V30 12421 O 1175.98 2.16398 0.00940712 0
M  V30 12422 C 1176.57 1.16856 -3.1801 0
M  V30 12423 C 1175.13 1.66813 -3.37417 0
M  V30 12424 C 1174.28 0.58116 -2.71142 0
M  V30 12425 H 1177.23 -0.139249 -1.58088 0
M  V30 12426 H 1177.25 2.03772 -3.21337 0
M  V30 12427 H 1176.76 0.333909 -3.86661 0
M  V30 12428 H 1174.86 2.52652 -2.73858 0
M  V30 12429 H 1174.98 1.75545 -4.45781 0
M  V30 12430 H 1173.34 1.0226 -2.3327 0
M  V30 12431 H 1174.12 -0.243047 -3.42439 0
M  V30 12432 N 1176.57 1.53483 0.357892 0
M  V30 12433 C 1177.79 1.74264 1.12458 0
M  V30 12434 C 1178.22 0.473944 1.82031 0
M  V30 12435 O 1177.58 -0.57253 1.72023 0
M  V30 12436 C 1177.62 2.91356 2.12471 0
M  V30 12437 O 1176.73 2.60502 3.19707 0
M  V30 12438 H 1176.07 0.578499 0.325937 0
M  V30 12439 H 1178.6 2.00395 0.412666 0
M  V30 12440 H 1178.61 3.1774 2.5594 0
M  V30 12441 H 1177.28 3.83378 1.61226 0
M  V30 12442 H 1175.86 2.44961 2.81156 0
M  V30 12443 N 1178.05 -0.61812 1.44973 0
M  V30 12444 C 1179.29 -1.37944 1.48658 0
M  V30 12445 C 1179.62 -1.93805 0.123749 0
M  V30 12446 O 1178.9 -1.74434 -0.860401 0
M  V30 12447 C 1179.18 -2.53515 2.55739 0
M  V30 12448 C 1179.04 -2.02918 4.01428 0
M  V30 12449 C 1180.35 -3.55674 2.59199 0
M  V30 12450 H 1177.47 -0.500223 0.541244 0
M  V30 12451 H 1180.12 -0.69774 1.76725 0
M  V30 12452 H 1178.27 -3.11669 2.31937 0
M  V30 12453 H 1179.94 -1.49494 4.36405 0
M  V30 12454 H 1178.18 -1.33999 4.12586 0
M  V30 12455 H 1178.85 -2.86181 4.72021 0
M  V30 12456 H 1181.33 -3.07343 2.80499 0
M  V30 12457 H 1180.2 -4.34042 3.36004 0
M  V30 12458 H 1180.46 -4.10601 1.63888 0
M  V30 12459 N 1179.52 -1.32087 -0.859693 0
M  V30 12460 C 1180.47 -1.20549 -1.98924 0
M  V30 12461 C 1181.47 -0.111422 -1.69033 0
M  V30 12462 O 1182.67 -0.27401 -1.77902 0
M  V30 12463 H 1179.05 -0.373538 -0.652667 0
M  V30 12464 H 1181.02 -2.16091 -2.05785 0
M  V30 12465 C 1179.77 -0.940226 -3.34746 0
M  V30 12466 H 1179.09 -1.77427 -3.58273 0
M  V30 12467 H 1180.53 -0.899712 -4.14344 0
M  V30 12468 C 1178.99 0.357042 -3.35003 0
M  V30 12469 O 1179.52 1.37054 -3.77596 0
M  V30 12470 N 1177.72 0.37723 -2.88141 0
M  V30 12471 H 1177.27 -0.448051 -2.53674 0
M  V30 12472 H 1177.23 1.24509 -2.88695 0
M  V30 12473 N 1181 1.07532 -1.15215 0
M  V30 12474 C 1181.91 2.18222 -0.861192 0
M  V30 12475 C 1182.93 1.73246 0.161798 0
M  V30 12476 O 1184.1 2.01397 -0.0118386 0
M  V30 12477 C 1181.17 3.44902 -0.352601 0
M  V30 12478 C 1180.23 4.04455 -1.43926 0
M  V30 12479 C 1179.46 5.25089 -0.954841 0
M  V30 12480 O 1179.69 5.70048 0.200294 0
M  V30 12481 O 1178.62 5.76269 -1.73774 0
M  V30 12482 H 1182.45 2.45599 -1.78648 0
M  V30 12483 H 1180.03 1.16835 -0.93112 0
M  V30 12484 H 1181.91 4.21333 -0.0753347 0
M  V30 12485 H 1180.59 3.19082 0.544841 0
M  V30 12486 H 1179.49 3.29573 -1.7701 0
M  V30 12487 H 1180.83 4.34544 -2.31155 0
M  V30 12488 N 1182.48 0.948665 1.2585 0
M  V30 12489 C 1183.41 0.482036 2.2847 0
M  V30 12490 C 1184.39 -0.468553 1.63519 0
M  V30 12491 O 1185.58 -0.368796 1.90666 0
M  V30 12492 C 1182.71 -0.246603 3.46423 0
M  V30 12493 C 1181.66 0.61815 4.23513 0
M  V30 12494 C 1180.99 -0.240884 5.34157 0
M  V30 12495 C 1182.29 1.89327 4.86778 0
M  V30 12496 H 1183.98 1.33973 2.67753 0
M  V30 12497 H 1181.53 0.645645 1.28715 0
M  V30 12498 H 1183.48 -0.584135 4.17332 0
M  V30 12499 H 1182.2 -1.13849 3.06114 0
M  V30 12500 H 1180.86 0.938682 3.54379 0
M  V30 12501 H 1180.51 -1.13235 4.90089 0
M  V30 12502 H 1180.21 0.334367 5.86648 0
M  V30 12503 H 1181.73 -0.573517 6.07901 0
M  V30 12504 H 1183.15 1.62252 5.49861 0
M  V30 12505 H 1181.55 2.41369 5.49419 0
M  V30 12506 H 1182.62 2.60006 4.09298 0
M  V30 12507 N 1183.96 -1.40369 0.716545 0
M  V30 12508 C 1185.37 -1.83783 0.328719 0
M  V30 12509 C 1185.72 -1.5991 -1.13681 0
M  V30 12510 O 1184.85 -1.08048 -1.87496 0
M  V30 12511 C 1185.44 -3.33626 0.589848 0
M  V30 12512 C 1184 -3.7553 0.25572 0
M  V30 12513 C 1183.15 -2.63571 0.861733 0
M  V30 12514 H 1186.1 -1.29623 0.915621 0
M  V30 12515 H 1186.12 -3.80225 -0.14459 0
M  V30 12516 H 1185.63 -3.5097 1.65655 0
M  V30 12517 H 1183.73 -3.63781 -0.805883 0
M  V30 12518 H 1183.84 -4.73577 0.725388 0
M  V30 12519 H 1182.21 -2.53047 0.289706 0
M  V30 12520 H 1182.99 -2.83727 1.93272 0
M  V30 12521 N 1185.44 -0.462799 -1.50652 0
M  V30 12522 C 1186.85 -0.00568907 -1.86699 0
M  V30 12523 C 1187.2 1.39641 -1.37822 0
M  V30 12524 O 1186.32 2.03366 -0.739679 0
M  V30 12525 C 1186.92 -0.00354783 -3.388 0
M  V30 12526 C 1185.48 0.398061 -3.74289 0
M  V30 12527 C 1184.62 -0.392574 -2.74507 0
M  V30 12528 H 1187.58 -0.677469 -1.43513 0
M  V30 12529 H 1187.6 0.800456 -3.71985 0
M  V30 12530 H 1187.11 -1.02414 -3.74344 0
M  V30 12531 H 1185.21 1.42331 -3.44344 0
M  V30 12532 H 1185.32 0.105168 -4.78985 0
M  V30 12533 H 1183.69 0.152608 -2.54242 0
M  V30 12534 H 1184.47 -1.41252 -3.12894 0
M  V30 12535 N 1186.91 1.56388 -0.195085 0
M  V30 12536 C 1188.16 1.97189 0.44281 0
M  V30 12537 C 1188.48 1.08312 1.62153 0
M  V30 12538 O 1187.75 0.154404 1.95291 0
M  V30 12539 H 1186.33 0.728188 0.166585 0
M  V30 12540 H 1189 1.92852 -0.281815 0
M  V30 12541 H 1188.09 3.02016 0.786945 0
M  V30 12542 N 1188.39 -0.0785156 1.57404 0
M  V30 12543 C 1189.62 -0.795871 1.91522 0
M  V30 12544 C 1190.04 -1.70665 0.790892 0
M  V30 12545 O 1189.4 -1.79474 -0.25666 0
M  V30 12546 C 1189.45 -1.57121 3.24569 0
M  V30 12547 O 1188.55 -2.6814 3.13328 0
M  V30 12548 H 1187.89 -0.217575 0.627341 0
M  V30 12549 H 1190.42 -0.0487724 2.04542 0
M  V30 12550 H 1190.43 -1.9519 3.5828 0
M  V30 12551 H 1189.11 -0.902909 4.05981 0
M  V30 12552 H 1187.69 -2.32978 2.91163 0
M  V30 12553 N 1189.87 -1.5367 -0.349747 0
M  V30 12554 C 1191.12 -1.70618 -1.09068 0
M  V30 12555 C 1191.45 -0.466133 -1.88832 0
M  V30 12556 O 1190.7 0.552079 -1.87751 0
M  V30 12557 C 1191 -2.91753 -2.06434 0
M  V30 12558 C 1190.67 -4.27614 -1.43029 0
M  V30 12559 C 1189.33 -4.64555 -1.25466 0
M  V30 12560 C 1191.68 -5.12037 -0.972987 0
M  V30 12561 C 1189.01 -5.83543 -0.607807 0
M  V30 12562 C 1191.36 -6.31685 -0.340073 0
M  V30 12563 C 1190.02 -6.67327 -0.152069 0
M  V30 12564 H 1189.29 -0.624334 -0.399108 0
M  V30 12565 H 1191.94 -1.87879 -0.370657 0
M  V30 12566 H 1190.25 -2.6907 -2.84796 0
M  V30 12567 H 1191.94 -3.02059 -2.63744 0
M  V30 12568 H 1188.53 -3.98535 -1.57696 0
M  V30 12569 H 1192.72 -4.84035 -1.09655 0
M  V30 12570 H 1187.97 -6.09737 -0.450705 0
M  V30 12571 H 1192.15 -6.96396 0.0223973 0
M  V30 12572 H 1189.77 -7.59388 0.35121 0
M  V30 12573 N 1191.35 0.610423 -1.45298 0
M  V30 12574 C 1192.76 1.19234 -1.43667 0
M  V30 12575 C 1193.11 1.95523 -0.162794 0
M  V30 12576 O 1192.24 2.03507 0.735789 0
M  V30 12577 C 1192.83 2.16892 -2.60276 0
M  V30 12578 C 1191.39 2.70465 -2.61774 0
M  V30 12579 C 1190.54 1.45821 -2.35863 0
M  V30 12580 H 1193.49 0.399895 -1.53579 0
M  V30 12581 H 1193.51 2.99875 -2.34212 0
M  V30 12582 H 1193.02 1.61339 -3.52975 0
M  V30 12583 H 1191.12 3.29965 -1.73072 0
M  V30 12584 H 1191.23 3.15092 -3.60907 0
M  V30 12585 H 1189.6 1.74678 -1.85364 0
M  V30 12586 H 1190.38 0.921403 -3.30704 0
M  V30 12587 N 1192.83 1.32541 0.852676 0
M  V30 12588 C 1194.07 1.22971 1.60383 0
M  V30 12589 C 1194.4 -0.208009 1.93887 0
M  V30 12590 O 1193.67 -1.13326 1.59794 0
M  V30 12591 H 1192.25 0.452149 0.594618 0
M  V30 12592 H 1194.91 1.66089 1.01983 0
M  V30 12593 H 1194 1.81373 2.53989 0
M  V30 12594 N 1194.3 -1.0692 1.15784 0
M  V30 12595 C 1195.53 -1.83849 0.959903 0
M  V30 12596 C 1195.95 -1.8169 -0.486873 0
M  V30 12597 O 1195.31 -1.21305 -1.34739 0
M  V30 12598 C 1195.36 -3.28642 1.48414 0
M  V30 12599 O 1194.46 -4.0665 0.686249 0
M  V30 12600 H 1193.81 -0.569115 0.342059 0
M  V30 12601 H 1196.34 -1.34851 1.53871 0
M  V30 12602 H 1196.35 -3.7947 1.49888 0
M  V30 12603 H 1195.02 -3.29529 2.53739 0
M  V30 12604 H 1193.6 -3.65453 0.741501 0
M  V30 12605 N 1195.78 -0.955326 -1.25345 0
M  V30 12606 C 1197.19 -0.651118 -1.74978 0
M  V30 12607 C 1197.54 0.833495 -1.77616 0
M  V30 12608 O 1196.67 1.65228 -1.39745 0
M  V30 12609 C 1197.26 -1.17521 -3.17764 0
M  V30 12610 C 1195.82 -0.921151 -3.64954 0
M  V30 12611 C 1194.97 -1.31784 -2.43984 0
M  V30 12612 H 1197.92 -1.13205 -1.11222 0
M  V30 12613 H 1197.94 -0.535625 -3.76711 0
M  V30 12614 H 1197.45 -2.25575 -3.15813 0
M  V30 12615 H 1195.56 0.144392 -3.7232 0
M  V30 12616 H 1195.67 -1.5581 -4.53056 0
M  V30 12617 H 1194.03 -0.736219 -2.43828 0
M  V30 12618 H 1194.82 -2.40761 -2.44723 0
M  V30 12619 N 1197.26 1.39987 -0.723979 0
M  V30 12620 C 1198.19 2.3332 -0.0917282 0
M  V30 12621 C 1199.17 1.53335 0.736361 0
M  V30 12622 O 1200.36 1.81771 0.683582 0
M  V30 12623 C 1197.49 3.3737 0.824549 0
M  V30 12624 C 1196.44 4.2788 0.101452 0
M  V30 12625 C 1195.77 5.22536 1.13401 0
M  V30 12626 C 1197.07 5.11649 -1.04939 0
M  V30 12627 H 1198.76 2.86441 -0.871318 0
M  V30 12628 H 1196.31 1.37725 -0.420448 0
M  V30 12629 H 1198.26 4.01607 1.27631 0
M  V30 12630 H 1196.98 2.82663 1.63613 0
M  V30 12631 H 1195.64 3.65107 -0.330569 0
M  V30 12632 H 1195.29 4.64131 1.93886 0
M  V30 12633 H 1194.99 5.83938 0.65502 0
M  V30 12634 H 1196.52 5.89651 1.58569 0
M  V30 12635 H 1197.93 5.69293 -0.6766 0
M  V30 12636 H 1196.33 5.82137 -1.45729 0
M  V30 12637 H 1197.4 4.47132 -1.8762 0
M  V30 12638 N 1198.74 0.470782 1.50404 0
M  V30 12639 C 1200.15 0.0155901 1.86693 0
M  V30 12640 C 1200.5 -1.38908 1.38561 0
M  V30 12641 O 1199.63 -2.02971 0.750454 0
M  V30 12642 C 1200.22 0.0215152 3.38793 0
M  V30 12643 C 1198.78 -0.378206 3.74495 0
M  V30 12644 C 1197.93 0.407126 2.74295 0
M  V30 12645 H 1200.88 0.68507 1.43152 0
M  V30 12646 H 1200.9 -0.780717 3.72404 0
M  V30 12647 H 1200.41 1.04397 3.73795 0
M  V30 12648 H 1198.51 -1.40503 3.45094 0
M  V30 12649 H 1198.63 -0.0797643 4.79034 0
M  V30 12650 H 1196.99 -0.139123 2.5432 0
M  V30 12651 H 1197.77 1.42909 3.12141 0
M  V30 12652 N 1200.22 -1.56282 0.203376 0
M  V30 12653 C 1201.49 -1.89587 -0.481256 0
M  V30 12654 C 1201.87 -1.11812 -1.79057 0
M  V30 12655 O 1201.22 -0.221759 -2.27421 0
M  V30 12656 C 1201.43 -3.42071 -0.691965 0
M  V30 12657 C 1202.78 -4.12471 -1.00761 0
M  V30 12658 O 1203.8 -3.47568 -0.779396 0
M  V30 12659 O 1202.66 -5.27194 -1.43974 0
M  V30 12660 H 1199.76 -0.787682 -0.251963 0
M  V30 12661 H 1202.3 -1.67934 0.244207 0
M  V30 12662 H 1201.08 -3.9061 0.232322 0
M  V30 12663 H 1200.7 -3.69444 -1.46958 0
M  V30 12664 N 1201.7 0.070167 -1.57444 0
M  V30 12665 C 1202.97 0.802108 -1.78397 0
M  V30 12666 C 1203.35 1.95706 -0.791356 0
M  V30 12667 O 1202.7 2.27827 0.17518 0
M  V30 12668 C 1202.91 1.27354 -3.24934 0
M  V30 12669 C 1204.26 1.70626 -3.88808 0
M  V30 12670 O 1205.28 1.36916 -3.28835 0
M  V30 12671 O 1204.14 2.33041 -4.94322 0
M  V30 12672 H 1201.24 0.384483 -0.73219 0
M  V30 12673 H 1203.78 0.0501168 -1.69626 0
M  V30 12674 H 1202.55 0.447204 -3.88736 0
M  V30 12675 H 1202.18 2.0868 -3.38435 0
M  V30 12676 N 1203.17 1.53854 0.341593 0
M  V30 12677 C 1204.08 1.84975 1.44297 0
M  V30 12678 C 1205.1 0.740057 1.57477 0
M  V30 12679 O 1206.28 1.03256 1.72917 0
M  V30 12680 C 1203.34 2.05464 2.79259 0
M  V30 12681 C 1202.4 3.29318 2.75405 0
M  V30 12682 C 1201.63 3.4882 4.03931 0
M  V30 12683 O 1201.86 2.7212 5.01305 0
M  V30 12684 O 1200.79 4.42253 4.08284 0
M  V30 12685 H 1204.62 2.78592 1.20913 0
M  V30 12686 H 1202.2 1.39532 0.533953 0
M  V30 12687 H 1204.08 2.20374 3.59184 0
M  V30 12688 H 1202.76 1.15035 3.0257 0
M  V30 12689 H 1201.67 3.1981 1.94094 0
M  V30 12690 H 1203 4.19746 2.57049 0
M  V30 12691 N 1204.65 -0.602709 1.4562 0
M  V30 12692 C 1205.9 -1.35889 1.49595 0
M  V30 12693 C 1206.22 -1.9449 0.141002 0
M  V30 12694 O 1205.49 -1.77438 -0.830209 0
M  V30 12695 H 1204.07 -0.504478 0.550918 0
M  V30 12696 H 1206.73 -0.707376 1.8161 0
M  V30 12697 H 1205.83 -2.17583 2.2375 0
M  V30 12698 N 1206.13 -1.32992 -0.845635 0
M  V30 12699 C 1207.09 -1.22607 -1.9365 0
M  V30 12700 C 1208.09 -0.146812 -1.60128 0
M  V30 12701 O 1209.28 -0.397863 -1.69596 0
M  V30 12702 C 1206.41 -0.887677 -3.2914 0
M  V30 12703 H 1207.61 -2.19563 -2.04285 0
M  V30 12704 H 1205.16 -1.16952 -1.03691 0
M  V30 12705 H 1205.9 0.0796777 -3.24202 0
M  V30 12706 H 1205.68 -1.66808 -3.54849 0
M  V30 12707 H 1207.17 -0.83958 -4.09073 0
M  V30 12708 N 1207.61 1.06304 -1.1635 0
M  V30 12709 C 1209.02 1.60566 -0.952652 0
M  V30 12710 C 1209.37 1.8963 0.503473 0
M  V30 12711 O 1208.49 1.66964 1.37666 0
M  V30 12712 C 1209.09 2.9172 -1.72292 0
M  V30 12713 C 1207.65 3.42684 -1.55707 0
M  V30 12714 C 1206.8 2.16579 -1.73172 0
M  V30 12715 H 1209.75 0.892563 -1.31221 0
M  V30 12716 H 1209.77 3.61126 -1.19868 0
M  V30 12717 H 1209.28 2.70535 -2.78267 0
M  V30 12718 H 1207.38 3.68929 -0.521726 0
M  V30 12719 H 1207.49 4.18018 -2.34088 0
M  V30 12720 H 1205.86 2.26795 -1.15914 0
M  V30 12721 H 1206.64 1.97877 -2.80535 0
M  V30 12722 N 1209.09 0.96196 1.24836 0
M  V30 12723 C 1210.33 0.616342 1.92052 0
M  V30 12724 C 1210.65 -0.851601 1.76088 0
M  V30 12725 O 1211.85 -1.3075 2.37943 0
M  V30 12726 C 1210.31 1.05168 3.44191 0
M  V30 12727 C 1209.92 2.54268 3.68852 0
M  V30 12728 C 1211.66 0.778938 4.17292 0
M  V30 12729 C 1209.57 2.91564 5.14533 0
M  V30 12730 H 1208.5 0.22681 0.719078 0
M  V30 12731 H 1211.15 1.1674 1.41577 0
M  V30 12732 H 1209.53 0.428979 3.9367 0
M  V30 12733 H 1210.71 3.21619 3.29997 0
M  V30 12734 H 1209.02 2.79091 3.09026 0
M  V30 12735 H 1211.62 1.03366 5.24614 0
M  V30 12736 H 1211.96 -0.284772 4.15325 0
M  V30 12737 H 1212.49 1.36233 3.73745 0
M  V30 12738 H 1209.23 3.96982 5.21618 0
M  V30 12739 H 1208.75 2.28892 5.54408 0
M  V30 12740 H 1210.43 2.81155 5.82718 0
M  V30 12741 N 1210.56 -1.39601 0.731392 0
M  V30 12742 C 1211.84 -1.94531 0.20422 0
M  V30 12743 C 1212.22 -1.66845 -1.29329 0
M  V30 12744 O 1211.57 -0.994706 -2.05713 0
M  V30 12745 C 1211.78 -3.44891 0.53395 0
M  V30 12746 C 1213.13 -4.21863 0.481298 0
M  V30 12747 O 1214.15 -3.53073 0.470929 0
M  V30 12748 O 1213.01 -5.44452 0.472663 0
M  V30 12749 H 1210.1 -0.826214 0.0360436 0
M  V30 12750 H 1212.65 -1.49121 0.810005 0
M  V30 12751 H 1211.42 -3.58463 1.56907 0
M  V30 12752 H 1211.04 -3.97472 -0.10099 0
M  V30 12753 N 1212.04 -0.478751 -1.50152 0
M  V30 12754 C 1212.97 0.301182 -2.31549 0
M  V30 12755 C 1213.95 0.983276 -1.38801 0
M  V30 12756 O 1215.14 0.978973 -1.67719 0
M  V30 12757 C 1212.27 1.3791 -3.18745 0
M  V30 12758 C 1211.22 0.818175 -4.20107 0
M  V30 12759 C 1210.55 1.99496 -4.9609 0
M  V30 12760 C 1211.85 -0.17574 -5.22004 0
M  V30 12761 H 1213.54 -0.378188 -2.97002 0
M  V30 12762 H 1211.09 -0.183323 -1.42828 0
M  V30 12763 H 1213.04 1.93227 -3.74488 0
M  V30 12764 H 1211.77 2.08735 -2.51192 0
M  V30 12765 H 1210.42 0.286924 -3.65475 0
M  V30 12766 H 1210.07 2.69036 -4.25004 0
M  V30 12767 H 1209.77 1.62582 -5.6466 0
M  V30 12768 H 1211.3 2.55288 -5.54671 0
M  V30 12769 H 1212.71 0.288513 -5.72574 0
M  V30 12770 H 1211.11 -0.459549 -5.98338 0
M  V30 12771 H 1212.18 -1.09911 -4.72279 0
M  V30 12772 N 1213.52 1.56172 -0.211661 0
M  V30 12773 C 1214.77 1.98039 0.422706 0
M  V30 12774 C 1215.1 1.09904 1.60472 0
M  V30 12775 O 1214.35 0.141771 1.95186 0
M  V30 12776 C 1214.65 3.45636 0.909442 0
M  V30 12777 C 1214.32 4.50613 -0.160982 0
M  V30 12778 C 1212.98 4.79043 -0.455064 0
M  V30 12779 C 1215.33 5.13624 -0.885426 0
M  V30 12780 C 1212.66 5.67771 -1.47828 0
M  V30 12781 C 1215.01 6.03459 -1.8979 0
M  V30 12782 C 1213.67 6.30238 -2.19901 0
M  V30 12783 H 1212.94 0.724676 0.154679 0
M  V30 12784 H 1215.59 1.8894 -0.312106 0
M  V30 12785 H 1213.9 3.51889 1.72283 0
M  V30 12786 H 1215.59 3.75395 1.40995 0
M  V30 12787 H 1212.18 4.28528 0.0783864 0
M  V30 12788 H 1216.37 4.91737 -0.671463 0
M  V30 12789 H 1211.62 5.86787 -1.7173 0
M  V30 12790 H 1215.8 6.51338 -2.46438 0
M  V30 12791 H 1213.42 6.98788 -2.9933 0
M  V30 12792 O 1215.04 0.0750807 1.61325 0
M  V30 12793 H 1215.73 -0.530633 1.8629 0
M  V30 END ATOM
M  V30 BEGIN BOND
M  V30 END BOND
M  V30 END CTAB
M  END
$$$$
