drugbank_target|P49302 Capsid protein VP1 (DB02379; DB03721)
 OpenBabel12092120283D

  0  0  0     0  0            999 V3000
M  V30 BEGIN CTAB
M  V30 COUNTS 5947 6019 0 0 0
M  V30 BEGIN ATOM
M  V30 1 H -0.908 1.98254 -0.117106 0
M  V30 2 N 0 1.576 0 0
M  V30 3 C 0.933 2.03868 1.02534 0
M  V30 4 C 1.911 0.928543 1.3348 0
M  V30 5 O 3.095 1.19667 1.45644 0
M  V30 6 C 0.222 2.43627 2.35294 0
M  V30 7 C -0.732 3.65373 2.2001 0
M  V30 8 S 0.101 5.13292 1.52614 0
M  V30 9 C 1.257 5.56322 2.86805 0
M  V30 10 H 1.49 2.90518 0.631377 0
M  V30 11 H -0.977 1.52953 0.210867 0
M  V30 12 H 0.981 2.67203 3.11629 0
M  V30 13 H -0.358 1.57376 2.7183 0
M  V30 14 H -1.165 3.90944 3.18086 0
M  V30 15 H -1.563 3.418 1.51819 0
M  V30 16 H 0.729 5.58782 3.83104 0
M  V30 17 H 1.672 6.56266 2.65933 0
M  V30 18 H 2.08 4.83886 2.90714 0
M  V30 19 N 1.4781 -0.272755 1.55222 0
M  V30 20 C 2.4411 -1.32041 1.87344 0
M  V30 21 C 3.4411 -1.42342 0.74803 0
M  V30 22 O 4.6311 -1.41488 1.0162 0
M  V30 23 C 1.7631 -2.70173 2.07893 0
M  V30 24 H 2.9561 -1.04789 2.80997 0
M  V30 25 H 0.5091 -0.51083 1.47717 0
M  V30 26 H 1.2441 -3.02605 1.16622 0
M  V30 27 H 1.0291 -2.64082 2.89833 0
M  V30 28 H 2.5191 -3.45869 2.34017 0
M  V30 29 N 2.9562 -1.48159 -0.537278 0
M  V30 30 C 4.3672 -1.49429 -1.11928 0
M  V30 31 C 4.7182 -0.26 -1.9447 0
M  V30 32 O 3.8432 0.633489 -2.0692 0
M  V30 33 C 4.4382 -2.70758 -2.03656 0
M  V30 34 C 2.9972 -2.74923 -2.57088 0
M  V30 35 C 2.1442 -2.42835 -1.3389 0
M  V30 36 H 5.0952 -1.55381 -0.322886 0
M  V30 37 H 5.1162 -2.48861 -2.87834 0
M  V30 38 H 4.6282 -3.60575 -1.43553 0
M  V30 39 H 2.7292 -1.89296 -3.20933 0
M  V30 40 H 2.8422 -3.76157 -2.9672 0
M  V30 41 H 1.2062 -1.93836 -1.65226 0
M  V30 42 H 1.9892 -3.34884 -0.755504 0
M  V30 43 N 4.4343 0.785586 -1.36625 0
M  V30 44 C 5.3813 1.89838 -1.31264 0
M  V30 45 C 6.3513 1.65115 -0.180633 0
M  V30 46 O 7.5363 1.87222 -0.36777 0
M  V30 47 C 4.6763 3.26706 -1.11163 0
M  V30 48 C 3.7893 3.63476 -2.33472 0
M  V30 49 C 2.9243 4.89481 -2.06353 0
M  V30 50 C 1.9633 5.18941 -3.24602 0
M  V30 51 N 1.1003 6.36131 -2.97123 0
M  V30 52 H 5.9403 1.93756 -2.26413 0
M  V30 53 H 3.4773 0.947454 -1.12524 0
M  V30 54 H 5.4353 4.05639 -0.975337 0
M  V30 55 H 4.0653 3.222 -0.196674 0
M  V30 56 H 3.1173 2.79636 -2.57891 0
M  V30 57 H 4.4293 3.81193 -3.21704 0
M  V30 58 H 3.5833 5.76288 -1.89675 0
M  V30 59 H 2.3223 4.73841 -1.15437 0
M  V30 60 H 1.3273 4.30615 -3.41834 0
M  V30 61 H 2.5523 5.36498 -4.16349 0
M  V30 62 H 0.4983 6.21875 -2.08823 0
M  V30 63 H 0.4153 6.54198 -3.78894 0
M  V30 64 H 1.6833 7.2591 -2.84033 0
M  V30 65 N 5.9124 1.20967 1.01018 0
M  V30 66 C 7.3284 0.965905 1.27053 0
M  V30 67 C 7.5284 -0.350785 1.98423 0
M  V30 68 O 6.5844 -1.07773 2.28344 0
M  V30 69 C 7.8974 2.15294 2.09926 0
M  V30 70 C 9.4454 2.19463 2.23171 0
M  V30 71 C 9.9204 3.3767 3.09424 0
M  V30 72 N 11.4114 3.37724 3.17012 0
M  V30 73 C 12.1464 4.25837 3.83993 0
M  V30 74 N 11.6424 5.24138 4.53047 0
M  V30 75 N 13.4354 4.1366 3.80581 0
M  V30 76 H 5.5864 2.0565 0.531194 0
M  V30 77 H 7.8494 0.90024 0.297106 0
M  V30 78 H 7.5554 3.10684 1.64828 0
M  V30 79 H 7.4294 2.13923 3.10672 0
M  V30 80 H 9.8164 1.24632 2.6749 0
M  V30 81 H 9.8974 2.2488 1.21912 0
M  V30 82 H 9.5414 4.32791 2.65808 0
M  V30 83 H 9.4714 3.29491 4.10784 0
M  V30 84 H 11.9624 2.6658 2.6785 0
M  V30 85 H 12.2754 5.87684 5.01844 0
M  V30 86 H 10.6204 5.28068 4.5185 0
M  V30 87 H 13.8114 3.36127 3.25785 0
M  V30 88 H 13.9844 4.82538 4.32505 0
M  V30 89 N 7.3905 -1.2043 1.01659 0
M  V30 90 C 8.3375 -2.23215 0.586822 0
M  V30 91 C 9.3075 -1.61382 -0.393085 0
M  V30 92 O 10.4925 -1.88544 -0.292525 0
M  V30 93 C 7.6325 -3.45032 -0.0687464 0
M  V30 94 C 6.7455 -4.21296 0.955724 0
M  V30 95 C 5.8805 -5.30507 0.271208 0
M  V30 96 C 4.9195 -5.98515 1.28244 0
M  V30 97 N 4.0565 -6.99316 0.62459 0
M  V30 98 H 8.8965 -2.59336 1.46796 0
M  V30 99 H 6.4335 -1.27431 0.734836 0
M  V30 100 H 8.3915 -4.1459 -0.465965 0
M  V30 101 H 7.0215 -3.09604 -0.913529 0
M  V30 102 H 6.0735 -3.50803 1.4711 0
M  V30 103 H 7.3855 -4.6803 1.72479 0
M  V30 104 H 6.5395 -6.06428 -0.18151 0
M  V30 105 H 5.2785 -4.8481 -0.530163 0
M  V30 106 H 4.2835 -5.21355 1.74554 0
M  V30 107 H 5.5085 -6.46298 2.08509 0
M  V30 108 H 3.4545 -6.55812 -0.156914 0
M  V30 109 H 3.3715 -7.44178 1.33172 0
M  V30 110 H 4.6395 -7.79255 0.195462 0
M  V30 111 N 8.8686 -0.792821 -1.36206 0
M  V30 112 C 10.0936 -0.377701 -2.03932 0
M  V30 113 C 10.5186 0.998947 -1.59382 0
M  V30 114 O 9.8766 1.64421 -0.763903 0
M  V30 115 C 9.9246 -0.453635 -3.57735 0
M  V30 116 O 9.0286 0.538151 -4.08874 0
M  V30 117 H 8.3696 -0.159855 -0.644471 0
M  V30 118 H 10.8996 -1.07488 -1.7409 0
M  V30 119 H 10.9096 -0.318464 -4.06755 0
M  V30 120 H 9.5846 -1.45784 -3.89512 0
M  V30 121 H 8.1616 0.364359 -3.71116 0
M  V30 122 N 10.3467 1.47872 -0.545128 0
M  V30 123 C 11.5947 2.02093 -0.016553 0
M  V30 124 C 11.9157 1.42305 1.3332 0
M  V30 125 O 11.1857 0.593853 1.86682 0
M  V30 126 H 9.7657 0.746993 -0.00313038 0
M  V30 127 H 12.4277 1.81414 -0.712397 0
M  V30 128 H 11.5237 3.11996 0.0805422 0
M  V30 129 N 11.8248 0.280983 1.55075 0
M  V30 130 C 13.0708 -0.33461 2.00021 0
M  V30 131 C 13.4038 -1.55063 1.16915 0
M  V30 132 O 12.6788 -1.93006 0.240646 0
M  V30 133 C 12.9618 -0.711007 3.53011 0
M  V30 134 C 12.8148 0.512766 4.46868 0
M  V30 135 C 14.1338 -1.54522 4.12081 0
M  V30 136 H 11.2528 -0.120147 0.727141 0
M  V30 137 H 13.8948 0.389097 1.85973 0
M  V30 138 H 12.0448 -1.32761 3.65112 0
M  V30 139 H 13.7168 1.15131 4.46702 0
M  V30 140 H 11.9598 1.14975 4.18286 0
M  V30 141 H 12.6308 0.205556 5.51617 0
M  V30 142 H 15.1068 -1.02442 4.03293 0
M  V30 143 H 13.9828 -1.77739 5.19327 0
M  V30 144 H 14.2438 -2.52813 3.62682 0
M  V30 145 N 13.3029 -1.57598 0.00835791 0
M  V30 146 C 14.5279 -1.95617 -0.689103 0
M  V30 147 C 14.9529 -0.883753 -1.66046 0
M  V30 148 O 14.3109 0.157352 -1.80616 0
M  V30 149 C 14.3589 -3.32736 -1.38994 0
M  V30 150 O 13.4629 -3.27631 -2.50463 0
M  V30 151 H 12.8039 -0.638379 -0.182668 0
M  V30 152 H 15.3339 -2.045 0.064036 0
M  V30 153 H 15.3439 -3.68494 -1.75147 0
M  V30 154 H 14.0189 -4.1034 -0.677778 0
M  V30 155 H 12.5959 -3.03561 -2.16576 0
M  V30 156 N 14.781 0.264519 -1.55364 0
M  V30 157 C 15.728 1.32717 -1.88825 0
M  V30 158 C 16.698 1.48675 -0.740605 0
M  V30 159 O 17.883 1.62945 -0.992657 0
M  V30 160 C 15.023 2.68089 -2.17307 0
M  V30 161 C 14.136 2.60284 -3.44785 0
M  V30 162 C 13.271 3.87892 -3.62924 0
M  V30 163 C 12.31 3.74631 -4.84064 0
M  V30 164 N 11.447 4.94092 -4.98816 0
M  V30 165 H 16.287 1.03481 -2.79456 0
M  V30 166 H 13.824 0.499757 -1.3835 0
M  V30 167 H 15.782 3.46864 -2.31821 0
M  V30 168 H 14.412 2.95509 -1.299 0
M  V30 169 H 13.464 1.73173 -3.38697 0
M  V30 170 H 14.776 2.46388 -4.33698 0
M  V30 171 H 13.93 4.75109 -3.77302 0
M  V30 172 H 12.669 4.04664 -2.7221 0
M  V30 173 H 11.674 2.85797 -4.69681 0
M  V30 174 H 12.899 3.5937 -5.76221 0
M  V30 175 H 10.845 5.11259 -4.11036 0
M  V30 176 H 10.762 4.8276 -5.81789 0
M  V30 177 H 12.03 5.82857 -5.17588 0
M  V30 178 N 16.2591 1.48442 0.529413 0
M  V30 179 C 17.4991 1.58086 1.29569 0
M  V30 180 C 17.8631 0.249302 1.90375 0
M  V30 181 O 19.0641 0.220738 2.67892 0
M  V30 182 C 17.3351 2.68793 2.35552 0
M  V30 183 S 18.8941 2.98207 3.21898 0
M  V30 184 H 15.7121 0.557922 0.440732 0
M  V30 185 H 18.3141 1.85966 0.603059 0
M  V30 186 H 17.0181 3.64102 1.89363 0
M  V30 187 H 16.5491 2.42817 3.09522 0
M  V30 188 H 18.5641 2.37548 4.35644 0
M  V30 189 N 17.7372 -0.778329 1.37039 0
M  V30 190 C 18.6472 -1.92253 1.34446 0
M  V30 191 C 19.6632 -1.72267 0.244991 0
M  V30 192 O 20.8392 -1.95615 0.479258 0
M  V30 193 C 17.9042 -3.27282 1.144 0
M  V30 194 C 16.9652 -3.59969 2.33925 0
M  V30 195 C 16.1982 -4.88555 2.14825 0
M  V30 196 O 16.4212 -5.59113 1.12912 0
M  V30 197 O 15.3552 -5.20153 3.02861 0
M  V30 198 H 19.1812 -1.97392 2.30803 0
M  V30 199 H 16.7662 -0.920154 1.17701 0
M  V30 200 H 18.6482 -4.08062 1.05182 0
M  V30 201 H 17.3232 -3.23011 0.211124 0
M  V30 202 H 16.2302 -2.7945 2.48714 0
M  V30 203 H 17.5632 -3.68976 3.25757 0
M  V30 204 N 19.2153 -1.21501 -1.00376 0
M  V30 205 C 20.4433 -1.059 -1.77744 0
M  V30 206 C 20.8583 0.391125 -1.84704 0
M  V30 207 O 20.2153 1.27133 -1.30933 0
M  V30 208 C 20.2663 -1.65111 -3.21591 0
M  V30 209 O 19.9873 -3.0445 -3.15027 0
M  V30 210 C 21.4883 -1.54637 -4.15454 0
M  V30 211 H 18.7083 -0.371825 -0.558558 0
M  V30 212 H 21.2523 -1.60865 -1.26264 0
M  V30 213 H 19.4073 -1.14235 -3.70175 0
M  V30 214 H 19.8213 -3.3278 -4.0541 0
M  V30 215 H 21.2953 -2.00808 -5.14179 0
M  V30 216 H 21.7723 -0.501022 -4.36333 0
M  V30 217 H 22.3783 -2.04767 -3.72761 0
M  V30 218 N 20.6934 1.19889 -1.02296 0
M  V30 219 C 21.6404 2.22901 -0.598651 0
M  V30 220 C 22.6104 1.61588 0.384521 0
M  V30 221 O 23.7954 1.88697 0.282522 0
M  V30 222 C 20.9354 3.45063 0.0504476 0
M  V30 223 C 20.0484 4.20783 -0.978053 0
M  V30 224 C 19.1834 5.30356 -0.299338 0
M  V30 225 C 18.2224 5.97826 -1.31416 0
M  V30 226 N 17.3594 6.98975 -0.661667 0
M  V30 227 H 22.1994 2.58554 -1.48169 0
M  V30 228 H 19.7364 1.27039 -0.741584 0
M  V30 229 H 21.6944 4.14831 0.443971 0
M  V30 230 H 20.3244 3.10084 0.897097 0
M  V30 231 H 19.3764 3.50018 -1.48969 0
M  V30 232 H 20.6884 4.67109 -1.74958 0
M  V30 233 H 19.8424 6.06516 0.149347 0
M  V30 234 H 18.5814 4.85084 0.504445 0
M  V30 235 H 17.5864 5.20422 -1.77317 0
M  V30 236 H 18.8114 6.45183 -2.11933 0
M  V30 237 H 16.7574 6.55886 0.122132 0
M  V30 238 H 16.6744 7.43461 -1.37117 0
M  V30 239 H 17.9424 7.7914 -0.236785 0
M  V30 240 N 22.1715 0.800033 1.35784 0
M  V30 241 C 23.4115 0.382891 2.00782 0
M  V30 242 C 23.7755 -1.02891 1.62103 0
M  V30 243 O 24.9765 -1.54771 2.19771 0
M  V30 244 C 23.2475 0.553299 3.53091 0
M  V30 245 S 24.8065 0.225608 4.3822 0
M  V30 246 H 21.6245 0.145737 0.695904 0
M  V30 247 H 24.2265 1.04085 1.65489 0
M  V30 248 H 22.9305 1.58091 3.78729 0
M  V30 249 H 22.4615 -0.120214 3.93216 0
M  V30 250 H 24.4765 -0.969074 4.86645 0
M  V30 251 N 23.6496 -1.47581 0.552962 0
M  V30 252 C 24.8776 -2.06875 0.0320556 0
M  V30 253 C 25.2926 -1.40625 -1.25976 0
M  V30 254 O 24.6496 -0.501349 -1.75479 0
M  V30 255 C 24.7006 -3.61092 -0.17167 0
M  V30 256 O 24.4216 -4.24858 1.06899 0
M  V30 257 C 25.9226 -4.37242 -0.730344 0
M  V30 258 H 23.1426 -0.669561 0.043915 0
M  V30 259 H 25.6866 -1.89646 0.765163 0
M  V30 260 H 23.8416 -3.7785 -0.854894 0
M  V30 261 H 24.2556 -5.17334 0.864059 0
M  V30 262 H 25.7296 -5.45842 -0.822203 0
M  V30 263 H 26.2066 -4.03235 -1.74064 0
M  V30 264 H 26.8126 -4.25219 -0.0829543 0
M  V30 265 N 25.1277 -0.289203 -1.54924 0
M  V30 266 C 26.0747 0.592115 -2.23075 0
M  V30 267 C 27.0447 1.13881 -1.20915 0
M  V30 268 O 28.2297 1.18551 -1.495 0
M  V30 269 C 25.3697 1.76376 -2.96623 0
M  V30 270 C 24.4827 1.24959 -4.13533 0
M  V30 271 C 23.6177 2.38416 -4.74691 0
M  V30 272 C 22.6567 1.84072 -5.83767 0
M  V30 273 N 21.7937 2.91057 -6.38929 0
M  V30 274 H 26.6337 0.00432038 -2.98 0
M  V30 275 H 24.1707 -0.00963529 -1.47097 0
M  V30 276 H 26.1287 2.45268 -3.3749 0
M  V30 277 H 24.7587 2.32337 -2.24097 0
M  V30 278 H 23.8107 0.453307 -3.77689 0
M  V30 279 H 25.1227 0.811662 -4.92152 0
M  V30 280 H 24.2767 3.15276 -5.18349 0
M  V30 281 H 23.0157 2.8553 -3.95378 0
M  V30 282 H 22.0207 1.05697 -5.39545 0
M  V30 283 H 23.2457 1.37877 -6.64956 0
M  V30 284 H 21.1917 3.37526 -5.62505 0
M  V30 285 H 21.1087 2.51724 -7.12861 0
M  V30 286 H 22.3767 3.6785 -6.87246 0
M  V30 287 N 26.6058 1.57591 -0.0167156 0
M  V30 288 C 27.5688 2.08393 0.954204 0
M  V30 289 C 28.5688 0.996531 1.26198 0
M  V30 290 O 29.7588 1.25858 1.20438 0
M  V30 291 C 26.8908 2.5394 2.27436 0
M  V30 292 H 28.0838 2.95455 0.514451 0
M  V30 293 H 25.6368 1.54582 0.231089 0
M  V30 294 H 26.3718 1.70171 2.76066 0
M  V30 295 H 26.1568 3.33371 2.06412 0
M  V30 296 H 27.6468 2.93512 2.97053 0
M  V30 297 N 28.0839 -0.256276 1.55502 0
M  V30 298 C 29.3239 -0.993081 1.78654 0
M  V30 299 C 29.6879 -1.8288 0.584724 0
M  V30 300 O 30.8889 -2.59665 0.694822 0
M  V30 301 C 29.1599 -1.83856 3.06483 0
M  V30 302 S 30.7189 -2.63573 3.5082 0
M  V30 303 H 27.5369 -0.334199 0.62756 0
M  V30 304 H 30.1389 -0.26184 1.93739 0
M  V30 305 H 28.8429 -1.21414 3.92029 0
M  V30 306 H 28.3739 -2.61271 2.94111 0
M  V30 307 H 30.3889 -3.86312 3.11412 0
M  V30 308 N 29.562 -1.4872 -0.521534 0
M  V30 309 C 30.973 -1.50607 -1.10337 0
M  V30 310 C 31.324 -0.280612 -1.94183 0
M  V30 311 O 30.449 0.611507 -2.0758 0
M  V30 312 C 31.044 -2.72903 -2.00772 0
M  V30 313 C 29.603 -2.77634 -2.54158 0
M  V30 314 C 28.75 -2.44241 -1.31307 0
M  V30 315 H 31.701 -1.55714 -0.306388 0
M  V30 316 H 31.722 -2.519 -2.85178 0
M  V30 317 H 31.234 -3.62077 -1.39721 0
M  V30 318 H 29.335 -1.92689 -3.18907 0
M  V30 319 H 29.448 -3.79283 -2.92714 0
M  V30 320 H 27.812 -1.95577 -1.63161 0
M  V30 321 H 28.595 -3.35666 -0.719943 0
M  V30 322 N 31.0401 0.771051 -1.3745 0
M  V30 323 C 32.4561 1.07171 -1.18265 0
M  V30 324 C 32.6561 2.01491 -0.019287 0
M  V30 325 O 31.7121 2.44244 0.640408 0
M  V30 326 C 33.0251 1.66854 -2.50161 0
M  V30 327 C 34.5731 1.79109 -2.56689 0
M  V30 328 C 35.0481 2.42205 -3.88717 0
M  V30 329 N 36.5391 2.49655 -3.90162 0
M  V30 330 C 37.2741 2.9933 -4.8907 0
M  V30 331 N 36.7701 3.49172 -5.98374 0
M  V30 332 N 38.5631 2.9821 -4.76474 0
M  V30 333 H 30.7141 0.144796 -2.11906 0
M  V30 334 H 32.9771 0.126863 -0.939473 0
M  V30 335 H 32.6831 1.05017 -3.35655 0
M  V30 336 H 32.5571 2.6614 -2.673 0
M  V30 337 H 34.9441 2.40077 -1.71601 0
M  V30 338 H 35.0251 0.785757 -2.43433 0
M  V30 339 H 34.6691 1.81875 -4.74219 0
M  V30 340 H 34.5991 3.43345 -3.99276 0
M  V30 341 H 37.0901 2.14383 -3.11205 0
M  V30 342 H 37.4031 3.8548 -6.69795 0
M  V30 343 H 35.7481 3.47275 -6.02018 0
M  V30 344 H 38.9391 2.58572 -3.90203 0
M  V30 345 H 39.1121 3.36613 -5.53711 0
M  V30 346 N 32.5182 1.22032 0.997298 0
M  V30 347 C 33.9292 1.0397 1.55071 0
M  V30 348 C 34.2802 -0.398192 1.92117 0
M  V30 349 O 33.4052 -1.28254 1.74298 0
M  V30 350 C 34.0002 1.88109 2.81781 0
M  V30 351 C 32.5592 1.74357 3.33581 0
M  V30 352 C 31.7062 1.84846 2.06706 0
M  V30 353 H 34.6572 1.35941 0.818883 0
M  V30 354 H 34.6782 1.39589 3.53971 0
M  V30 355 H 34.1902 2.92754 2.54787 0
M  V30 356 H 32.2912 0.72427 3.65493 0
M  V30 357 H 32.4042 2.56772 4.04481 0
M  V30 358 H 30.7682 1.28238 2.20062 0
M  V30 359 H 31.5512 2.91014 1.82114 0
M  V30 360 N 33.9963 -1.19345 1.0293 0
M  V30 361 C 34.9593 -2.20793 0.615069 0
M  V30 362 C 35.9593 -1.57553 -0.321533 0
M  V30 363 O 37.1493 -1.73862 -0.108483 0
M  V30 364 C 34.2813 -3.40754 -0.0999222 0
M  V30 365 H 35.4743 -2.58955 1.51269 0
M  V30 366 H 33.0273 -1.3303 0.820534 0
M  V30 367 H 33.7623 -3.0811 -1.01187 0
M  V30 368 H 33.5473 -3.87889 0.57309 0
M  V30 369 H 35.0373 -4.15898 -0.376645 0
M  V30 370 N 35.4744 -0.807222 -1.35358 0
M  V30 371 C 36.8854 -0.44876 -1.81226 0
M  V30 372 C 37.2364 1.02929 -1.67033 0
M  V30 373 O 36.3614 1.79991 -1.20133 0
M  V30 374 C 36.9564 -0.807774 -3.2903 0
M  V30 375 C 35.5154 -0.501901 -3.73039 0
M  V30 376 C 34.6624 -1.03304 -2.57339 0
M  V30 377 H 37.6134 -0.998808 -1.23327 0
M  V30 378 H 37.6344 -0.10554 -3.80354 0
M  V30 379 H 37.1464 -1.88357 -3.39328 0
M  V30 380 H 35.2474 0.565128 -3.68289 0
M  V30 381 H 35.3604 -1.03497 -4.67787 0
M  V30 382 H 33.7244 -0.455339 -2.50597 0
M  V30 383 H 34.5074 -2.11496 -2.70415 0
M  V30 384 N 36.9525 1.47285 -0.560781 0
M  V30 385 C 38.1985 2.02764 -0.0381184 0
M  V30 386 C 38.5315 1.43384 1.30976 0
M  V30 387 O 37.8065 0.590733 1.85312 0
M  V30 388 C 38.0895 3.60064 0.0511427 0
M  V30 389 C 37.9425 4.2987 -1.32408 0
M  V30 390 C 39.2615 4.33439 0.762795 0
M  V30 391 H 36.3805 0.736841 -0.0153264 0
M  V30 392 H 39.0225 1.75675 -0.723759 0
M  V30 393 H 37.1725 3.83274 0.635065 0
M  V30 394 H 38.8445 4.17989 -1.95148 0
M  V30 395 H 37.0875 3.90085 -1.8978 0
M  V30 396 H 37.7585 5.38478 -1.21431 0
M  V30 397 H 40.2345 4.15243 0.266965 0
M  V30 398 H 39.1105 5.43124 0.794221 0
M  V30 399 H 39.3715 4.02915 1.81966 0
M  V30 400 N 38.4306 0.297415 1.54768 0
M  V30 401 C 39.8416 -0.195947 1.85669 0
M  V30 402 C 40.1926 -1.53707 1.21937 0
M  V30 403 O 39.3176 -2.10164 0.515754 0
M  V30 404 C 39.9126 -0.362318 3.36857 0
M  V30 405 C 38.4716 -0.799901 3.67802 0
M  V30 406 C 37.6186 0.0938578 2.77141 0
M  V30 407 H 40.5696 0.518538 1.4999 0
M  V30 408 H 40.5906 -1.19745 3.61167 0
M  V30 409 H 40.1026 0.613921 3.83214 0
M  V30 410 H 38.2036 -1.78682 3.26961 0
M  V30 411 H 38.3166 -0.621773 4.75048 0
M  V30 412 H 36.6806 -0.426254 2.51108 0
M  V30 413 H 37.4636 1.06639 3.26318 0
M  V30 414 N 39.9087 -1.5758 0.0250728 0
M  V30 415 C 40.8557 -2.09973 -0.958129 0
M  V30 416 C 41.8257 -1.00085 -1.3256 0
M  V30 417 O 43.0107 -1.27481 -1.41962 0
M  V30 418 C 40.1507 -2.62812 -2.2366 0
M  V30 419 C 39.2637 -3.86693 -1.92594 0
M  V30 420 C 38.3987 -4.27941 -3.14707 0
M  V30 421 C 37.4377 -5.44591 -2.79442 0
M  V30 422 N 36.5747 -5.81014 -3.94167 0
M  V30 423 H 41.4147 -2.937 -0.504428 0
M  V30 424 H 38.9517 -1.45172 -0.237392 0
M  V30 425 H 40.9097 -2.91536 -2.98434 0
M  V30 426 H 39.5397 -1.81922 -2.66654 0
M  V30 427 H 38.5917 -3.64723 -1.0808 0
M  V30 428 H 39.9037 -4.71547 -1.62619 0
M  V30 429 H 39.0577 -4.58079 -3.97804 0
M  V30 430 H 37.7967 -3.41845 -3.4784 0
M  V30 431 H 36.8017 -5.1415 -1.94755 0
M  V30 432 H 38.0267 -6.32382 -2.47528 0
M  V30 433 H 35.9727 -4.97874 -4.2715 0
M  V30 434 H 35.8897 -6.60498 -3.67801 0
M  V30 435 H 37.1577 -6.15756 -4.7798 0
M  V30 436 N 41.3868 0.248026 -1.55636 0
M  V30 437 C 42.3168 1.31079 -1.93237 0
M  V30 438 C 43.2978 1.50264 -0.797174 0
M  V30 439 O 44.4828 1.62891 -1.05737 0
M  V30 440 C 41.6128 2.66575 -2.22609 0
M  V30 441 C 40.5668 2.62087 -3.3837 0
M  V30 442 C 39.8928 4.01369 -3.53281 0
M  V30 443 C 41.1928 2.19171 -4.7409 0
M  V30 444 H 42.8868 0.998556 -2.82257 0
M  V30 445 H 40.4328 0.47891 -1.35803 0
M  V30 446 H 42.3858 3.41057 -2.47503 0
M  V30 447 H 41.1098 2.99432 -1.30414 0
M  V30 448 H 39.7688 1.90063 -3.13483 0
M  V30 449 H 39.4168 4.31489 -2.58508 0
M  V30 450 H 39.1168 3.99254 -4.31127 0
M  V30 451 H 40.6408 4.77552 -3.80495 0
M  V30 452 H 42.0548 2.83384 -4.98363 0
M  V30 453 H 40.4518 2.2817 -5.5503 0
M  V30 454 H 41.5218 1.14336 -4.71227 0
M  V30 455 N 42.8649 1.48995 0.513639 0
M  V30 456 C 43.7949 1.67636 1.62544 0
M  V30 457 C 44.7759 0.525087 1.61793 0
M  V30 458 O 45.9609 0.759502 1.78732 0
M  V30 459 C 43.0909 1.73114 3.01079 0
M  V30 460 C 42.0449 2.87905 3.16693 0
M  V30 461 C 41.3709 2.78486 4.56453 0
M  V30 462 C 42.6709 4.29005 2.97913 0
M  V30 463 H 44.3649 2.60716 1.47198 0
M  V30 464 H 41.9109 1.25465 0.706714 0
M  V30 465 H 43.8639 1.84742 3.78746 0
M  V30 466 H 42.5879 0.766241 3.17484 0
M  V30 467 H 41.2469 2.75859 2.41448 0
M  V30 468 H 40.8949 1.7993 4.69717 0
M  V30 469 H 40.5949 3.55523 4.67843 0
M  V30 470 H 42.1189 2.92104 5.36197 0
M  V30 471 H 43.5329 4.41798 3.65359 0
M  V30 472 H 41.9299 5.07166 3.20785 0
M  V30 473 H 42.9999 4.44329 1.94165 0
M  V30 474 N 44.343 -0.763751 1.37857 0
M  V30 475 C 45.592 -1.51789 1.32827 0
M  V30 476 C 45.905 -1.95426 -0.0823719 0
M  V30 477 O 47.111 -2.70298 -0.255172 0
M  V30 478 C 45.567 -2.74133 2.33193 0
M  V30 479 C 45.175 -2.37562 3.79827 0
M  V30 480 C 46.919 -3.52054 2.37188 0
M  V30 481 C 44.826 -3.56456 4.71904 0
M  V30 482 H 43.756 -0.569896 0.493695 0
M  V30 483 H 46.407 -0.835822 1.63359 0
M  V30 484 H 44.789 -3.4427 1.9569 0
M  V30 485 H 45.963 -1.75157 4.26212 0
M  V30 486 H 44.278 -1.72798 3.78853 0
M  V30 487 H 46.875 -4.40437 3.03182 0
M  V30 488 H 47.218 -3.92486 1.38782 0
M  V30 489 H 47.751 -2.88921 2.7344 0
M  V30 490 H 44.49 -3.21099 5.71468 0
M  V30 491 H 44.01 -4.17938 4.30218 0
M  V30 492 H 45.689 -4.23168 4.89426 0
M  V30 493 N 45.8211 -1.22559 -0.990812 0
M  V30 494 C 46.7681 -0.997519 -2.0813 0
M  V30 495 C 47.7381 0.0814702 -1.659 0
M  V30 496 O 48.9231 -0.0685424 -1.90677 0
M  V30 497 C 46.0631 -0.583615 -3.40129 0
M  V30 498 C 45.1761 -1.7336 -3.9569 0
M  V30 499 C 44.3111 -1.26748 -5.15857 0
M  V30 500 C 43.3501 -2.38888 -5.63559 0
M  V30 501 N 42.4871 -1.93308 -6.74964 0
M  V30 502 H 47.3271 -1.93099 -2.26973 0
M  V30 503 H 44.8641 -0.962114 -1.11273 0
M  V30 504 H 46.8221 -0.324801 -4.15934 0
M  V30 505 H 45.4521 0.312845 -3.2128 0
M  V30 506 H 44.5041 -2.10669 -3.16738 0
M  V30 507 H 45.8161 -2.57704 -4.27071 0
M  V30 508 H 44.9701 -0.966173 -5.98957 0
M  V30 509 H 43.7091 -0.394272 -4.86104 0
M  V30 510 H 42.7141 -2.69805 -4.79046 0
M  V30 511 H 43.9391 -3.26728 -5.95336 0
M  V30 512 H 41.8851 -1.08352 -6.4699 0
M  V30 513 H 41.8021 -2.71217 -7.05675 0
M  V30 514 H 43.0701 -1.66252 -7.61564 0
M  V30 515 N 47.2992 1.18797 -1.03562 0
M  V30 516 C 48.5472 1.88278 -0.734569 0
M  V30 517 C 48.8682 1.8043 0.739586 0
M  V30 518 O 48.1382 1.21925 1.53333 0
M  V30 519 H 46.7182 0.696991 -0.268725 0
M  V30 520 H 49.3802 1.44192 -1.31129 0
M  V30 521 H 48.4762 2.94443 -1.03489 0
M  V30 522 N 48.7773 0.814389 1.34928 0
M  V30 523 C 50.0253 0.397636 1.9815 0
M  V30 524 C 50.3463 -1.04069 1.64908 0
M  V30 525 O 49.6163 -1.72121 0.93548 0
M  V30 526 H 48.1963 0.144043 0.732981 0
M  V30 527 H 50.8583 1.04195 1.6471 0
M  V30 528 H 49.9543 0.509688 3.0791 0
M  V30 529 N 50.2554 -1.46986 0.568584 0
M  V30 530 C 51.1884 -2.27129 -0.220779 0
M  V30 531 C 52.1664 -1.34757 -0.909905 0
M  V30 532 O 53.3504 -1.64152 -0.926622 0
M  V30 533 C 50.4774 -3.12108 -1.31553 0
M  V30 534 C 49.5234 -4.20141 -0.733748 0
M  V30 535 S 50.3564 -5.33783 0.428479 0
M  V30 536 C 51.5124 -6.22327 -0.667811 0
M  V30 537 H 51.7454 -2.93731 0.459267 0
M  V30 538 H 49.2784 -1.5026 0.355154 0
M  V30 539 H 51.2364 -3.61636 -1.94241 0
M  V30 540 H 49.8974 -2.44847 -1.96746 0
M  V30 541 H 49.0904 -4.79373 -1.5562 0
M  V30 542 H 48.6924 -3.73553 -0.182812 0
M  V30 543 H 50.9844 -6.59364 -1.55708 0
M  V30 544 H 51.9274 -7.0801 -0.11258 0
M  V30 545 H 52.3354 -5.5618 -0.965601 0
M  V30 546 N 51.7335 -0.305618 -1.54608 0
M  V30 547 C 52.6435 0.57778 -2.27374 0
M  V30 548 C 53.6595 1.14451 -1.31061 0
M  V30 549 O 54.8355 1.16831 -1.6405 0
M  V30 550 C 51.9005 1.73123 -3.00382 0
M  V30 551 C 50.9615 1.19812 -4.12242 0
M  V30 552 C 50.1945 2.2966 -4.81759 0
M  V30 553 O 50.4175 3.49651 -4.50666 0
M  V30 554 O 49.3515 1.96091 -5.69062 0
M  V30 555 H 53.1775 -0.012624 -3.03697 0
M  V30 556 H 50.7625 -0.0719184 -1.49227 0
M  V30 557 H 52.6445 2.40315 -3.4616 0
M  V30 558 H 51.3195 2.30815 -2.26949 0
M  V30 559 H 50.2265 0.491798 -3.70853 0
M  V30 560 H 51.5595 0.666566 -4.87666 0
M  V30 561 N 53.2116 1.57565 -0.0334293 0
M  V30 562 C 54.4576 1.92262 0.645226 0
M  V30 563 C 54.7906 0.910543 1.71531 0
M  V30 564 O 54.0656 -0.066099 1.94388 0
M  V30 565 C 54.3486 3.37422 1.2577 0
M  V30 566 C 54.2016 4.49369 0.196891 0
M  V30 567 C 55.5206 3.82628 2.17449 0
M  V30 568 H 52.6396 0.699171 0.233085 0
M  V30 569 H 55.2816 1.89779 -0.0915694 0
M  V30 570 H 53.4316 3.39669 1.88566 0
M  V30 571 H 55.1036 4.59254 -0.433962 0
M  V30 572 H 53.3466 4.31168 -0.477137 0
M  V30 573 H 54.0176 5.47978 0.665124 0
M  V30 574 H 56.4936 3.82145 1.64634 0
M  V30 575 H 55.3696 4.84883 2.57254 0
M  V30 576 H 55.6306 3.18376 3.0674 0
M  V30 577 N 54.6897 -0.239769 1.55765 0
M  V30 578 C 55.6197 -1.30052 1.9393 0
M  V30 579 C 56.6007 -1.49839 0.805132 0
M  V30 580 O 57.7857 -1.62328 1.06599 0
M  V30 581 C 54.9157 -2.65391 2.2402 0
M  V30 582 C 53.8697 -2.60289 3.39755 0
M  V30 583 C 53.1957 -3.99489 3.55405 0
M  V30 584 C 54.4957 -2.16654 4.75246 0
M  V30 585 H 56.1897 -0.983573 2.82783 0
M  V30 586 H 53.7357 -0.471701 1.36055 0
M  V30 587 H 55.6887 -3.3974 2.49308 0
M  V30 588 H 54.4127 -2.98736 1.32 0
M  V30 589 H 53.0717 -1.88398 3.14487 0
M  V30 590 H 52.7197 -4.30112 2.60793 0
M  V30 591 H 52.4197 -3.96962 4.33238 0
M  V30 592 H 53.9437 -4.75528 3.83022 0
M  V30 593 H 55.3577 -2.80737 4.99859 0
M  V30 594 H 53.7547 -2.25223 5.56232 0
M  V30 595 H 54.8247 -1.11835 4.71827 0
M  V30 596 N 56.1678 -1.49265 -0.50573 0
M  V30 597 C 57.4448 -1.49012 -1.26707 0
M  V30 598 C 57.8248 -0.215205 -2.1 0
M  V30 599 O 57.1728 0.802547 -2.13943 0
M  V30 600 C 57.3828 -2.7663 -2.12783 0
M  V30 601 C 58.7308 -3.25932 -2.72127 0
M  V30 602 O 59.7548 -2.77715 -2.23054 0
M  V30 603 O 58.6138 -4.09897 -3.61451 0
M  V30 604 H 55.7078 -0.596197 -0.57313 0
M  V30 605 H 58.2538 -1.61524 -0.52039 0
M  V30 606 H 57.0258 -3.60916 -1.5118 0
M  V30 607 H 56.6488 -2.66956 -2.94653 0
M  V30 608 N 57.6459 0.756429 -1.3826 0
M  V30 609 C 58.5759 1.88374 -1.37976 0
M  V30 610 C 59.5569 1.68311 -0.246082 0
M  V30 611 O 60.7419 1.88944 -0.44874 0
M  V30 612 C 57.8719 3.25864 -1.20125 0
M  V30 613 C 56.8259 3.60523 -2.30666 0
M  V30 614 C 56.1519 4.9672 -1.97923 0
M  V30 615 C 57.4519 3.65692 -3.72916 0
M  V30 616 H 59.1459 1.88869 -2.32312 0
M  V30 617 H 56.6919 0.907272 -1.11824 0
M  V30 618 H 58.6449 4.0438 -1.18552 0
M  V30 619 H 57.3689 3.25841 -0.222498 0
M  V30 620 H 56.0279 2.84324 -2.3142 0
M  V30 621 H 55.6759 4.93253 -0.985393 0
M  V30 622 H 55.3759 5.20878 -2.71955 0
M  V30 623 H 56.8999 5.77618 -1.97964 0
M  V30 624 H 58.3139 4.34328 -3.74208 0
M  V30 625 H 56.7109 4.01358 -4.4613 0
M  V30 626 H 57.7809 2.65987 -4.05436 0
M  V30 627 N 59.124 1.23083 0.984299 0
M  V30 628 C 60.37 1.06214 1.72761 0
M  V30 629 C 60.703 -0.400584 1.90024 0
M  V30 630 O 59.978 -1.29672 1.44967 0
M  V30 631 C 60.261 1.78375 3.12817 0
M  V30 632 C 60.114 3.32296 3.03149 0
M  V30 633 C 61.433 1.54309 4.12161 0
M  V30 634 H 58.552 0.387251 0.627061 0
M  V30 635 H 61.194 1.51536 1.14616 0
M  V30 636 H 59.344 1.39848 3.62457 0
M  V30 637 H 61.016 3.8032 2.61064 0
M  V30 638 H 59.259 3.6153 2.39747 0
M  V30 639 H 59.93 3.77972 4.02295 0
M  V30 640 H 62.406 1.87791 3.71314 0
M  V30 641 H 61.282 2.07281 5.08258 0
M  V30 642 H 61.543 0.477572 4.39513 0
M  V30 643 N 60.6021 -1.18246 1.0419 0
M  V30 644 C 61.8301 -1.92195 0.766072 0
M  V30 645 C 62.2451 -1.76247 -0.676933 0
M  V30 646 O 61.6021 -1.09293 -1.46155 0
M  V30 647 C 61.6531 -3.43568 1.12442 0
M  V30 648 O 61.3741 -3.59015 2.51078 0
M  V30 649 C 62.8751 -4.34613 0.873275 0
M  V30 650 H 60.0951 -0.610114 0.279288 0
M  V30 651 H 62.6391 -1.50007 1.38989 0
M  V30 652 H 60.7941 -3.8354 0.545542 0
M  V30 653 H 61.2081 -4.5273 2.64831 0
M  V30 654 H 62.6821 -5.39374 1.17385 0
M  V30 655 H 63.1591 -4.38781 -0.191909 0
M  V30 656 H 63.7651 -4.00341 1.43551 0
M  V30 657 N 62.0802 -0.821533 -1.34494 0
M  V30 658 C 63.3282 -0.408139 -1.97936 0
M  V30 659 C 63.6492 1.03193 -1.65457 0
M  V30 660 O 62.9192 1.71622 -0.944595 0
M  V30 661 H 61.4992 -0.147928 -0.732206 0
M  V30 662 H 64.1612 -1.05067 -1.64155 0
M  V30 663 H 63.2572 -0.52601 -3.07635 0
M  V30 664 N 63.5583 1.46682 -0.576371 0
M  V30 665 C 64.9693 1.86112 -0.148091 0
M  V30 666 C 65.3203 1.48073 1.2872 0
M  V30 667 O 64.4453 0.892656 1.97131 0
M  V30 668 C 65.0403 3.37786 -0.261982 0
M  V30 669 C 63.5993 3.76235 0.111384 0
M  V30 670 C 62.7463 2.70713 -0.60083 0
M  V30 671 H 65.6973 1.37927 -0.78497 0
M  V30 672 H 65.7183 3.77007 0.514364 0
M  V30 673 H 65.2303 3.6544 -1.30671 0
M  V30 674 H 63.3313 3.54198 1.15649 0
M  V30 675 H 63.4443 4.78391 -0.26052 0
M  V30 676 H 61.8083 2.54666 -0.0417783 0
M  V30 677 H 62.5913 3.01208 -1.64708 0
M  V30 678 N 65.0364 0.313813 1.54444 0
M  V30 679 C 66.3134 -0.345447 1.92525 0
M  V30 680 C 66.6934 -1.70667 1.24242 0
M  V30 681 O 66.0414 -2.25273 0.382654 0
M  V30 682 C 66.2514 -0.44737 3.46121 0
M  V30 683 C 67.5994 -0.712238 4.18584 0
M  V30 684 O 68.6234 -0.530678 3.52225 0
M  V30 685 O 67.4824 -1.06183 5.36085 0
M  V30 686 H 64.5764 -0.195407 0.803583 0
M  V30 687 H 67.1224 0.362813 1.65776 0
M  V30 688 H 65.8944 0.509043 3.87975 0
M  V30 689 H 65.5174 -1.20359 3.78945 0
M  V30 690 N 66.5145 -1.57545 0.0417849 0
M  V30 691 C 67.7395 -1.97035 -0.647455 0
M  V30 692 C 68.1645 -0.918775 -1.64135 0
M  V30 693 O 67.5225 0.119006 -1.80909 0
M  V30 694 C 67.5705 -3.35609 -1.31905 0
M  V30 695 O 66.6745 -3.3287 -2.43457 0
M  V30 696 H 66.0155 -0.64211 -0.169086 0
M  V30 697 H 68.5455 -2.04318 0.107399 0
M  V30 698 H 68.5555 -3.72126 -1.67291 0
M  V30 699 H 67.2305 -4.11685 -0.590586 0
M  V30 700 H 65.8075 -3.08087 -2.10088 0
M  V30 701 N 67.9926 0.231505 -1.5589 0
M  V30 702 C 69.2386 0.95877 -1.78705 0
M  V30 703 C 69.5716 1.8438 -0.609725 0
M  V30 704 O 68.8466 1.90521 0.391426 0
M  V30 705 C 69.1296 1.8062 -3.11526 0
M  V30 706 C 68.9826 0.948328 -4.39689 0
M  V30 707 C 70.3016 2.78585 -3.40703 0
M  V30 708 H 67.4206 0.347129 -0.650131 0
M  V30 709 H 70.0626 0.228259 -1.88624 0
M  V30 710 H 68.2126 2.42902 -3.03201 0
M  V30 711 H 69.8846 0.343016 -4.60023 0
M  V30 712 H 68.1276 0.253314 -4.3306 0
M  V30 713 H 68.7986 1.57543 -5.29041 0
M  V30 714 H 71.2746 2.26439 -3.49091 0
M  V30 715 H 70.1506 3.34988 -4.34826 0
M  V30 716 H 70.4116 3.55825 -2.62375 0
M  V30 717 N 69.4707 1.49531 0.497807 0
M  V30 718 C 70.6987 1.62893 1.27567 0
M  V30 719 C 71.1137 0.301585 1.86376 0
M  V30 720 O 70.4707 -0.713335 1.67982 0
M  V30 721 C 70.5217 2.70013 2.40364 0
M  V30 722 O 70.2427 3.976 1.83972 0
M  V30 723 C 71.7437 2.94109 3.31685 0
M  V30 724 H 68.9637 0.548298 0.386794 0
M  V30 725 H 71.5077 1.95584 0.597245 0
M  V30 726 H 69.6627 2.40092 3.04031 0
M  V30 727 H 70.0767 4.56631 2.58047 0
M  V30 728 H 71.5507 3.72788 4.07104 0
M  V30 729 H 72.0277 2.04147 3.88871 0
M  V30 730 H 72.6337 3.2546 2.73781 0
M  V30 731 N 70.9488 -0.749086 1.3866 0
M  V30 732 C 71.8588 -1.89358 1.38494 0
M  V30 733 C 72.8748 -1.71708 0.281476 0
M  V30 734 O 74.0508 -1.94554 0.520643 0
M  V30 735 C 71.1158 -3.24782 1.21316 0
M  V30 736 C 70.1768 -3.54926 2.41508 0
M  V30 737 C 69.4098 -4.83888 2.2514 0
M  V30 738 O 69.6328 -5.56592 1.24746 0
M  V30 739 O 68.5668 -5.13612 3.13826 0
M  V30 740 H 72.3928 -1.92452 2.34938 0
M  V30 741 H 69.9778 -0.894981 1.19626 0
M  V30 742 H 71.8598 -4.05739 1.13814 0
M  V30 743 H 70.5348 -3.2249 0.279592 0
M  V30 744 H 69.4418 -2.74112 2.54585 0
M  V30 745 H 70.7748 -3.61983 3.3351 0
M  V30 746 N 72.4269 -1.23603 -0.977757 0
M  V30 747 C 73.6759 -1.06377 -1.71368 0
M  V30 748 C 73.9889 0.399062 -1.91486 0
M  V30 749 O 75.1949 0.691312 -2.62551 0
M  V30 750 C 73.6509 -1.85512 -3.08404 0
M  V30 751 C 73.2589 -3.36141 -2.96164 0
M  V30 752 C 75.0029 -1.76783 -3.85938 0
M  V30 753 C 72.9099 -4.07659 -4.28449 0
M  V30 754 H 71.8399 -0.394452 -0.642591 0
M  V30 755 H 74.4909 -1.47594 -1.09034 0
M  V30 756 H 72.8729 -1.37103 -3.71509 0
M  V30 757 H 74.0469 -3.92056 -2.42133 0
M  V30 758 H 72.3619 -3.45712 -2.32104 0
M  V30 759 H 74.9589 -2.27526 -4.83876 0
M  V30 760 H 75.3019 -0.731116 -4.0983 0
M  V30 761 H 75.8349 -2.22818 -3.2954 0
M  V30 762 H 72.5739 -5.11648 -4.09752 0
M  V30 763 H 72.0939 -3.5653 -4.82334 0
M  V30 764 H 73.7729 -4.141 -4.97122 0
M  V30 765 N 73.905 1.17692 -1.04816 0
M  V30 766 C 74.815 2.25229 -0.65643 0
M  V30 767 C 75.831 1.71018 0.320761 0
M  V30 768 O 77.007 2.00649 0.173805 0
M  V30 769 C 74.072 3.46684 -0.0332629 0
M  V30 770 C 73.133 4.15997 -1.06042 0
M  V30 771 C 72.366 5.31654 -0.466893 0
M  V30 772 O 72.589 5.65777 0.724758 0
M  V30 773 O 71.523 5.89831 -1.1993 0
M  V30 774 H 75.349 2.61016 -1.55255 0
M  V30 775 H 72.934 1.24919 -0.81949 0
M  V30 776 H 74.816 4.20234 0.313256 0
M  V30 777 H 73.491 3.12703 0.836566 0
M  V30 778 H 72.398 3.44482 -1.45886 0
M  V30 779 H 73.731 4.53996 -1.90127 0
M  V30 780 N 75.3831 0.828654 1.34056 0
M  V30 781 C 76.3461 0.259927 2.27721 0
M  V30 782 C 77.3461 -0.565478 1.50529 0
M  V30 783 O 78.5361 -0.38075 1.69988 0
M  V30 784 C 75.6681 -0.634944 3.34935 0
M  V30 785 H 76.8611 1.0863 2.79534 0
M  V30 786 H 74.4141 0.600951 1.44285 0
M  V30 787 H 75.1491 -1.48416 2.88346 0
M  V30 788 H 74.9341 -0.0444999 3.92075 0
M  V30 789 H 76.4241 -1.02648 4.04788 0
M  V30 790 N 76.8612 -1.46375 0.584142 0
M  V30 791 C 78.1082 -2.02378 0.0702675 0
M  V30 792 C 78.4362 -1.45545 -1.29023 0
M  V30 793 O 77.6912 -0.610967 -1.85918 0
M  V30 794 C 77.9902 -3.57373 -0.0439342 0
M  V30 795 C 77.6562 -4.33252 1.24915 0
M  V30 796 C 76.3182 -4.53701 1.60341 0
M  V30 797 C 78.6702 -4.7681 2.1048 0
M  V30 798 C 75.9982 -5.1496 2.81128 0
M  V30 799 C 78.3502 -5.39404 3.30494 0
M  V30 800 C 77.0142 -5.5808 3.66201 0
M  V30 801 H 76.2842 -0.740554 0.0257127 0
M  V30 802 H 78.9312 -1.75727 0.761065 0
M  V30 803 H 77.2362 -3.83169 -0.817869 0
M  V30 804 H 78.9332 -3.98384 -0.457318 0
M  V30 805 H 75.5232 -4.17633 0.963364 0
M  V30 806 H 79.7072 -4.60766 1.84414 0
M  V30 807 H 74.9632 -5.27611 3.08928 0
M  V30 808 H 79.1372 -5.72114 3.97063 0
M  V30 809 H 76.7642 -6.05318 4.59885 0
M  V30 810 N 78.3393 -0.321999 -1.54275 0
M  V30 811 C 79.2693 0.537411 -2.27231 0
M  V30 812 C 80.2503 1.12064 -1.27968 0
M  V30 813 O 81.4353 1.14606 -1.56777 0
M  V30 814 C 78.5653 1.69919 -3.02894 0
M  V30 815 C 77.5193 1.24534 -4.09482 0
M  V30 816 C 76.8453 2.49394 -4.72977 0
M  V30 817 C 78.1453 0.361335 -5.21049 0
M  V30 818 H 79.8393 -0.0711406 -2.99315 0
M  V30 819 H 77.3853 -0.0356555 -1.43956 0
M  V30 820 H 79.3383 2.30668 -3.52662 0
M  V30 821 H 78.0623 2.33431 -2.28424 0
M  V30 822 H 76.7213 0.660782 -3.60596 0
M  V30 823 H 76.3693 3.11265 -3.95124 0
M  V30 824 H 76.0693 2.19718 -5.44975 0
M  V30 825 H 77.5933 3.10908 -5.25517 0
M  V30 826 H 79.0073 0.875072 -5.66582 0
M  V30 827 H 77.4043 0.157428 -5.99893 0
M  V30 828 H 78.4743 -0.60822 -4.8107 0
M  V30 829 N 79.8174 1.5752 -0.0501392 0
M  V30 830 C 80.7654 2.12651 0.942459 0
M  V30 831 C 81.7594 1.05807 1.32292 0
M  V30 832 O 82.9654 1.24217 1.3027 0
M  V30 833 H 79.3404 0.679673 0.321789 0
M  V30 834 H 81.3114 2.94951 0.452356 0
M  V30 835 C 80.0604 2.68565 2.20836 0
M  V30 836 H 79.3834 3.50439 1.92439 0
M  V30 837 H 80.8234 3.10761 2.8845 0
M  V30 838 C 79.2824 1.62291 2.95234 0
M  V30 839 O 79.8124 1.03508 3.88135 0
M  V30 840 N 78.0184 1.33836 2.57946 0
M  V30 841 H 77.5654 1.81826 1.82475 0
M  V30 842 H 77.5234 0.629595 3.08032 0
M  V30 843 N 81.2955 -0.223234 1.56011 0
M  V30 844 C 82.7065 -0.790368 1.69145 0
M  V30 845 C 83.0575 -1.85055 0.651845 0
M  V30 846 O 82.1825 -2.15498 -0.197359 0
M  V30 847 C 82.7775 -1.4404 3.06656 0
M  V30 848 C 81.3365 -1.95494 3.2165 0
M  V30 849 C 80.4835 -0.814506 2.65068 0
M  V30 850 H 83.4345 0.00139011 1.587 0
M  V30 851 H 83.4555 -2.30916 3.0242 0
M  V30 852 H 82.9675 -0.668543 3.82298 0
M  V30 853 H 81.0685 -2.75487 2.50874 0
M  V30 854 H 81.1815 -2.13607 4.28846 0
M  V30 855 H 79.5455 -1.22137 2.23505 0
M  V30 856 H 80.3285 -0.0553515 3.43255 0
M  V30 857 N 82.7736 -1.49793 -0.48987 0
M  V30 858 C 84.1896 -1.36803 -0.822022 0
M  V30 859 C 84.3896 -0.409652 -1.97292 0
M  V30 860 O 83.4456 0.154614 -2.52026 0
M  V30 861 C 84.7586 -2.77768 -1.15175 0
M  V30 862 C 86.3066 -2.86549 -1.25931 0
M  V30 863 C 86.7816 -4.28306 -1.62228 0
M  V30 864 N 88.2726 -4.31169 -1.69256 0
M  V30 865 C 89.0076 -5.37832 -1.98807 0
M  V30 866 N 88.5036 -6.54726 -2.26507 0
M  V30 867 N 90.2966 -5.25258 -2.00152 0
M  V30 868 H 82.4476 -2.10691 0.268881 0
M  V30 869 H 84.7106 -0.946241 0.057728 0
M  V30 870 H 84.4166 -3.49648 -0.379335 0
M  V30 871 H 84.2906 -3.13836 -2.09253 0
M  V30 872 H 86.6776 -2.14899 -2.02243 0
M  V30 873 H 86.7586 -2.54049 -0.298776 0
M  V30 874 H 86.4026 -5.00486 -0.864622 0
M  V30 875 H 86.3326 -4.58279 -2.594 0
M  V30 876 H 88.8236 -3.4687 -1.49965 0
M  V30 877 H 89.1366 -7.31833 -2.48276 0
M  V30 878 H 87.4816 -6.57933 -2.23939 0
M  V30 879 H 90.6726 -4.32938 -1.77996 0
M  V30 880 H 90.8456 -6.08476 -2.22848 0
M  V30 881 N 84.2517 0.741722 -1.39055 0
M  V30 882 C 85.1847 1.86416 -1.31622 0
M  V30 883 C 86.1627 1.61473 -0.191076 0
M  V30 884 O 87.3467 1.84825 -0.370399 0
M  V30 885 C 84.4737 3.22266 -1.04221 0
M  V30 886 C 83.5197 3.66079 -2.18834 0
M  V30 887 S 84.3527 3.7623 -3.81066 0
M  V30 888 C 85.5087 5.14881 -3.55877 0
M  V30 889 H 85.7417 1.92437 -2.26617 0
M  V30 890 H 83.2747 0.905907 -1.25031 0
M  V30 891 H 85.2327 4.00714 -0.890964 0
M  V30 892 H 83.8937 3.1391 -0.109237 0
M  V30 893 H 83.0867 4.64648 -1.95238 0
M  V30 894 H 82.6887 2.94817 -2.30128 0
M  V30 895 H 84.9807 6.01006 -3.12726 0
M  V30 896 H 85.9237 5.43503 -4.53884 0
M  V30 897 H 86.3317 4.84239 -2.90126 0
M  V30 898 N 85.7298 1.2412 0.971189 0
M  V30 899 C 86.9778 1.07668 1.71032 0
M  V30 900 C 87.2988 -0.385797 1.91146 0
M  V30 901 O 86.5688 -1.27569 1.4867 0
M  V30 902 H 85.1488 0.395429 0.633755 0
M  V30 903 H 87.8108 1.55984 1.16855 0
M  V30 904 H 86.9068 1.57195 2.69622 0
M  V30 905 N 87.2079 -1.17134 1.05439 0
M  V30 906 C 88.1399 -2.2078 0.615539 0
M  V30 907 C 89.1529 -1.59584 -0.322001 0
M  V30 908 O 90.3419 -1.78133 -0.114344 0
M  V30 909 C 87.4419 -3.38691 -0.118938 0
M  V30 910 C 86.6149 -4.29454 0.829924 0
M  V30 911 C 85.6739 -5.26024 0.136258 0
M  V30 912 O 84.6999 -5.63952 0.77115 0
M  V30 913 N 85.9019 -5.69487 -1.1254 0
M  V30 914 H 88.6669 -2.59052 1.50705 0
M  V30 915 H 86.2279 -1.32058 0.936603 0
M  V30 916 H 88.2199 -4.00329 -0.593179 0
M  V30 917 H 86.7899 -2.98996 -0.91215 0
M  V30 918 H 86.0099 -3.65211 1.48373 0
M  V30 919 H 87.2979 -4.86984 1.47392 0
M  V30 920 H 86.6959 -5.4075 -1.6615 0
M  V30 921 H 85.2529 -6.33257 -1.54366 0
M  V30 922 N 88.686 -0.835752 -1.33615 0
M  V30 923 C 90.097 -0.487099 -1.80234 0
M  V30 924 C 90.448 0.993627 -1.69179 0
M  V30 925 O 89.573 1.77403 -1.23924 0
M  V30 926 C 90.168 -0.877385 -3.27242 0
M  V30 927 C 88.727 -0.580915 -3.7189 0
M  V30 928 C 87.874 -1.0874 -2.5509 0
M  V30 929 H 90.825 -1.02474 -1.2118 0
M  V30 930 H 90.846 -0.186195 -3.80044 0
M  V30 931 H 90.358 -1.95512 -3.35256 0
M  V30 932 H 88.459 0.486881 -3.69405 0
M  V30 933 H 88.572 -1.13396 -4.65487 0
M  V30 934 H 86.936 -0.508392 -2.49575 0
M  V30 935 H 87.719 -2.17184 -2.65868 0
M  V30 936 N 90.1641 1.46063 -0.591896 0
M  V30 937 C 91.5751 1.85944 -0.167822 0
M  V30 938 C 91.9261 1.49429 1.27143 0
M  V30 939 O 91.0511 0.913515 1.96173 0
M  V30 940 C 91.6461 3.37489 -0.297794 0
M  V30 941 C 90.2051 3.76332 0.0714732 0
M  V30 942 C 89.3521 2.7006 -0.629509 0
M  V30 943 H 92.3031 1.37087 -0.799555 0
M  V30 944 H 92.3241 3.77532 0.474349 0
M  V30 945 H 91.8361 3.64034 -1.3454 0
M  V30 946 H 89.9371 3.55405 1.11886 0
M  V30 947 H 90.0501 4.78088 -0.311245 0
M  V30 948 H 88.4141 2.54607 -0.0687867 0
M  V30 949 H 89.1971 2.99444 -1.67894 0
M  V30 950 N 91.6422 0.330177 1.54103 0
M  V30 951 C 92.8702 -0.272179 2.05102 0
M  V30 952 C 93.2852 -1.45267 1.20595 0
M  V30 953 O 92.6422 -1.8094 0.238144 0
M  V30 954 C 92.6932 -0.70023 3.54653 0
M  V30 955 O 92.4142 0.433301 4.35952 0
M  V30 956 C 93.9152 -1.3647 4.21771 0
M  V30 957 H 91.1352 -0.0549159 0.668749 0
M  V30 958 H 93.6792 0.478285 1.98828 0
M  V30 959 H 91.8342 -1.40066 3.61193 0
M  V30 960 H 92.2482 0.0947539 5.24414 0
M  V30 961 H 93.7222 -1.61509 5.27843 0
M  V30 962 H 94.1992 -2.31409 3.73292 0
M  V30 963 H 94.8052 -0.706675 4.19388 0
M  V30 964 N 93.1203 -1.57491 0.0584922 0
M  V30 965 C 94.5313 -1.80526 -0.476138 0
M  V30 966 C 94.8823 -0.971334 -1.70469 0
M  V30 967 O 94.0073 -0.190012 -2.15564 0
M  V30 968 C 94.6023 -3.27424 -0.870587 0
M  V30 969 C 93.1613 -3.51351 -1.35015 0
M  V30 970 C 92.3083 -2.75343 -0.32887 0
M  V30 971 H 95.2593 -1.56133 0.284312 0
M  V30 972 H 95.2803 -3.38745 -1.73299 0
M  V30 973 H 94.7923 -3.88093 0.0237627 0
M  V30 974 H 92.8933 -2.95971 -2.26345 0
M  V30 975 H 93.0063 -4.60059 -1.33726 0
M  V30 976 H 91.3703 -2.417 -0.803321 0
M  V30 977 H 92.1533 -3.38743 0.557521 0
M  V30 978 N 94.5984 0.214957 -1.56127 0
M  V30 979 C 95.5084 1.28727 -1.96129 0
M  V30 980 C 96.5244 1.50916 -0.866044 0
M  V30 981 O 97.7004 1.63918 -1.17016 0
M  V30 982 C 94.7654 2.61569 -2.27558 0
M  V30 983 C 93.8264 2.47625 -3.50685 0
M  V30 984 C 93.0594 3.74132 -3.80606 0
M  V30 985 O 93.2824 4.77438 -3.12104 0
M  V30 986 O 92.2164 3.70849 -4.74083 0
M  V30 987 H 96.0424 0.977855 -2.87527 0
M  V30 988 H 93.6274 0.418358 -1.43423 0
M  V30 989 H 95.5094 3.40012 -2.48938 0
M  V30 990 H 94.1844 2.92178 -1.39332 0
M  V30 991 H 93.0914 1.67361 -3.34576 0
M  V30 992 H 94.4244 2.21954 -4.39315 0
M  V30 993 N 96.0765 1.50051 0.48192 0
M  V30 994 C 97.3015 1.64508 1.26301 0
M  V30 995 C 97.7265 0.323851 1.85291 0
M  V30 996 O 97.0845 -0.710969 1.66778 0
M  V30 997 C 97.1325 2.7305 2.35533 0
M  V30 998 O 96.2365 2.3355 3.39895 0
M  V30 999 H 95.5775 0.549978 0.372048 0
M  V30 1000 H 98.1075 1.9636 0.574786 0
M  V30 1001 H 98.1175 2.95799 2.8101 0
M  V30 1002 H 96.7925 3.68946 1.91967 0
M  V30 1003 H 95.3695 2.21205 3.00204 0
M  V30 1004 N 97.5546 -0.734337 1.39446 0
M  V30 1005 C 98.4846 -1.86155 1.40955 0
M  V30 1006 C 99.4656 -1.67898 0.272827 0
M  V30 1007 O 100.651 -1.88207 0.478743 0
M  V30 1008 C 97.7806 -3.23912 1.25294 0
M  V30 1009 C 96.7346 -3.56808 2.36373 0
M  V30 1010 C 96.0606 -4.93508 2.058 0
M  V30 1011 C 97.3606 -3.59713 3.78687 0
M  V30 1012 H 99.0546 -1.8515 2.35287 0
M  V30 1013 H 96.6006 -0.889367 1.13253 0
M  V30 1014 H 98.5536 -4.02443 1.2497 0
M  V30 1015 H 97.2776 -3.25446 0.274308 0
M  V30 1016 H 95.9366 -2.80606 2.35914 0
M  V30 1017 H 95.5846 -4.91623 1.06374 0
M  V30 1018 H 95.2846 -5.16486 2.80208 0
M  V30 1019 H 96.8086 -5.74396 2.07128 0
M  V30 1020 H 98.2226 -4.2832 3.81071 0
M  V30 1021 H 96.6196 -3.94209 4.52459 0
M  V30 1022 H 97.6896 -2.59504 4.09617 0
M  V30 1023 N 99.0327 -1.24633 -0.964593 0
M  V30 1024 C 100.261 -1.11501 -1.74285 0
M  V30 1025 C 100.676 0.332165 -1.85855 0
M  V30 1026 O 100.033 1.22903 -1.34911 0
M  V30 1027 C 100.084 -1.75258 -3.16175 0
M  V30 1028 O 99.8047 -3.14318 -3.05182 0
M  V30 1029 C 101.306 -1.67776 -4.10324 0
M  V30 1030 H 98.5257 -0.389407 -0.546446 0
M  V30 1031 H 101.07 -1.64801 -1.21083 0
M  V30 1032 H 99.2247 -1.25954 -3.66353 0
M  V30 1033 H 99.6387 -3.4551 -3.94618 0
M  V30 1034 H 101.113 -2.17064 -5.0753 0
M  V30 1035 H 101.59 -0.639584 -4.34518 0
M  V30 1036 H 102.196 -2.16522 -3.66058 0
M  V30 1037 N 100.511 1.16574 -1.06058 0
M  V30 1038 C 101.421 2.2452 -0.680282 0
M  V30 1039 C 102.437 1.71348 0.302604 0
M  V30 1040 O 103.613 2.00822 0.152513 0
M  V30 1041 C 100.678 3.46629 -0.0700315 0
M  V30 1042 C 99.7388 4.14849 -1.10448 0
M  V30 1043 C 98.9718 5.31129 -0.523256 0
M  V30 1044 O 99.1948 5.66514 0.664709 0
M  V30 1045 O 98.1288 5.88526 -1.26179 0
M  V30 1046 H 101.955 2.59355 -1.58015 0
M  V30 1047 H 99.5398 1.24043 -0.832694 0
M  V30 1048 H 101.422 4.20543 0.268667 0
M  V30 1049 H 100.097 3.13573 0.803353 0
M  V30 1050 H 99.0038 3.42916 -1.49532 0
M  V30 1051 H 100.337 4.51954 -1.94931 0
M  V30 1052 N 101.989 0.842826 1.3317 0
M  V30 1053 C 103.237 0.439577 1.97262 0
M  V30 1054 C 103.558 -1.00548 1.67078 0
M  V30 1055 O 102.828 -1.70098 0.971779 0
M  V30 1056 H 101.408 0.159558 0.72976 0
M  V30 1057 H 104.07 1.07665 1.62463 0
M  V30 1058 H 103.166 0.574886 3.0676 0
M  V30 1059 N 103.467 -1.45747 0.599634 0
M  V30 1060 C 104.715 -2.01893 0.0915472 0
M  V30 1061 C 105.036 -1.47155 -1.27946 0
M  V30 1062 O 104.306 -0.66273 -1.84349 0
M  V30 1063 H 102.886 -0.746363 0.0308524 0
M  V30 1064 H 105.548 -1.78645 0.779237 0
M  V30 1065 H 104.644 -3.1208 0.0353086 0
M  V30 1066 N 104.945 -0.338344 -1.53925 0
M  V30 1067 C 105.877 0.555117 -2.22376 0
M  V30 1068 C 106.89 1.06812 -1.22862 0
M  V30 1069 O 108.079 0.979163 -1.49247 0
M  V30 1070 C 105.179 1.77609 -2.88631 0
M  V30 1071 C 104.352 1.39927 -4.14414 0
M  V30 1072 C 103.411 2.47936 -4.64127 0
M  V30 1073 O 102.437 2.11461 -5.28463 0
M  V30 1074 N 103.639 3.79107 -4.39612 0
M  V30 1075 H 106.404 -0.0310778 -2.99684 0
M  V30 1076 H 103.965 -0.162226 -1.61085 0
M  V30 1077 H 105.957 2.49287 -3.18807 0
M  V30 1078 H 104.527 2.26978 -2.14941 0
M  V30 1079 H 103.747 0.513481 -3.90841 0
M  V30 1080 H 105.035 1.12341 -4.96243 0
M  V30 1081 H 104.433 4.11531 -3.88148 0
M  V30 1082 H 102.99 4.4697 -4.74406 0
M  V30 1083 N 106.423 1.57458 -0.0668435 0
M  V30 1084 C 107.653 1.97337 0.611677 0
M  V30 1085 C 108.061 0.943744 1.63982 0
M  V30 1086 O 107.404 -0.0785584 1.83532 0
M  V30 1087 C 107.466 3.33511 1.34205 0
M  V30 1088 C 107.13 4.54598 0.467941 0
M  V30 1089 C 108.127 5.19186 -0.272439 0
M  V30 1090 C 105.812 5.0075 0.39427 0
M  V30 1091 C 107.806 6.28274 -1.07476 0
M  V30 1092 C 105.493 6.09711 -0.411729 0
M  V30 1093 C 106.491 6.73335 -1.14492 0
M  V30 1094 O 106.179 7.80199 -1.93763 0
M  V30 1095 H 105.911 0.654042 0.170893 0
M  V30 1096 H 108.465 2.04961 -0.134289 0
M  V30 1097 H 106.695 3.22487 2.13398 0
M  V30 1098 H 108.384 3.58029 1.91233 0
M  V30 1099 H 109.15 4.84477 -0.225086 0
M  V30 1100 H 105.029 4.51009 0.954569 0
M  V30 1101 H 108.573 6.77866 -1.64755 0
M  V30 1102 H 104.47 6.43854 -0.460664 0
M  V30 1103 H 105.238 7.97053 -1.86142 0
M  V30 1104 N 107.901 -0.206675 1.56239 0
M  V30 1105 C 109.131 -0.943975 1.83773 0
M  V30 1106 C 109.539 -1.77841 0.645703 0
M  V30 1107 O 108.882 -1.79403 -0.395008 0
M  V30 1108 C 108.944 -1.899 3.05251 0
M  V30 1109 C 108.608 -1.24764 4.39639 0
M  V30 1110 C 109.605 -0.630216 5.16066 0
M  V30 1111 C 107.29 -1.25496 4.8637 0
M  V30 1112 C 109.284 -0.0287946 6.37393 0
M  V30 1113 C 106.971 -0.649698 6.07637 0
M  V30 1114 C 107.969 -0.0376845 6.8299 0
M  V30 1115 O 107.657 0.55812 8.0196 0
M  V30 1116 H 107.389 -0.281508 0.614597 0
M  V30 1117 H 109.943 -0.222458 2.04192 0
M  V30 1118 H 108.173 -2.6599 2.80689 0
M  V30 1119 H 109.862 -2.5031 3.1953 0
M  V30 1120 H 110.628 -0.616785 4.81062 0
M  V30 1121 H 106.507 -1.72072 4.27683 0
M  V30 1122 H 110.051 0.449518 6.9615 0
M  V30 1123 H 105.948 -0.660592 6.42111 0
M  V30 1124 H 106.716 0.453891 8.17241 0
M  V30 1125 N 109.379 -1.50304 -0.473955 0
M  V30 1126 C 110.627 -1.60832 -1.22382 0
M  V30 1127 C 110.948 -0.30939 -1.9253 0
M  V30 1128 O 110.218 0.67296 -1.83978 0
M  V30 1129 H 108.798 -0.592652 -0.454723 0
M  V30 1130 H 111.46 -1.87068 -0.546968 0
M  V30 1131 H 110.556 -2.41803 -1.97327 0
M  V30 1132 N 110.857 0.726932 -1.39834 0
M  V30 1133 C 112.103 1.48771 -1.38704 0
M  V30 1134 C 112.458 1.92394 0.0146387 0
M  V30 1135 O 111.751 1.64474 0.982797 0
M  V30 1136 C 111.945 2.73495 -2.30077 0
M  V30 1137 C 111.774 2.42068 -3.78989 0
M  V30 1138 C 110.544 2.33966 -4.4787 0
M  V30 1139 C 112.742 2.0708 -4.70768 0
M  V30 1140 N 110.724 1.95095 -5.82075 0
M  V30 1141 C 112.095 1.78719 -5.93683 0
M  V30 1142 C 114.15 1.93618 -4.58712 0
M  V30 1143 C 112.853 1.3825 -7.05889 0
M  V30 1144 C 114.879 1.54553 -5.70848 0
M  V30 1145 C 114.241 1.27082 -6.92842 0
M  V30 1146 H 110.34 0.542919 -0.562817 0
M  V30 1147 H 112.924 0.84408 -1.75452 0
M  V30 1148 H 111.095 3.35625 -1.95474 0
M  V30 1149 H 112.827 3.39755 -2.19883 0
M  V30 1150 H 109.582 2.51331 -4.0141 0
M  V30 1151 H 110.006 1.7823 -6.53118 0
M  V30 1152 H 114.648 2.13522 -3.64922 0
M  V30 1153 H 112.366 1.17088 -7.99572 0
M  V30 1154 H 115.952 1.44731 -5.6351 0
M  V30 1155 H 114.832 0.973069 -7.78139 0
M  V30 1156 N 112.336 1.25143 0.95797 0
M  V30 1157 C 113.561 1.12521 1.74223 0
M  V30 1158 C 113.986 -0.317402 1.85403 0
M  V30 1159 O 113.344 -1.2299 1.33204 0
M  V30 1160 C 113.392 1.78062 3.1357 0
M  V30 1161 O 112.496 1.058 3.98598 0
M  V30 1162 H 111.837 0.39304 0.535178 0
M  V30 1163 H 114.367 1.65641 1.201 0
M  V30 1164 H 114.377 1.84213 3.64046 0
M  V30 1165 H 113.052 2.83021 3.04749 0
M  V30 1166 H 111.629 1.07506 3.57067 0
M  V30 1167 N 113.814 -1.1601 1.06675 0
M  V30 1168 C 115.23 -1.38622 0.790948 0
M  V30 1169 C 115.43 -1.92109 -0.607965 0
M  V30 1170 O 114.486 -2.12239 -1.36787 0
M  V30 1171 C 115.799 -2.36347 1.85905 0
M  V30 1172 C 117.347 -2.50023 1.88301 0
M  V30 1173 C 117.822 -3.51033 2.94176 0
M  V30 1174 N 119.313 -3.58563 2.93235 0
M  V30 1175 C 120.048 -4.36521 3.71803 0
M  V30 1176 N 119.544 -5.17869 4.602 0
M  V30 1177 N 121.337 -4.31541 3.60178 0
M  V30 1178 H 113.488 -0.796294 1.96908 0
M  V30 1179 H 115.751 -0.412597 0.853503 0
M  V30 1180 H 115.457 -2.04147 2.86386 0
M  V30 1181 H 115.331 -3.36042 1.71334 0
M  V30 1182 H 117.718 -2.81524 0.884769 0
M  V30 1183 H 117.799 -1.5035 2.06951 0
M  V30 1184 H 117.443 -3.20268 3.94196 0
M  V30 1185 H 117.373 -4.50445 2.72776 0
M  V30 1186 H 119.864 -3.00496 2.29152 0
M  V30 1187 H 120.177 -5.74578 5.16797 0
M  V30 1188 H 118.522 -5.17199 4.64253 0
M  V30 1189 H 121.713 -3.67051 2.90502 0
M  V30 1190 H 121.886 -4.9205 4.21653 0
M  V30 1191 N 115.292 -0.849877 -1.32721 0
M  V30 1192 C 116.54 -0.450032 -1.97026 0
M  V30 1193 C 116.861 0.996604 -1.67609 0
M  V30 1194 O 116.131 1.6958 -0.980786 0
M  V30 1195 H 114.711 -0.163426 -0.728904 0
M  V30 1196 H 117.373 -1.08526 -1.6189 0
M  V30 1197 H 116.469 -0.591146 -3.0645 0
M  V30 1198 N 116.77 1.45427 -0.607355 0
M  V30 1199 C 118.019 2.01452 -0.100036 0
M  V30 1200 C 118.332 1.48159 1.27704 0
M  V30 1201 O 119.538 1.96159 1.87707 0
M  V30 1202 C 117.994 3.59672 -0.128158 0
M  V30 1203 C 117.602 4.21962 -1.50507 0
M  V30 1204 C 119.346 4.23262 0.323932 0
M  V30 1205 C 117.253 5.72333 -1.48959 0
M  V30 1206 H 116.183 0.75325 -0.0336299 0
M  V30 1207 H 118.834 1.66901 -0.76265 0
M  V30 1208 H 117.216 3.91411 0.601105 0
M  V30 1209 H 118.39 4.01796 -2.25602 0
M  V30 1210 H 116.705 3.70565 -1.89923 0
M  V30 1211 H 119.302 5.33522 0.354691 0
M  V30 1212 H 119.645 3.93921 1.34656 0
M  V30 1213 H 120.178 3.96239 -0.352056 0
M  V30 1214 H 116.917 6.06373 -2.48981 0
M  V30 1215 H 116.437 5.94691 -0.781214 0
M  V30 1216 H 118.116 6.35525 -1.21313 0
M  V30 1217 N 118.248 0.346503 1.53744 0
M  V30 1218 C 119.196 -0.52422 2.26616 0
M  V30 1219 C 120.19 -1.09948 1.28871 0
M  V30 1220 O 121.396 -1.04488 1.46568 0
M  V30 1221 H 117.771 -0.187743 0.728187 0
M  V30 1222 H 119.742 0.11239 2.98188 0
M  V30 1223 C 118.491 -1.66186 3.05414 0
M  V30 1224 H 117.814 -1.22848 3.80458 0
M  V30 1225 H 119.254 -2.24622 3.59612 0
M  V30 1226 C 117.713 -2.59302 2.1509 0
M  V30 1227 O 118.243 -3.61628 1.74895 0
M  V30 1228 N 116.449 -2.28055 1.8011 0
M  V30 1229 H 115.996 -1.44883 2.12994 0
M  V30 1230 H 115.954 -2.90615 1.19958 0
M  V30 1231 N 119.726 -1.57421 0.075193 0
M  V30 1232 C 120.656 -2.15942 -0.888324 0
M  V30 1233 C 121.637 -1.08737 -1.30806 0
M  V30 1234 O 122.822 -1.36787 -1.37851 0
M  V30 1235 C 119.952 -2.72379 -2.1547 0
M  V30 1236 C 118.906 -3.8478 -1.87425 0
M  V30 1237 C 118.232 -4.27834 -3.20721 0
M  V30 1238 C 119.532 -5.08869 -1.17684 0
M  V30 1239 H 121.226 -2.96705 -0.400799 0
M  V30 1240 H 118.772 -1.42723 -0.191342 0
M  V30 1241 H 120.725 -3.11965 -2.83295 0
M  V30 1242 H 119.449 -1.88841 -2.6647 0
M  V30 1243 H 118.108 -3.45703 -1.22004 0
M  V30 1244 H 117.756 -3.41214 -3.6957 0
M  V30 1245 H 117.456 -5.03605 -3.02746 0
M  V30 1246 H 118.98 -4.70039 -3.89738 0
M  V30 1247 H 120.394 -5.4575 -1.75584 0
M  V30 1248 H 118.791 -5.8994 -1.09956 0
M  V30 1249 H 119.861 -4.84648 -0.156453 0
M  V30 1250 N 121.204 0.198386 -1.56346 0
M  V30 1251 C 122.167 1.22952 -1.93431 0
M  V30 1252 C 123.167 1.38611 -0.815092 0
M  V30 1253 O 124.357 1.36479 -1.08255 0
M  V30 1254 C 121.489 2.59946 -2.20546 0
M  V30 1255 H 122.682 0.912626 -2.85677 0
M  V30 1256 H 120.235 0.43977 -1.49986 0
M  V30 1257 H 120.97 2.96696 -1.30927 0
M  V30 1258 H 120.755 2.49953 -3.02102 0
M  V30 1259 H 122.245 3.3431 -2.50253 0
M  V30 1260 N 122.682 1.50554 0.465978 0
M  V30 1261 C 123.91 1.65563 1.24083 0
M  V30 1262 C 124.325 0.341051 1.85694 0
M  V30 1263 O 123.682 -0.677543 1.69457 0
M  V30 1264 C 123.733 2.75051 2.34583 0
M  V30 1265 O 123.454 4.01413 1.75497 0
M  V30 1266 C 124.955 3.01078 3.25372 0
M  V30 1267 H 122.175 0.55638 0.375077 0
M  V30 1268 H 124.719 1.96807 0.555624 0
M  V30 1269 H 122.874 2.46486 2.9887 0
M  V30 1270 H 123.288 4.62002 2.48303 0
M  V30 1271 H 124.762 3.81339 3.99105 0
M  V30 1272 H 125.239 2.12349 3.84453 0
M  V30 1273 H 125.845 3.31194 2.66816 0
M  V30 1274 N 124.16 -0.719506 1.40217 0
M  V30 1275 C 125.385 -1.51371 1.4178 0
M  V30 1276 C 125.81 -1.88091 0.0182355 0
M  V30 1277 O 125.168 -1.52997 -0.972707 0
M  V30 1278 C 125.216 -2.768 2.31115 0
M  V30 1279 O 124.32 -3.73349 1.7517 0
M  V30 1280 H 123.661 -0.456529 0.482159 0
M  V30 1281 H 126.191 -0.88644 1.844 0
M  V30 1282 H 126.201 -3.25371 2.46167 0
M  V30 1283 H 124.876 -2.49407 3.3282 0
M  V30 1284 H 123.453 -3.32179 1.69444 0
M  V30 1285 N 125.638 -1.25649 -0.95132 0
M  V30 1286 C 126.915 -1.01361 -1.67288 0
M  V30 1287 C 127.295 0.459135 -2.06046 0
M  V30 1288 O 126.643 1.43723 -1.7764 0
M  V30 1289 C 126.853 -1.95256 -2.89268 0
M  V30 1290 C 128.201 -2.23289 -3.61147 0
M  V30 1291 O 129.225 -1.93041 -2.99355 0
M  V30 1292 O 128.084 -2.74741 -4.72419 0
M  V30 1293 H 125.178 -0.38464 -0.732107 0
M  V30 1294 H 127.724 -1.36817 -1.00395 0
M  V30 1295 H 126.496 -2.94685 -2.57442 0
M  V30 1296 H 126.119 -1.60218 -3.6389 0
M  V30 1297 N 127.117 1.15442 -1.07289 0
M  V30 1298 C 128.345 1.90096 -0.81676 0
M  V30 1299 C 128.76 1.7798 0.629966 0
M  V30 1300 O 128.117 1.1313 1.43206 0
M  V30 1301 C 128.168 3.40466 -1.21512 0
M  V30 1302 O 127.889 3.52232 -2.60508 0
M  V30 1303 C 129.39 4.32145 -0.988198 0
M  V30 1304 H 126.61 0.602495 -0.295366 0
M  V30 1305 H 129.154 1.4627 -1.42918 0
M  V30 1306 H 127.309 3.81958 -0.647039 0
M  V30 1307 H 127.723 4.45549 -2.76742 0
M  V30 1308 H 129.197 5.36072 -1.31645 0
M  V30 1309 H 129.674 4.39135 0.0755063 0
M  V30 1310 H 130.28 3.96395 -1.54115 0
M  V30 1311 N 128.595 0.856903 1.32268 0
M  V30 1312 C 129.505 0.306131 2.32594 0
M  V30 1313 C 130.521 -0.577209 1.64147 0
M  V30 1314 O 131.697 -0.477043 1.95669 0
M  V30 1315 C 128.762 -0.494561 3.43154 0
M  V30 1316 C 127.823 0.415186 4.27288 0
M  V30 1317 C 127.056 -0.347387 5.32568 0
M  V30 1318 O 127.279 -1.57708 5.48165 0
M  V30 1319 O 126.213 0.287982 6.01211 0
M  V30 1320 H 130.039 1.13737 2.81598 0
M  V30 1321 H 127.624 0.619902 1.35932 0
M  V30 1322 H 129.506 -0.948944 4.10576 0
M  V30 1323 H 128.181 -1.30257 2.96336 0
M  V30 1324 H 127.088 0.917793 3.62667 0
M  V30 1325 H 128.421 1.18844 4.77637 0
M  V30 1326 N 130.073 -1.45103 0.615059 0
M  V30 1327 C 131.35 -1.95549 0.0448276 0
M  V30 1328 C 131.73 -1.55737 -1.4251 0
M  V30 1329 O 131.078 -0.823556 -2.13143 0
M  V30 1330 C 131.288 -3.48098 0.250785 0
M  V30 1331 C 132.636 -4.24384 0.135509 0
M  V30 1332 O 133.66 -3.55738 0.181299 0
M  V30 1333 O 132.519 -5.46493 0.0268878 0
M  V30 1334 H 129.613 -0.8264 -0.0314845 0
M  V30 1335 H 132.159 -1.55232 0.685642 0
M  V30 1336 H 130.931 -3.7007 1.27139 0
M  V30 1337 H 130.554 -3.95323 -0.424937 0
M  V30 1338 N 131.551 -0.354651 -1.53558 0
M  V30 1339 C 132.776 0.242153 -2.05981 0
M  V30 1340 C 133.201 1.42553 -1.2272 0
M  V30 1341 O 132.559 1.79656 -0.243604 0
M  V30 1342 C 132.607 0.624367 -3.55154 0
M  V30 1343 O 131.711 1.72301 -3.74681 0
M  V30 1344 H 131.052 0.0378432 -0.662921 0
M  V30 1345 H 133.582 -0.512087 -1.98088 0
M  V30 1346 H 133.592 0.898433 -3.97985 0
M  V30 1347 H 132.267 -0.240989 -4.15201 0
M  V30 1348 H 130.844 1.44535 -3.4375 0
M  V30 1349 N 133.029 1.57378 -0.0835403 0
M  V30 1350 C 134.44 1.81261 0.447358 0
M  V30 1351 C 134.791 0.998331 1.68902 0
M  V30 1352 O 133.916 0.224282 2.15235 0
M  V30 1353 C 134.511 3.28767 0.818386 0
M  V30 1354 C 133.07 3.53455 1.29409 0
M  V30 1355 C 132.217 2.75831 0.285024 0
M  V30 1356 H 135.168 1.5566 -0.309115 0
M  V30 1357 H 135.189 3.41459 1.67887 0
M  V30 1358 H 134.701 3.88006 -0.0855019 0
M  V30 1359 H 132.802 2.99534 2.21608 0
M  V30 1360 H 132.915 4.62128 1.2639 0
M  V30 1361 H 131.279 2.42947 0.764767 0
M  V30 1362 H 132.062 3.37813 -0.611341 0
M  V30 1363 N 134.507 -0.190092 1.56449 0
M  V30 1364 C 135.755 -0.907908 1.80559 0
M  V30 1365 C 136.076 -1.83583 0.657438 0
M  V30 1366 O 135.346 -1.93203 -0.323924 0
M  V30 1367 H 133.926 -0.338247 0.666032 0
M  V30 1368 H 136.588 -0.194403 1.93928 0
M  V30 1369 H 135.684 -1.49604 2.73907 0
M  V30 1370 N 135.985 -1.50799 -0.457987 0
M  V30 1371 C 136.933 -1.71162 -1.575 0
M  V30 1372 C 137.927 -0.577592 -1.59249 0
M  V30 1373 O 139.133 -0.758443 -1.63241 0
M  V30 1374 H 135.508 -0.540468 -0.522875 0
M  V30 1375 H 137.479 -2.64837 -1.37492 0
M  V30 1376 C 136.228 -1.83496 -2.95338 0
M  V30 1377 H 135.551 -2.70153 -2.94716 0
M  V30 1378 H 136.991 -2.01765 -3.72917 0
M  V30 1379 C 135.45 -0.589694 -3.31699 0
M  V30 1380 O 135.98 0.265163 -4.00824 0
M  V30 1381 N 134.186 -0.439845 -2.87252 0
M  V30 1382 H 133.733 -1.13655 -2.31172 0
M  V30 1383 H 133.691 0.392159 -3.11945 0
M  V30 1384 N 137.463 0.71206 -1.40597 0
M  V30 1385 C 138.411 1.84746 -1.41321 0
M  V30 1386 C 139.405 1.66842 -0.293268 0
M  V30 1387 O 140.611 1.73904 -0.464481 0
M  V30 1388 H 136.986 0.608522 -0.441819 0
M  V30 1389 H 138.957 1.81252 -2.37045 0
M  V30 1390 C 137.706 3.22638 -1.29614 0
M  V30 1391 H 137.029 3.37023 -2.15071 0
M  V30 1392 H 138.469 4.02209 -1.3418 0
M  V30 1393 C 136.928 3.36899 -0.00673121 0
M  V30 1394 O 137.458 3.90186 0.954859 0
M  V30 1395 N 135.664 2.9053 0.0639327 0
M  V30 1396 H 135.211 2.47353 -0.719311 0
M  V30 1397 H 135.169 3.0045 0.926118 0
M  V30 1398 N 138.941 1.26152 0.944643 0
M  V30 1399 C 140.169 1.14259 1.72489 0
M  V30 1400 C 140.584 -0.302555 1.8636 0
M  V30 1401 O 139.941 -1.20741 1.36849 0
M  V30 1402 C 139.992 1.80266 3.13347 0
M  V30 1403 O 139.713 3.19133 3.00143 0
M  V30 1404 C 141.214 1.74283 4.07603 0
M  V30 1405 H 138.434 0.398051 0.540181 0
M  V30 1406 H 140.978 1.66706 1.18446 0
M  V30 1407 H 139.133 1.31766 3.64303 0
M  V30 1408 H 139.547 3.51744 3.89071 0
M  V30 1409 H 141.021 2.25111 5.04013 0
M  V30 1410 H 141.498 0.708631 4.33446 0
M  V30 1411 H 142.104 2.22319 3.62567 0
M  V30 1412 N 140.419 -1.14872 1.07899 0
M  V30 1413 C 141.349 -2.2193 0.725887 0
M  V30 1414 C 142.33 -1.67622 -0.28927 0
M  V30 1415 O 143.515 -1.93533 -0.160787 0
M  V30 1416 C 140.645 -3.47061 0.128856 0
M  V30 1417 C 139.599 -4.14363 1.07178 0
M  V30 1418 C 138.925 -5.33636 0.337229 0
M  V30 1419 C 140.225 -4.63492 2.40775 0
M  V30 1420 H 141.919 -2.51724 1.62097 0
M  V30 1421 H 139.465 -1.20991 0.780838 0
M  V30 1422 H 141.418 -4.21199 -0.130147 0
M  V30 1423 H 140.142 -3.16617 -0.80134 0
M  V30 1424 H 138.801 -3.42173 1.3158 0
M  V30 1425 H 138.449 -4.99449 -0.596606 0
M  V30 1426 H 138.149 -5.79609 0.965788 0
M  V30 1427 H 139.673 -6.10539 0.0861567 0
M  V30 1428 H 141.087 -5.2913 2.20669 0
M  V30 1429 H 139.484 -5.20148 2.99276 0
M  V30 1430 H 140.554 -3.78834 3.02676 0
M  V30 1431 N 141.898 -0.863906 -1.31812 0
M  V30 1432 C 143.309 -0.52522 -1.7916 0
M  V30 1433 C 143.66 0.957518 -1.71248 0
M  V30 1434 O 142.785 1.74734 -1.27659 0
M  V30 1435 C 143.38 -0.9466 -3.25307 0
M  V30 1436 C 141.939 -0.659668 -3.70574 0
M  V30 1437 C 141.086 -1.14126 -2.52726 0
M  V30 1438 H 144.037 -1.05022 -1.1898 0
M  V30 1439 H 144.058 -0.266766 -3.79564 0
M  V30 1440 H 143.57 -2.02579 -3.31034 0
M  V30 1441 H 141.671 0.408416 -3.70355 0
M  V30 1442 H 141.784 -1.23245 -4.62977 0
M  V30 1443 H 140.148 -0.561216 -2.4844 0
M  V30 1444 H 140.931 -2.22775 -2.61201 0
M  V30 1445 N 143.376 1.44774 -0.622745 0
M  V30 1446 C 144.604 2.06487 -0.130722 0
M  V30 1447 C 145.019 1.46476 1.19123 0
M  V30 1448 O 144.376 0.584502 1.72887 0
M  V30 1449 C 144.427 3.615 -0.000807207 0
M  V30 1450 O 144.148 4.19274 -1.27048 0
M  V30 1451 C 145.649 4.40229 0.520898 0
M  V30 1452 H 142.869 0.666704 -0.0758106 0
M  V30 1453 H 145.413 1.85779 -0.854774 0
M  V30 1454 H 143.568 3.81498 0.673643 0
M  V30 1455 H 143.982 5.12622 -1.1099 0
M  V30 1456 H 145.456 5.49144 0.560838 0
M  V30 1457 H 145.933 4.1108 1.54627 0
M  V30 1458 H 146.539 4.25131 -0.120018 0
M  V30 1459 N 144.854 0.36279 1.53368 0
M  V30 1460 C 146.1 -0.220702 2.02199 0
M  V30 1461 C 146.455 -1.46649 1.24546 0
M  V30 1462 O 145.748 -1.88737 0.32996 0
M  V30 1463 C 145.942 -0.568417 3.52851 0
M  V30 1464 C 145.771 0.642126 4.45092 0
M  V30 1465 C 144.541 1.15335 4.91961 0
M  V30 1466 C 146.739 1.50649 4.91741 0
M  V30 1467 N 144.721 2.3242 5.68202 0
M  V30 1468 C 146.092 2.52404 5.66297 0
M  V30 1469 C 148.147 1.52969 4.73819 0
M  V30 1470 C 146.85 3.56331 6.24836 0
M  V30 1471 C 148.876 2.55789 5.33222 0
M  V30 1472 C 148.238 3.56268 6.07662 0
M  V30 1473 H 144.337 -0.0435508 0.780786 0
M  V30 1474 H 146.921 0.506704 1.87991 0
M  V30 1475 H 145.092 -1.2649 3.67226 0
M  V30 1476 H 146.824 -1.13676 3.88407 0
M  V30 1477 H 143.579 0.718412 4.68119 0
M  V30 1478 H 144.003 2.91591 6.10986 0
M  V30 1479 H 148.645 0.766418 4.15795 0
M  V30 1480 H 146.363 4.33543 6.81958 0
M  V30 1481 H 149.949 2.58435 5.21251 0
M  V30 1482 H 148.829 4.34524 6.52808 0
M  V30 1483 N 146.332 -1.57332 0.0918853 0
M  V30 1484 C 147.557 -1.98995 -0.584442 0
M  V30 1485 C 147.982 -0.970528 -1.61128 0
M  V30 1486 O 147.34 0.0613904 -1.81196 0
M  V30 1487 C 147.388 -3.39636 -1.21161 0
M  V30 1488 O 146.492 -3.40447 -2.32744 0
M  V30 1489 H 145.833 -0.647165 -0.148572 0
M  V30 1490 H 148.363 -2.03873 0.172347 0
M  V30 1491 H 148.373 -3.7726 -1.55367 0
M  V30 1492 H 147.048 -4.13356 -0.459313 0
M  V30 1493 H 145.625 -3.14614 -2.0018 0
M  V30 1494 N 147.81 0.181792 -1.56548 0
M  V30 1495 C 148.743 1.25366 -1.90679 0
M  V30 1496 C 149.721 1.43299 -0.768376 0
M  V30 1497 O 150.905 1.58475 -1.02068 0
M  V30 1498 C 148.032 2.61826 -2.1486 0
M  V30 1499 C 147.078 2.60688 -3.37556 0
M  V30 1500 S 147.911 2.10804 -4.92262 0
M  V30 1501 C 149.067 3.49062 -5.19525 0
M  V30 1502 H 149.3 0.962277 -2.81296 0
M  V30 1503 H 146.833 0.385892 -1.495 0
M  V30 1504 H 148.791 3.40371 -2.29473 0
M  V30 1505 H 147.452 2.88169 -1.24969 0
M  V30 1506 H 146.645 3.61058 -3.51643 0
M  V30 1507 H 146.247 1.90232 -3.22006 0
M  V30 1508 H 148.539 4.45003 -5.10861 0
M  V30 1509 H 149.482 3.39859 -6.2121 0
M  V30 1510 H 149.89 3.4459 -4.47122 0
M  V30 1511 N 149.288 1.51039 0.449983 0
M  V30 1512 C 150.251 1.70863 1.5277 0
M  V30 1513 C 151.251 0.578846 1.5002 0
M  V30 1514 O 152.441 0.846213 1.52266 0
M  V30 1515 C 149.573 1.75341 2.9235 0
M  V30 1516 H 150.766 2.67034 1.36502 0
M  V30 1517 H 148.319 1.40838 0.677812 0
M  V30 1518 H 149.054 0.809383 3.14037 0
M  V30 1519 H 148.839 2.57436 2.95752 0
M  V30 1520 H 150.329 1.92559 3.70555 0
M  V30 1521 N 150.766 -0.704594 1.40972 0
M  V30 1522 C 151.713 -1.81862 1.42109 0
M  V30 1523 C 152.683 -1.63781 0.276593 0
M  V30 1524 O 153.868 -1.84759 0.4763 0
M  V30 1525 C 151.008 -3.19669 1.30022 0
M  V30 1526 C 150.121 -3.49246 2.54267 0
M  V30 1527 C 149.256 -4.76618 2.3454 0
M  V30 1528 C 148.295 -4.99133 3.54306 0
M  V30 1529 N 147.432 -6.17726 3.33706 0
M  V30 1530 H 152.272 -1.80226 2.37324 0
M  V30 1531 H 149.809 -0.880238 1.17857 0
M  V30 1532 H 151.767 -3.99263 1.21018 0
M  V30 1533 H 150.397 -3.20506 0.384192 0
M  V30 1534 H 149.449 -2.64125 2.73756 0
M  V30 1535 H 150.761 -3.61788 3.43381 0
M  V30 1536 H 149.915 -5.64249 2.22952 0
M  V30 1537 H 148.654 -4.66305 1.42867 0
M  V30 1538 H 147.659 -4.09953 3.66359 0
M  V30 1539 H 148.884 -5.11311 4.4692 0
M  V30 1540 H 146.83 -6.08642 2.44725 0
M  V30 1541 H 146.747 -6.30995 4.16391 0
M  V30 1542 H 148.015 -7.08115 3.25873 0
M  V30 1543 N 152.244 -1.26651 -0.937939 0
M  V30 1544 C 153.174 -1.10993 -2.05433 0
M  V30 1545 C 154.155 -0.0142161 -1.70094 0
M  V30 1546 O 155.34 -0.186837 -1.93299 0
M  V30 1547 C 152.47 -0.745561 -3.39203 0
M  V30 1548 C 151.424 -1.79337 -3.88616 0
M  V30 1549 C 150.75 -1.28324 -5.19073 0
M  V30 1550 C 152.05 -3.19553 -4.13138 0
M  V30 1551 H 153.744 -2.0438 -2.1879 0
M  V30 1552 H 151.29 -0.984041 -1.05131 0
M  V30 1553 H 153.243 -0.622888 -4.16771 0
M  V30 1554 H 151.967 0.22401 -3.25831 0
M  V30 1555 H 150.626 -1.90477 -3.13231 0
M  V30 1556 H 150.274 -0.303414 -5.02084 0
M  V30 1557 H 149.974 -1.98369 -5.53103 0
M  V30 1558 H 151.498 -1.1733 -5.99221 0
M  V30 1559 H 152.912 -3.11471 -4.81309 0
M  V30 1560 H 151.309 -3.87218 -4.58457 0
M  V30 1561 H 152.379 -3.65368 -3.18801 0
M  V30 1562 N 153.722 1.14298 -1.08507 0
M  V30 1563 C 154.654 2.1907 -0.673859 0
M  V30 1564 C 155.667 1.60381 0.279577 0
M  V30 1565 O 156.856 1.78374 0.0670754 0
M  V30 1566 C 153.956 3.38888 0.0290979 0
M  V30 1567 C 153.129 4.27103 -0.943494 0
M  V30 1568 C 152.188 5.25477 -0.275676 0
M  V30 1569 O 151.214 5.61709 -0.920401 0
M  V30 1570 N 152.416 5.7227 0.974013 0
M  V30 1571 H 155.181 2.54965 -1.57521 0
M  V30 1572 H 152.742 1.29528 -0.971287 0
M  V30 1573 H 154.734 4.01761 0.48683 0
M  V30 1574 H 153.304 3.01309 0.832555 0
M  V30 1575 H 152.524 3.61149 -1.58004 0
M  V30 1576 H 153.812 4.82905 -1.60251 0
M  V30 1577 H 153.21 5.44965 1.51755 0
M  V30 1578 H 151.767 6.37127 1.37522 0
M  V30 1579 N 155.201 0.870884 1.31352 0
M  V30 1580 C 156.131 0.343096 2.30966 0
M  V30 1581 C 157.112 -0.566507 1.60389 0
M  V30 1582 O 158.297 -0.483336 1.88089 0
M  V30 1583 C 155.427 -0.455487 3.443 0
M  V30 1584 C 154.381 0.361103 4.26474 0
M  V30 1585 C 153.707 -0.563221 5.31725 0
M  V30 1586 C 155.007 1.59566 4.97329 0
M  V30 1587 H 156.701 1.17548 2.75359 0
M  V30 1588 H 154.247 0.566686 1.32381 0
M  V30 1589 H 156.2 -0.83525 4.13039 0
M  V30 1590 H 154.924 -1.32139 2.98675 0
M  V30 1591 H 153.583 0.722825 3.59403 0
M  V30 1592 H 153.231 -1.42643 4.82351 0
M  V30 1593 H 152.931 -0.0207409 5.87596 0
M  V30 1594 H 154.455 -0.939808 6.03324 0
M  V30 1595 H 155.869 1.28728 5.58661 0
M  V30 1596 H 154.266 2.07728 5.63 0
M  V30 1597 H 155.336 2.34798 4.24262 0
M  V30 1598 N 156.679 -1.44442 0.630414 0
M  V30 1599 C 158.09 -1.85434 0.217063 0
M  V30 1600 C 158.441 -1.52748 -1.23136 0
M  V30 1601 O 157.566 -0.965205 -1.93682 0
M  V30 1602 C 158.161 -3.36581 0.387168 0
M  V30 1603 C 156.72 -3.76389 0.0283297 0
M  V30 1604 C 155.867 -2.68296 0.700889 0
M  V30 1605 H 158.818 -1.34919 0.83562 0
M  V30 1606 H 158.839 -3.78657 -0.374086 0
M  V30 1607 H 158.351 -3.60339 1.44144 0
M  V30 1608 H 156.452 -3.58246 -1.02423 0
M  V30 1609 H 156.565 -4.77095 0.437892 0
M  V30 1610 H 154.929 -2.54335 0.136267 0
M  V30 1611 H 155.712 -2.94887 1.75774 0
M  V30 1612 N 158.157 -0.370918 -1.53173 0
M  V30 1613 C 159.09 0.516727 -2.22273 0
M  V30 1614 C 160.068 1.07877 -1.21661 0
M  V30 1615 O 161.252 1.13389 -1.50583 0
M  V30 1616 C 158.379 1.71346 -2.92161 0
M  V30 1617 C 157.425 1.27838 -4.0689 0
M  V30 1618 S 158.258 0.275217 -5.34792 0
M  V30 1619 C 159.414 1.47816 -6.08195 0
M  V30 1620 H 159.647 -0.0701054 -2.97217 0
M  V30 1621 H 157.18 -0.155038 -1.5362 0
M  V30 1622 H 159.138 2.39988 -3.3304 0
M  V30 1623 H 157.799 2.27156 -2.16931 0
M  V30 1624 H 156.992 2.17141 -4.54825 0
M  V30 1625 H 156.594 0.671105 -3.6793 0
M  V30 1626 H 158.886 2.40831 -6.33251 0
M  V30 1627 H 159.829 1.04008 -7.0042 0
M  V30 1628 H 160.237 1.68663 -5.38714 0
M  V30 1629 N 159.635 1.57281 -0.100228 0
M  V30 1630 C 160.565 2.17328 0.853857 0
M  V30 1631 C 161.546 1.10804 1.2906 0
M  V30 1632 O 162.731 1.38963 1.35657 0
M  V30 1633 C 159.861 2.75772 2.11109 0
M  V30 1634 C 158.815 3.87713 1.81279 0
M  V30 1635 C 158.141 4.32882 3.13874 0
M  V30 1636 C 159.441 5.10677 1.09574 0
M  V30 1637 H 161.135 2.97305 0.353545 0
M  V30 1638 H 158.681 1.43009 0.168612 0
M  V30 1639 H 160.634 3.16433 2.78296 0
M  V30 1640 H 159.358 1.93057 2.63432 0
M  V30 1641 H 158.017 3.476 1.16489 0
M  V30 1642 H 157.665 3.47051 3.64095 0
M  V30 1643 H 157.365 5.08358 2.94696 0
M  V30 1644 H 158.889 4.7618 3.82211 0
M  V30 1645 H 160.303 5.48474 1.66879 0
M  V30 1646 H 158.7 5.91615 1.00557 0
M  V30 1647 H 159.77 4.84835 0.0793299 0
M  V30 1648 N 161.113 -0.173488 1.56642 0
M  V30 1649 C 162.061 -1.23417 1.97157 0
M  V30 1650 C 163.055 -1.45946 0.860013 0
M  V30 1651 O 164.261 -1.46551 1.04512 0
M  V30 1652 H 160.636 -0.414818 0.62724 0
M  V30 1653 H 162.607 -0.865582 2.8557 0
M  V30 1654 C 161.356 -2.5665 2.34576 0
M  V30 1655 H 160.679 -2.40137 3.19647 0
M  V30 1656 H 162.119 -3.2956 2.6677 0
M  V30 1657 C 160.578 -3.15245 1.18836 0
M  V30 1658 O 161.108 -3.98883 0.474869 0
M  V30 1659 N 159.314 -2.74303 0.959497 0
M  V30 1660 H 158.861 -2.0639 1.54146 0
M  V30 1661 H 158.819 -3.13844 0.186932 0
M  V30 1662 N 162.591 -1.51276 -0.441967 0
M  V30 1663 C 163.501 -1.75092 -1.56141 0
M  V30 1664 C 164.517 -0.634963 -1.62001 0
M  V30 1665 O 165.693 -0.916686 -1.79329 0
M  V30 1666 C 162.758 -1.86666 -2.92158 0
M  V30 1667 C 161.819 -3.10506 -2.96453 0
M  V30 1668 C 161.052 -3.21519 -4.25982 0
M  V30 1669 O 161.275 -2.38586 -5.18105 0
M  V30 1670 O 160.209 -4.14465 -4.36466 0
M  V30 1671 H 164.035 -2.70044 -1.38961 0
M  V30 1672 H 161.62 -1.35722 -0.624499 0
M  V30 1673 H 163.502 -1.96292 -3.72891 0
M  V30 1674 H 162.177 -0.949014 -3.09476 0
M  V30 1675 H 161.084 -3.06363 -2.14692 0
M  V30 1676 H 162.417 -4.01945 -2.84079 0
M  V30 1677 N 164.069 0.697108 -1.41344 0
M  V30 1678 C 165.346 1.45154 -1.31109 0
M  V30 1679 C 165.726 2.11009 0.0620449 0
M  V30 1680 O 165.074 2.01571 1.07618 0
M  V30 1681 C 165.284 2.47223 -2.46337 0
M  V30 1682 C 166.632 3.1252 -2.87431 0
M  V30 1683 O 167.656 2.57547 -2.46065 0
M  V30 1684 O 166.515 4.12083 -3.58957 0
M  V30 1685 H 163.609 0.646365 -0.515889 0
M  V30 1686 H 166.155 0.727716 -1.53305 0
M  V30 1687 H 164.927 1.97204 -3.37974 0
M  V30 1688 H 164.55 3.27116 -2.2601 0
M  V30 1689 N 165.547 1.27147 0.931209 0
M  V30 1690 C 166.477 1.12081 2.04842 0
M  V30 1691 C 167.458 0.0232364 1.70084 0
M  V30 1692 O 168.643 0.197085 1.93197 0
M  V30 1693 C 165.773 0.76354 3.38803 0
M  V30 1694 C 164.727 1.81396 3.87659 0
M  V30 1695 C 164.053 1.31075 5.18385 0
M  V30 1696 C 165.353 3.21739 4.11438 0
M  V30 1697 H 167.047 2.05537 2.17703 0
M  V30 1698 H 164.593 0.989603 1.04608 0
M  V30 1699 H 166.546 0.644982 4.16435 0
M  V30 1700 H 165.27 -0.206727 3.25945 0
M  V30 1701 H 163.929 1.92136 3.12217 0
M  V30 1702 H 163.577 0.330037 5.01916 0
M  V30 1703 H 163.277 2.013 5.52044 0
M  V30 1704 H 164.801 1.20506 5.98591 0
M  V30 1705 H 166.215 3.14019 4.79651 0
M  V30 1706 H 164.612 3.89644 4.56397 0
M  V30 1707 H 165.682 3.67054 3.16859 0
M  V30 1708 N 167.025 -1.13721 1.09112 0
M  V30 1709 C 168.253 -1.88773 0.846899 0
M  V30 1710 C 168.668 -1.7896 -0.601572 0
M  V30 1711 O 168.025 -1.15394 -1.41388 0
M  V30 1712 C 168.076 -3.3849 1.26913 0
M  V30 1713 O 167.797 -3.48043 2.66079 0
M  V30 1714 C 169.298 -4.30518 1.05682 0
M  V30 1715 H 166.518 -0.59772 0.304914 0
M  V30 1716 H 169.062 -1.43977 1.45227 0
M  V30 1717 H 167.217 -3.80881 0.707723 0
M  V30 1718 H 167.631 -4.4109 2.83795 0
M  V30 1719 H 169.105 -5.3391 1.40156 0
M  V30 1720 H 169.582 -4.392 -0.00563416 0
M  V30 1721 H 170.188 -3.93893 1.60402 0
M  V30 1722 N 168.503 -0.877838 -1.30888 0
M  V30 1723 C 169.743 -0.499301 -1.98208 0
M  V30 1724 C 170.107 0.932649 -1.67826 0
M  V30 1725 O 171.308 1.41694 -2.28421 0
M  V30 1726 C 169.579 -0.758221 -3.49265 0
M  V30 1727 S 171.138 -0.480719 -4.36159 0
M  V30 1728 H 167.956 -0.186062 -0.686223 0
M  V30 1729 H 170.558 -1.13556 -1.59139 0
M  V30 1730 H 169.262 -1.79903 -3.68867 0
M  V30 1731 H 168.793 -0.109247 -3.93248 0
M  V30 1732 H 170.808 0.683698 -4.91467 0
M  V30 1733 N 169.982 1.44106 -0.638065 0
M  V30 1734 C 171.259 1.95453 -0.0759321 0
M  V30 1735 C 171.639 1.57984 1.40015 0
M  V30 1736 O 170.987 0.857361 2.11806 0
M  V30 1737 C 171.197 3.47655 -0.306132 0
M  V30 1738 C 172.545 4.24114 -0.203008 0
M  V30 1739 O 173.569 3.55405 -0.237871 0
M  V30 1740 O 172.428 5.46381 -0.113827 0
M  V30 1741 H 169.522 0.826797 0.0183332 0
M  V30 1742 H 172.068 1.54122 -0.710251 0
M  V30 1743 H 170.84 3.68 -1.3301 0
M  V30 1744 H 170.463 3.95949 0.361991 0
M  V30 1745 N 171.46 0.379036 1.52974 0
M  V30 1746 C 172.688 -0.20679 2.05864 0
M  V30 1747 C 173.103 -1.41356 1.25155 0
M  V30 1748 O 172.46 -1.8009 0.295588 0
M  V30 1749 C 172.511 -0.587045 3.56702 0
M  V30 1750 O 172.232 0.571776 4.34353 0
M  V30 1751 C 173.733 -1.22983 4.25899 0
M  V30 1752 H 170.953 -0.0336123 0.670158 0
M  V30 1753 H 173.497 0.541298 1.97206 0
M  V30 1754 H 171.652 -1.28504 3.65466 0
M  V30 1755 H 172.066 0.261544 5.23847 0
M  V30 1756 H 173.54 -1.44635 5.32715 0
M  V30 1757 H 174.017 -2.19416 3.80465 0
M  V30 1758 H 174.623 -0.572892 4.21424 0
M  V30 1759 N 172.938 -1.57226 0.108567 0
M  V30 1760 C 173.868 -2.17778 -0.84232 0
M  V30 1761 C 174.849 -1.11487 -1.2847 0
M  V30 1762 O 176.034 -1.39681 -1.34918 0
M  V30 1763 C 173.164 -2.76888 -2.09644 0
M  V30 1764 C 172.118 -3.88669 -1.79221 0
M  V30 1765 C 171.444 -4.34541 -3.11574 0
M  V30 1766 C 172.744 -5.11251 -1.06864 0
M  V30 1767 H 174.438 -2.97489 -0.337774 0
M  V30 1768 H 171.984 -1.43097 -0.161025 0
M  V30 1769 H 173.937 -3.17904 -2.76614 0
M  V30 1770 H 172.661 -1.94451 -2.62405 0
M  V30 1771 H 171.32 -3.48213 -1.14644 0
M  V30 1772 H 170.968 -3.48977 -3.62249 0
M  V30 1773 H 170.668 -5.09914 -2.91996 0
M  V30 1774 H 172.192 -4.782 -3.7968 0
M  V30 1775 H 173.606 -5.49352 -1.63968 0
M  V30 1776 H 172.003 -5.9214 -0.974178 0
M  V30 1777 H 173.073 -4.8487 -0.0536168 0
M  V30 1778 N 174.416 0.165178 -1.56732 0
M  V30 1779 C 175.348 1.22911 -1.93457 0
M  V30 1780 C 176.361 1.40152 -0.828333 0
M  V30 1781 O 177.55 1.40046 -1.10677 0
M  V30 1782 C 174.65 2.59686 -2.17753 0
M  V30 1783 C 173.823 2.63663 -3.48999 0
M  V30 1784 C 172.882 3.81845 -3.62051 0
M  V30 1785 O 171.908 3.67559 -4.34613 0
M  V30 1786 N 173.11 4.98557 -2.97357 0
M  V30 1787 H 175.875 0.917118 -2.85323 0
M  V30 1788 H 173.436 0.354895 -1.57962 0
M  V30 1789 H 175.428 3.37225 -2.23743 0
M  V30 1790 H 173.998 2.83251 -1.32242 0
M  V30 1791 H 173.218 1.72173 -3.54612 0
M  V30 1792 H 174.506 2.63336 -4.35352 0
M  V30 1793 H 173.904 5.13065 -2.38287 0
M  V30 1794 H 172.461 5.73936 -3.08934 0
M  V30 1795 N 175.894 1.51508 0.433938 0
M  V30 1796 C 176.827 1.67756 1.54704 0
M  V30 1797 C 177.805 0.525127 1.53887 0
M  V30 1798 O 178.989 0.749393 1.72963 0
M  V30 1799 C 176.116 1.69424 2.9328 0
M  V30 1800 C 175.162 2.90673 3.12108 0
M  V30 1801 S 175.995 4.51431 2.88046 0
M  V30 1802 C 177.151 4.55849 4.28897 0
M  V30 1803 H 177.384 2.61904 1.40689 0
M  V30 1804 H 174.917 1.41235 0.62386 0
M  V30 1805 H 176.875 1.7107 3.73156 0
M  V30 1806 H 175.536 0.764464 3.04655 0
M  V30 1807 H 174.729 2.88251 4.13434 0
M  V30 1808 H 174.331 2.86786 2.40062 0
M  V30 1809 H 176.623 4.31699 5.22152 0
M  V30 1810 H 177.566 5.57676 4.36351 0
M  V30 1811 H 177.974 3.85137 4.12711 0
M  V30 1812 N 177.372 -0.689602 1.41712 0
M  V30 1813 C 178.618 -1.45041 1.42599 0
M  V30 1814 C 178.973 -1.92366 0.0363764 0
M  V30 1815 O 178.266 -1.67022 -0.938844 0
M  V30 1816 C 178.46 -2.67298 2.37247 0
M  V30 1817 C 178.289 -2.31935 3.85274 0
M  V30 1818 C 177.059 -2.2201 4.53916 0
M  V30 1819 C 179.257 -1.94526 4.76093 0
M  V30 1820 N 177.239 -1.79594 5.87043 0
M  V30 1821 C 178.61 -1.62915 5.98213 0
M  V30 1822 C 180.665 -1.81388 4.63684 0
M  V30 1823 C 179.368 -1.19486 7.09306 0
M  V30 1824 C 181.394 -1.39364 5.74745 0
M  V30 1825 C 180.756 -1.08668 6.95967 0
M  V30 1826 H 176.855 -0.527806 0.577014 0
M  V30 1827 H 179.439 -0.797266 1.77628 0
M  V30 1828 H 177.61 -3.30325 2.04304 0
M  V30 1829 H 179.342 -3.33806 2.28814 0
M  V30 1830 H 176.097 -2.406 4.07932 0
M  V30 1831 H 176.521 -1.60851 6.57614 0
M  V30 1832 H 181.163 -2.03772 3.70455 0
M  V30 1833 H 178.881 -0.958477 8.02396 0
M  V30 1834 H 182.467 -1.2974 5.6715 0
M  V30 1835 H 181.347 -0.766417 7.80446 0
M  V30 1836 N 178.85 -1.27639 -0.924453 0
M  V30 1837 C 179.76 -1.12466 -2.05885 0
M  V30 1838 C 180.776 -0.053869 -1.73917 0
M  V30 1839 O 181.952 -0.261012 -1.99702 0
M  V30 1840 C 179.017 -0.776768 -3.37886 0
M  V30 1841 C 178.078 -1.92878 -3.83532 0
M  V30 1842 C 177.311 -1.59739 -5.09234 0
M  V30 1843 O 177.534 -0.506782 -5.68144 0
M  V30 1844 O 176.468 -2.43761 -5.50331 0
M  V30 1845 H 180.294 -2.07671 -2.21599 0
M  V30 1846 H 177.879 -1.06857 -1.04413 0
M  V30 1847 H 179.761 -0.596229 -4.17161 0
M  V30 1848 H 178.436 0.145732 -3.23372 0
M  V30 1849 H 177.343 -2.1644 -3.0513 0
M  V30 1850 H 178.676 -2.8316 -4.02593 0
M  V30 1851 N 180.328 1.1314 -1.09713 0
M  V30 1852 C 181.291 2.16831 -0.742751 0
M  V30 1853 C 182.291 1.59159 0.229129 0
M  V30 1854 O 183.481 1.74199 0.00693237 0
M  V30 1855 C 180.613 3.40756 -0.0989168 0
M  V30 1856 H 181.806 2.49695 -1.66109 0
M  V30 1857 H 179.359 1.2802 -0.896699 0
M  V30 1858 H 180.094 3.13485 0.830514 0
M  V30 1859 H 179.879 3.83888 -0.798265 0
M  V30 1860 H 181.369 4.17386 0.133524 0
M  V30 1861 N 181.806 0.884767 1.30421 0
M  V30 1862 C 183.052 0.503851 1.96441 0
M  V30 1863 C 183.385 -0.944518 1.69684 0
M  V30 1864 O 182.66 -1.66737 1.00145 0
M  V30 1865 C 182.943 0.779085 3.51571 0
M  V30 1866 C 182.796 2.27807 3.87846 0
M  V30 1867 C 184.115 0.255452 4.39358 0
M  V30 1868 H 181.234 0.184533 0.713524 0
M  V30 1869 H 183.876 1.10872 1.54297 0
M  V30 1870 H 182.026 0.264274 3.876 0
M  V30 1871 H 183.698 2.86127 3.61841 0
M  V30 1872 H 181.941 2.74479 3.35922 0
M  V30 1873 H 182.612 2.42125 4.96064 0
M  V30 1874 H 185.088 0.696079 4.10236 0
M  V30 1875 H 183.964 0.477361 5.4682 0
M  V30 1876 H 184.225 -0.843293 4.33983 0
M  V30 1877 N 183.284 -1.43765 0.645699 0
M  V30 1878 C 184.509 -2.06767 0.161883 0
M  V30 1879 C 184.934 -1.48034 -1.16049 0
M  V30 1880 O 184.292 -0.587369 -1.71522 0
M  V30 1881 C 184.34 -3.60519 0.0762003 0
M  V30 1882 O 183.444 -4.00982 -0.963721 0
M  V30 1883 H 182.785 -0.657675 0.091429 0
M  V30 1884 H 185.315 -1.84397 0.886499 0
M  V30 1885 H 185.325 -4.07853 -0.109604 0
M  V30 1886 H 184 -4.02646 1.04157 0
M  V30 1887 H 182.577 -3.65253 -0.751312 0
M  V30 1888 N 184.763 -0.387143 -1.52771 0
M  V30 1889 C 186.009 0.196025 -2.0185 0
M  V30 1890 C 186.342 1.46641 -1.27319 0
M  V30 1891 O 185.617 1.90889 -0.373032 0
M  V30 1892 C 185.9 0.466136 -3.5707 0
M  V30 1893 C 185.753 -0.819385 -4.42274 0
M  V30 1894 C 187.072 1.25768 -4.21747 0
M  V30 1895 H 184.191 0.0697708 -0.73369 0
M  V30 1896 H 186.833 -0.516286 -1.82851 0
M  V30 1897 H 184.983 1.07293 -3.7339 0
M  V30 1898 H 186.655 -1.4563 -4.37709 0
M  V30 1899 H 184.898 -1.43517 -4.09372 0
M  V30 1900 H 185.569 -0.585065 -5.48891 0
M  V30 1901 H 188.045 0.744167 -4.09391 0
M  V30 1902 H 186.921 1.41541 -5.30337 0
M  V30 1903 H 187.182 2.27228 -3.79236 0
M  V30 1904 N 186.241 1.57166 -0.116904 0
M  V30 1905 C 187.188 2.15202 0.83408 0
M  V30 1906 C 188.158 1.07644 1.26499 0
M  V30 1907 O 189.343 1.35541 1.34288 0
M  V30 1908 C 186.483 2.75405 2.07957 0
M  V30 1909 C 185.596 3.97264 1.69721 0
M  V30 1910 C 184.731 4.45561 2.89221 0
M  V30 1911 C 183.77 5.59956 2.47215 0
M  V30 1912 N 182.907 6.03006 3.59622 0
M  V30 1913 H 187.747 2.96141 0.332335 0
M  V30 1914 H 185.284 1.46309 0.152349 0
M  V30 1915 H 187.242 3.08439 2.80929 0
M  V30 1916 H 185.872 1.97159 2.55594 0
M  V30 1917 H 184.924 3.70404 0.866316 0
M  V30 1918 H 186.236 4.80226 1.34849 0
M  V30 1919 H 185.39 4.80493 3.7042 0
M  V30 1920 H 184.129 3.61544 3.27318 0
M  V30 1921 H 183.134 5.2463 1.64448 0
M  V30 1922 H 184.359 6.45738 2.10238 0
M  V30 1923 H 182.305 5.21931 3.97396 0
M  V30 1924 H 182.222 6.80819 3.28667 0
M  V30 1925 H 183.49 6.42576 4.41267 0
M  V30 1926 N 187.719 -0.156864 1.56817 0
M  V30 1927 C 188.947 -0.886316 1.86955 0
M  V30 1928 C 189.362 -1.75185 0.703975 0
M  V30 1929 O 188.719 -1.79555 -0.326552 0
M  V30 1930 C 188.77 -1.75117 3.16253 0
M  V30 1931 O 188.491 -0.920537 4.2832 0
M  V30 1932 C 189.992 -2.58905 3.59837 0
M  V30 1933 H 187.212 -0.25678 0.619923 0
M  V30 1934 H 189.756 -0.152615 2.0393 0
M  V30 1935 H 187.911 -2.43805 3.01062 0
M  V30 1936 H 188.325 -1.51337 5.02192 0
M  V30 1937 H 189.799 -3.1518 4.53172 0
M  V30 1938 H 190.276 -3.34472 2.84649 0
M  V30 1939 H 190.882 -1.95526 3.7769 0
M  V30 1940 N 189.197 -1.51736 -0.425897 0
M  V30 1941 C 190.107 -1.76738 -1.54275 0
M  V30 1942 C 191.123 -0.65211 -1.61318 0
M  V30 1943 O 192.299 -0.935654 -1.78346 0
M  V30 1944 C 189.364 -1.89755 -2.90162 0
M  V30 1945 C 188.425 -3.13633 -2.93143 0
M  V30 1946 C 187.658 -3.2602 -4.22548 0
M  V30 1947 O 187.881 -2.44067 -5.15546 0
M  V30 1948 O 186.815 -4.19071 -4.32046 0
M  V30 1949 H 190.641 -2.71502 -1.36089 0
M  V30 1950 H 188.226 -1.36376 -0.610069 0
M  V30 1951 H 190.108 -2.00236 -3.70788 0
M  V30 1952 H 188.783 -0.981785 -3.08452 0
M  V30 1953 H 187.69 -3.08622 -2.11431 0
M  V30 1954 H 189.023 -4.04936 -2.798 0
M  V30 1955 N 190.675 0.682077 -1.42076 0
M  V30 1956 C 191.921 1.44428 -1.42367 0
M  V30 1957 C 192.254 1.94164 -0.0373056 0
M  V30 1958 O 191.529 1.70429 0.937239 0
M  V30 1959 C 191.812 2.64654 -2.44194 0
M  V30 1960 C 191.665 2.20596 -3.91991 0
M  V30 1961 C 192.984 3.66865 -2.431 0
M  V30 1962 H 190.103 0.523834 -0.518428 0
M  V30 1963 H 192.745 0.77576 -1.73442 0
M  V30 1964 H 190.895 3.2169 -2.17826 0
M  V30 1965 H 192.567 1.68783 -4.29313 0
M  V30 1966 H 190.81 1.52242 -4.06208 0
M  V30 1967 H 191.481 3.06921 -4.58807 0
M  V30 1968 H 193.957 3.19531 -2.66532 0
M  V30 1969 H 192.833 4.48577 -3.16339 0
M  V30 1970 H 193.094 4.17493 -1.45437 0
M  V30 1971 N 192.153 1.28127 0.917671 0
M  V30 1972 C 193.399 1.15223 1.66888 0
M  V30 1973 C 193.732 -0.299293 1.9188 0
M  V30 1974 O 193.007 -1.21805 1.51637 0
M  V30 1975 C 193.29 1.94706 3.02922 0
M  V30 1976 C 193.143 3.47898 2.85109 0
M  V30 1977 C 194.462 1.75939 4.03402 0
M  V30 1978 H 191.581 0.419946 0.605652 0
M  V30 1979 H 194.223 1.57398 1.06423 0
M  V30 1980 H 192.373 1.58864 3.54534 0
M  V30 1981 H 194.045 3.93624 2.40537 0
M  V30 1982 H 192.288 3.7373 2.20246 0
M  V30 1983 H 192.959 3.98765 3.81694 0
M  V30 1984 H 195.435 2.07209 3.60837 0
M  V30 1985 H 194.311 2.33931 4.96556 0
M  V30 1986 H 194.572 0.709877 4.36364 0
M  V30 1987 N 193.631 -1.12557 1.10312 0
M  V30 1988 C 194.879 -1.83675 0.843091 0
M  V30 1989 C 195.2 -1.84435 -0.633131 0
M  V30 1990 O 194.47 -1.30657 -1.45964 0
M  V30 1991 H 193.05 -0.680138 0.308904 0
M  V30 1992 H 195.712 -1.36301 1.39313 0
M  V30 1993 H 194.808 -2.87908 1.2048 0
M  V30 1994 N 195.109 -0.891671 -1.2995 0
M  V30 1995 C 196.334 -0.527932 -2.00568 0
M  V30 1996 C 196.759 0.877969 -1.66353 0
M  V30 1997 O 196.117 1.58301 -0.883762 0
M  V30 1998 C 196.165 -0.717745 -3.53385 0
M  V30 1999 O 195.269 0.233376 -4.11739 0
M  V30 2000 H 194.61 -0.20722 -0.630837 0
M  V30 2001 H 197.14 -1.20105 -1.65638 0
M  V30 2002 H 197.15 -0.619307 -4.03272 0
M  V30 2003 H 195.825 -1.74276 -3.77625 0
M  V30 2004 H 194.402 0.0880706 -3.72796 0
M  V30 2005 N 196.587 1.43421 -0.653314 0
M  V30 2006 C 197.835 2.01414 -0.166415 0
M  V30 2007 C 198.156 1.51803 1.22397 0
M  V30 2008 O 197.426 0.730693 1.81763 0
M  V30 2009 H 196.006 0.744703 -0.0585319 0
M  V30 2010 H 198.668 1.75629 -0.845003 0
M  V30 2011 H 197.764 3.11734 -0.151111 0
M  V30 2012 N 198.065 0.39524 1.52563 0
M  V30 2013 C 199.29 -0.187456 2.06551 0
M  V30 2014 C 199.715 -1.39249 1.26457 0
M  V30 2015 O 199.073 -1.78947 0.291151 0
M  V30 2016 C 199.121 -0.529985 3.56684 0
M  V30 2017 O 198.225 -1.62307 3.79118 0
M  V30 2018 H 197.566 -0.0202537 0.663691 0
M  V30 2019 H 200.096 0.564426 1.96661 0
M  V30 2020 H 200.106 -0.792598 4.00227 0
M  V30 2021 H 198.781 0.350987 4.14416 0
M  V30 2022 H 197.358 -1.3537 3.47461 0
M  V30 2023 N 199.544 -1.57102 0.125237 0
M  V30 2024 C 200.474 -2.18659 -0.819174 0
M  V30 2025 C 201.455 -1.12843 -1.27281 0
M  V30 2026 O 202.64 -1.41104 -1.33429 0
M  V30 2027 C 199.77 -2.79096 -2.06695 0
M  V30 2028 C 198.724 -3.90548 -1.75088 0
M  V30 2029 C 198.05 -4.37821 -3.06948 0
M  V30 2030 C 199.35 -5.12356 -1.01435 0
M  V30 2031 H 201.044 -2.9783 -0.306202 0
M  V30 2032 H 198.59 -1.4326 -0.145839 0
M  V30 2033 H 200.543 -3.2082 -2.73226 0
M  V30 2034 H 199.267 -1.97223 -2.60328 0
M  V30 2035 H 197.926 -3.49409 -1.10944 0
M  V30 2036 H 197.574 -3.52799 -3.58527 0
M  V30 2037 H 197.274 -5.12982 -2.86571 0
M  V30 2038 H 198.798 -4.822 -3.74587 0
M  V30 2039 H 200.212 -5.5106 -1.58132 0
M  V30 2040 H 198.609 -5.9314 -0.911319 0
M  V30 2041 H 199.679 -4.849 -0.00218681 0
M  V30 2042 N 201.022 0.148545 -1.56898 0
M  V30 2043 C 201.952 1.18524 -2.01182 0
M  V30 2044 C 202.933 1.4489 -0.891123 0
M  V30 2045 O 204.118 1.55836 -1.15882 0
M  V30 2046 C 201.248 2.51879 -2.39112 0
M  V30 2047 C 200.202 2.40038 -3.54353 0
M  V30 2048 C 199.528 3.78089 -3.78091 0
M  V30 2049 C 200.828 1.88577 -4.87069 0
M  V30 2050 H 202.522 0.817029 -2.88036 0
M  V30 2051 H 200.068 0.391575 -1.38574 0
M  V30 2052 H 202.021 3.24627 -2.68692 0
M  V30 2053 H 200.745 2.90532 -1.49193 0
M  V30 2054 H 199.404 1.69742 -3.24936 0
M  V30 2055 H 199.052 4.14175 -2.85426 0
M  V30 2056 H 198.752 3.71028 -4.55645 0
M  V30 2057 H 200.276 4.52387 -4.10095 0
M  V30 2058 H 201.69 2.51117 -5.15377 0
M  V30 2059 H 200.087 1.9241 -5.68417 0
M  V30 2060 H 201.157 0.84136 -4.77545 0
M  V30 2061 N 202.5 1.5196 0.417844 0
M  V30 2062 C 203.777 1.56146 1.17803 0
M  V30 2063 C 204.157 0.337275 2.08388 0
M  V30 2064 O 203.505 -0.676447 2.18258 0
M  V30 2065 C 203.715 2.88566 1.96293 0
M  V30 2066 C 205.063 3.41244 2.52662 0
M  V30 2067 O 206.087 2.90247 2.06483 0
M  V30 2068 O 204.946 4.30273 3.36938 0
M  V30 2069 H 202.04 0.628598 0.537395 0
M  V30 2070 H 204.586 1.64283 0.425331 0
M  V30 2071 H 203.358 3.69116 1.2988 0
M  V30 2072 H 202.981 2.83681 2.78587 0
M  V30 2073 N 203.978 -0.674533 1.42435 0
M  V30 2074 C 205.224 -1.43671 1.43131 0
M  V30 2075 C 205.557 -1.94142 0.0476021 0
M  V30 2076 O 204.832 -1.70924 -0.928188 0
M  V30 2077 C 205.115 -2.63355 2.45594 0
M  V30 2078 C 204.968 -2.18514 3.93156 0
M  V30 2079 C 206.287 -3.65571 2.45043 0
M  V30 2080 H 203.406 -0.521077 0.521198 0
M  V30 2081 H 206.048 -0.766551 1.7385 0
M  V30 2082 H 204.198 -3.2053 2.19528 0
M  V30 2083 H 205.87 -1.66504 4.30202 0
M  V30 2084 H 204.113 -1.50086 4.07009 0
M  V30 2085 H 204.784 -3.04484 4.60428 0
M  V30 2086 H 207.26 -3.18113 2.68223 0
M  V30 2087 H 206.136 -4.46893 3.18713 0
M  V30 2088 H 206.397 -4.16716 1.47649 0
M  V30 2089 N 205.456 -1.28612 -0.910864 0
M  V30 2090 C 206.406 -1.09423 -2.00026 0
M  V30 2091 C 207.39 -0.0170079 -1.60891 0
M  V30 2092 O 208.582 -0.237472 -1.754 0
M  V30 2093 C 205.711 -0.76114 -3.34756 0
M  V30 2094 C 204.797 -1.87735 -3.80285 0
M  V30 2095 N 205.188 -3.11938 -3.98156 0
M  V30 2096 C 203.486 -1.76786 -4.09467 0
M  V30 2097 C 204.187 -3.84687 -4.36338 0
M  V30 2098 N 203.163 -3.12555 -4.44759 0
M  V30 2099 H 206.965 -2.03658 -2.11898 0
M  V30 2100 H 204.479 -1.19573 -1.09891 0
M  V30 2101 H 206.476 -0.604743 -4.12491 0
M  V30 2102 H 205.136 0.173403 -3.24237 0
M  V30 2103 H 206.147 -3.47516 -3.83996 0
M  V30 2104 H 202.824 -0.905284 -4.07567 0
M  V30 2105 H 204.214 -4.91518 -4.58104 0
M  V30 2106 N 206.934 1.1197 -1.10907 0
M  V30 2107 C 208.182 1.83225 -0.852819 0
M  V30 2108 C 208.503 1.84769 0.623341 0
M  V30 2109 O 207.773 1.3143 1.45269 0
M  V30 2110 H 206.353 0.67849 -0.312507 0
M  V30 2111 H 209.015 1.3556 -1.40033 0
M  V30 2112 H 208.111 2.87265 -1.22005 0
M  V30 2113 N 208.412 0.89855 1.29475 0
M  V30 2114 C 209.659 0.523882 1.95606 0
M  V30 2115 C 209.987 -0.929608 1.70847 0
M  V30 2116 O 209.242 -1.67401 1.01367 0
M  V30 2117 C 209.541 0.761398 3.49195 0
M  V30 2118 C 209.207 2.19207 3.94029 0
M  V30 2119 C 207.869 2.58326 4.05982 0
M  V30 2120 C 210.221 3.12379 4.17216 0
M  V30 2121 C 207.549 3.898 4.38489 0
M  V30 2122 C 209.901 4.43401 4.51197 0
M  V30 2123 C 208.565 4.82394 4.61359 0
M  V30 2124 H 207.835 0.191702 0.715773 0
M  V30 2125 H 210.482 1.13699 1.54094 0
M  V30 2126 H 208.787 0.0653622 3.91745 0
M  V30 2127 H 210.484 0.450904 3.98457 0
M  V30 2128 H 207.074 1.87846 3.85242 0
M  V30 2129 H 211.258 2.83371 4.07449 0
M  V30 2130 H 206.514 4.19734 4.44559 0
M  V30 2131 H 210.688 5.15623 4.68087 0
M  V30 2132 H 208.315 5.84306 4.86303 0
M  V30 2133 N 209.89 -1.43072 0.660911 0
M  V30 2134 C 210.838 -2.32569 -0.0378199 0
M  V30 2135 C 211.832 -1.49046 -0.805092 0
M  V30 2136 O 213.038 -1.65206 -0.714624 0
M  V30 2137 H 209.413 -0.75136 -0.031019 0
M  V30 2138 H 211.384 -2.89216 0.734609 0
M  V30 2139 C 210.133 -3.33453 -0.985124 0
M  V30 2140 H 209.456 -3.97752 -0.404147 0
M  V30 2141 H 210.896 -3.98691 -1.44297 0
M  V30 2142 C 209.355 -2.64642 -2.08486 0
M  V30 2143 O 209.885 -2.46776 -3.16961 0
M  V30 2144 N 208.091 -2.23891 -1.8526 0
M  V30 2145 H 207.638 -2.38621 -0.970449 0
M  V30 2146 H 207.596 -1.78181 -2.59034 0
M  V30 2147 N 211.368 -0.403325 -1.52352 0
M  V30 2148 C 212.315 0.425011 -2.26853 0
M  V30 2149 C 213.285 1.04598 -1.29029 0
M  V30 2150 O 214.47 1.07135 -1.57882 0
M  V30 2151 C 211.61 1.53888 -3.08889 0
M  V30 2152 C 210.723 0.939396 -4.21663 0
M  V30 2153 C 209.858 2.02547 -4.91068 0
M  V30 2154 C 208.897 1.40263 -5.95813 0
M  V30 2155 N 208.034 2.4286 -6.58759 0
M  V30 2156 H 212.874 -0.21674 -2.97211 0
M  V30 2157 H 210.411 -0.118722 -1.4662 0
M  V30 2158 H 212.369 2.19558 -3.54753 0
M  V30 2159 H 210.999 2.15074 -2.40714 0
M  V30 2160 H 210.051 0.171898 -3.80011 0
M  V30 2161 H 211.363 0.44436 -4.96817 0
M  V30 2162 H 210.517 2.75958 -5.40308 0
M  V30 2163 H 209.256 2.55415 -4.15469 0
M  V30 2164 H 208.261 0.653833 -5.45898 0
M  V30 2165 H 209.486 0.881719 -6.73352 0
M  V30 2166 H 207.432 2.94871 -5.85992 0
M  V30 2167 H 207.349 1.98152 -7.2957 0
M  V30 2168 H 208.617 3.15858 -7.12639 0
M  V30 2169 N 212.846 1.57033 -0.133567 0
M  V30 2170 C 214.257 1.82593 0.389464 0
M  V30 2171 C 214.608 1.05156 1.6564 0
M  V30 2172 O 213.733 0.292644 2.14412 0
M  V30 2173 C 214.328 3.31204 0.713377 0
M  V30 2174 C 212.887 3.57393 1.18098 0
M  V30 2175 C 212.034 2.76598 0.197126 0
M  V30 2176 H 214.985 1.54598 -0.358481 0
M  V30 2177 H 215.006 3.46627 1.56939 0
M  V30 2178 H 214.518 3.87537 -0.2089 0
M  V30 2179 H 212.619 3.06433 2.11966 0
M  V30 2180 H 212.732 4.65915 1.11624 0
M  V30 2181 H 211.096 2.45257 0.687088 0
M  V30 2182 H 211.879 3.35697 -0.718504 0
M  V30 2183 N 214.325 -0.140222 1.56975 0
M  V30 2184 C 215.553 -0.866437 1.87884 0
M  V30 2185 C 215.968 -1.74428 0.722517 0
M  V30 2186 O 215.325 -1.79891 -0.30749 0
M  V30 2187 C 215.376 -1.71753 3.18093 0
M  V30 2188 O 215.097 -0.875056 4.29272 0
M  V30 2189 C 216.598 -2.55074 3.62563 0
M  V30 2190 H 213.818 -0.25019 0.622612 0
M  V30 2191 H 216.362 -0.130977 2.0408 0
M  V30 2192 H 214.517 -2.40598 3.03631 0
M  V30 2193 H 214.931 -1.46002 5.03769 0
M  V30 2194 H 216.405 -3.10356 4.5649 0
M  V30 2195 H 216.882 -3.31434 2.88181 0
M  V30 2196 H 217.488 -1.91509 3.79743 0
M  V30 2197 N 215.803 -1.52179 -0.40978 0
M  V30 2198 C 217.08 -1.56769 -1.16974 0
M  V30 2199 C 217.46 -0.348322 -2.08206 0
M  V30 2200 O 216.808 0.664862 -2.18613 0
M  V30 2201 C 217.018 -2.89603 -1.9476 0
M  V30 2202 C 218.366 -3.42579 -2.50849 0
M  V30 2203 O 219.39 -2.91338 -2.04941 0
M  V30 2204 O 218.249 -4.32054 -3.34652 0
M  V30 2205 H 215.343 -0.631439 -0.534054 0
M  V30 2206 H 217.889 -1.64507 -0.416613 0
M  V30 2207 H 216.661 -3.698 -1.27921 0
M  V30 2208 H 216.284 -2.85155 -2.77079 0
M  V30 2209 N 217.281 0.66697 -1.42791 0
M  V30 2210 C 218.509 1.45505 -1.47091 0
M  V30 2211 C 218.924 1.8861 -0.0845873 0
M  V30 2212 O 218.281 1.58632 0.90234 0
M  V30 2213 C 218.332 2.69906 -2.40485 0
M  V30 2214 O 218.053 2.28608 -3.73725 0
M  V30 2215 C 219.554 3.63396 -2.53886 0
M  V30 2216 H 216.774 0.447459 -0.500022 0
M  V30 2217 H 219.318 0.818866 -1.8739 0
M  V30 2218 H 217.473 3.29696 -2.03419 0
M  V30 2219 H 217.887 3.08997 -4.23817 0
M  V30 2220 H 219.361 4.47387 -3.2334 0
M  V30 2221 H 219.838 4.09824 -1.57927 0
M  V30 2222 H 220.444 3.09495 -2.91706 0
M  V30 2223 N 218.759 1.29093 0.90403 0
M  V30 2224 C 220.005 1.16986 1.65656 0
M  V30 2225 C 220.338 -0.278925 1.92186 0
M  V30 2226 O 219.613 -1.2019 1.5292 0
M  V30 2227 C 219.896 1.97908 3.0084 0
M  V30 2228 C 219.749 3.50903 2.81403 0
M  V30 2229 C 221.068 1.80208 4.01513 0
M  V30 2230 H 218.187 0.426346 0.601164 0
M  V30 2231 H 220.829 1.58518 1.04747 0
M  V30 2232 H 218.979 1.62616 3.52829 0
M  V30 2233 H 220.651 3.96153 2.36348 0
M  V30 2234 H 218.894 3.76045 2.1627 0
M  V30 2235 H 219.565 4.02791 3.77443 0
M  V30 2236 H 222.041 2.11025 3.58619 0
M  V30 2237 H 220.917 2.39184 4.94047 0
M  V30 2238 H 221.178 0.756119 4.35586 0
M  V30 2239 N 220.237 -1.11381 1.11499 0
M  V30 2240 C 221.185 -2.19522 0.768956 0
M  V30 2241 C 222.179 -1.67693 -0.239857 0
M  V30 2242 O 223.385 -1.79727 -0.0990755 0
M  V30 2243 H 219.76 -0.715711 0.230786 0
M  V30 2244 H 221.731 -2.45954 1.68964 0
M  V30 2245 C 220.48 -3.46945 0.229073 0
M  V30 2246 H 219.803 -3.8718 0.996596 0
M  V30 2247 H 221.243 -4.23993 0.0251441 0
M  V30 2248 C 219.702 -3.2042 -1.04079 0
M  V30 2249 O 220.232 -3.41178 -2.12038 0
M  V30 2250 N 218.438 -2.74151 -0.963823 0
M  V30 2251 H 217.985 -2.57459 -0.0851722 0
M  V30 2252 H 217.943 -2.56781 -1.81414 0
M  V30 2253 N 221.715 -0.905404 -1.28997 0
M  V30 2254 C 222.943 -0.549846 -1.9946 0
M  V30 2255 C 223.358 0.866834 -1.67724 0
M  V30 2256 O 222.715 1.57298 -0.925404 0
M  V30 2257 C 222.766 -0.739387 -3.53858 0
M  V30 2258 O 222.487 -2.10031 -3.84472 0
M  V30 2259 C 223.988 -0.389541 -4.41585 0
M  V30 2260 H 221.208 -0.210429 -0.637151 0
M  V30 2261 H 223.752 -1.21632 -1.64396 0
M  V30 2262 H 221.907 -0.120023 -3.87214 0
M  V30 2263 H 222.321 -2.13385 -4.79132 0
M  V30 2264 H 223.795 -0.572972 -5.49018 0
M  V30 2265 H 224.272 0.673756 -4.34001 0
M  V30 2266 H 224.878 -0.986089 -4.1371 0
M  V30 2267 N 223.193 1.4272 -0.668489 0
M  V30 2268 C 224.14 2.30796 0.0137489 0
M  V30 2269 C 225.11 1.4561 0.799177 0
M  V30 2270 O 226.295 1.74453 0.772702 0
M  V30 2271 C 223.435 3.31377 0.963507 0
M  V30 2272 C 222.548 4.31655 0.172569 0
M  V30 2273 C 221.683 5.19312 1.1175 0
M  V30 2274 C 220.722 6.11274 0.317886 0
M  V30 2275 N 219.859 6.91504 1.2152 0
M  V30 2276 H 224.699 2.88585 -0.743161 0
M  V30 2277 H 222.236 1.42154 -0.378226 0
M  V30 2278 H 224.194 3.88214 1.52792 0
M  V30 2279 H 222.824 2.75202 1.68712 0
M  V30 2280 H 221.876 3.76988 -0.508374 0
M  V30 2281 H 223.188 4.96779 -0.448527 0
M  V30 2282 H 222.342 5.80851 1.75206 0
M  V30 2283 H 221.081 4.5435 1.77249 0
M  V30 2284 H 220.086 5.48809 -0.329918 0
M  V30 2285 H 221.311 6.78283 -0.332917 0
M  V30 2286 H 219.257 6.29176 1.85671 0
M  V30 2287 H 219.174 7.53209 0.649036 0
M  V30 2288 H 220.442 7.57535 1.83742 0
M  V30 2289 N 224.671 0.411399 1.52136 0
M  V30 2290 C 225.919 -0.163322 2.01439 0
M  V30 2291 C 226.24 -1.45453 1.29879 0
M  V30 2292 O 225.51 -1.91225 0.4254 0
M  V30 2293 H 224.09 -0.0633447 0.744309 0
M  V30 2294 H 226.752 0.548161 1.87033 0
M  V30 2295 H 225.848 -0.357817 3.10042 0
M  V30 2296 N 226.149 -1.5696 0.141893 0
M  V30 2297 C 227.398 -1.95135 -0.510427 0
M  V30 2298 C 227.711 -1.02896 -1.66348 0
M  V30 2299 O 228.917 -1.30629 -2.38009 0
M  V30 2300 C 227.373 -3.46876 -0.959427 0
M  V30 2301 C 226.981 -4.47691 0.166419 0
M  V30 2302 C 228.725 -3.93927 -1.58183 0
M  V30 2303 C 226.632 -5.90636 -0.300565 0
M  V30 2304 H 225.562 -0.728494 -0.194454 0
M  V30 2305 H 228.213 -1.8211 0.22542 0
M  V30 2306 H 226.595 -3.55215 -1.75038 0
M  V30 2307 H 227.769 -4.51043 0.94325 0
M  V30 2308 H 226.084 -4.10527 0.696905 0
M  V30 2309 H 228.681 -4.98158 -1.94275 0
M  V30 2310 H 229.024 -3.3519 -2.46888 0
M  V30 2311 H 229.557 -3.88484 -0.855863 0
M  V30 2312 H 226.296 -6.5318 0.550989 0
M  V30 2313 H 225.816 -5.90655 -1.04338 0
M  V30 2314 H 227.495 -6.42588 -0.754265 0
M  V30 2315 N 227.627 0.131896 -1.57047 0
M  V30 2316 C 228.852 0.860418 -1.8871 0
M  V30 2317 C 229.277 1.73251 -0.73251 0
M  V30 2318 O 228.635 1.785 0.317429 0
M  V30 2319 C 228.683 1.68047 -3.19049 0
M  V30 2320 O 227.787 2.7862 -3.04047 0
M  V30 2321 H 227.128 0.238743 -0.619595 0
M  V30 2322 H 229.658 0.118169 -2.04258 0
M  V30 2323 H 229.668 2.07238 -3.51449 0
M  V30 2324 H 228.343 1.04018 -4.02682 0
M  V30 2325 H 226.92 2.42726 -2.83088 0
M  V30 2326 N 229.106 1.52395 0.401703 0
M  V30 2327 C 230.334 1.70676 1.16949 0
M  V30 2328 C 230.749 0.419503 1.8408 0
M  V30 2329 O 230.106 -0.605061 1.72178 0
M  V30 2330 C 230.157 2.84753 2.22706 0
M  V30 2331 O 229.878 4.08495 1.58314 0
M  V30 2332 C 231.379 3.14608 3.12309 0
M  V30 2333 H 228.599 0.571787 0.351142 0
M  V30 2334 H 231.143 1.98987 0.471652 0
M  V30 2335 H 229.298 2.58941 2.88147 0
M  V30 2336 H 229.712 4.72117 2.28485 0
M  V30 2337 H 231.186 3.97923 3.82572 0
M  V30 2338 H 231.663 2.28464 3.75101 0
M  V30 2339 H 232.269 3.42212 2.52529 0
M  V30 2340 N 230.584 -0.659388 1.43143 0
M  V30 2341 C 231.995 -1.24041 1.39537 0
M  V30 2342 C 232.346 -1.95963 0.0963364 0
M  V30 2343 O 231.471 -2.00892 -0.804438 0
M  V30 2344 C 232.066 -2.25601 2.52764 0
M  V30 2345 C 230.625 -2.79195 2.52443 0
M  V30 2346 C 229.772 -1.53743 2.30778 0
M  V30 2347 H 232.723 -0.451792 1.52133 0
M  V30 2348 H 232.744 -3.07651 2.23899 0
M  V30 2349 H 232.256 -1.73226 3.47296 0
M  V30 2350 H 230.357 -3.35649 1.61773 0
M  V30 2351 H 230.47 -3.2716 3.50004 0
M  V30 2352 H 228.834 -1.80869 1.79328 0
M  V30 2353 H 229.617 -1.03312 3.27386 0
M  V30 2354 N 232.062 -1.29571 -0.897171 0
M  V30 2355 C 233.308 -1.17863 -1.65034 0
M  V30 2356 C 233.641 0.268729 -1.92332 0
M  V30 2357 O 232.916 1.19378 -1.53555 0
M  V30 2358 C 233.199 -1.995 -2.99786 0
M  V30 2359 C 233.052 -3.5239 -2.79538 0
M  V30 2360 C 234.371 -1.82335 -4.00552 0
M  V30 2361 H 231.49 -0.429528 -0.598895 0
M  V30 2362 H 234.132 -1.59072 -1.03905 0
M  V30 2363 H 232.282 -1.64485 -3.51962 0
M  V30 2364 H 233.954 -3.97401 -2.34244 0
M  V30 2365 H 232.197 -3.77187 -2.14273 0
M  V30 2366 H 232.868 -4.04787 -3.75302 0
M  V30 2367 H 235.344 -2.12924 -3.57495 0
M  V30 2368 H 234.22 -2.41801 -4.92771 0
M  V30 2369 H 234.481 -0.779209 -4.35179 0
M  V30 2370 N 233.54 1.10788 -1.12088 0
M  V30 2371 C 234.45 2.20599 -0.798338 0
M  V30 2372 C 235.466 1.72712 0.21135 0
M  V30 2373 O 236.642 2.01348 0.0458477 0
M  V30 2374 C 233.707 3.45771 -0.253674 0
M  V30 2375 C 232.768 4.08411 -1.32283 0
M  V30 2376 C 232.001 5.27608 -0.80406 0
M  V30 2377 O 232.224 5.69241 0.363478 0
M  V30 2378 O 231.158 5.8101 -1.57198 0
M  V30 2379 H 234.984 2.50614 -1.7154 0
M  V30 2380 H 232.569 1.19454 -0.897275 0
M  V30 2381 H 234.451 4.21376 0.0453691 0
M  V30 2382 H 233.126 3.1739 0.636005 0
M  V30 2383 H 232.033 3.34507 -1.67499 0
M  V30 2384 H 233.366 4.40986 -2.18614 0
M  V30 2385 N 235.018 0.912232 1.28515 0
M  V30 2386 C 236.266 0.543523 1.94654 0
M  V30 2387 C 236.587 -0.9155 1.72173 0
M  V30 2388 O 235.857 -1.64708 1.06058 0
M  V30 2389 H 234.437 0.198017 0.720277 0
M  V30 2390 H 237.099 1.16126 1.56527 0
M  V30 2391 H 236.195 0.736684 3.03281 0
M  V30 2392 N 236.496 -1.42363 0.676048 0
M  V30 2393 C 237.721 -2.06377 0.205705 0
M  V30 2394 C 238.146 -1.50463 -1.12883 0
M  V30 2395 O 237.504 -0.623619 -1.70237 0
M  V30 2396 C 237.552 -3.60277 0.152655 0
M  V30 2397 O 236.656 -4.02935 -0.87845 0
M  V30 2398 H 235.997 -0.655588 0.105359 0
M  V30 2399 H 238.527 -1.82475 0.925412 0
M  V30 2400 H 238.537 -4.07993 -0.0230675 0
M  V30 2401 H 237.212 -4.00346 1.12675 0
M  V30 2402 H 235.789 -3.66764 -0.673668 0
M  V30 2403 N 237.974 -0.419461 -1.51915 0
M  V30 2404 C 238.906 0.43646 -2.25006 0
M  V30 2405 C 239.919 1.00149 -1.28351 0
M  V30 2406 O 241.108 0.898674 -1.54227 0
M  V30 2407 C 238.208 1.6206 -2.9764 0
M  V30 2408 C 237.381 1.17763 -4.21249 0
M  V30 2409 C 236.44 2.22985 -4.76617 0
M  V30 2410 O 235.466 1.83151 -5.38929 0
M  V30 2411 N 236.668 3.55271 -4.59089 0
M  V30 2412 H 239.433 -0.18989 -2.99098 0
M  V30 2413 H 236.994 -0.247386 -1.59999 0
M  V30 2414 H 238.986 2.32038 -3.31573 0
M  V30 2415 H 237.556 2.15266 -2.2667 0
M  V30 2416 H 236.776 0.305582 -3.93014 0
M  V30 2417 H 238.064 0.858781 -5.015 0
M  V30 2418 H 237.462 3.90377 -4.09417 0
M  V30 2419 H 236.019 4.21195 -4.97432 0
M  V30 2420 N 239.452 1.56882 -0.150215 0
M  V30 2421 C 240.682 2.00302 0.506213 0
M  V30 2422 C 241.09 1.02934 1.58749 0
M  V30 2423 O 240.433 0.0188384 1.8369 0
M  V30 2424 C 240.495 3.40156 1.16337 0
M  V30 2425 C 240.159 4.56439 0.226311 0
M  V30 2426 C 241.156 5.17012 -0.547265 0
M  V30 2427 C 238.841 5.02136 0.128279 0
M  V30 2428 C 240.835 6.21693 -1.40629 0
M  V30 2429 C 238.522 6.06672 -0.734345 0
M  V30 2430 C 239.52 6.6632 -1.50023 0
M  V30 2431 O 239.208 7.68831 -2.34848 0
M  V30 2432 H 238.94 0.662182 0.135984 0
M  V30 2433 H 241.494 2.03961 -0.242746 0
M  V30 2434 H 239.724 3.33346 1.96004 0
M  V30 2435 H 241.413 3.67663 1.71985 0
M  V30 2436 H 242.179 4.82603 -0.48158 0
M  V30 2437 H 238.058 4.55435 0.714157 0
M  V30 2438 H 241.602 6.68179 -2.00455 0
M  V30 2439 H 237.499 6.40507 -0.801309 0
M  V30 2440 H 238.267 7.86065 -2.28131 0
M  V30 2441 N 240.93 -0.123565 1.57115 0
M  V30 2442 C 241.88 -1.1575 1.96433 0
M  V30 2443 C 242.864 -1.37313 0.838686 0
M  V30 2444 O 244.056 -1.38482 1.10235 0
M  V30 2445 C 241.185 -2.48526 2.36833 0
M  V30 2446 C 240.271 -2.30457 3.5602 0
M  V30 2447 N 240.662 -1.8219 4.71848 0
M  V30 2448 C 238.96 -2.61129 3.61563 0
M  V30 2449 C 239.661 -1.77721 5.53886 0
M  V30 2450 N 238.637 -2.21899 4.96248 0
M  V30 2451 H 242.439 -0.776797 2.83449 0
M  V30 2452 H 239.953 -0.331364 1.58983 0
M  V30 2453 H 241.95 -3.233 2.63216 0
M  V30 2454 H 240.61 -2.87358 1.5118 0
M  V30 2455 H 241.621 -1.51805 4.95152 0
M  V30 2456 H 238.298 -3.03678 2.86507 0
M  V30 2457 H 239.688 -1.41697 6.56789 0
M  V30 2458 N 242.408 -1.52605 -0.393616 0
M  V30 2459 C 243.654 -1.67672 -1.14079 0
M  V30 2460 C 243.987 -0.413121 -1.89755 0
M  V30 2461 O 243.262 0.588952 -1.85369 0
M  V30 2462 C 243.545 -2.9088 -2.12276 0
M  V30 2463 C 243.398 -4.27329 -1.40394 0
M  V30 2464 C 244.717 -3.09628 -3.12759 0
M  V30 2465 H 241.836 -0.610168 -0.413356 0
M  V30 2466 H 244.478 -1.85193 -0.424696 0
M  V30 2467 H 242.628 -2.76073 -2.73342 0
M  V30 2468 H 244.3 -4.53894 -0.82327 0
M  V30 2469 H 242.543 -4.2802 -0.705801 0
M  V30 2470 H 243.214 -5.09615 -2.12123 0
M  V30 2471 H 245.69 -3.23436 -2.61779 0
M  V30 2472 H 244.566 -3.97322 -3.78717 0
M  V30 2473 H 244.827 -2.23637 -3.81365 0
M  V30 2474 N 243.887 0.651787 -1.4349 0
M  V30 2475 C 245.134 1.41167 -1.45183 0
M  V30 2476 C 245.462 1.94349 -0.0766601 0
M  V30 2477 O 244.717 1.72804 0.918555 0
M  V30 2478 C 245.016 2.60914 -2.44251 0
M  V30 2479 C 244.682 2.26142 -3.9009 0
M  V30 2480 C 243.344 2.16371 -4.2981 0
M  V30 2481 C 245.696 1.98334 -4.81989 0
M  V30 2482 C 243.024 1.7695 -5.5938 0
M  V30 2483 C 245.376 1.6041 -6.11924 0
M  V30 2484 C 244.04 1.49166 -6.5062 0
M  V30 2485 H 243.31 0.516566 -0.531263 0
M  V30 2486 H 245.957 0.741099 -1.76579 0
M  V30 2487 H 244.262 3.3311 -2.06265 0
M  V30 2488 H 245.959 3.19127 -2.42815 0
M  V30 2489 H 242.549 2.34658 -3.58655 0
M  V30 2490 H 246.733 2.04803 -4.52072 0
M  V30 2491 H 241.989 1.66831 -5.88198 0
M  V30 2492 H 246.163 1.37925 -6.82605 0
M  V30 2493 H 243.79 1.1839 -7.50925 0
M  V30 2494 N 245.365 1.30045 0.890287 0
M  V30 2495 C 246.328 1.15963 1.977 0
M  V30 2496 C 247.328 0.0923777 1.60534 0
M  V30 2497 O 248.518 0.340071 1.70848 0
M  V30 2498 C 245.65 0.775451 3.31963 0
M  V30 2499 H 246.843 2.12502 2.11619 0
M  V30 2500 H 244.396 1.13366 1.07601 0
M  V30 2501 H 245.131 -0.189671 3.23745 0
M  V30 2502 H 244.916 1.54668 3.60306 0
M  V30 2503 H 246.406 0.700251 4.11687 0
M  V30 2504 N 246.843 -1.10192 1.12674 0
M  V30 2505 C 248.089 -1.82475 0.884915 0
M  V30 2506 C 248.422 -1.85093 -0.58773 0
M  V30 2507 O 247.697 -1.3134 -1.43457 0
M  V30 2508 C 247.98 -3.29018 1.46353 0
M  V30 2509 C 247.833 -3.34718 3.00473 0
M  V30 2510 C 249.152 -4.25473 1.12519 0
M  V30 2511 H 246.271 -0.662492 0.322915 0
M  V30 2512 H 248.913 -1.2913 1.39375 0
M  V30 2513 H 247.063 -3.74576 1.03077 0
M  V30 2514 H 248.735 -2.97622 3.52447 0
M  V30 2515 H 246.978 -2.74541 3.35872 0
M  V30 2516 H 247.649 -4.37918 3.36053 0
M  V30 2517 H 250.125 -3.88161 1.499 0
M  V30 2518 H 249.001 -5.26365 1.55663 0
M  V30 2519 H 249.262 -4.42084 0.0377407 0
M  V30 2520 N 248.321 -0.919034 -1.28029 0
M  V30 2521 C 249.569 -0.553838 -1.94363 0
M  V30 2522 C 249.89 0.906357 -1.72656 0
M  V30 2523 O 249.16 1.64143 -1.0693 0
M  V30 2524 H 247.74 -0.201834 -0.719216 0
M  V30 2525 H 250.402 -1.16954 -1.55909 0
M  V30 2526 H 249.498 -0.752758 -3.02886 0
M  V30 2527 N 249.799 1.42003 -0.683588 0
M  V30 2528 C 251.047 2.01015 -0.209101 0
M  V30 2529 C 251.368 1.54365 1.19149 0
M  V30 2530 O 250.638 0.769083 1.80172 0
M  V30 2531 H 249.218 0.743294 -0.074315 0
M  V30 2532 H 251.88 1.73798 -0.882066 0
M  V30 2533 H 250.976 3.11343 -0.2172 0
M  V30 2534 N 251.277 0.427512 1.51691 0
M  V30 2535 C 252.187 -0.39527 2.31246 0
M  V30 2536 C 253.203 -1.03674 1.39742 0
M  V30 2537 O 254.379 -1.03425 1.72816 0
M  V30 2538 C 251.444 -1.48706 3.13189 0
M  V30 2539 C 250.505 -0.866743 4.20459 0
M  V30 2540 C 249.738 -1.90651 4.98486 0
M  V30 2541 O 249.961 -3.12733 4.77026 0
M  V30 2542 O 248.895 -1.5025 5.82845 0
M  V30 2543 H 252.721 0.253918 3.02637 0
M  V30 2544 H 250.306 0.190274 1.48183 0
M  V30 2545 H 252.188 -2.12047 3.64162 0
M  V30 2546 H 250.863 -2.12051 2.44573 0
M  V30 2547 H 249.77 -0.195544 3.73589 0
M  V30 2548 H 251.103 -0.276934 4.9142 0
M  V30 2549 N 252.755 -1.56801 0.158532 0
M  V30 2550 C 254.166 -1.83189 -0.360366 0
M  V30 2551 C 254.517 -1.07778 -1.63946 0
M  V30 2552 O 253.642 -0.326718 -2.13919 0
M  V30 2553 C 254.237 -3.32297 -0.660595 0
M  V30 2554 C 252.796 -3.59227 -1.12398 0
M  V30 2555 C 251.943 -2.76877 -0.153097 0
M  V30 2556 H 254.894 -1.54008 0.383031 0
M  V30 2557 H 254.915 -3.4908 -1.51405 0
M  V30 2558 H 254.427 -3.87156 0.270527 0
M  V30 2559 H 252.528 -3.09766 -2.07064 0
M  V30 2560 H 252.641 -4.67632 -1.04197 0
M  V30 2561 H 251.005 -2.46319 -0.647983 0
M  V30 2562 H 251.788 -3.34511 0.77182 0
M  V30 2563 N 254.233 0.115231 -1.57178 0
M  V30 2564 C 255.163 1.1423 -2.03651 0
M  V30 2565 C 256.144 1.42967 -0.921655 0
M  V30 2566 O 257.329 1.53343 -1.19162 0
M  V30 2567 C 254.459 2.4675 -2.44401 0
M  V30 2568 C 253.413 2.32467 -3.59365 0
M  V30 2569 C 252.739 3.69984 -3.86026 0
M  V30 2570 C 254.039 1.78203 -4.90959 0
M  V30 2571 H 255.733 0.755749 -2.89705 0
M  V30 2572 H 253.279 0.362093 -1.39373 0
M  V30 2573 H 255.232 3.18854 -2.75517 0
M  V30 2574 H 253.956 2.87302 -1.55322 0
M  V30 2575 H 252.615 1.62811 -3.28463 0
M  V30 2576 H 252.263 4.08028 -2.94147 0
M  V30 2577 H 251.963 3.61279 -4.63412 0
M  V30 2578 H 253.487 4.43587 -4.19599 0
M  V30 2579 H 254.901 2.40128 -5.20587 0
M  V30 2580 H 253.298 1.8031 -5.72371 0
M  V30 2581 H 254.368 0.739876 -4.79222 0
M  V30 2582 N 255.711 1.52812 0.385517 0
M  V30 2583 C 256.988 1.5861 1.14465 0
M  V30 2584 C 257.368 0.381402 2.07626 0
M  V30 2585 O 256.716 -0.629999 2.19643 0
M  V30 2586 C 256.926 2.92664 1.90128 0
M  V30 2587 C 258.274 3.46526 2.45367 0
M  V30 2588 O 259.298 2.94562 2.0028 0
M  V30 2589 O 258.157 4.37323 3.27736 0
M  V30 2590 H 255.251 0.639855 0.523941 0
M  V30 2591 H 257.797 1.65149 0.390389 0
M  V30 2592 H 256.569 3.71788 1.22022 0
M  V30 2593 H 256.192 2.89527 2.72507 0
M  V30 2594 N 257.189 -0.644168 1.43834 0
M  V30 2595 C 258.119 -1.76814 1.52509 0
M  V30 2596 C 259.1 -1.65823 0.379052 0
M  V30 2597 O 260.285 -1.84781 0.597466 0
M  V30 2598 C 257.415 -3.15288 1.4564 0
M  V30 2599 C 256.369 -3.41053 2.58586 0
M  V30 2600 C 255.695 -4.79421 2.36769 0
M  V30 2601 C 256.995 -3.34902 4.00797 0
M  V30 2602 H 258.689 -1.69812 2.46586 0
M  V30 2603 H 256.235 -0.815542 1.1868 0
M  V30 2604 H 258.188 -3.93681 1.50311 0
M  V30 2605 H 256.912 -3.23043 0.480725 0
M  V30 2606 H 255.571 -2.65035 2.53282 0
M  V30 2607 H 255.219 -4.83863 1.37424 0
M  V30 2608 H 254.919 -4.9762 3.12487 0
M  V30 2609 H 256.443 -5.6006 2.43238 0
M  V30 2610 H 257.857 -4.03218 4.07539 0
M  V30 2611 H 256.254 -3.64637 4.76613 0
M  V30 2612 H 257.324 -2.32928 4.25291 0
M  V30 2613 N 258.668 -1.30515 -0.883378 0
M  V30 2614 C 259.6 -1.12846 -1.99496 0
M  V30 2615 C 260.613 -0.0712571 -1.62644 0
M  V30 2616 O 261.802 -0.317432 -1.75655 0
M  V30 2617 C 258.902 -0.699123 -3.3161 0
M  V30 2618 C 258.075 -1.83842 -3.96889 0
M  V30 2619 C 257.134 -1.39737 -5.07307 0
M  V30 2620 O 256.16 -2.10485 -5.28852 0
M  V30 2621 N 257.362 -0.277279 -5.79837 0
M  V30 2622 H 260.127 -2.08585 -2.15203 0
M  V30 2623 H 257.688 -1.22672 -1.05656 0
M  V30 2624 H 259.68 -0.387044 -4.02845 0
M  V30 2625 H 258.25 0.166276 -3.12157 0
M  V30 2626 H 257.47 -2.31853 -3.18807 0
M  V30 2627 H 258.758 -2.60187 -4.37241 0
M  V30 2628 H 258.156 0.3122 -5.64838 0
M  V30 2629 H 256.713 -0.0246623 -6.51795 0
M  V30 2630 N 260.146 1.09593 -1.13257 0
M  V30 2631 C 261.394 1.81375 -0.891492 0
M  V30 2632 C 261.715 1.86049 0.584009 0
M  V30 2633 O 260.985 1.34481 1.42449 0
M  V30 2634 H 259.565 0.671708 -0.326828 0
M  V30 2635 H 262.227 1.3256 -1.42877 0
M  V30 2636 H 261.323 2.84612 -1.28071 0
M  V30 2637 N 261.624 0.925811 1.2754 0
M  V30 2638 C 262.554 0.440748 2.29303 0
M  V30 2639 C 263.535 -0.497971 1.62648 0
M  V30 2640 O 264.72 -0.403126 1.8997 0
M  V30 2641 C 261.85 -0.309048 3.45922 0
M  V30 2642 C 260.804 0.54166 4.24559 0
M  V30 2643 C 260.13 -0.337191 5.33636 0
M  V30 2644 C 261.43 1.80516 4.90114 0
M  V30 2645 H 263.124 1.29121 2.70126 0
M  V30 2646 H 260.67 0.622323 1.29858 0
M  V30 2647 H 262.623 -0.659315 4.1621 0
M  V30 2648 H 261.347 -1.19352 3.04011 0
M  V30 2649 H 260.006 0.874609 3.56014 0
M  V30 2650 H 259.654 -1.22056 4.87966 0
M  V30 2651 H 259.354 0.228497 5.87156 0
M  V30 2652 H 260.878 -0.683072 6.06767 0
M  V30 2653 H 262.292 1.52307 5.52698 0
M  V30 2654 H 260.689 2.3142 5.53683 0
M  V30 2655 H 261.759 2.52581 4.13921 0
M  V30 2656 N 263.102 -1.41638 0.69111 0
M  V30 2657 C 264.348 -2.01598 0.220519 0
M  V30 2658 C 264.681 -1.54594 -1.17535 0
M  V30 2659 O 263.956 -0.755177 -1.79241 0
M  V30 2660 C 264.239 -3.59062 0.273243 0
M  V30 2661 C 264.092 -4.16203 1.70573 0
M  V30 2662 C 265.411 -4.38546 -0.369457 0
M  V30 2663 H 262.53 -0.732468 0.0816045 0
M  V30 2664 H 265.172 -1.68445 0.878986 0
M  V30 2665 H 263.322 -3.87435 -0.287411 0
M  V30 2666 H 264.994 -3.98722 2.31989 0
M  V30 2667 H 263.237 -3.71414 2.2413 0
M  V30 2668 H 263.908 -5.25358 1.69419 0
M  V30 2669 H 266.384 -4.1596 0.107977 0
M  V30 2670 H 265.26 -5.48069 -0.302002 0
M  V30 2671 H 265.521 -4.17662 -1.44951 0
M  V30 2672 N 264.58 -0.43555 -1.51462 0
M  V30 2673 C 265.808 0.130242 -2.0649 0
M  V30 2674 C 266.223 1.36614 -1.30315 0
M  V30 2675 O 265.58 1.78869 -0.362223 0
M  V30 2676 C 265.631 0.454253 -3.58635 0
M  V30 2677 O 265.352 -0.73259 -4.31931 0
M  V30 2678 C 266.853 1.07091 -4.3017 0
M  V30 2679 H 264.073 0.00871669 -0.670943 0
M  V30 2680 H 266.617 -0.614117 -1.95061 0
M  V30 2681 H 264.772 1.14851 -3.69984 0
M  V30 2682 H 265.186 -0.455787 -5.22516 0
M  V30 2683 H 266.66 1.24764 -5.37716 0
M  V30 2684 H 267.137 2.05144 -3.88346 0
M  V30 2685 H 267.743 0.416089 -4.2326 0
M  V30 2686 N 266.058 1.56714 -0.166846 0
M  V30 2687 C 267.335 1.88412 0.525373 0
M  V30 2688 C 267.715 1.07602 1.81618 0
M  V30 2689 O 267.063 0.168621 2.27877 0
M  V30 2690 C 267.273 3.40363 0.771613 0
M  V30 2691 C 268.621 4.10007 1.1036 0
M  V30 2692 O 269.645 3.45655 0.860304 0
M  V30 2693 O 268.504 5.2369 1.56239 0
M  V30 2694 H 265.598 0.781587 0.270278 0
M  V30 2695 H 268.144 1.68458 -0.204946 0
M  V30 2696 H 266.916 3.91046 -0.141093 0
M  V30 2697 H 266.539 3.65914 1.55541 0
M  V30 2698 N 267.536 -0.106894 1.57237 0
M  V30 2699 C 268.499 -1.11466 2.0027 0
M  V30 2700 C 269.499 -1.33623 0.894519 0
M  V30 2701 O 270.689 -1.29935 1.16028 0
M  V30 2702 C 267.821 -2.46646 2.35327 0
M  V30 2703 H 269.014 -0.744516 2.90512 0
M  V30 2704 H 266.567 -0.351576 1.52295 0
M  V30 2705 H 267.302 -2.88558 1.48003 0
M  V30 2706 H 267.087 -2.31915 3.16161 0
M  V30 2707 H 268.577 -3.19151 2.69318 0
M  V30 2708 N 269.014 -1.53014 -0.377408 0
M  V30 2709 C 270.43 -1.42523 -0.718281 0
M  V30 2710 C 270.63 -0.55487 -1.9371 0
M  V30 2711 O 269.686 -0.0327593 -2.52479 0
M  V30 2712 C 270.999 -2.85546 -0.942539 0
M  V30 2713 C 272.547 -2.95101 -1.04329 0
M  V30 2714 C 273.022 -4.3916 -1.3001 0
M  V30 2715 N 274.513 -4.42536 -1.36806 0
M  V30 2716 C 275.248 -5.51097 -1.58364 0
M  V30 2717 N 274.744 -6.69724 -1.77317 0
M  V30 2718 N 276.537 -5.38657 -1.60638 0
M  V30 2719 H 268.688 -2.08116 0.424426 0
M  V30 2720 H 270.951 -0.939352 0.127759 0
M  V30 2721 H 270.657 -3.51499 -0.118929 0
M  V30 2722 H 270.531 -3.28493 -1.85397 0
M  V30 2723 H 272.918 -2.29309 -1.85745 0
M  V30 2724 H 272.999 -2.55566 -0.109505 0
M  V30 2725 H 272.643 -5.05521 -0.490991 0
M  V30 2726 H 272.573 -4.76258 -2.24691 0
M  V30 2727 H 275.064 -3.57039 -1.23821 0
M  V30 2728 H 275.377 -7.48233 -1.93306 0
M  V30 2729 H 273.722 -6.72732 -1.74518 0
M  V30 2730 H 276.913 -4.44948 -1.45391 0
M  V30 2731 H 277.086 -6.2333 -1.77098 0
M  V30 2732 N 270.492 0.636531 -1.44174 0
M  V30 2733 C 271.72 1.42353 -1.50144 0
M  V30 2734 C 272.135 1.88389 -0.124575 0
M  V30 2735 O 271.492 1.6051 0.868489 0
M  V30 2736 C 271.543 2.64744 -2.46156 0
M  V30 2737 O 271.264 2.20629 -3.7849 0
M  V30 2738 C 272.765 3.57929 -2.61537 0
M  V30 2739 H 269.985 0.436752 -0.5094 0
M  V30 2740 H 272.529 0.778933 -1.89084 0
M  V30 2741 H 270.684 3.25307 -2.10366 0
M  V30 2742 H 271.098 2.99938 -4.30276 0
M  V30 2743 H 272.572 4.40428 -3.32757 0
M  V30 2744 H 273.049 4.06382 -1.66585 0
M  V30 2745 H 273.655 3.03238 -2.98206 0
M  V30 2746 N 271.97 1.30982 0.876444 0
M  V30 2747 C 272.917 1.18085 1.98304 0
M  V30 2748 C 273.887 0.0682263 1.6596 0
M  V30 2749 O 275.072 0.239937 1.89285 0
M  V30 2750 C 272.212 0.887475 3.33493 0
M  V30 2751 C 271.325 2.08281 3.78475 0
M  V30 2752 C 270.46 1.72678 5.0235 0
M  V30 2753 C 269.499 2.88657 5.39762 0
M  V30 2754 N 268.636 2.53292 6.54819 0
M  V30 2755 H 273.476 2.1275 2.08666 0
M  V30 2756 H 271.013 1.05839 1.02159 0
M  V30 2757 H 272.971 0.697961 4.1132 0
M  V30 2758 H 271.601 -0.022315 3.22792 0
M  V30 2759 H 270.653 2.3833 2.96484 0
M  V30 2760 H 271.965 2.95108 4.02135 0
M  V30 2761 H 271.119 1.50151 5.87826 0
M  V30 2762 H 269.858 0.830327 4.8058 0
M  V30 2763 H 268.863 3.1184 4.52809 0
M  V30 2764 H 270.088 3.79002 5.63502 0
M  V30 2765 H 268.034 1.66163 6.34607 0
M  V30 2766 H 267.951 3.3365 6.7839 0
M  V30 2767 H 269.219 2.34143 7.43503 0
M  V30 2768 N 273.449 -1.08991 1.13837 0
M  V30 2769 C 274.679 -1.84743 0.924859 0
M  V30 2770 C 275.087 -1.81629 -0.529874 0
M  V30 2771 O 274.43 -1.21397 -1.37872 0
M  V30 2772 C 274.492 -3.33568 1.34061 0
M  V30 2773 C 274.156 -3.60425 2.80968 0
M  V30 2774 C 275.153 -3.55771 3.79108 0
M  V30 2775 C 272.838 -3.88627 3.18236 0
M  V30 2776 C 274.832 -3.78939 5.12527 0
M  V30 2777 C 272.519 -4.11449 4.51833 0
M  V30 2778 C 273.517 -4.06598 5.48787 0
M  V30 2779 O 273.205 -4.28826 6.79973 0
M  V30 2780 H 272.937 -0.590258 0.329502 0
M  V30 2781 H 275.491 -1.38598 1.51591 0
M  V30 2782 H 273.721 -3.80442 0.692853 0
M  V30 2783 H 275.41 -3.90743 1.09886 0
M  V30 2784 H 276.176 -3.34005 3.51661 0
M  V30 2785 H 272.055 -3.91526 2.43369 0
M  V30 2786 H 275.599 -3.75068 5.88192 0
M  V30 2787 H 271.496 -4.32698 4.79002 0
M  V30 2788 H 272.264 -4.46264 6.86142 0
M  V30 2789 N 274.927 -0.932562 -1.27047 0
M  V30 2790 C 275.874 -0.434072 -2.26681 0
M  V30 2791 C 276.844 0.501639 -1.58344 0
M  V30 2792 O 278.029 0.419734 -1.86126 0
M  V30 2793 C 275.169 0.30261 -3.43771 0
M  V30 2794 C 274.282 -0.667774 -4.26808 0
M  V30 2795 C 273.417 0.0892393 -5.31125 0
M  V30 2796 C 272.456 -0.873532 -6.05835 0
M  V30 2797 N 271.593 -0.148832 -7.01942 0
M  V30 2798 H 276.433 -1.28868 -2.68695 0
M  V30 2799 H 273.97 -0.646713 -1.32121 0
M  V30 2800 H 275.928 0.746092 -4.10474 0
M  V30 2801 H 274.558 1.12142 -3.02695 0
M  V30 2802 H 273.61 -1.22978 -3.59973 0
M  V30 2803 H 274.922 -1.40337 -4.78651 0
M  V30 2804 H 274.076 0.592409 -6.03801 0
M  V30 2805 H 272.815 0.85777 -4.80097 0
M  V30 2806 H 271.82 -1.38791 -5.31994 0
M  V30 2807 H 273.045 -1.64193 -6.58952 0
M  V30 2808 H 270.991 0.601365 -6.53238 0
M  V30 2809 H 270.908 -0.82391 -7.51497 0
M  V30 2810 H 272.176 0.333527 -7.78786 0
M  V30 2811 N 276.405 1.4127 -0.698611 0
M  V30 2812 C 277.315 2.34573 -0.0357891 0
M  V30 2813 C 278.331 1.56393 0.762701 0
M  V30 2814 O 279.507 1.8886 0.699564 0
M  V30 2815 C 276.572 3.35159 0.887089 0
M  V30 2816 C 275.633 4.29225 0.0804634 0
M  V30 2817 C 274.866 5.25006 0.959387 0
M  V30 2818 O 275.089 5.26314 2.19886 0
M  V30 2819 O 274.023 6.00519 0.407439 0
M  V30 2820 H 277.849 2.92838 -0.804957 0
M  V30 2821 H 275.434 1.42175 -0.458966 0
M  V30 2822 H 277.316 3.9689 1.41621 0
M  V30 2823 H 275.991 2.79333 1.6357 0
M  V30 2824 H 274.898 3.70833 -0.493328 0
M  V30 2825 H 276.231 4.88157 -0.629547 0
M  V30 2826 N 277.883 0.443576 1.51229 0
M  V30 2827 C 278.793 -0.370721 2.31652 0
M  V30 2828 C 279.809 -1.02186 1.40833 0
M  V30 2829 O 280.985 -1.01586 1.73903 0
M  V30 2830 C 278.05 -1.45376 3.14749 0
M  V30 2831 C 277.111 -0.822099 4.21355 0
M  V30 2832 C 276.344 -1.85353 5.0048 0
M  V30 2833 O 276.567 -3.07656 4.80316 0
M  V30 2834 O 275.501 -1.4406 5.84406 0
M  V30 2835 H 279.327 0.286002 3.0235 0
M  V30 2836 H 276.912 0.20598 1.47973 0
M  V30 2837 H 278.794 -2.08173 3.66391 0
M  V30 2838 H 277.469 -2.09445 2.46809 0
M  V30 2839 H 276.376 -0.155909 3.73775 0
M  V30 2840 H 277.709 -0.224797 4.91686 0
M  V30 2841 N 279.361 -1.56624 0.175154 0
M  V30 2842 C 280.609 -1.96609 -0.467885 0
M  V30 2843 C 280.93 -1.06238 -1.63519 0
M  V30 2844 O 280.2 -0.129523 -1.95471 0
M  V30 2845 H 278.78 -0.726008 -0.175845 0
M  V30 2846 H 281.442 -1.93195 0.257234 0
M  V30 2847 H 280.538 -3.00989 -0.825342 0
M  V30 2848 N 280.839 0.0985539 -1.57292 0
M  V30 2849 C 282.085 0.803867 -1.86188 0
M  V30 2850 C 282.418 1.78549 -0.763794 0
M  V30 2851 O 281.693 1.93153 0.22855 0
M  V30 2852 C 281.976 1.53568 -3.25713 0
M  V30 2853 C 281.829 0.572277 -4.46145 0
M  V30 2854 C 283.148 2.48708 -3.63087 0
M  V30 2855 H 280.267 0.290781 -0.677211 0
M  V30 2856 H 282.909 0.0675783 -1.8988 0
M  V30 2857 H 281.059 2.16332 -3.22696 0
M  V30 2858 H 282.731 -0.0480894 -4.61275 0
M  V30 2859 H 280.974 -0.114618 -4.33649 0
M  V30 2860 H 281.645 1.12139 -5.40489 0
M  V30 2861 H 284.121 1.96039 -3.67026 0
M  V30 2862 H 282.997 2.96932 -4.61652 0
M  V30 2863 H 283.258 3.32309 -2.91588 0
M  V30 2864 N 282.317 1.53212 0.369288 0
M  V30 2865 C 283.563 1.69466 1.11397 0
M  V30 2866 C 283.896 0.443257 1.89074 0
M  V30 2867 O 283.171 -0.559386 1.86282 0
M  V30 2868 C 283.454 2.9422 2.07621 0
M  V30 2869 C 283.307 4.29508 1.33577 0
M  V30 2870 C 284.626 3.14565 3.07794 0
M  V30 2871 H 281.745 0.616667 0.403597 0
M  V30 2872 H 284.387 1.85845 0.395179 0
M  V30 2873 H 282.537 2.80387 2.68916 0
M  V30 2874 H 284.209 4.55147 0.750955 0
M  V30 2875 H 282.452 4.29088 0.637618 0
M  V30 2876 H 283.123 5.12926 2.03989 0
M  V30 2877 H 285.599 3.2756 2.56601 0
M  V30 2878 H 284.475 4.03297 3.72348 0
M  V30 2879 H 284.736 2.29675 3.77759 0
M  V30 2880 N 283.795 -0.628877 1.44509 0
M  V30 2881 C 285.023 -1.41554 1.50897 0
M  V30 2882 C 285.438 -1.8832 0.134564 0
M  V30 2883 O 284.795 -1.60969 -0.859965 0
M  V30 2884 C 284.846 -2.63435 2.47556 0
M  V30 2885 O 284.567 -2.18619 3.79654 0
M  V30 2886 C 286.068 -3.56537 2.63431 0
M  V30 2887 H 283.288 -0.434044 0.511709 0
M  V30 2888 H 285.832 -0.768895 1.89495 0
M  V30 2889 H 283.987 -3.24187 2.12089 0
M  V30 2890 H 284.401 -2.97652 4.31861 0
M  V30 2891 H 285.875 -4.38657 3.35088 0
M  V30 2892 H 286.352 -4.05493 1.68738 0
M  V30 2893 H 286.958 -3.01653 2.9981 0
M  V30 2894 N 285.273 -1.31445 -0.869486 0
M  V30 2895 C 286.522 -1.20517 -1.61736 0
M  V30 2896 C 286.835 0.235341 -1.94179 0
M  V30 2897 O 288.041 0.466312 -2.67465 0
M  V30 2898 C 286.497 -2.10982 -2.91573 0
M  V30 2899 C 286.105 -3.60032 -2.66611 0
M  V30 2900 C 287.849 -2.08856 -3.69567 0
M  V30 2901 C 285.756 -4.42503 -3.92358 0
M  V30 2902 H 284.686 -0.447493 -0.606849 0
M  V30 2903 H 287.337 -1.56303 -0.96133 0
M  V30 2904 H 285.719 -1.68095 -3.58553 0
M  V30 2905 H 286.893 -4.11167 -2.08035 0
M  V30 2906 H 285.208 -3.64139 -2.0197 0
M  V30 2907 H 287.805 -2.67716 -4.62852 0
M  V30 2908 H 288.148 -1.07582 -4.02159 0
M  V30 2909 H 288.681 -2.49945 -3.09471 0
M  V30 2910 H 285.42 -5.44533 -3.64916 0
M  V30 2911 H 284.94 -3.96125 -4.50383 0
M  V30 2912 H 286.619 -4.54741 -4.60238 0
M  V30 2913 N 286.751 1.08385 -1.14413 0
M  V30 2914 C 287.698 2.15311 -0.831265 0
M  V30 2915 C 288.668 1.64751 0.211292 0
M  V30 2916 O 289.853 1.90627 0.0811674 0
M  V30 2917 C 286.993 3.43658 -0.315143 0
M  V30 2918 C 286.106 4.08064 -1.41802 0
M  V30 2919 C 285.241 5.24207 -0.859126 0
M  V30 2920 C 284.28 5.80554 -1.93967 0
M  V30 2921 N 283.417 6.88042 -1.39793 0
M  V30 2922 H 288.257 2.41415 -1.74708 0
M  V30 2923 H 285.794 1.18474 -0.871909 0
M  V30 2924 H 287.752 4.172 0.00230884 0
M  V30 2925 H 286.382 3.17839 0.56378 0
M  V30 2926 H 285.434 3.3228 -1.85187 0
M  V30 2927 H 286.746 4.45962 -2.23427 0
M  V30 2928 H 285.9 6.04689 -0.49359 0
M  V30 2929 H 284.639 4.87699 -0.011932 0
M  V30 2930 H 283.644 4.98725 -2.31415 0
M  V30 2931 H 284.869 6.19121 -2.79046 0
M  V30 2932 H 282.815 6.53493 -0.572919 0
M  V30 2933 H 282.732 7.24767 -2.15054 0
M  V30 2934 H 284 7.72255 -1.0603 0
M  V30 2935 N 288.23 0.939286 1.26551 0
M  V30 2936 C 289.458 0.602536 1.97932 0
M  V30 2937 C 289.873 -0.82206 1.69964 0
M  V30 2938 O 289.23 -1.54789 0.966784 0
M  V30 2939 C 289.281 0.832946 3.51773 0
M  V30 2940 O 289.002 2.20151 3.78768 0
M  V30 2941 C 290.503 0.506483 4.40397 0
M  V30 2942 H 287.723 0.227248 0.631347 0
M  V30 2943 H 290.267 1.25948 1.61113 0
M  V30 2944 H 288.422 0.222644 3.8676 0
M  V30 2945 H 288.836 2.26013 4.73306 0
M  V30 2946 H 290.31 0.718333 5.47306 0
M  V30 2947 H 290.787 -0.558451 4.35635 0
M  V30 2948 H 291.393 1.09543 4.10951 0
M  V30 2949 N 289.708 -1.40897 0.706093 0
M  V30 2950 C 290.957 -2.00284 0.238574 0
M  V30 2951 C 291.27 -1.56604 -1.17194 0
M  V30 2952 O 292.476 -2.08624 -1.73748 0
M  V30 2953 C 290.932 -3.57934 0.375623 0
M  V30 2954 C 290.54 -4.10591 1.79217 0
M  V30 2955 C 292.284 -4.24488 -0.0315857 0
M  V30 2956 C 290.191 -5.60712 1.88032 0
M  V30 2957 H 289.121 -0.749144 0.0854398 0
M  V30 2958 H 291.772 -1.61251 0.875813 0
M  V30 2959 H 290.154 -3.94622 -0.330042 0
M  V30 2960 H 291.328 -3.85301 2.52745 0
M  V30 2961 H 289.643 -3.56601 2.15 0
M  V30 2962 H 292.24 -5.34698 0.0136842 0
M  V30 2963 H 292.583 -4.02261 -1.072 0
M  V30 2964 H 293.116 -3.92873 0.624181 0
M  V30 2965 H 289.855 -5.87781 2.90161 0
M  V30 2966 H 289.375 -5.87896 1.18903 0
M  V30 2967 H 291.054 -6.25658 1.64805 0
M  V30 2968 N 291.186 -0.45159 -1.50991 0
M  V30 2969 C 292.414 0.108334 -2.06616 0
M  V30 2970 C 292.829 1.35224 -1.31757 0
M  V30 2971 O 292.186 1.78475 -0.381174 0
M  V30 2972 C 292.237 0.41619 -3.59096 0
M  V30 2973 O 291.958 -0.778361 -4.3113 0
M  V30 2974 C 293.459 1.02523 -4.31282 0
M  V30 2975 H 290.679 0.00159995 -0.670998 0
M  V30 2976 H 293.223 -0.634771 -1.94399 0
M  V30 2977 H 291.378 1.10921 -3.71181 0
M  V30 2978 H 291.792 -0.511181 -5.22003 0
M  V30 2979 H 293.266 1.19053 -5.39009 0
M  V30 2980 H 293.743 2.01013 -3.905 0
M  V30 2981 H 294.349 0.371173 -4.23677 0
M  V30 2982 N 292.664 1.56529 -0.183458 0
M  V30 2983 C 293.611 2.18546 0.742055 0
M  V30 2984 C 294.581 1.12912 1.2182 0
M  V30 2985 O 295.766 1.41115 1.28418 0
M  V30 2986 C 292.906 2.83977 1.96089 0
M  V30 2987 C 292.019 4.04105 1.52719 0
M  V30 2988 C 291.154 4.57427 2.70063 0
M  V30 2989 C 290.193 5.69938 2.23243 0
M  V30 2990 N 289.33 6.17717 3.33722 0
M  V30 2991 H 294.17 2.97284 0.206432 0
M  V30 2992 H 291.707 1.46823 0.0901571 0
M  V30 2993 H 293.665 3.20077 2.67594 0
M  V30 2994 H 292.295 2.07822 2.47002 0
M  V30 2995 H 291.347 3.73745 0.708436 0
M  V30 2996 H 292.659 4.85513 1.1436 0
M  V30 2997 H 291.813 4.95772 3.49708 0
M  V30 2998 H 290.552 3.75101 3.11689 0
M  V30 2999 H 289.557 5.31133 1.42048 0
M  V30 3000 H 290.782 6.54073 1.82661 0
M  V30 3001 H 288.728 5.38317 3.74902 0
M  V30 3002 H 288.645 6.94146 2.99495 0
M  V30 3003 H 289.913 6.60713 4.13616 0
M  V30 3004 N 294.142 -0.090211 1.57342 0
M  V30 3005 C 295.089 -1.10909 2.02405 0
M  V30 3006 C 296.059 -1.39523 0.901252 0
M  V30 3007 O 297.244 -1.50903 1.1676 0
M  V30 3008 C 294.384 -2.42277 2.45755 0
M  V30 3009 C 293.497 -2.20352 3.71576 0
M  V30 3010 C 292.632 -3.45154 4.03785 0
M  V30 3011 C 291.671 -3.18512 5.22701 0
M  V30 3012 N 290.808 -4.35593 5.50639 0
M  V30 3013 H 295.648 -0.71782 2.89225 0
M  V30 3014 H 293.185 -0.342901 1.43048 0
M  V30 3015 H 295.143 -3.18951 2.68935 0
M  V30 3016 H 293.773 -2.79242 1.61938 0
M  V30 3017 H 292.825 -1.34458 3.55844 0
M  V30 3018 H 294.137 -1.96661 4.58395 0
M  V30 3019 H 293.291 -4.30233 4.27767 0
M  V30 3020 H 292.03 -3.71904 3.15498 0
M  V30 3021 H 291.035 -2.31827 4.98534 0
M  V30 3022 H 292.26 -2.93103 6.12591 0
M  V30 3023 H 290.206 -4.6241 4.6531 0
M  V30 3024 H 290.123 -4.1511 6.31838 0
M  V30 3025 H 291.391 -5.21723 5.7916 0
M  V30 3026 N 295.62 -1.53406 -0.361157 0
M  V30 3027 C 296.897 -1.60411 -1.11927 0
M  V30 3028 C 297.277 -0.414385 -2.06993 0
M  V30 3029 O 296.625 0.594976 -2.20618 0
M  V30 3030 C 296.835 -2.95652 -1.85448 0
M  V30 3031 C 298.183 -3.50386 -2.39823 0
M  V30 3032 O 299.207 -2.97711 -1.95568 0
M  V30 3033 O 298.066 -4.42482 -3.20737 0
M  V30 3034 H 295.16 -0.64811 -0.513695 0
M  V30 3035 H 297.706 -1.65749 -0.364065 0
M  V30 3036 H 296.478 -3.73682 -1.16091 0
M  V30 3037 H 296.101 -2.93825 -2.67866 0
M  V30 3038 N 297.098 0.621204 -1.44841 0
M  V30 3039 C 298.031 1.7459 -1.46947 0
M  V30 3040 C 299.009 1.59273 -0.327238 0
M  V30 3041 O 300.193 1.81021 -0.525706 0
M  V30 3042 C 297.32 3.12274 -1.31159 0
M  V30 3043 C 296.366 3.46216 -2.49072 0
M  V30 3044 S 297.199 3.4258 -4.11581 0
M  V30 3045 C 298.355 4.82867 -3.98233 0
M  V30 3046 H 298.588 1.72538 -2.42111 0
M  V30 3047 H 296.121 0.796683 -1.32259 0
M  V30 3048 H 298.079 3.91722 -1.22737 0
M  V30 3049 H 296.74 3.11855 -0.374885 0
M  V30 3050 H 295.933 4.4643 -2.33915 0
M  V30 3051 H 295.535 2.74253 -2.54286 0
M  V30 3052 H 297.827 5.7234 -3.62537 0
M  V30 3053 H 298.77 5.0308 -4.98313 0
M  V30 3054 H 299.178 4.57908 -3.30121 0
M  V30 3055 N 298.576 1.31904 0.862503 0
M  V30 3056 C 299.822 1.22197 1.61851 0
M  V30 3057 C 300.155 -0.217641 1.92977 0
M  V30 3058 O 299.43 -1.15264 1.56666 0
M  V30 3059 C 299.713 2.07378 2.94391 0
M  V30 3060 C 299.566 3.59678 2.70096 0
M  V30 3061 C 300.885 1.92891 3.95577 0
M  V30 3062 H 298.004 0.445255 0.587296 0
M  V30 3063 H 300.646 1.6177 0.99651 0
M  V30 3064 H 298.796 1.73758 3.47477 0
M  V30 3065 H 300.468 4.03472 2.23625 0
M  V30 3066 H 298.711 3.82735 2.04197 0
M  V30 3067 H 299.382 4.14595 3.64438 0
M  V30 3068 H 301.858 2.22327 3.51724 0
M  V30 3069 H 300.734 2.54781 4.86187 0
M  V30 3070 H 300.995 0.894315 4.3296 0
M  V30 3071 N 300.054 -1.07777 1.14986 0
M  V30 3072 C 301.002 -2.16964 0.838406 0
M  V30 3073 C 301.996 -1.68372 -0.186386 0
M  V30 3074 O 303.202 -1.79951 -0.0418465 0
M  V30 3075 H 299.577 -0.708006 0.253439 0
M  V30 3076 H 301.548 -2.40454 1.76704 0
M  V30 3077 C 300.297 -3.4604 0.339335 0
M  V30 3078 H 299.62 -3.83813 1.11927 0
M  V30 3079 H 301.06 -4.23698 0.160021 0
M  V30 3080 C 299.519 -3.23569 -0.938325 0
M  V30 3081 O 300.049 -3.47752 -2.01077 0
M  V30 3082 N 298.255 -2.77079 -0.876117 0
M  V30 3083 H 297.802 -2.576 -0.00322037 0
M  V30 3084 H 297.76 -2.62422 -1.73153 0
M  V30 3085 N 301.532 -0.945985 -1.26051 0
M  V30 3086 C 302.479 -0.45809 -2.26208 0
M  V30 3087 C 303.449 0.484816 -1.58867 0
M  V30 3088 O 304.634 0.399969 -1.86561 0
M  V30 3089 C 301.774 0.266131 -3.44072 0
M  V30 3090 C 300.887 -0.713005 -4.26075 0
M  V30 3091 C 300.022 0.0329013 -5.3119 0
M  V30 3092 C 299.061 -0.93774 -6.04874 0
M  V30 3093 N 298.198 -0.223274 -7.01745 0
M  V30 3094 H 303.038 -1.3171 -2.67313 0
M  V30 3095 H 300.575 -0.66069 -1.31428 0
M  V30 3096 H 302.533 0.702514 -4.11243 0
M  V30 3097 H 301.163 1.08925 -3.03867 0
M  V30 3098 H 300.215 -1.26789 -3.58648 0
M  V30 3099 H 301.527 -1.45406 -4.77136 0
M  V30 3100 H 300.681 0.528335 -6.04395 0
M  V30 3101 H 299.42 0.806801 -4.8098 0
M  V30 3102 H 298.425 -1.44425 -5.30492 0
M  V30 3103 H 299.65 -1.71172 -6.57173 0
M  V30 3104 H 297.596 0.532046 -6.53839 0
M  V30 3105 H 297.513 -0.90357 -7.50581 0
M  V30 3106 H 298.781 0.250907 -7.79096 0
M  V30 3107 N 303.011 1.40521 -0.713556 0
M  V30 3108 C 304.288 1.94775 -0.17943 0
M  V30 3109 C 304.668 1.65184 1.31444 0
M  V30 3110 O 304.016 0.968429 2.06963 0
M  V30 3111 C 304.226 3.45543 -0.489986 0
M  V30 3112 C 305.574 4.22442 -0.427536 0
M  V30 3113 O 306.598 3.53644 -0.425929 0
M  V30 3114 O 305.457 5.4501 -0.403292 0
M  V30 3115 H 302.551 0.826606 -0.0255192 0
M  V30 3116 H 305.097 1.5014 -0.790949 0
M  V30 3117 H 303.869 3.60432 -1.5233 0
M  V30 3118 H 303.492 3.97311 0.151598 0
M  V30 3119 N 304.489 0.459591 1.5075 0
M  V30 3120 C 305.421 -0.37665 2.26084 0
M  V30 3121 C 306.434 -0.967109 1.30961 0
M  V30 3122 O 307.623 -0.857468 1.56556 0
M  V30 3123 C 304.723 -1.54112 3.01832 0
M  V30 3124 C 303.896 -1.06553 4.24223 0
M  V30 3125 C 302.955 -2.1027 4.82362 0
M  V30 3126 O 301.981 -1.68798 5.43595 0
M  V30 3127 N 303.183 -3.42974 4.68347 0
M  V30 3128 H 305.948 0.269124 2.98489 0
M  V30 3129 H 303.509 0.28972 1.59287 0
M  V30 3130 H 305.501 -2.23165 3.37608 0
M  V30 3131 H 304.071 -2.0918 2.32298 0
M  V30 3132 H 303.291 -0.201274 3.93686 0
M  V30 3133 H 304.579 -0.725516 5.03601 0
M  V30 3134 H 303.977 -3.79385 4.19623 0
M  V30 3135 H 302.534 -4.07858 5.08424 0
M  V30 3136 N 305.967 -1.56429 0.191757 0
M  V30 3137 C 307.213 -1.97777 -0.448554 0
M  V30 3138 C 307.546 -1.07847 -1.61501 0
M  V30 3139 O 306.821 -0.129774 -1.94067 0
M  V30 3140 C 307.104 -3.48362 -0.911906 0
M  V30 3141 C 306.957 -4.4907 0.256136 0
M  V30 3142 C 308.276 -4.02561 -1.77857 0
M  V30 3143 H 305.395 -0.719071 -0.161572 0
M  V30 3144 H 308.037 -1.87896 0.282007 0
M  V30 3145 H 306.187 -3.56914 -1.53442 0
M  V30 3146 H 307.859 -4.5256 0.893733 0
M  V30 3147 H 306.102 -4.24181 0.908436 0
M  V30 3148 H 306.773 -5.51889 -0.11053 0
M  V30 3149 H 309.249 -3.96767 -1.25359 0
M  V30 3150 H 308.125 -5.08301 -2.07174 0
M  V30 3151 H 308.386 -3.47616 -2.73158 0
M  V30 3152 N 307.445 0.0818655 -1.57387 0
M  V30 3153 C 308.375 1.09885 -2.06028 0
M  V30 3154 C 309.356 1.4098 -0.951774 0
M  V30 3155 O 310.541 1.50781 -1.22387 0
M  V30 3156 C 307.671 2.4151 -2.4958 0
M  V30 3157 C 306.625 2.24792 -3.64215 0
M  V30 3158 C 305.951 3.61712 -3.93787 0
M  V30 3159 C 307.251 1.67749 -4.94629 0
M  V30 3160 H 308.945 0.694128 -2.91243 0
M  V30 3161 H 306.491 0.332448 -1.4011 0
M  V30 3162 H 308.444 3.12939 -2.82219 0
M  V30 3163 H 307.168 2.83943 -1.61381 0
M  V30 3164 H 305.827 1.55807 -3.31843 0
M  V30 3165 H 305.475 4.01697 -3.02735 0
M  V30 3166 H 305.175 3.51368 -4.70971 0
M  V30 3167 H 306.699 4.34587 -4.28913 0
M  V30 3168 H 308.113 2.29032 -5.25564 0
M  V30 3169 H 306.51 1.68128 -5.76067 0
M  V30 3170 H 307.58 0.638059 -4.80684 0
M  V30 3171 N 308.923 1.53595 0.353017 0
M  V30 3172 C 309.871 1.81605 1.45335 0
M  V30 3173 C 310.865 0.685923 1.54892 0
M  V30 3174 O 312.071 0.869095 1.57628 0
M  V30 3175 H 308.446 0.575204 0.484401 0
M  V30 3176 H 310.417 2.73679 1.18921 0
M  V30 3177 C 309.166 2.03406 2.81995 0
M  V30 3178 H 308.489 2.89814 2.75405 0
M  V30 3179 H 309.929 2.26975 3.58132 0
M  V30 3180 C 308.388 0.816794 3.26849 0
M  V30 3181 O 308.918 0.0115856 4.01698 0
M  V30 3182 N 307.124 0.636682 2.8354 0
M  V30 3183 H 306.671 1.2931 2.22793 0
M  V30 3184 H 306.629 -0.176336 3.13905 0
M  V30 3185 N 310.401 -0.613514 1.45168 0
M  V30 3186 C 311.812 -1.19539 1.43413 0
M  V30 3187 C 312.163 -1.95558 0.158632 0
M  V30 3188 O 311.288 -2.0335 -0.740119 0
M  V30 3189 C 311.883 -2.17445 2.59813 0
M  V30 3190 C 310.442 -2.71022 2.61197 0
M  V30 3191 C 309.589 -1.46323 2.35552 0
M  V30 3192 H 312.54 -0.403163 1.53494 0
M  V30 3193 H 312.561 -3.00373 2.33574 0
M  V30 3194 H 312.073 -1.62089 3.52631 0
M  V30 3195 H 310.174 -3.30332 1.7237 0
M  V30 3196 H 310.287 -3.15859 3.60236 0
M  V30 3197 H 308.651 -1.75072 1.84992 0
M  V30 3198 H 309.434 -0.92844 3.30507 0
M  V30 3199 N 311.879 -1.3236 -0.855495 0
M  V30 3200 C 313.128 -1.22226 -1.60448 0
M  V30 3201 C 313.441 0.214733 -1.94418 0
M  V30 3202 O 314.647 0.437917 -2.67945 0
M  V30 3203 C 313.103 -2.14063 -2.89318 0
M  V30 3204 C 312.711 -3.62839 -2.62777 0
M  V30 3205 C 314.455 -2.12764 -3.67331 0
M  V30 3206 C 312.362 -4.4664 -3.87643 0
M  V30 3207 H 311.292 -0.453904 -0.602069 0
M  V30 3208 H 313.943 -1.57314 -0.944698 0
M  V30 3209 H 312.325 -1.71889 -3.5675 0
M  V30 3210 H 313.499 -4.1335 -2.03662 0
M  V30 3211 H 311.814 -3.66261 -1.98096 0
M  V30 3212 H 314.411 -2.72611 -4.59987 0
M  V30 3213 H 314.754 -1.11841 -4.00995 0
M  V30 3214 H 315.287 -2.53214 -3.06802 0
M  V30 3215 H 312.026 -5.48373 -3.5912 0
M  V30 3216 H 311.546 -4.0088 -4.46156 0
M  V30 3217 H 313.225 -4.59597 -4.55389 0
M  V30 3218 N 313.357 1.07166 -1.15556 0
M  V30 3219 C 314.582 1.84053 -0.955988 0
M  V30 3220 C 315.007 1.81586 0.490739 0
M  V30 3221 O 314.365 1.21018 1.34997 0
M  V30 3222 C 314.413 3.28957 -1.47714 0
M  V30 3223 O 313.517 4.06795 -0.677593 0
M  V30 3224 H 312.858 0.569842 -0.340847 0
M  V30 3225 H 315.388 1.35178 -1.53584 0
M  V30 3226 H 315.398 3.79788 -1.4908 0
M  V30 3227 H 314.073 3.30068 -2.53037 0
M  V30 3228 H 312.65 3.6561 -0.733721 0
M  V30 3229 N 314.835 0.952656 1.25548 0
M  V30 3230 C 315.782 0.47008 2.25962 0
M  V30 3231 C 316.752 -0.476384 1.59122 0
M  V30 3232 O 317.937 -0.39007 1.8677 0
M  V30 3233 C 315.077 -0.247881 3.44209 0
M  V30 3234 C 314.19 0.735591 4.25691 0
M  V30 3235 C 313.325 -0.0047306 5.312 0
M  V30 3236 C 312.364 0.969805 6.04368 0
M  V30 3237 N 311.501 0.260486 7.01617 0
M  V30 3238 H 316.341 1.33126 2.66611 0
M  V30 3239 H 313.878 0.66765 1.31076 0
M  V30 3240 H 315.836 -0.680695 4.1161 0
M  V30 3241 H 314.466 -1.07312 3.0444 0
M  V30 3242 H 313.518 1.28689 3.57971 0
M  V30 3243 H 314.83 1.47934 4.76358 0
M  V30 3244 H 313.984 -0.496275 6.04667 0
M  V30 3245 H 312.723 -0.781282 4.81401 0
M  V30 3246 H 311.728 1.47237 5.29718 0
M  V30 3247 H 312.953 1.74655 6.56256 0
M  V30 3248 H 310.899 -0.497364 6.54112 0
M  V30 3249 H 310.816 0.943362 7.50091 0
M  V30 3250 H 312.084 -0.209587 7.79218 0
M  V30 3251 N 316.313 -1.40141 0.720998 0
M  V30 3252 C 317.276 -2.29058 0.0805834 0
M  V30 3253 C 318.276 -1.45632 -0.681758 0
M  V30 3254 O 319.466 -1.6648 -0.512856 0
M  V30 3255 C 316.598 -3.28925 -0.895593 0
M  V30 3256 H 317.791 -2.87191 0.863793 0
M  V30 3257 H 315.344 -1.48553 0.485975 0
M  V30 3258 H 316.079 -2.75822 -1.70566 0
M  V30 3259 H 315.864 -3.90519 -0.351766 0
M  V30 3260 H 317.354 -3.95494 -1.34069 0
M  V30 3261 N 317.792 -0.46758 -1.50504 0
M  V30 3262 C 318.739 0.328413 -2.28452 0
M  V30 3263 C 319.709 0.990313 -1.33349 0
M  V30 3264 O 320.894 1.00343 -1.62284 0
M  V30 3265 C 318.034 1.40648 -3.15138 0
M  V30 3266 C 317.147 0.759709 -4.25267 0
M  V30 3267 C 316.282 1.81537 -4.99217 0
M  V30 3268 C 315.321 1.14866 -6.01226 0
M  V30 3269 N 314.458 2.14702 -6.68467 0
M  V30 3270 H 319.298 -0.342603 -2.96024 0
M  V30 3271 H 316.835 -0.180801 -1.45985 0
M  V30 3272 H 318.793 2.04315 -3.63746 0
M  V30 3273 H 317.423 2.04671 -2.49619 0
M  V30 3274 H 316.475 0.0105671 -3.80399 0
M  V30 3275 H 317.787 0.233243 -4.98254 0
M  V30 3276 H 316.941 2.52793 -5.51526 0
M  V30 3277 H 315.68 2.37564 -4.25928 0
M  V30 3278 H 314.685 0.42171 -5.4818 0
M  V30 3279 H 315.91 0.595334 -6.76485 0
M  V30 3280 H 313.856 2.69752 -5.97972 0
M  V30 3281 H 313.773 1.6703 -7.37317 0
M  V30 3282 H 315.041 2.85348 -7.25394 0
M  V30 3283 N 319.27 1.56325 -0.20005 0
M  V30 3284 C 320.2 2.22318 0.713916 0
M  V30 3285 C 321.181 1.18788 1.21752 0
M  V30 3286 O 322.366 1.47309 1.26545 0
M  V30 3287 C 319.496 2.88639 1.93144 0
M  V30 3288 C 318.45 3.98457 1.56255 0
M  V30 3289 C 317.776 4.51967 2.85709 0
M  V30 3290 C 319.076 5.16612 0.768747 0
M  V30 3291 H 320.77 2.98952 0.163755 0
M  V30 3292 H 318.316 1.43792 0.0773219 0
M  V30 3293 H 320.269 3.33491 2.57608 0
M  V30 3294 H 318.993 2.09419 2.50621 0
M  V30 3295 H 317.652 3.54305 0.941471 0
M  V30 3296 H 317.3 3.69503 3.41287 0
M  V30 3297 H 317 5.26071 2.6177 0
M  V30 3298 H 318.524 4.99523 3.51154 0
M  V30 3299 H 319.938 5.57977 1.3166 0
M  V30 3300 H 318.335 5.96812 0.627286 0
M  V30 3301 H 319.405 4.84358 -0.229168 0
M  V30 3302 N 320.748 -0.0735177 1.57428 0
M  V30 3303 C 322.025 -0.805903 1.78226 0
M  V30 3304 C 322.405 -1.95874 0.787189 0
M  V30 3305 O 321.753 -2.2779 -0.180029 0
M  V30 3306 C 321.963 -1.28045 3.24662 0
M  V30 3307 C 323.311 -1.71453 3.88444 0
M  V30 3308 O 324.335 -1.37616 3.28543 0
M  V30 3309 O 323.194 -2.34093 4.93825 0
M  V30 3310 H 320.288 -0.386041 0.73137 0
M  V30 3311 H 322.834 -0.0537269 1.69615 0
M  V30 3312 H 321.606 -0.455476 3.8864 0
M  V30 3313 H 321.229 -2.094 3.37991 0
M  V30 3314 N 322.226 -1.5378 -0.344866 0
M  V30 3315 C 323.173 -1.81676 -1.42346 0
M  V30 3316 C 324.143 -0.662376 -1.52321 0
M  V30 3317 O 325.328 -0.906675 -1.67881 0
M  V30 3318 C 322.468 -2.03087 -2.79015 0
M  V30 3319 C 321.581 -3.30799 -2.77842 0
M  V30 3320 C 320.716 -3.42285 -4.0622 0
M  V30 3321 C 319.755 -4.6395 -3.9927 0
M  V30 3322 N 318.892 -4.72477 -5.19336 0
M  V30 3323 H 323.732 -2.73703 -1.17858 0
M  V30 3324 H 321.269 -1.35568 -0.570949 0
M  V30 3325 H 323.227 -2.1349 -3.58438 0
M  V30 3326 H 321.857 -1.14375 -3.01858 0
M  V30 3327 H 320.909 -3.29244 -1.90533 0
M  V30 3328 H 322.221 -4.20314 -2.68584 0
M  V30 3329 H 321.375 -3.52113 -4.94066 0
M  V30 3330 H 320.114 -2.50823 -4.18258 0
M  V30 3331 H 319.119 -4.54201 -3.09809 0
M  V30 3332 H 320.344 -5.56775 -3.88817 0
M  V30 3333 H 318.29 -3.83924 -5.3192 0
M  V30 3334 H 318.207 -5.55927 -5.12329 0
M  V30 3335 H 319.475 -4.86613 -6.08957 0
M  V30 3336 N 323.704 0.605807 -1.45491 0
M  V30 3337 C 324.981 1.36522 -1.40075 0
M  V30 3338 C 325.361 2.10976 -0.0722744 0
M  V30 3339 O 324.709 2.08007 0.945808 0
M  V30 3340 C 324.919 2.31056 -2.61561 0
M  V30 3341 C 326.267 2.93608 -3.06724 0
M  V30 3342 O 327.291 2.41376 -2.61946 0
M  V30 3343 O 326.15 3.88421 -3.84437 0
M  V30 3344 H 323.244 0.612248 -0.555951 0
M  V30 3345 H 325.79 0.628747 -1.57623 0
M  V30 3346 H 324.562 1.75311 -3.49831 0
M  V30 3347 H 324.185 3.12081 -2.46356 0
M  V30 3348 N 325.182 1.32811 0.848464 0
M  V30 3349 C 326.43 1.23479 1.59991 0
M  V30 3350 C 326.751 -0.201853 1.93952 0
M  V30 3351 O 326.021 -1.12818 1.60153 0
M  V30 3352 H 324.601 0.454034 0.593179 0
M  V30 3353 H 327.263 1.66412 1.01455 0
M  V30 3354 H 326.359 1.82178 2.53412 0
M  V30 3355 N 326.66 -1.06551 1.16123 0
M  V30 3356 C 327.593 -2.13382 0.80892 0
M  V30 3357 C 328.571 -1.61128 -0.21827 0
M  V30 3358 O 329.755 -1.88219 -0.102952 0
M  V30 3359 C 326.882 -3.38083 0.204303 0
M  V30 3360 C 325.928 -4.09133 1.20469 0
M  V30 3361 S 326.761 -4.5948 2.75024 0
M  V30 3362 C 327.917 -5.87446 2.16005 0
M  V30 3363 H 328.15 -2.42937 1.71373 0
M  V30 3364 H 325.683 -1.18947 0.984428 0
M  V30 3365 H 327.641 -4.10268 -0.138081 0
M  V30 3366 H 326.302 -3.0669 -0.678234 0
M  V30 3367 H 325.495 -4.98685 0.730019 0
M  V30 3368 H 325.097 -3.4295 1.49202 0
M  V30 3369 H 327.389 -6.60065 1.5271 0
M  V30 3370 H 328.332 -6.39639 3.03756 0
M  V30 3371 H 328.74 -5.41354 1.59989 0
M  V30 3372 N 328.138 -0.959301 -1.25041 0
M  V30 3373 C 329.368 -0.63303 -1.96663 0
M  V30 3374 C 329.776 0.800031 -1.71453 0
M  V30 3375 O 329.119 1.54736 -0.99008 0
M  V30 3376 C 329.181 -0.817523 -3.50081 0
M  V30 3377 C 328.845 -2.22863 -3.98975 0
M  V30 3378 C 329.842 -3.20569 -4.09306 0
M  V30 3379 C 327.527 -2.55407 -4.32519 0
M  V30 3380 C 329.521 -4.4891 -4.52503 0
M  V30 3381 C 327.208 -3.83976 -4.754 0
M  V30 3382 C 328.206 -4.8054 -4.85356 0
M  V30 3383 O 327.894 -6.06817 -5.27284 0
M  V30 3384 H 327.626 -0.235866 -0.633516 0
M  V30 3385 H 330.18 -1.2874 -1.60047 0
M  V30 3386 H 328.41 -0.105992 -3.86555 0
M  V30 3387 H 330.099 -0.491604 -4.02912 0
M  V30 3388 H 330.865 -2.96753 -3.83618 0
M  V30 3389 H 326.744 -1.8097 -4.23994 0
M  V30 3390 H 330.288 -5.24283 -4.60188 0
M  V30 3391 H 326.185 -4.07596 -5.00535 0
M  V30 3392 H 326.953 -6.10262 -5.45457 0
M  V30 3393 N 329.616 1.39756 -0.72842 0
M  V30 3394 C 331.027 1.83498 -0.344289 0
M  V30 3395 C 331.378 1.60868 1.12321 0
M  V30 3396 O 330.503 1.09634 1.86573 0
M  V30 3397 C 331.098 3.33114 -0.618112 0
M  V30 3398 C 329.657 3.753 -0.287549 0
M  V30 3399 C 328.804 2.62831 -0.884048 0
M  V30 3400 H 331.755 1.28842 -0.926578 0
M  V30 3401 H 331.776 3.80334 0.112349 0
M  V30 3402 H 331.288 3.49553 -1.68625 0
M  V30 3403 H 329.389 3.64451 0.775012 0
M  V30 3404 H 329.502 4.72945 -0.765512 0
M  V30 3405 H 327.866 2.52792 -0.311149 0
M  V30 3406 H 328.649 2.82078 -1.95671 0
M  V30 3407 N 331.094 0.475555 1.50254 0
M  V30 3408 C 332.34 -0.0780073 2.0265 0
M  V30 3409 C 332.673 -1.38968 1.35652 0
M  V30 3410 O 331.948 -1.8839 0.483691 0
M  V30 3411 C 332.231 -0.257161 3.59181 0
M  V30 3412 C 332.084 1.07585 4.36744 0
M  V30 3413 C 333.403 -1.00965 4.28362 0
M  V30 3414 H 330.522 -0.0268758 0.73651 0
M  V30 3415 H 333.164 0.622015 1.7953 0
M  V30 3416 H 331.314 -0.853412 3.79011 0
M  V30 3417 H 332.986 1.70902 4.28474 0
M  V30 3418 H 331.229 1.6714 4.00308 0
M  V30 3419 H 331.9 0.904088 5.44546 0
M  V30 3420 H 334.376 -0.504214 4.13034 0
M  V30 3421 H 333.252 -1.10381 5.37687 0
M  V30 3422 H 333.513 -2.04731 3.91839 0
M  V30 3423 N 332.573 -1.56217 0.208337 0
M  V30 3424 C 333.483 -2.23316 -0.718836 0
M  V30 3425 C 334.499 -1.23648 -1.22422 0
M  V30 3426 O 335.675 -1.56423 -1.26861 0
M  V30 3427 C 332.74 -2.88968 -1.91568 0
M  V30 3428 C 331.801 -4.03943 -1.45357 0
M  V30 3429 C 331.034 -4.66455 -2.59337 0
M  V30 3430 O 331.257 -4.27919 -3.77149 0
M  V30 3431 O 330.191 -5.55686 -2.31293 0
M  V30 3432 H 334.017 -3.03182 -0.177315 0
M  V30 3433 H 331.602 -1.49384 -0.0215402 0
M  V30 3434 H 333.484 -3.30455 -2.61491 0
M  V30 3435 H 332.159 -2.12071 -2.44556 0
M  V30 3436 H 331.066 -3.67052 -0.722746 0
M  V30 3437 H 332.399 -4.82543 -0.970219 0
M  V30 3438 N 334.051 0.0651679 -1.57465 0
M  V30 3439 C 335.3 0.761916 -1.86756 0
M  V30 3440 C 335.613 1.78406 -0.801925 0
M  V30 3441 O 336.819 2.53084 -0.982885 0
M  V30 3442 C 335.275 1.40603 -3.31299 0
M  V30 3443 C 334.883 0.422115 -4.46007 0
M  V30 3444 C 336.627 2.08476 -3.69781 0
M  V30 3445 C 334.534 1.07252 -5.81593 0
M  V30 3446 H 333.464 0.288308 -0.696702 0
M  V30 3447 H 336.115 0.015344 -1.83494 0
M  V30 3448 H 334.497 2.20109 -3.29193 0
M  V30 3449 H 335.671 -0.343613 -4.59517 0
M  V30 3450 H 333.986 -0.152527 -4.16121 0
M  V30 3451 H 336.583 2.57925 -4.68379 0
M  V30 3452 H 336.926 2.88712 -2.99919 0
M  V30 3453 H 337.459 1.35792 -3.73905 0
M  V30 3454 H 334.198 0.310342 -6.54765 0
M  V30 3455 H 333.718 1.80895 -5.71872 0
M  V30 3456 H 335.397 1.59043 -6.27148 0
M  V30 3457 N 335.529 1.53961 0.336706 0
M  V30 3458 C 336.775 1.7273 1.07406 0
M  V30 3459 C 337.13 0.488095 1.86106 0
M  V30 3460 O 336.423 -0.519379 1.84426 0
M  V30 3461 C 336.617 2.93493 2.03953 0
M  V30 3462 C 336.446 4.29039 1.34744 0
M  V30 3463 C 335.216 4.93416 1.08942 0
M  V30 3464 C 337.414 5.08501 0.770115 0
M  V30 3465 N 335.396 6.12821 0.363864 0
M  V30 3466 C 336.767 6.19752 0.175472 0
M  V30 3467 C 338.822 4.93349 0.671633 0
M  V30 3468 C 337.525 7.17503 -0.508081 0
M  V30 3469 C 339.551 5.914 0.0018076 0
M  V30 3470 C 338.913 7.01993 -0.581835 0
M  V30 3471 H 335.012 0.685026 0.377177 0
M  V30 3472 H 337.596 1.91403 0.356815 0
M  V30 3473 H 335.767 2.76308 2.72962 0
M  V30 3474 H 337.499 3.00949 2.70577 0
M  V30 3475 H 334.254 4.53099 1.37833 0
M  V30 3476 H 334.678 6.76998 0.0156092 0
M  V30 3477 H 339.32 4.08007 1.1086 0
M  V30 3478 H 337.038 8.02414 -0.956918 0
M  V30 3479 H 340.624 5.81753 -0.0738538 0
M  V30 3480 H 339.504 7.76561 -1.09192 0
M  V30 3481 N 337.007 -0.598083 1.45811 0
M  V30 3482 C 337.957 -1.70272 1.51629 0
M  V30 3483 C 338.941 -1.56382 0.378629 0
M  V30 3484 O 340.133 -1.65557 0.626087 0
M  V30 3485 C 337.262 -3.09042 1.49493 0
M  V30 3486 C 336.348 -3.28284 2.68496 0
M  V30 3487 N 336.739 -3.17748 3.93535 0
M  V30 3488 C 335.037 -3.59182 2.64394 0
M  V30 3489 C 335.738 -3.38579 4.7301 0
M  V30 3490 N 334.714 -3.63016 4.04624 0
M  V30 3491 H 338.516 -1.60634 2.46118 0
M  V30 3492 H 336.03 -0.801642 1.41235 0
M  V30 3493 H 338.027 -3.88302 1.51747 0
M  V30 3494 H 336.687 -3.19823 0.560683 0
M  V30 3495 H 337.698 -2.95944 4.25014 0
M  V30 3496 H 334.375 -3.76742 1.79922 0
M  V30 3497 H 335.765 -3.35747 5.82 0
M  V30 3498 N 338.485 -1.33259 -0.841409 0
M  V30 3499 C 339.896 -1.22066 -1.41269 0
M  V30 3500 C 340.247 0.161479 -1.95534 0
M  V30 3501 O 339.372 1.06094 -1.88608 0
M  V30 3502 C 339.967 -2.20996 -2.568 0
M  V30 3503 C 338.526 -2.13649 -3.09888 0
M  V30 3504 C 337.673 -2.08623 -1.82679 0
M  V30 3505 H 340.624 -1.44895 -0.647395 0
M  V30 3506 H 340.645 -1.81621 -3.34356 0
M  V30 3507 H 340.157 -3.2158 -2.17274 0
M  V30 3508 H 338.258 -1.16359 -3.53965 0
M  V30 3509 H 338.371 -3.04079 -3.70234 0
M  V30 3510 H 336.735 -1.54061 -2.02824 0
M  V30 3511 H 337.518 -3.1101 -1.45353 0
M  V30 3512 N 339.963 1.05934 -1.16686 0
M  V30 3513 C 341.24 1.75643 -0.860747 0
M  V30 3514 C 341.62 2.01144 0.640641 0
M  V30 3515 O 340.968 1.64147 1.58959 0
M  V30 3516 C 341.178 3.05493 -1.68745 0
M  V30 3517 C 342.526 3.79581 -1.90271 0
M  V30 3518 O 343.55 3.15344 -1.65641 0
M  V30 3519 O 342.409 4.9499 -2.31618 0
M  V30 3520 H 339.503 0.763426 -0.317977 0
M  V30 3521 H 342.049 1.1217 -1.27342 0
M  V30 3522 H 340.821 2.8264 -2.70611 0
M  V30 3523 H 340.444 3.76702 -1.27206 0
M  V30 3524 N 341.441 0.965919 1.2453 0
M  V30 3525 C 342.852 0.665929 1.7442 0
M  V30 3526 C 343.203 -0.818407 1.78316 0
M  V30 3527 O 342.328 -1.64037 1.41141 0
M  V30 3528 C 342.923 1.20211 3.16757 0
M  V30 3529 C 341.482 0.952059 3.6416 0
M  V30 3530 C 340.629 1.33848 2.42858 0
M  V30 3531 H 343.58 1.14144 1.10258 0
M  V30 3532 H 343.601 0.567544 3.76244 0
M  V30 3533 H 343.113 2.28244 3.13889 0
M  V30 3534 H 341.214 -0.112821 3.72429 0
M  V30 3535 H 341.327 1.59645 4.51719 0
M  V30 3536 H 339.691 0.756864 2.43195 0
M  V30 3537 H 340.474 2.42827 2.42673 0
M  V30 3538 N 342.919 -1.39368 0.735821 0
M  V30 3539 C 343.882 -2.2896 0.104874 0
M  V30 3540 C 344.882 -1.46347 -0.666274 0
M  V30 3541 O 346.072 -1.67014 -0.49517 0
M  V30 3542 C 343.204 -3.29857 -0.860656 0
M  V30 3543 H 344.397 -2.86259 0.894205 0
M  V30 3544 H 341.95 -1.48029 0.501704 0
M  V30 3545 H 342.685 -2.77615 -1.67631 0
M  V30 3546 H 342.47 -3.9087 -0.310327 0
M  V30 3547 H 343.96 -3.96893 -1.29867 0
M  V30 3548 N 344.397 -0.483516 -1.5 0
M  V30 3549 C 345.344 0.304164 -2.28787 0
M  V30 3550 C 346.314 0.976114 -1.34392 0
M  V30 3551 O 347.499 0.986156 -1.63339 0
M  V30 3552 C 344.639 1.37298 -3.16612 0
M  V30 3553 C 343.752 0.714561 -4.26049 0
M  V30 3554 C 342.887 1.76232 -5.01114 0
M  V30 3555 C 341.926 1.08483 -6.0241 0
M  V30 3556 N 341.063 2.076 -6.70706 0
M  V30 3557 H 345.903 -0.373981 -2.95644 0
M  V30 3558 H 343.44 -0.196275 -1.45785 0
M  V30 3559 H 345.398 2.00445 -3.65893 0
M  V30 3560 H 344.028 2.02012 -2.51776 0
M  V30 3561 H 343.08 -0.0297798 -3.80388 0
M  V30 3562 H 344.392 0.180383 -4.98474 0
M  V30 3563 H 343.546 2.46929 -5.54176 0
M  V30 3564 H 342.285 2.33033 -4.28424 0
M  V30 3565 H 341.29 0.363545 -5.48597 0
M  V30 3566 H 342.515 0.523551 -6.77079 0
M  V30 3567 H 340.461 2.63394 -6.00799 0
M  V30 3568 H 340.378 1.59201 -7.39047 0
M  V30 3569 H 341.646 2.77639 -7.2838 0
M  V30 3570 N 345.875 1.56104 -0.216619 0
M  V30 3571 C 346.823 2.21434 0.712036 0
M  V30 3572 C 347.817 1.19218 1.20348 0
M  V30 3573 O 349.023 1.3731 1.16387 0
M  V30 3574 H 345.398 0.70992 0.248026 0
M  V30 3575 H 347.369 2.98083 0.137558 0
M  V30 3576 C 346.118 2.90434 1.91163 0
M  V30 3577 H 345.441 3.68842 1.54258 0
M  V30 3578 H 346.881 3.39552 2.5393 0
M  V30 3579 C 345.34 1.92635 2.76394 0
M  V30 3580 O 345.87 1.44017 3.74996 0
M  V30 3581 N 344.076 1.60392 2.42328 0
M  V30 3582 H 343.623 2.00122 1.622 0
M  V30 3583 H 343.581 0.952159 2.99635 0
M  V30 3584 N 347.353 -0.0568162 1.57498 0
M  V30 3585 C 348.263 -1.08346 2.08083 0
M  V30 3586 C 349.279 -1.41439 1.01346 0
M  V30 3587 O 350.455 -1.51316 1.32912 0
M  V30 3588 C 347.52 -2.37352 2.52715 0
M  V30 3589 C 346.581 -2.11093 3.73816 0
M  V30 3590 C 345.814 -3.33949 4.1631 0
M  V30 3591 O 346.037 -4.43622 3.58547 0
M  V30 3592 O 344.971 -3.21279 5.08983 0
M  V30 3593 H 348.797 -0.683667 2.95905 0
M  V30 3594 H 346.382 -0.271965 1.46904 0
M  V30 3595 H 348.264 -3.13246 2.81877 0
M  V30 3596 H 346.939 -2.76681 1.68016 0
M  V30 3597 H 345.846 -1.32856 3.49714 0
M  V30 3598 H 347.179 -1.76637 4.59413 0
M  V30 3599 N 348.832 -1.54138 -0.328536 0
M  V30 3600 C 349.78 -1.83894 -1.42428 0
M  V30 3601 C 350.774 -0.710478 -1.53781 0
M  V30 3602 O 351.98 -0.894062 -1.56226 0
M  V30 3603 H 348.355 -0.582837 -0.475189 0
M  V30 3604 H 350.326 -2.75537 -1.14552 0
M  V30 3605 C 349.075 -2.07866 -2.78724 0
M  V30 3606 H 348.398 -2.94158 -2.7076 0
M  V30 3607 H 349.838 -2.32644 -3.54476 0
M  V30 3608 C 348.297 -0.868689 -3.25508 0
M  V30 3609 O 348.827 -0.0754908 -4.01629 0
M  V30 3610 N 347.033 -0.681711 -2.82491 0
M  V30 3611 H 346.58 -1.32838 -2.20708 0
M  V30 3612 H 346.538 0.126374 -3.14146 0
M  V30 3613 N 350.31 0.590341 -1.46126 0
M  V30 3614 C 351.538 1.37504 -1.54597 0
M  V30 3615 C 351.953 1.87897 -0.184447 0
M  V30 3616 O 351.31 1.63192 0.816984 0
M  V30 3617 C 351.361 2.56779 -2.54454 0
M  V30 3618 O 351.082 2.08476 -3.85317 0
M  V30 3619 C 352.583 3.49427 -2.72792 0
M  V30 3620 H 349.803 0.420325 -0.523037 0
M  V30 3621 H 352.347 0.718383 -1.91467 0
M  V30 3622 H 350.502 3.1845 -2.20609 0
M  V30 3623 H 350.916 2.86097 -4.396 0
M  V30 3624 H 352.39 4.29619 -3.466 0
M  V30 3625 H 352.867 4.00876 -1.79429 0
M  V30 3626 H 353.473 2.93598 -3.07702 0
M  V30 3627 N 351.788 1.33704 0.83433 0
M  V30 3628 C 353.204 1.13137 1.12571 0
M  V30 3629 C 353.404 -0.0747261 2.01361 0
M  V30 3630 O 352.46 -0.753647 2.4099 0
M  V30 3631 C 353.773 2.42105 1.78342 0
M  V30 3632 C 355.321 2.48054 1.90888 0
M  V30 3633 C 355.796 3.76995 2.60075 0
M  V30 3634 N 357.287 3.78092 2.67584 0
M  V30 3635 C 358.022 4.74574 3.21818 0
M  V30 3636 N 357.518 5.81434 3.76705 0
M  V30 3637 N 359.311 4.62044 3.20112 0
M  V30 3638 H 351.462 2.11 0.243489 0
M  V30 3639 H 353.725 0.932532 0.17055 0
M  V30 3640 H 353.431 3.30391 1.20561 0
M  V30 3641 H 353.305 2.54594 2.7832 0
M  V30 3642 H 355.692 1.60215 2.47821 0
M  V30 3643 H 355.773 2.39502 0.898459 0
M  V30 3644 H 355.417 4.65219 2.03799 0
M  V30 3645 H 355.347 3.82825 3.61597 0
M  V30 3646 H 357.838 3.00865 2.28667 0
M  V30 3647 H 358.151 6.51084 4.16305 0
M  V30 3648 H 356.496 5.85163 3.7498 0
M  V30 3649 H 359.687 3.77716 2.76493 0
M  V30 3650 H 359.86 5.37406 3.62076 0
M  V30 3651 N 353.266 -1.05314 1.17247 0
M  V30 3652 C 354.496 -1.81707 0.983166 0
M  V30 3653 C 354.904 -1.83222 -0.471822 0
M  V30 3654 O 354.247 -1.25721 -1.3394 0
M  V30 3655 C 354.309 -3.29134 1.44606 0
M  V30 3656 C 353.973 -3.51304 2.92292 0
M  V30 3657 C 354.97 -3.4353 3.90235 0
M  V30 3658 C 352.655 -3.78306 3.30439 0
M  V30 3659 C 354.649 -3.62442 5.24323 0
M  V30 3660 C 352.336 -3.96866 4.64694 0
M  V30 3661 C 353.334 -3.88933 5.61445 0
M  V30 3662 O 353.022 -4.06976 6.93272 0
M  V30 3663 H 352.754 -0.579476 0.348114 0
M  V30 3664 H 355.308 -1.33705 1.55924 0
M  V30 3665 H 353.538 -3.78046 0.813537 0
M  V30 3666 H 355.227 -3.87049 1.22262 0
M  V30 3667 H 355.993 -3.22648 3.62109 0
M  V30 3668 H 351.872 -3.83585 2.55702 0
M  V30 3669 H 355.416 -3.56165 5.99827 0
M  V30 3670 H 351.313 -4.1724 4.92525 0
M  V30 3671 H 352.081 -4.24209 6.99992 0
M  V30 3672 N 354.744 -0.972509 -1.24016 0
M  V30 3673 C 355.991 -0.637034 -1.92219 0
M  V30 3674 C 356.319 0.828418 -1.75976 0
M  V30 3675 O 355.574 1.61206 -1.10955 0
M  V30 3676 C 355.873 -0.963694 -3.44162 0
M  V30 3677 C 355.539 -2.41807 -3.80579 0
M  V30 3678 C 354.201 -2.81556 -3.9023 0
M  V30 3679 C 356.553 -3.36172 -3.98293 0
M  V30 3680 C 353.881 -4.14702 -4.15017 0
M  V30 3681 C 356.233 -4.68952 -4.24578 0
M  V30 3682 C 354.897 -5.08472 -4.32449 0
M  V30 3683 H 354.167 -0.233107 -0.703379 0
M  V30 3684 H 356.814 -1.2249 -1.47202 0
M  V30 3685 H 355.119 -0.29365 -3.90698 0
M  V30 3686 H 356.816 -0.682449 -3.9515 0
M  V30 3687 H 353.406 -2.09988 -3.73635 0
M  V30 3688 H 357.59 -3.06644 -3.90234 0
M  V30 3689 H 352.846 -4.4494 -4.19331 0
M  V30 3690 H 357.02 -5.42037 -4.37229 0
M  V30 3691 H 354.647 -6.11665 -4.51409 0
M  V30 3692 N 356.222 1.38976 -0.743202 0
M  V30 3693 C 357.47 1.99948 -0.29417 0
M  V30 3694 C 357.791 1.59279 1.12495 0
M  V30 3695 O 357.061 0.844808 1.76748 0
M  V30 3696 H 355.641 0.739473 -0.105774 0
M  V30 3697 H 358.303 1.699 -0.954986 0
M  V30 3698 H 357.399 3.10142 -0.349056 0
M  V30 3699 N 357.7 0.491464 1.49741 0
M  V30 3700 C 358.648 -0.305837 2.30581 0
M  V30 3701 C 359.642 -0.971642 1.38764 0
M  V30 3702 O 360.848 -0.90042 1.5586 0
M  V30 3703 H 357.223 -0.117482 0.742767 0
M  V30 3704 H 359.194 0.396093 2.95759 0
M  V30 3705 C 357.943 -1.36319 3.19863 0
M  V30 3706 H 357.266 -0.860258 3.90435 0
M  V30 3707 H 358.706 -1.89323 3.79385 0
M  V30 3708 C 357.165 -2.37621 2.38826 0
M  V30 3709 O 357.695 -3.43311 2.08567 0
M  V30 3710 N 355.901 -2.09849 2.01026 0
M  V30 3711 H 355.448 -1.23922 2.25834 0
M  V30 3712 H 355.406 -2.77859 1.47112 0
M  V30 3713 N 359.178 -1.55987 0.224894 0
M  V30 3714 C 360.408 -2.02489 -0.41007 0
M  V30 3715 C 360.816 -1.10391 -1.53657 0
M  V30 3716 O 360.159 -0.106458 -1.83391 0
M  V30 3717 C 360.221 -3.45319 -0.999757 0
M  V30 3718 C 359.885 -4.56999 -0.00827976 0
M  V30 3719 C 360.882 -5.13812 0.793314 0
M  V30 3720 C 358.567 -5.02176 0.111442 0
M  V30 3721 C 360.561 -6.14276 1.7013 0
M  V30 3722 C 358.248 -6.02477 1.02296 0
M  V30 3723 C 359.246 -6.58403 1.81643 0
M  V30 3724 O 358.934 -7.56751 2.71262 0
M  V30 3725 H 358.666 -0.667915 -0.104235 0
M  V30 3726 H 361.22 -2.0257 0.339782 0
M  V30 3727 H 359.45 -3.42318 -1.79876 0
M  V30 3728 H 361.139 -3.7545 -1.54248 0
M  V30 3729 H 361.905 -4.79756 0.711288 0
M  V30 3730 H 357.784 -4.58323 -0.49605 0
M  V30 3731 H 361.328 -6.57854 2.32107 0
M  V30 3732 H 357.225 -6.35954 1.10599 0
M  V30 3733 H 357.993 -7.74286 2.65375 0
M  V30 3734 N 360.656 0.0484629 -1.57525 0
M  V30 3735 C 361.884 0.755421 -1.92616 0
M  V30 3736 C 362.299 1.69919 -0.822984 0
M  V30 3737 O 361.656 1.81378 0.202085 0
M  V30 3738 C 361.707 1.52915 -3.27566 0
M  V30 3739 O 361.428 0.62329 -4.33644 0
M  V30 3740 C 362.929 2.33502 -3.76818 0
M  V30 3741 H 360.149 0.213465 -0.63614 0
M  V30 3742 H 362.693 0.0117698 -2.04497 0
M  V30 3743 H 360.848 2.22486 -3.17142 0
M  V30 3744 H 361.262 1.16383 -5.11425 0
M  V30 3745 H 362.736 2.83214 -4.73808 0
M  V30 3746 H 363.213 3.14068 -3.07014 0
M  V30 3747 H 363.819 1.69043 -3.90262 0
M  V30 3748 N 362.134 1.5431 0.320358 0
M  V30 3749 C 363.382 1.72327 1.05583 0
M  V30 3750 C 363.703 0.50149 1.88441 0
M  V30 3751 O 362.973 -0.48448 1.89815 0
M  V30 3752 H 361.553 0.635387 0.3928 0
M  V30 3753 H 364.215 1.91621 0.356019 0
M  V30 3754 H 363.311 2.60426 1.72003 0
M  V30 3755 N 363.613 -0.582584 1.46437 0
M  V30 3756 C 364.861 -1.33814 1.51453 0
M  V30 3757 C 365.182 -1.94277 0.167792 0
M  V30 3758 O 364.452 -1.78566 -0.805677 0
M  V30 3759 H 363.032 -0.496838 0.557818 0
M  V30 3760 H 365.694 -0.682281 1.82568 0
M  V30 3761 H 364.79 -2.14479 2.26728 0
M  V30 3762 N 365.091 -1.34144 -0.827227 0
M  V30 3763 C 366.319 -1.29325 -1.61501 0
M  V30 3764 C 366.734 0.13354 -1.88327 0
M  V30 3765 O 366.091 1.0793 -1.47164 0
M  V30 3766 C 366.142 -2.07746 -2.95844 0
M  V30 3767 O 365.863 -3.4486 -2.70191 0
M  V30 3768 C 367.364 -2.10273 -3.90256 0
M  V30 3769 H 364.584 -0.445069 -0.50215 0
M  V30 3770 H 367.128 -1.76693 -1.02955 0
M  V30 3771 H 365.283 -1.6403 -3.5096 0
M  V30 3772 H 365.697 -3.85345 -3.55822 0
M  V30 3773 H 367.171 -2.69575 -4.81698 0
M  V30 3774 H 367.648 -1.096 -4.25305 0
M  V30 3775 H 368.254 -2.54059 -3.41078 0
M  V30 3776 N 366.569 1.04691 -1.17803 0
M  V30 3777 C 367.797 1.81446 -0.99423 0
M  V30 3778 C 368.212 1.83174 0.457459 0
M  V30 3779 O 367.569 1.26265 1.31771 0
M  V30 3780 C 367.62 3.27334 -1.5341 0
M  V30 3781 O 367.341 3.25798 -2.92895 0
M  V30 3782 C 368.842 4.20759 -1.39559 0
M  V30 3783 H 366.062 0.571599 -0.351447 0
M  V30 3784 H 368.606 1.31982 -1.56208 0
M  V30 3785 H 366.761 3.74052 -1.00815 0
M  V30 3786 H 367.175 4.17144 -3.17949 0
M  V30 3787 H 368.649 5.21084 -1.82141 0
M  V30 3788 H 369.126 4.37856 -0.343394 0
M  V30 3789 H 369.732 3.79901 -1.91195 0
M  V30 3790 N 368.047 0.979072 1.23499 0
M  V30 3791 C 369.275 0.665202 1.95915 0
M  V30 3792 C 369.69 -0.767571 1.72493 0
M  V30 3793 O 369.047 -1.51635 1.01554 0
M  V30 3794 C 369.098 0.944438 3.48945 0
M  V30 3795 O 368.819 2.3209 3.71572 0
M  V30 3796 C 370.32 0.646336 4.38563 0
M  V30 3797 H 367.54 0.247218 0.623798 0
M  V30 3798 H 370.084 1.31009 1.57025 0
M  V30 3799 H 368.239 0.345575 3.85856 0
M  V30 3800 H 368.653 2.40957 4.65876 0
M  V30 3801 H 370.127 0.892091 5.44744 0
M  V30 3802 H 370.604 -0.419575 4.37191 0
M  V30 3803 H 371.21 1.22562 4.07258 0
M  V30 3804 N 369.525 -1.3858 0.750561 0
M  V30 3805 C 370.936 -1.82927 0.373438 0
M  V30 3806 C 371.287 -1.62634 -1.09748 0
M  V30 3807 O 370.412 -1.12588 -1.84805 0
M  V30 3808 C 371.007 -3.32088 0.671029 0
M  V30 3809 C 369.566 -3.74795 0.34722 0
M  V30 3810 C 368.713 -2.61391 0.92575 0
M  V30 3811 H 371.664 -1.27351 0.946958 0
M  V30 3812 H 371.685 -3.80465 -0.0518269 0
M  V30 3813 H 371.197 -3.46826 1.74164 0
M  V30 3814 H 369.298 -3.65638 -0.716933 0
M  V30 3815 H 369.411 -4.71667 0.840656 0
M  V30 3816 H 367.775 -2.52265 0.351327 0
M  V30 3817 H 368.558 -2.78929 2.00133 0
M  V30 3818 N 371.003 -0.499398 -1.49478 0
M  V30 3819 C 372.414 -0.051215 -1.8663 0
M  V30 3820 C 372.765 1.36238 -1.41186 0
M  V30 3821 O 371.89 2.01502 -0.789051 0
M  V30 3822 C 372.485 -0.0861651 -3.3869 0
M  V30 3823 C 371.044 0.30667 -3.75149 0
M  V30 3824 C 370.191 -0.459397 -2.73468 0
M  V30 3825 H 373.142 -0.712264 -1.41818 0
M  V30 3826 H 373.163 0.709507 -3.73826 0
M  V30 3827 H 372.675 -1.11512 -3.71735 0
M  V30 3828 H 370.776 1.33892 -3.47712 0
M  V30 3829 H 370.889 -0.0116669 -4.79099 0
M  V30 3830 H 369.253 0.0905645 -2.54539 0
M  V30 3831 H 370.036 -1.4884 -3.09357 0
M  V30 3832 N 372.481 1.55866 -0.233164 0
M  V30 3833 C 373.727 1.98897 0.395959 0
M  V30 3834 C 374.06 1.12091 1.58585 0
M  V30 3835 O 373.335 0.181182 1.93654 0
M  V30 3836 C 373.618 3.50658 0.819224 0
M  V30 3837 C 373.471 4.48233 -0.375109 0
M  V30 3838 C 374.79 4.07135 1.67121 0
M  V30 3839 H 371.909 0.723102 0.142451 0
M  V30 3840 H 374.551 1.87082 -0.331725 0
M  V30 3841 H 372.701 3.60857 1.43925 0
M  V30 3842 H 374.373 4.50031 -1.01341 0
M  V30 3843 H 372.616 4.21624 -1.02058 0
M  V30 3844 H 373.287 5.51988 -0.0358328 0
M  V30 3845 H 375.763 3.99952 1.14795 0
M  V30 3846 H 374.639 5.13615 1.93625 0
M  V30 3847 H 374.9 3.54736 2.63846 0
M  V30 3848 N 373.959 -0.0401083 1.57549 0
M  V30 3849 C 374.889 -1.04384 2.08869 0
M  V30 3850 C 375.87 -1.38407 0.988817 0
M  V30 3851 O 377.055 -1.47483 1.26342 0
M  V30 3852 C 374.185 -2.34808 2.55895 0
M  V30 3853 C 373.139 -2.15057 3.70047 0
M  V30 3854 C 372.465 -3.51145 4.03239 0
M  V30 3855 C 373.765 -1.54576 4.98902 0
M  V30 3856 H 375.459 -0.616666 2.92981 0
M  V30 3857 H 373.005 -0.295184 1.40942 0
M  V30 3858 H 374.958 -3.05346 2.90417 0
M  V30 3859 H 373.682 -2.79565 1.68853 0
M  V30 3860 H 372.341 -1.46954 3.35857 0
M  V30 3861 H 371.989 -3.93529 3.13279 0
M  V30 3862 H 371.689 -3.38758 4.80122 0
M  V30 3863 H 373.213 -4.23062 4.40285 0
M  V30 3864 H 374.627 -2.15017 5.31451 0
M  V30 3865 H 373.024 -1.52796 5.80322 0
M  V30 3866 H 374.094 -0.51039 4.82206 0
M  V30 3867 N 375.437 -1.54477 -0.31217 0
M  V30 3868 C 376.369 -1.81011 -1.40598 0
M  V30 3869 C 377.382 -0.692546 -1.47335 0
M  V30 3870 O 378.571 -0.969847 -1.49854 0
M  V30 3871 C 375.671 -1.92307 -2.79054 0
M  V30 3872 C 374.844 -3.22594 -2.95384 0
M  V30 3873 C 373.903 -3.24448 -4.1427 0
M  V30 3874 O 372.929 -3.98035 -4.06887 0
M  V30 3875 N 374.131 -2.49042 -5.24365 0
M  V30 3876 H 376.896 -2.75408 -1.18196 0
M  V30 3877 H 374.457 -1.53914 -0.502202 0
M  V30 3878 H 376.449 -1.90962 -3.56813 0
M  V30 3879 H 375.019 -1.04955 -2.94454 0
M  V30 3880 H 374.239 -3.36806 -2.04831 0
M  V30 3881 H 375.527 -4.08593 -3.03198 0
M  V30 3882 H 374.925 -1.88867 -5.33241 0
M  V30 3883 H 373.482 -2.53463 -6.005 0
M  V30 3884 N 376.915 0.57481 -1.46744 0
M  V30 3885 C 378.162 1.33272 -1.52462 0
M  V30 3886 C 378.49 1.93669 -0.179572 0
M  V30 3887 O 377.745 1.7743 0.825664 0
M  V30 3888 C 378.044 2.476 -2.57738 0
M  V30 3889 C 377.71 2.05146 -4.01529 0
M  V30 3890 C 376.372 1.93284 -4.40676 0
M  V30 3891 C 378.724 1.72506 -4.91824 0
M  V30 3892 C 376.052 1.47049 -5.67973 0
M  V30 3893 C 378.404 1.27748 -6.19567 0
M  V30 3894 C 377.068 1.14468 -6.57612 0
M  V30 3895 H 376.338 0.487678 -0.557899 0
M  V30 3896 H 378.985 0.646456 -1.80259 0
M  V30 3897 H 377.29 3.21708 -2.23632 0
M  V30 3898 H 378.987 3.05807 -2.5939 0
M  V30 3899 H 375.577 2.15316 -3.7059 0
M  V30 3900 H 379.761 1.80552 -4.62293 0
M  V30 3901 H 375.017 1.35417 -5.96215 0
M  V30 3902 H 379.191 1.01547 -6.88957 0
M  V30 3903 H 376.818 0.78419 -7.56145 0
M  V30 3904 N 378.394 1.34581 0.820102 0
M  V30 3905 C 379.622 1.3018 1.60813 0
M  V30 3906 C 380.037 -0.123551 1.88395 0
M  V30 3907 O 379.394 -1.07148 1.47735 0
M  V30 3908 C 379.445 2.09312 2.94739 0
M  V30 3909 O 379.166 3.46288 2.68358 0
M  V30 3910 C 380.667 2.1234 3.89136 0
M  V30 3911 H 377.887 0.447726 0.499782 0
M  V30 3912 H 380.431 1.77237 1.02017 0
M  V30 3913 H 378.586 1.65889 3.50085 0
M  V30 3914 H 379 3.87227 3.53774 0
M  V30 3915 H 380.474 2.72126 4.80262 0
M  V30 3916 H 380.951 1.11854 4.24718 0
M  V30 3917 H 381.557 2.55864 3.39726 0
M  V30 3918 N 379.872 -1.04064 1.18357 0
M  V30 3919 C 380.82 -2.14187 0.907007 0
M  V30 3920 C 381.814 -1.68879 -0.132725 0
M  V30 3921 O 383.02 -1.79993 0.0154248 0
M  V30 3922 H 379.395 -0.699585 0.275835 0
M  V30 3923 H 381.366 -2.34711 1.84264 0
M  V30 3924 C 380.115 -3.44785 0.449254 0
M  V30 3925 H 379.438 -3.80058 1.24081 0
M  V30 3926 H 380.878 -4.22974 0.294737 0
M  V30 3927 C 379.337 -3.26391 -0.834909 0
M  V30 3928 O 379.867 -3.53973 -1.89911 0
M  V30 3929 N 378.073 -2.79726 -0.787523 0
M  V30 3930 H 377.62 -2.5748 0.0787347 0
M  V30 3931 H 377.578 -2.67798 -1.64716 0
M  V30 3932 N 381.35 -0.985608 -1.22978 0
M  V30 3933 C 382.578 -0.675582 -1.95559 0
M  V30 3934 C 382.993 0.758413 -1.72897 0
M  V30 3935 O 382.35 1.51094 -1.02357 0
M  V30 3936 C 382.401 -0.96293 -3.48439 0
M  V30 3937 O 382.122 -2.34057 -3.70336 0
M  V30 3938 C 383.623 -0.669585 -4.38214 0
M  V30 3939 H 380.843 -0.250523 -0.622478 0
M  V30 3940 H 383.387 -1.3184 -1.56328 0
M  V30 3941 H 381.542 -0.366033 -3.85667 0
M  V30 3942 H 381.956 -2.43424 -4.64591 0
M  V30 3943 H 383.43 -0.920967 -5.44263 0
M  V30 3944 H 383.907 0.396383 -4.37408 0
M  V30 3945 H 384.513 -1.2472 -4.06602 0
M  V30 3946 N 382.828 1.3818 -0.7579 0
M  V30 3947 C 383.758 2.33027 -0.148597 0
M  V30 3948 C 384.739 1.55085 0.69875 0
M  V30 3949 O 385.924 1.83384 0.639053 0
M  V30 3950 C 383.054 3.3928 0.742034 0
M  V30 3951 C 382.008 4.28 -0.00291946 0
M  V30 3952 C 381.334 5.25146 1.00625 0
M  V30 3953 C 382.634 5.08938 -1.17385 0
M  V30 3954 H 384.328 2.84231 -0.940909 0
M  V30 3955 H 381.874 1.36659 -0.453908 0
M  V30 3956 H 383.827 4.046 1.17799 0
M  V30 3957 H 382.551 2.86569 1.56671 0
M  V30 3958 H 381.21 3.64192 -0.419504 0
M  V30 3959 H 380.858 4.68721 1.8251 0
M  V30 3960 H 380.558 5.85361 0.512428 0
M  V30 3961 H 382.082 5.93342 1.44143 0
M  V30 3962 H 383.496 5.67474 -0.815224 0
M  V30 3963 H 381.893 5.7841 -1.59882 0
M  V30 3964 H 382.963 4.42424 -1.98468 0
M  V30 3965 N 384.306 0.507319 1.49211 0
M  V30 3966 C 385.534 -0.0315749 2.06876 0
M  V30 3967 C 385.949 -1.30241 1.36685 0
M  V30 3968 O 385.306 -1.76937 0.447152 0
M  V30 3969 C 385.357 -0.282627 3.60393 0
M  V30 3970 O 385.078 0.937835 4.27944 0
M  V30 3971 C 386.579 -0.864453 4.3479 0
M  V30 3972 H 383.799 0.0233048 0.670595 0
M  V30 3973 H 386.343 0.706484 1.91909 0
M  V30 3974 H 384.498 -0.97068 3.75042 0
M  V30 3975 H 384.912 0.704567 5.19746 0
M  V30 3976 H 386.386 -0.989664 5.43056 0
M  V30 3977 H 386.863 -1.86382 3.97692 0
M  V30 3978 H 387.469 -0.213672 4.24763 0
M  V30 3979 N 385.784 -1.5574 0.241426 0
M  V30 3980 C 387.012 -2.03208 -0.389134 0
M  V30 3981 C 387.427 -1.12082 -1.51931 0
M  V30 3982 O 386.784 -0.134183 -1.82006 0
M  V30 3983 C 386.835 -3.50064 -0.902087 0
M  V30 3984 O 386.556 -4.37717 0.18305 0
M  V30 3985 C 388.057 -4.13268 -1.60389 0
M  V30 3986 H 385.277 -0.664509 -0.0931053 0
M  V30 3987 H 387.821 -2.0124 0.36369 0
M  V30 3988 H 385.976 -3.52583 -1.60511 0
M  V30 3989 H 386.39 -5.24097 -0.205579 0
M  V30 3990 H 387.864 -5.17733 -1.91458 0
M  V30 3991 H 388.341 -3.59434 -2.52397 0
M  V30 3992 H 388.947 -4.14655 -0.945576 0
M  V30 3993 N 387.262 0.0317525 -1.57568 0
M  V30 3994 C 388.508 0.724175 -1.8943 0
M  V30 3995 C 388.841 1.75149 -0.838836 0
M  V30 3996 O 388.116 1.93948 0.146422 0
M  V30 3997 C 388.399 1.39615 -3.31933 0
M  V30 3998 C 388.252 0.382537 -4.4817 0
M  V30 3999 C 389.571 2.33084 -3.73309 0
M  V30 4000 H 386.69 0.261797 -0.688935 0
M  V30 4001 H 389.332 -0.013017 -1.89996 0
M  V30 4002 H 387.482 2.02451 -3.31581 0
M  V30 4003 H 389.154 -0.243689 -4.60656 0
M  V30 4004 H 387.397 -0.29844 -4.32772 0
M  V30 4005 H 388.068 0.891145 -5.44759 0
M  V30 4006 H 390.544 1.80295 -3.7501 0
M  V30 4007 H 389.42 2.77084 -4.73831 0
M  V30 4008 H 389.681 3.19643 -3.05419 0
M  V30 4009 N 388.74 1.54641 0.303973 0
M  V30 4010 C 389.67 1.88386 1.3796 0
M  V30 4011 C 390.651 0.742485 1.5304 0
M  V30 4012 O 391.836 0.997959 1.66597 0
M  V30 4013 C 388.966 2.12854 2.74427 0
M  V30 4014 C 387.92 3.28702 2.74115 0
M  V30 4015 C 387.246 3.38582 4.13844 0
M  V30 4016 C 388.546 4.65881 2.3612 0
M  V30 4017 H 390.24 2.78474 1.09966 0
M  V30 4018 H 387.786 1.33988 0.527556 0
M  V30 4019 H 389.739 2.35047 3.49758 0
M  V30 4020 H 388.463 1.19535 3.03939 0
M  V30 4021 H 387.122 3.06428 2.0124 0
M  V30 4022 H 386.77 2.42784 4.40528 0
M  V30 4023 H 386.47 4.16453 4.14537 0
M  V30 4024 H 387.994 3.63031 4.90959 0
M  V30 4025 H 389.408 4.87823 3.01167 0
M  V30 4026 H 387.805 5.46444 2.48031 0
M  V30 4027 H 388.875 4.66799 1.3125 0
M  V30 4028 N 390.218 -0.567019 1.47046 0
M  V30 4029 C 391.148 -1.68482 1.61667 0
M  V30 4030 C 392.129 -1.6358 0.466418 0
M  V30 4031 O 393.314 -1.81354 0.694574 0
M  V30 4032 C 390.444 -3.07124 1.62148 0
M  V30 4033 C 389.398 -3.26867 2.76301 0
M  V30 4034 C 388.724 -4.66196 2.61849 0
M  V30 4035 C 390.024 -3.13186 4.17986 0
M  V30 4036 H 391.718 -1.56502 2.5524 0
M  V30 4037 H 389.264 -0.751486 1.22836 0
M  V30 4038 H 391.217 -3.8516 1.70968 0
M  V30 4039 H 389.941 -3.2004 0.651287 0
M  V30 4040 H 388.6 -2.51237 2.66975 0
M  V30 4041 H 388.248 -4.75898 1.62879 0
M  V30 4042 H 387.948 -4.80356 3.38425 0
M  V30 4043 H 389.472 -5.46379 2.72584 0
M  V30 4044 H 390.886 -3.81049 4.2834 0
M  V30 4045 H 389.283 -3.3886 4.95272 0
M  V30 4046 H 390.353 -2.10057 4.3704 0
M  V30 4047 N 391.696 -1.35014 -0.812953 0
M  V30 4048 C 392.973 -1.18502 -1.55617 0
M  V30 4049 C 393.353 0.238421 -2.09749 0
M  V30 4050 O 392.701 1.2411 -1.91857 0
M  V30 4051 C 392.911 -2.24783 -2.66971 0
M  V30 4052 C 394.259 -2.60268 -3.35478 0
M  V30 4053 O 395.283 -2.23648 -2.77236 0
M  V30 4054 O 394.142 -3.2321 -4.40678 0
M  V30 4055 H 391.236 -0.459984 -0.687272 0
M  V30 4056 H 393.782 -1.46677 -0.853464 0
M  V30 4057 H 392.554 -3.20284 -2.24798 0
M  V30 4058 H 392.177 -1.97841 -3.44884 0
M  V30 4059 N 393.175 1.03435 -1.18907 0
M  V30 4060 C 394.085 2.15075 -0.937015 0
M  V30 4061 C 395.101 1.73706 0.101085 0
M  V30 4062 O 396.277 2.01232 -0.0822948 0
M  V30 4063 C 393.342 3.43458 -0.473057 0
M  V30 4064 C 392.403 3.99172 -1.57989 0
M  V30 4065 C 391.636 5.21427 -1.13797 0
M  V30 4066 O 391.859 5.704 0.000725941 0
M  V30 4067 O 390.793 5.69837 -1.9383 0
M  V30 4068 H 394.619 2.39198 -1.87131 0
M  V30 4069 H 392.204 1.13506 -0.971427 0
M  V30 4070 H 394.086 4.20811 -0.222702 0
M  V30 4071 H 392.761 3.20793 0.432869 0
M  V30 4072 H 391.668 3.23178 -1.88433 0
M  V30 4073 H 393.001 4.2619 -2.46217 0
M  V30 4074 N 394.653 0.992116 1.22453 0
M  V30 4075 C 395.601 0.534644 2.26372 0
M  V30 4076 C 396.595 -0.414293 1.64256 0
M  V30 4077 O 397.801 -0.286899 1.77699 0
M  V30 4078 H 394.176 0.154502 0.735957 0
M  V30 4079 H 396.147 1.42256 2.62309 0
M  V30 4080 C 394.896 -0.135815 3.47435 0
M  V30 4081 H 394.219 0.585311 3.95492 0
M  V30 4082 H 395.659 -0.419374 4.21921 0
M  V30 4083 C 394.118 -1.37089 3.07747 0
M  V30 4084 O 394.648 -2.46629 3.17076 0
M  V30 4085 N 392.854 -1.24585 2.62539 0
M  V30 4086 H 392.401 -0.354542 2.55149 0
M  V30 4087 H 392.359 -2.07327 2.36353 0
M  V30 4088 N 396.131 -1.37776 0.765217 0
M  V30 4089 C 397.379 -1.99454 0.325943 0
M  V30 4090 C 397.7 -1.61049 -1.09947 0
M  V30 4091 O 396.97 -0.872821 -1.75381 0
M  V30 4092 H 395.55 -0.737697 0.117525 0
M  V30 4093 H 398.212 -1.68359 0.981895 0
M  V30 4094 H 397.308 -3.09547 0.398353 0
M  V30 4095 N 397.609 -0.515225 -1.4894 0
M  V30 4096 C 398.855 0.0242508 -2.02785 0
M  V30 4097 C 399.188 1.35323 -1.39289 0
M  V30 4098 O 398.463 1.87041 -0.533469 0
M  V30 4099 C 398.746 0.16184 -3.59736 0
M  V30 4100 C 398.599 -1.19127 -4.33738 0
M  V30 4101 C 399.918 0.895719 -4.30888 0
M  V30 4102 H 397.037 0.00733914 -0.736963 0
M  V30 4103 H 399.679 -0.669395 -1.77818 0
M  V30 4104 H 397.829 0.752624 -3.8114 0
M  V30 4105 H 399.501 -1.82202 -4.23792 0
M  V30 4106 H 397.744 -1.77695 -3.95736 0
M  V30 4107 H 398.415 -1.04815 -5.41957 0
M  V30 4108 H 400.891 0.394528 -4.14225 0
M  V30 4109 H 399.767 0.960859 -5.40425 0
M  V30 4110 H 400.028 1.9427 -3.97129 0
M  V30 4111 N 399.087 1.5561 -0.249682 0
M  V30 4112 C 400.335 1.98618 0.373548 0
M  V30 4113 C 400.656 1.13919 1.58264 0
M  V30 4114 O 399.926 0.222637 1.94631 0
M  V30 4115 H 398.506 0.733571 0.141006 0
M  V30 4116 H 401.168 1.91748 -0.349117 0
M  V30 4117 H 400.264 3.04584 0.680796 0
M  V30 4118 N 400.565 -0.0233959 1.57583 0
M  V30 4119 C 401.976 -0.56927 1.77809 0
M  V30 4120 C 402.327 -1.75284 0.881472 0
M  V30 4121 O 401.452 -2.1626 0.0777805 0
M  V30 4122 C 402.047 -1.03949 3.22459 0
M  V30 4123 C 400.606 -1.53084 3.43864 0
M  V30 4124 C 399.753 -0.471454 2.73263 0
M  V30 4125 H 402.704 0.202825 1.57399 0
M  V30 4126 H 402.725 -1.90661 3.29285 0
M  V30 4127 H 402.237 -0.177865 3.87692 0
M  V30 4128 H 400.338 -2.41414 2.83814 0
M  V30 4129 H 400.451 -1.57443 4.52491 0
M  V30 4130 H 398.815 -0.927788 2.37201 0
M  V30 4131 H 399.598 0.380808 3.41181 0
M  V30 4132 N 402.043 -1.548 -0.295768 0
M  V30 4133 C 402.973 -1.89115 -1.36959 0
M  V30 4134 C 403.954 -0.75059 -1.52644 0
M  V30 4135 O 405.139 -1.00678 -1.66065 0
M  V30 4136 C 402.269 -2.14307 -2.73295 0
M  V30 4137 C 401.223 -3.30151 -2.72368 0
M  V30 4138 C 400.549 -3.40772 -4.12042 0
M  V30 4139 C 401.849 -4.67126 -2.33646 0
M  V30 4140 H 403.543 -2.79053 -1.08488 0
M  V30 4141 H 401.089 -1.34266 -0.520443 0
M  V30 4142 H 403.042 -2.36898 -3.48507 0
M  V30 4143 H 401.766 -1.21145 -3.03301 0
M  V30 4144 H 400.425 -3.0749 -1.99613 0
M  V30 4145 H 400.073 -2.45117 -4.39234 0
M  V30 4146 H 399.773 -4.18645 -4.12322 0
M  V30 4147 H 401.297 -3.6563 -4.89027 0
M  V30 4148 H 402.711 -4.89414 -2.98575 0
M  V30 4149 H 401.108 -5.47751 -2.45129 0
M  V30 4150 H 402.178 -4.67489 -1.28772 0
M  V30 4151 N 403.521 0.559213 -1.47345 0
M  V30 4152 C 404.761 1.32728 -1.55444 0
M  V30 4153 C 405.125 1.90838 -0.210895 0
M  V30 4154 O 406.326 2.68282 -0.166719 0
M  V30 4155 C 404.597 2.4092 -2.63993 0
M  V30 4156 S 406.156 3.2784 -2.91661 0
M  V30 4157 H 402.974 0.451883 -0.548929 0
M  V30 4158 H 405.576 0.640404 -1.84714 0
M  V30 4159 H 404.28 1.9666 -3.60212 0
M  V30 4160 H 403.811 3.14351 -2.36531 0
M  V30 4161 H 405.826 4.40341 -2.28722 0
M  V30 4162 N 404.999 1.35443 0.805782 0
M  V30 4163 C 405.946 1.28431 1.91766 0
M  V30 4164 C 406.916 0.156102 1.65365 0
M  V30 4165 O 408.101 0.339936 1.87747 0
M  V30 4166 C 405.241 1.06301 3.2832 0
M  V30 4167 C 404.354 2.2805 3.66902 0
M  V30 4168 C 403.489 1.99064 4.92491 0
M  V30 4169 C 402.528 3.16863 5.23703 0
M  V30 4170 N 401.665 2.87647 6.40471 0
M  V30 4171 H 406.505 2.23511 1.97096 0
M  V30 4172 H 404.042 1.11105 0.964054 0
M  V30 4173 H 406 0.915012 4.07042 0
M  V30 4174 H 404.63 0.148822 3.22457 0
M  V30 4175 H 403.682 2.53711 2.83434 0
M  V30 4176 H 404.994 3.1601 3.85927 0
M  V30 4177 H 404.148 1.81099 5.7904 0
M  V30 4178 H 402.887 1.0839 4.75503 0
M  V30 4179 H 401.892 3.35404 4.35642 0
M  V30 4180 H 403.117 4.08339 5.4262 0
M  V30 4181 H 401.063 1.99568 6.24907 0
M  V30 4182 H 400.98 3.69141 6.59751 0
M  V30 4183 H 402.248 2.73226 7.30047 0
M  V30 4184 N 406.477 -1.02803 1.19454 0
M  V30 4185 C 407.725 -1.75869 0.995722 0
M  V30 4186 C 408.046 -1.89138 -0.474543 0
M  V30 4187 O 407.316 -1.42558 -1.34366 0
M  V30 4188 H 405.896 -0.651511 0.365435 0
M  V30 4189 H 408.558 -1.24004 1.50363 0
M  V30 4190 H 407.654 -2.76661 1.44447 0
M  V30 4191 N 407.956 -0.998596 -1.21925 0
M  V30 4192 C 408.866 -0.562736 -2.27751 0
M  V30 4193 C 409.882 0.391203 -1.69545 0
M  V30 4194 O 411.058 0.256625 -1.99758 0
M  V30 4195 C 408.123 0.11012 -3.46525 0
M  V30 4196 C 407.184 -0.887495 -4.20026 0
M  V30 4197 C 406.417 -0.246654 -5.3313 0
M  V30 4198 O 406.64 0.958088 -5.62296 0
M  V30 4199 O 405.574 -0.954374 -5.94286 0
M  V30 4200 H 409.4 -1.44329 -2.67213 0
M  V30 4201 H 406.985 -0.767135 -1.28201 0
M  V30 4202 H 408.867 0.486756 -4.18579 0
M  V30 4203 H 407.542 0.965154 -3.08976 0
M  V30 4204 H 406.449 -1.31517 -3.5022 0
M  V30 4205 H 407.782 -1.71191 -4.6147 0
M  V30 4206 N 409.434 1.37368 -0.772513 0
M  V30 4207 C 410.682 1.99279 -0.336516 0
M  V30 4208 C 411.003 1.6163 1.09091 0
M  V30 4209 O 410.273 0.882109 1.74916 0
M  V30 4210 H 408.853 0.737063 -0.121435 0
M  V30 4211 H 411.515 1.67836 -0.990809 0
M  V30 4212 H 410.611 3.09332 -0.414763 0
M  V30 4213 N 410.912 0.523116 1.48665 0
M  V30 4214 C 411.842 -0.23231 2.32342 0
M  V30 4215 C 412.823 -0.941637 1.41659 0
M  V30 4216 O 414.008 -0.928751 1.70552 0
M  V30 4217 C 411.138 -1.28387 3.22698 0
M  V30 4218 C 410.092 -0.693098 4.22351 0
M  V30 4219 C 409.418 -1.8468 5.01794 0
M  V30 4220 C 410.718 0.33063 5.21252 0
M  V30 4221 H 412.412 0.466192 2.95748 0
M  V30 4222 H 409.958 0.225643 1.42221 0
M  V30 4223 H 411.911 -1.82024 3.80059 0
M  V30 4224 H 410.635 -2.01186 2.57278 0
M  V30 4225 H 409.294 -0.178299 3.66166 0
M  V30 4226 H 408.942 -2.56301 4.32804 0
M  V30 4227 H 408.642 -1.45747 5.69238 0
M  V30 4228 H 410.166 -2.38709 5.62006 0
M  V30 4229 H 411.58 -0.118407 5.73178 0
M  V30 4230 H 409.977 0.636974 5.9671 0
M  V30 4231 H 411.047 1.23883 4.68808 0
M  V30 4232 N 412.39 -1.55475 0.257931 0
M  V30 4233 C 413.62 -2.03314 -0.367026 0
M  V30 4234 C 414.028 -1.13625 -1.51281 0
M  V30 4235 O 413.371 -0.145334 -1.83124 0
M  V30 4236 C 413.433 -3.47362 -0.926284 0
M  V30 4237 C 413.097 -4.56914 0.0886584 0
M  V30 4238 C 414.094 -5.12013 0.902123 0
M  V30 4239 C 411.779 -5.01827 0.217936 0
M  V30 4240 C 413.773 -6.10529 1.83122 0
M  V30 4241 C 411.46 -6.00172 1.15052 0
M  V30 4242 C 412.458 -6.54402 1.95568 0
M  V30 4243 O 412.146 -7.50827 2.87253 0
M  V30 4244 H 411.878 -0.669976 -0.0900443 0
M  V30 4245 H 414.432 -2.01804 0.382673 0
M  V30 4246 H 412.662 -3.46056 -1.72575 0
M  V30 4247 H 414.351 -3.78637 -1.46249 0
M  V30 4248 H 415.117 -4.78139 0.812891 0
M  V30 4249 H 410.996 -4.59272 -0.398721 0
M  V30 4250 H 414.54 -6.52783 2.46008 0
M  V30 4251 H 410.437 -6.33465 1.24064 0
M  V30 4252 H 411.205 -7.68483 2.81739 0
M  V30 4253 N 413.868 0.0150385 -1.57593 0
M  V30 4254 C 414.798 1.01047 -2.10503 0
M  V30 4255 C 415.779 1.36816 -1.01071 0
M  V30 4256 O 416.964 1.45455 -1.28672 0
M  V30 4257 C 414.094 2.30708 -2.59598 0
M  V30 4258 C 413.048 2.09142 -3.73421 0
M  V30 4259 C 412.374 3.44685 -4.08774 0
M  V30 4260 C 413.674 1.46619 -5.01298 0
M  V30 4261 H 415.368 0.569978 -2.93925 0
M  V30 4262 H 412.914 0.272724 -1.41394 0
M  V30 4263 H 414.867 3.00687 -2.95238 0
M  V30 4264 H 413.591 2.76843 -1.73279 0
M  V30 4265 H 412.25 1.41592 -3.38153 0
M  V30 4266 H 411.898 3.88495 -3.195 0
M  V30 4267 H 411.598 3.31077 -4.8545 0
M  V30 4268 H 413.122 4.16004 -4.4696 0
M  V30 4269 H 414.536 2.06535 -5.34805 0
M  V30 4270 H 412.933 1.43544 -5.82679 0
M  V30 4271 H 414.003 0.433611 -4.82957 0
M  V30 4272 N 415.346 1.54954 0.287554 0
M  V30 4273 C 416.571 1.79209 1.04397 0
M  V30 4274 C 416.996 0.556431 1.79682 0
M  V30 4275 O 416.354 -0.493518 1.74454 0
M  V30 4276 C 416.402 3.00739 1.98969 0
M  V30 4277 O 415.506 2.74805 3.075 0
M  V30 4278 H 414.847 0.592755 0.299227 0
M  V30 4279 H 417.377 2.02068 0.320886 0
M  V30 4280 H 417.387 3.29077 2.4119 0
M  V30 4281 H 416.062 3.90329 1.43582 0
M  V30 4282 H 414.639 2.57523 2.69697 0
M  V30 4283 N 416.824 -0.551391 1.4764 0
M  V30 4284 C 418.064 -1.31901 1.56145 0
M  V30 4285 C 418.428 -1.90724 0.221013 0
M  V30 4286 O 419.629 -2.6819 0.180945 0
M  V30 4287 C 417.9 -2.39517 2.65267 0
M  V30 4288 S 419.459 -3.26289 2.93395 0
M  V30 4289 H 416.277 -0.448965 0.551318 0
M  V30 4290 H 418.879 -0.630599 1.85051 0
M  V30 4291 H 417.583 -1.94747 3.6125 0
M  V30 4292 H 417.114 -3.13092 2.38195 0
M  V30 4293 H 419.129 -4.39122 2.31055 0
M  V30 4294 N 418.302 -1.35869 -0.798587 0
M  V30 4295 C 419.548 -1.2978 -1.55836 0
M  V30 4296 C 419.881 0.125322 -1.93795 0
M  V30 4297 O 419.156 1.07658 -1.61987 0
M  V30 4298 C 419.439 -2.21188 -2.84162 0
M  V30 4299 C 419.292 -3.72155 -2.52628 0
M  V30 4300 C 420.611 -2.11545 -3.85923 0
M  V30 4301 H 417.73 -0.472769 -0.565383 0
M  V30 4302 H 420.372 -1.66341 -0.918192 0
M  V30 4303 H 418.522 -1.90139 -3.38791 0
M  V30 4304 H 420.194 -4.13682 -2.04121 0
M  V30 4305 H 418.437 -3.92042 -1.85704 0
M  V30 4306 H 419.108 -4.31511 -3.44242 0
M  V30 4307 H 421.584 -2.38855 -3.40716 0
M  V30 4308 H 420.46 -2.77688 -4.73477 0
M  V30 4309 H 420.721 -1.09987 -4.282 0
M  V30 4310 N 419.78 1.02168 -1.19998 0
M  V30 4311 C 421.057 1.72816 -0.916191 0
M  V30 4312 C 421.437 2.03081 0.576325 0
M  V30 4313 O 420.785 1.69122 1.53656 0
M  V30 4314 C 420.995 2.9997 -1.78378 0
M  V30 4315 C 422.343 3.73336 -2.02251 0
M  V30 4316 O 423.367 3.09914 -1.75589 0
M  V30 4317 O 422.226 4.87371 -2.47249 0
M  V30 4318 H 419.32 0.752924 -0.342103 0
M  V30 4319 H 421.866 1.08062 -1.30846 0
M  V30 4320 H 420.638 2.73888 -2.79466 0
M  V30 4321 H 420.261 3.72464 -1.39126 0
M  V30 4322 N 421.258 1.00505 1.21394 0
M  V30 4323 C 422.507 0.683159 1.89778 0
M  V30 4324 C 422.82 -0.789471 1.7896 0
M  V30 4325 O 424.026 -1.22344 2.42372 0
M  V30 4326 C 422.482 1.17146 3.40301 0
M  V30 4327 C 422.09 2.67017 3.5973 0
M  V30 4328 C 423.834 0.924461 4.14311 0
M  V30 4329 C 421.741 3.09387 5.04017 0
M  V30 4330 H 420.671 0.25183 0.710702 0
M  V30 4331 H 423.322 1.21622 1.37406 0
M  V30 4332 H 421.704 0.566451 3.91928 0
M  V30 4333 H 422.878 3.32968 3.18542 0
M  V30 4334 H 421.193 2.89732 2.99073 0
M  V30 4335 H 423.79 1.21658 5.20676 0
M  V30 4336 H 424.133 -0.139286 4.16067 0
M  V30 4337 H 424.666 1.49226 3.6875 0
M  V30 4338 H 421.405 4.14989 5.07409 0
M  V30 4339 H 420.925 2.48149 5.46061 0
M  V30 4340 H 422.604 3.01371 5.72525 0
M  V30 4341 N 422.737 -1.36956 0.779787 0
M  V30 4342 C 423.67 -2.27896 0.117681 0
M  V30 4343 C 424.648 -1.46736 -0.700523 0
M  V30 4344 O 425.832 -1.76055 -0.673568 0
M  V30 4345 C 422.959 -3.28136 -0.839296 0
M  V30 4346 C 422.005 -4.26373 -0.10409 0
M  V30 4347 S 422.838 -5.2157 1.21348 0
M  V30 4348 C 423.994 -6.25359 0.260249 0
M  V30 4349 H 424.227 -2.83704 0.888778 0
M  V30 4350 H 421.76 -1.43352 0.57355 0
M  V30 4351 H 423.718 -3.86394 -1.38601 0
M  V30 4352 H 422.379 -2.7126 -1.58356 0
M  V30 4353 H 421.572 -4.97121 -0.82986 0
M  V30 4354 H 421.174 -3.72147 0.371858 0
M  V30 4355 H 423.466 -6.75145 -0.564435 0
M  V30 4356 H 424.409 -7.01885 0.936135 0
M  V30 4357 H 424.817 -5.64345 -0.132127 0
M  V30 4358 N 424.215 -0.530993 -1.48385 0
M  V30 4359 C 425.463 0.00273189 -2.021 0
M  V30 4360 C 425.784 1.34672 -1.41027 0
M  V30 4361 O 425.054 1.8724 -0.576012 0
M  V30 4362 H 423.634 0.00399774 -0.746989 0
M  V30 4363 H 426.296 -0.695054 -1.82085 0
M  V30 4364 H 425.392 0.11031 -3.11905 0
M  V30 4365 N 425.693 1.55336 -0.266172 0
M  V30 4366 C 426.939 2.00423 0.346714 0
M  V30 4367 C 427.294 1.15132 1.54151 0
M  V30 4368 O 426.587 0.211289 1.90431 0
M  V30 4369 C 426.781 3.48606 0.787957 0
M  V30 4370 C 426.61 4.48236 -0.362535 0
M  V30 4371 C 425.38 4.98211 -0.843445 0
M  V30 4372 C 427.578 5.00199 -1.19603 0
M  V30 4373 N 425.56 5.81625 -1.96434 0
M  V30 4374 C 426.931 5.80973 -2.16497 0
M  V30 4375 C 428.986 4.82458 -1.2304 0
M  V30 4376 C 427.689 6.45896 -3.1656 0
M  V30 4377 C 429.715 5.48174 -2.21944 0
M  V30 4378 C 429.077 6.28751 -3.17571 0
M  V30 4379 H 425.176 0.776535 0.0922914 0
M  V30 4380 H 427.76 1.90792 -0.388154 0
M  V30 4381 H 425.931 3.58597 1.49207 0
M  V30 4382 H 427.663 3.80538 1.37742 0
M  V30 4383 H 424.418 4.71696 -0.424271 0
M  V30 4384 H 424.842 6.28025 -2.52813 0
M  V30 4385 H 429.484 4.19774 -0.504903 0
M  V30 4386 H 427.202 7.07734 -3.90048 0
M  V30 4387 H 430.788 5.36392 -2.25333 0
M  V30 4388 H 429.668 6.78703 -3.92851 0
M  V30 4389 N 427.171 -0.0066808 1.57599 0
M  V30 4390 C 428.587 -0.36267 1.55425 0
M  V30 4391 C 428.787 -1.75209 0.995187 0
M  V30 4392 O 427.843 -2.44616 0.626058 0
M  V30 4393 C 429.156 -0.244017 2.99708 0
M  V30 4394 C 430.704 -0.319451 3.11366 0
M  V30 4395 C 431.179 -0.229998 4.57422 0
M  V30 4396 N 432.67 -0.288105 4.62303 0
M  V30 4397 C 433.405 -0.242127 5.72889 0
M  V30 4398 N 432.901 -0.147133 6.92644 0
M  V30 4399 N 434.694 -0.293502 5.61333 0
M  V30 4400 H 426.845 0.902314 1.92281 0
M  V30 4401 H 429.108 0.34525 0.882896 0
M  V30 4402 H 428.814 0.711678 3.44424 0
M  V30 4403 H 428.688 -1.02877 3.629 0
M  V30 4404 H 431.075 -1.26559 2.66584 0
M  V30 4405 H 431.156 0.495055 2.50964 0
M  V30 4406 H 430.8 0.712566 5.02877 0
M  V30 4407 H 430.73 -1.0629 5.15761 0
M  V30 4408 H 433.221 -0.363126 3.76151 0
M  V30 4409 H 433.534 -0.117763 7.7271 0
M  V30 4410 H 431.879 -0.112857 6.94908 0
M  V30 4411 H 435.07 -0.365864 4.66668 0
M  V30 4412 H 435.243 -0.254204 6.47501 0
M  V30 4413 N 428.649 -1.55105 -0.279332 0
M  V30 4414 C 429.895 -1.75672 -1.01327 0
M  V30 4415 C 430.228 -0.552739 -1.86168 0
M  V30 4416 O 429.503 0.449827 -1.89227 0
M  V30 4417 C 429.786 -3.05825 -1.90114 0
M  V30 4418 C 429.639 -4.36565 -1.08309 0
M  V30 4419 C 430.958 -3.31975 -2.8893 0
M  V30 4420 H 428.077 -0.639149 -0.366957 0
M  V30 4421 H 430.719 -1.87833 -0.286154 0
M  V30 4422 H 428.869 -2.95588 -2.52111 0
M  V30 4423 H 430.541 -4.58751 -0.484314 0
M  V30 4424 H 428.784 -4.32076 -0.386362 0
M  V30 4425 H 429.455 -5.23946 -1.73737 0
M  V30 4426 H 431.931 -3.41963 -2.37067 0
M  V30 4427 H 430.807 -4.2432 -3.48201 0
M  V30 4428 H 431.068 -2.51309 -3.63725 0
M  V30 4429 N 430.127 0.543554 -1.4793 0
M  V30 4430 C 431.355 1.32516 -1.58894 0
M  V30 4431 C 431.77 1.87215 -0.244131 0
M  V30 4432 O 431.127 1.65709 0.764652 0
M  V30 4433 C 431.178 2.48554 -2.62494 0
M  V30 4434 O 430.899 1.96112 -3.91755 0
M  V30 4435 C 432.4 3.40572 -2.8377 0
M  V30 4436 H 429.62 0.403472 -0.536145 0
M  V30 4437 H 432.164 0.657106 -1.93655 0
M  V30 4438 H 430.319 3.1127 -2.30629 0
M  V30 4439 H 430.733 2.71967 -4.4848 0
M  V30 4440 H 432.207 4.18375 -3.60093 0
M  V30 4441 H 432.684 3.94965 -1.92092 0
M  V30 4442 H 433.29 2.8366 -3.16887 0
M  V30 4443 N 431.605 1.3629 0.791371 0
M  V30 4444 C 433.021 1.16661 1.08914 0
M  V30 4445 C 433.221 -0.0106266 2.01497 0
M  V30 4446 O 432.277 -0.676596 2.43266 0
M  V30 4447 C 433.59 2.47656 1.70549 0
M  V30 4448 C 435.138 2.54002 1.82899 0
M  V30 4449 C 435.613 3.85078 2.47949 0
M  V30 4450 N 437.104 3.86413 2.5542 0
M  V30 4451 C 437.839 4.84572 3.06557 0
M  V30 4452 N 437.335 5.93124 3.58016 0
M  V30 4453 N 439.128 4.71994 3.05251 0
M  V30 4454 H 431.279 2.11668 0.176238 0
M  V30 4455 H 433.542 0.937486 0.140796 0
M  V30 4456 H 433.248 3.34059 1.09989 0
M  V30 4457 H 433.122 2.63319 2.70079 0
M  V30 4458 H 435.509 1.68018 2.42598 0
M  V30 4459 H 435.59 2.42239 0.821808 0
M  V30 4460 H 435.234 4.71467 1.88895 0
M  V30 4461 H 435.164 3.94135 3.49235 0
M  V30 4462 H 437.655 3.07988 2.18979 0
M  V30 4463 H 437.968 6.63999 3.95381 0
M  V30 4464 H 436.313 5.96796 3.56173 0
M  V30 4465 H 439.504 3.86321 2.64336 0
M  V30 4466 H 439.677 5.48653 3.44796 0
M  V30 4467 N 433.083 -1.0153 1.20538 0
M  V30 4468 C 434.031 -2.12215 0.952235 0
M  V30 4469 C 435.025 -1.69123 -0.0968735 0
M  V30 4470 O 436.231 -1.7992 0.0536006 0
M  V30 4471 H 432.606 -0.693576 0.290613 0
M  V30 4472 H 434.577 -2.3075 1.89201 0
M  V30 4473 C 433.326 -3.43755 0.522287 0
M  V30 4474 H 432.649 -3.7734 1.32115 0
M  V30 4475 H 434.089 -4.22254 0.384389 0
M  V30 4476 C 432.548 -3.28088 -0.765489 0
M  V30 4477 O 433.078 -3.57921 -1.8236 0
M  V30 4478 N 431.284 -2.81333 -0.728011 0
M  V30 4479 H 430.831 -2.57255 0.133332 0
M  V30 4480 H 430.789 -2.71232 -1.58999 0
M  V30 4481 N 434.561 -1.01147 -1.20859 0
M  V30 4482 C 435.791 -0.715872 -1.93801 0
M  V30 4483 C 436.199 0.726592 -1.74692 0
M  V30 4484 O 435.542 1.50397 -1.05482 0
M  V30 4485 C 435.604 -0.965269 -3.46299 0
M  V30 4486 C 435.268 -2.39584 -3.89164 0
M  V30 4487 C 436.265 -3.3764 -3.95342 0
M  V30 4488 C 433.95 -2.73522 -4.21297 0
M  V30 4489 C 435.944 -4.67698 -4.33056 0
M  V30 4490 C 433.631 -4.03794 -4.58687 0
M  V30 4491 C 434.629 -5.00693 -4.64538 0
M  V30 4492 O 434.317 -6.28635 -5.01072 0
M  V30 4493 H 434.049 -0.262524 -0.622942 0
M  V30 4494 H 436.603 -1.35413 -1.54443 0
M  V30 4495 H 434.833 -0.269847 -3.85757 0
M  V30 4496 H 436.522 -0.662051 -4.00464 0
M  V30 4497 H 437.288 -3.12757 -3.70686 0
M  V30 4498 H 433.167 -1.9879 -4.15937 0
M  V30 4499 H 436.711 -5.4333 -4.37537 0
M  V30 4500 H 432.608 -4.28459 -4.82797 0
M  V30 4501 H 433.376 -6.32847 -5.19083 0
M  V30 4502 N 436.039 1.36541 -0.78704 0
M  V30 4503 C 437.316 1.9355 -0.282424 0
M  V30 4504 C 437.696 1.71919 1.22503 0
M  V30 4505 O 437.044 1.07677 2.01539 0
M  V30 4506 C 437.254 3.4246 -0.672462 0
M  V30 4507 C 438.602 4.19582 -0.650863 0
M  V30 4508 O 439.626 3.50889 -0.612789 0
M  V30 4509 O 438.485 5.42106 -0.691623 0
M  V30 4510 H 435.579 0.824091 -0.0693 0
M  V30 4511 H 438.125 1.45736 -0.869423 0
M  V30 4512 H 436.897 3.51851 -1.71221 0
M  V30 4513 H 436.52 3.97556 -0.0592211 0
M  V30 4514 N 437.518 0.538854 1.48102 0
M  V30 4515 C 438.764 0.00801365 2.02798 0
M  V30 4516 C 439.097 -1.3309 1.41424 0
M  V30 4517 O 438.372 -1.86169 0.563158 0
M  V30 4518 C 438.655 -0.104589 3.59948 0
M  V30 4519 C 438.508 1.26012 4.31788 0
M  V30 4520 C 439.827 -0.827055 4.32259 0
M  V30 4521 H 436.946 0.00438624 0.736987 0
M  V30 4522 H 439.588 0.6976 1.7673 0
M  V30 4523 H 437.738 -0.691893 3.82289 0
M  V30 4524 H 439.41 1.88922 4.2084 0
M  V30 4525 H 437.653 1.83968 3.92859 0
M  V30 4526 H 438.324 1.13424 5.40221 0
M  V30 4527 H 440.8 -0.328578 4.14801 0
M  V30 4528 H 439.676 -0.87476 5.41885 0
M  V30 4529 H 439.937 -1.87927 4.0017 0
M  V30 4530 N 438.996 -1.55193 0.274407 0
M  V30 4531 C 439.946 -2.19184 -0.627882 0
M  V30 4532 C 440.93 -1.15625 -1.11892 0
M  V30 4533 O 442.122 -1.41441 -1.06411 0
M  V30 4534 C 439.251 -2.91591 -1.81189 0
M  V30 4535 C 438.337 -4.02438 -1.33807 0
M  V30 4536 N 438.728 -5.0246 -0.580349 0
M  V30 4537 C 437.026 -4.15496 -1.62109 0
M  V30 4538 C 437.727 -5.80756 -0.331344 0
M  V30 4539 N 436.703 -5.36038 -0.903556 0
M  V30 4540 H 440.505 -2.93871 -0.0411216 0
M  V30 4541 H 438.019 -1.62213 0.0779348 0
M  V30 4542 H 440.016 -3.35883 -2.46957 0
M  V30 4543 H 438.676 -2.18414 -2.40261 0
M  V30 4544 H 439.687 -5.17399 -0.227762 0
M  V30 4545 H 436.364 -3.53509 -2.22121 0
M  V30 4546 H 437.754 -6.71335 0.275454 0
M  V30 4547 N 440.474 -0.00167713 -1.576 0
M  V30 4548 C 441.424 0.997744 -2.0501 0
M  V30 4549 C 442.408 1.30214 -0.94515 0
M  V30 4550 O 443.6 1.29284 -1.20891 0
M  V30 4551 C 440.729 2.2892 -2.55833 0
M  V30 4552 C 439.815 2.01437 -3.73208 0
M  V30 4553 N 440.206 1.44119 -4.84833 0
M  V30 4554 C 438.504 2.31571 -3.8117 0
M  V30 4555 C 439.205 1.33145 -5.66257 0
M  V30 4556 N 438.181 1.81763 -5.12312 0
M  V30 4557 H 441.983 0.549098 -2.88725 0
M  V30 4558 H 439.497 0.20398 -1.61114 0
M  V30 4559 H 441.494 3.01361 -2.88075 0
M  V30 4560 H 440.154 2.74436 -1.73537 0
M  V30 4561 H 441.165 1.11978 -5.0565 0
M  V30 4562 H 437.842 2.7995 -3.09732 0
M  V30 4563 H 439.232 0.890567 -6.65972 0
M  V30 4564 N 441.952 1.55251 0.271103 0
M  V30 4565 C 443.198 1.7713 0.999832 0
M  V30 4566 C 443.553 0.56659 1.83868 0
M  V30 4567 O 442.846 -0.44069 1.86463 0
M  V30 4568 C 443.04 3.01879 1.91321 0
M  V30 4569 C 442.869 4.34368 1.16426 0
M  V30 4570 C 441.639 4.97593 0.879169 0
M  V30 4571 C 443.837 5.1131 0.553749 0
M  V30 4572 N 441.819 6.13813 0.103618 0
M  V30 4573 C 443.19 6.19938 -0.0875442 0
M  V30 4574 C 445.245 4.95754 0.461782 0
M  V30 4575 C 443.948 7.14703 -0.811942 0
M  V30 4576 C 445.974 5.90875 -0.249027 0
M  V30 4577 C 445.336 6.98893 -0.879051 0
M  V30 4578 H 441.435 0.700407 0.347784 0
M  V30 4579 H 444.019 1.92744 0.275314 0
M  V30 4580 H 442.19 2.87637 2.60997 0
M  V30 4581 H 443.922 3.12154 2.57569 0
M  V30 4582 H 440.677 4.58538 1.18491 0
M  V30 4583 H 441.101 6.76455 -0.271543 0
M  V30 4584 H 445.743 4.12342 0.934552 0
M  V30 4585 H 443.461 7.97634 -1.29639 0
M  V30 4586 H 447.047 5.80916 -0.320529 0
M  V30 4587 H 445.927 7.71231 -1.42031 0
M  V30 4588 N 443.43 -0.535701 1.48216 0
M  V30 4589 C 444.846 -0.863701 1.3421 0
M  V30 4590 C 445.046 -1.98458 0.34879 0
M  V30 4591 O 444.102 -2.51432 -0.23204 0
M  V30 4592 C 445.415 -1.23662 2.74095 0
M  V30 4593 C 446.963 -1.34683 2.82541 0
M  V30 4594 C 447.438 -1.75322 4.23115 0
M  V30 4595 N 448.929 -1.82434 4.2576 0
M  V30 4596 C 449.664 -2.15252 5.31464 0
M  V30 4597 N 449.16 -2.46533 6.47452 0
M  V30 4598 N 450.953 -2.16209 5.18855 0
M  V30 4599 H 443.104 0.203965 2.11418 0
M  V30 4600 H 445.367 0.0286033 0.947568 0
M  V30 4601 H 445.073 -0.486674 3.48316 0
M  V30 4602 H 444.947 -2.18805 3.07253 0
M  V30 4603 H 447.334 -2.08756 2.08579 0
M  V30 4604 H 447.415 -0.376756 2.5301 0
M  V30 4605 H 447.059 -1.01812 4.97591 0
M  V30 4606 H 446.989 -2.7337 4.50085 0
M  V30 4607 H 449.48 -1.6056 3.42095 0
M  V30 4608 H 449.793 -2.70662 7.23852 0
M  V30 4609 H 448.138 -2.44065 6.50736 0
M  V30 4610 H 451.329 -1.91224 4.2726 0
M  V30 4611 H 451.502 -2.41453 6.01335 0
M  V30 4612 N 444.908 -1.36708 -0.784132 0
M  V30 4613 C 446.156 -1.30972 -1.53918 0
M  V30 4614 C 446.477 0.109086 -1.94695 0
M  V30 4615 O 445.747 1.05048 -1.65353 0
M  V30 4616 H 444.327 -0.481819 -0.570841 0
M  V30 4617 H 446.989 -1.71063 -0.934002 0
M  V30 4618 H 446.085 -1.94061 -2.44431 0
M  V30 4619 N 446.386 1.0089 -1.21074 0
M  V30 4620 C 447.316 2.1145 -0.990523 0
M  V30 4621 C 448.297 1.69897 0.0831699 0
M  V30 4622 O 449.482 1.94052 -0.0758853 0
M  V30 4623 C 446.612 3.42914 -0.550177 0
M  V30 4624 C 445.566 3.98244 -1.56799 0
M  V30 4625 C 444.892 5.25568 -0.984013 0
M  V30 4626 C 446.192 4.30752 -2.95381 0
M  V30 4627 H 447.886 2.3013 -1.91521 0
M  V30 4628 H 445.432 1.10592 -0.92225 0
M  V30 4629 H 447.385 4.19653 -0.383305 0
M  V30 4630 H 446.109 3.24014 0.41015 0
M  V30 4631 H 444.768 3.23621 -1.72236 0
M  V30 4632 H 444.416 5.02998 -0.0155216 0
M  V30 4633 H 444.116 5.63551 -1.66384 0
M  V30 4634 H 445.64 6.04955 -0.828378 0
M  V30 4635 H 447.054 4.98349 -2.8341 0
M  V30 4636 H 445.451 4.79869 -3.60341 0
M  V30 4637 H 446.521 3.39192 -3.46521 0
M  V30 4638 N 447.864 1.01787 1.20321 0
M  V30 4639 C 449.275 0.739307 1.71438 0
M  V30 4640 C 449.626 -0.742041 1.81627 0
M  V30 4641 O 448.751 -1.57903 1.47971 0
M  V30 4642 C 449.346 1.33538 3.11373 0
M  V30 4643 C 447.905 1.10566 3.59795 0
M  V30 4644 C 447.052 1.44028 2.36962 0
M  V30 4645 H 450.003 1.18718 1.05317 0
M  V30 4646 H 450.024 0.726611 3.73498 0
M  V30 4647 H 449.536 2.41352 3.03926 0
M  V30 4648 H 447.637 0.0452405 3.72573 0
M  V30 4649 H 447.75 1.78661 4.44542 0
M  V30 4650 H 446.114 0.85933 2.39766 0
M  V30 4651 H 446.897 2.52901 2.32155 0
M  V30 4652 N 449.342 -1.36122 0.79427 0
M  V30 4653 C 450.758 -1.5232 0.476525 0
M  V30 4654 C 450.958 -1.74685 -1.00436 0
M  V30 4655 O 450.014 -1.78115 -1.78973 0
M  V30 4656 C 451.327 -2.70607 1.31119 0
M  V30 4657 C 452.875 -2.8448 1.30537 0
M  V30 4658 C 453.35 -4.05778 2.12387 0
M  V30 4659 N 454.841 -4.12933 2.09859 0
M  V30 4660 C 455.576 -5.05876 2.69957 0
M  V30 4661 N 455.072 -6.04232 3.38934 0
M  V30 4662 N 456.865 -4.98528 2.59665 0
M  V30 4663 H 449.016 -1.1986 1.75349 0
M  V30 4664 H 451.279 -0.585418 0.745647 0
M  V30 4665 H 450.985 -2.60619 2.36158 0
M  V30 4666 H 450.859 -3.64888 0.955843 0
M  V30 4667 H 453.246 -2.93927 0.262876 0
M  V30 4668 H 453.327 -1.91093 1.70051 0
M  V30 4669 H 452.971 -3.97092 3.1667 0
M  V30 4670 H 452.901 -4.98323 1.70242 0
M  V30 4671 H 455.392 -3.42515 1.59662 0
M  V30 4672 H 455.705 -6.71724 3.82109 0
M  V30 4673 H 454.05 -6.04443 3.43036 0
M  V30 4674 H 457.241 -4.20641 2.05375 0
M  V30 4675 H 457.414 -5.70773 3.06793 0
M  V30 4676 N 450.82 -0.546701 -1.47814 0
M  V30 4677 C 452.05 -0.0232519 -2.06587 0
M  V30 4678 C 452.458 1.2712 -1.40133 0
M  V30 4679 O 451.801 1.77091 -0.488305 0
M  V30 4680 C 451.863 0.254117 -3.58601 0
M  V30 4681 C 451.527 -0.949331 -4.47031 0
M  V30 4682 C 452.524 -1.85216 -4.85789 0
M  V30 4683 C 450.209 -1.16104 -4.88697 0
M  V30 4684 C 452.203 -2.95047 -5.65001 0
M  V30 4685 C 449.89 -2.26247 -5.67676 0
M  V30 4686 C 450.888 -3.1555 -6.05737 0
M  V30 4687 O 450.576 -4.23784 -6.83127 0
M  V30 4688 H 450.308 -0.0380082 -0.674931 0
M  V30 4689 H 452.862 -0.756631 -1.90956 0
M  V30 4690 H 451.092 1.04168 -3.72406 0
M  V30 4691 H 452.781 0.72167 -3.99433 0
M  V30 4692 H 453.547 -1.70061 -4.54207 0
M  V30 4693 H 449.426 -0.475159 -4.58545 0
M  V30 4694 H 452.97 -3.64778 -5.94628 0
M  V30 4695 H 448.867 -2.41379 -5.98671 0
M  V30 4696 H 449.635 -4.21701 -7.01506 0
M  V30 4697 N 452.299 1.55045 -0.282633 0
M  V30 4698 C 453.546 1.9976 0.33199 0
M  V30 4699 C 453.874 1.17105 1.55295 0
M  V30 4700 O 453.129 0.230599 1.94337 0
M  V30 4701 C 453.428 3.49422 0.750938 0
M  V30 4702 C 453.094 4.4941 -0.366228 0
M  V30 4703 C 451.756 4.76471 -0.672964 0
M  V30 4704 C 454.108 5.09054 -1.11864 0
M  V30 4705 C 451.436 5.60442 -1.73556 0
M  V30 4706 C 453.788 5.9418 -2.17102 0
M  V30 4707 C 452.452 6.19558 -2.48402 0
M  V30 4708 H 451.722 0.730974 0.121484 0
M  V30 4709 H 454.369 1.8732 -0.39791 0
M  V30 4710 H 452.674 3.59377 1.56063 0
M  V30 4711 H 454.371 3.81432 1.23736 0
M  V30 4712 H 450.961 4.2844 -0.117041 0
M  V30 4713 H 455.145 4.88165 -0.894925 0
M  V30 4714 H 450.401 5.78349 -1.983 0
M  V30 4715 H 454.575 6.39427 -2.75873 0
M  V30 4716 H 452.202 6.84417 -3.30874 0
M  V30 4717 N 453.777 0.010035 1.57597 0
M  V30 4718 C 454.724 -0.978122 2.09049 0
M  V30 4719 C 455.694 -1.33509 0.988159 0
M  V30 4720 O 456.879 -1.43172 1.26121 0
M  V30 4721 C 454.019 -2.26158 2.60666 0
M  V30 4722 C 453.132 -1.96275 3.84838 0
M  V30 4723 C 452.267 -3.18776 4.24918 0
M  V30 4724 C 451.306 -2.84625 5.41899 0
M  V30 4725 N 450.443 -3.99693 5.77226 0
M  V30 4726 H 455.283 -0.532431 2.93205 0
M  V30 4727 H 452.82 -0.251234 1.44939 0
M  V30 4728 H 454.778 -3.01202 2.88675 0
M  V30 4729 H 453.408 -2.68378 1.79369 0
M  V30 4730 H 452.46 -1.11555 3.63675 0
M  V30 4731 H 453.772 -1.67111 4.69974 0
M  V30 4732 H 452.926 -4.02157 4.54262 0
M  V30 4733 H 451.665 -3.51087 3.38511 0
M  V30 4734 H 450.67 -1.99653 5.12268 0
M  V30 4735 H 451.895 -2.53551 6.29991 0
M  V30 4736 H 449.841 -4.31882 4.93776 0
M  V30 4737 H 449.758 -3.74087 6.56959 0
M  V30 4738 H 451.026 -4.83834 6.11167 0
M  V30 4739 N 455.255 -1.55392 -0.262866 0
M  V30 4740 C 456.504 -1.75679 -0.990943 0
M  V30 4741 C 456.817 -0.57097 -1.87081 0
M  V30 4742 O 458.023 -0.656486 -2.63444 0
M  V30 4743 C 456.479 -3.10964 -1.81188 0
M  V30 4744 C 456.087 -4.37146 -0.980188 0
M  V30 4745 C 457.831 -3.40597 -2.53365 0
M  V30 4746 C 455.738 -5.63466 -1.7961 0
M  V30 4747 H 454.668 -0.654868 -0.373716 0
M  V30 4748 H 457.319 -1.81841 -0.246203 0
M  V30 4749 H 455.701 -2.98867 -2.59797 0
M  V30 4750 H 456.875 -4.60187 -0.237558 0
M  V30 4751 H 455.19 -4.14731 -0.372497 0
M  V30 4752 H 457.787 -4.32186 -3.14833 0
M  V30 4753 H 458.13 -2.6119 -3.24169 0
M  V30 4754 H 458.663 -3.53838 -1.81779 0
M  V30 4755 H 455.402 -6.4565 -1.13209 0
M  V30 4756 H 454.922 -5.44552 -2.51443 0
M  V30 4757 H 456.601 -6.02139 -2.36723 0
M  V30 4758 N 456.733 0.527833 -1.48498 0
M  V30 4759 C 457.961 1.30823 -1.6029 0
M  V30 4760 C 458.376 1.86945 -0.263974 0
M  V30 4761 O 457.733 1.6651 0.747034 0
M  V30 4762 C 457.784 2.45756 -2.65116 0
M  V30 4763 O 457.505 1.91946 -3.93813 0
M  V30 4764 C 459.006 3.37543 -2.87367 0
M  V30 4765 H 456.226 0.397763 -0.540394 0
M  V30 4766 H 458.77 0.636529 -1.94341 0
M  V30 4767 H 456.925 3.08806 -2.33917 0
M  V30 4768 H 457.339 2.67195 -4.51339 0
M  V30 4769 H 458.813 4.14532 -3.6451 0
M  V30 4770 H 459.29 3.92905 -1.9627 0
M  V30 4771 H 459.896 2.80283 -3.19878 0
M  V30 4772 N 458.211 1.37122 0.776871 0
M  V30 4773 C 459.141 1.35164 1.90402 0
M  V30 4774 C 460.122 0.221069 1.68657 0
M  V30 4775 O 461.307 0.420642 1.8959 0
M  V30 4776 C 458.437 1.15274 3.27611 0
M  V30 4777 C 457.391 2.25289 3.63908 0
M  V30 4778 C 456.717 1.90527 4.99603 0
M  V30 4779 C 458.017 3.67446 3.71188 0
M  V30 4780 H 459.711 2.29482 1.92297 0
M  V30 4781 H 457.257 1.10465 0.923773 0
M  V30 4782 H 459.21 1.12536 4.06096 0
M  V30 4783 H 457.934 0.174102 3.26136 0
M  V30 4784 H 456.593 2.27174 2.87728 0
M  V30 4785 H 456.241 0.91206 4.94662 0
M  V30 4786 H 455.941 2.64193 5.24858 0
M  V30 4787 H 457.465 1.89367 5.80493 0
M  V30 4788 H 458.879 3.67719 4.39836 0
M  V30 4789 H 457.276 4.40123 4.07936 0
M  V30 4790 H 458.346 4.01443 2.71977 0
M  V30 4791 N 459.689 -1.00246 1.21608 0
M  V30 4792 C 461.105 -1.26435 0.973975 0
M  V30 4793 C 461.305 -1.98642 -0.338143 0
M  V30 4794 O 460.361 -2.29026 -1.06317 0
M  V30 4795 C 461.674 -2.08551 2.16626 0
M  V30 4796 C 463.222 -2.21769 2.20879 0
M  V30 4797 C 463.697 -3.07267 3.39633 0
M  V30 4798 N 465.188 -3.14855 3.39736 0
M  V30 4799 C 465.923 -3.81274 4.28273 0
M  V30 4800 N 465.419 -4.497 5.27012 0
M  V30 4801 N 467.212 -3.7794 4.16074 0
M  V30 4802 H 459.363 -0.518089 2.05984 0
M  V30 4803 H 461.626 -0.291368 0.902113 0
M  V30 4804 H 461.332 -1.62847 3.11727 0
M  V30 4805 H 461.206 -3.09303 2.15897 0
M  V30 4806 H 463.593 -2.66691 1.26332 0
M  V30 4807 H 463.674 -1.20478 2.25652 0
M  V30 4808 H 463.318 -2.63047 4.34475 0
M  V30 4809 H 463.248 -4.08678 3.321 0
M  V30 4810 H 465.739 -2.66147 2.6828 0
M  V30 4811 H 466.052 -4.98092 5.90867 0
M  V30 4812 H 464.397 -4.48479 5.30935 0
M  V30 4813 H 467.588 -3.23638 3.38195 0
M  V30 4814 H 467.761 -4.29424 4.85282 0
M  V30 4815 N 461.167 -1.02423 -1.1978 0
M  V30 4816 C 462.114 -0.601023 -2.22837 0
M  V30 4817 C 463.084 0.382801 -1.61629 0
M  V30 4818 O 464.269 0.280514 -1.88727 0
M  V30 4819 C 461.409 0.0467755 -3.45068 0
M  V30 4820 C 460.522 -0.98253 -4.20678 0
M  V30 4821 C 459.657 -0.304982 -5.30324 0
M  V30 4822 C 458.696 -1.32052 -5.97686 0
M  V30 4823 N 457.833 -0.669105 -6.98904 0
M  V30 4824 H 462.673 -1.48444 -2.58396 0
M  V30 4825 H 460.21 -0.742936 -1.2696 0
M  V30 4826 H 462.168 0.439556 -4.14878 0
M  V30 4827 H 460.798 0.893796 -3.10179 0
M  V30 4828 H 459.85 -1.49341 -3.49859 0
M  V30 4829 H 461.162 -1.75455 -4.66923 0
M  V30 4830 H 460.316 0.142893 -6.06532 0
M  V30 4831 H 459.055 0.499283 -4.85138 0
M  V30 4832 H 458.06 -1.7787 -5.20233 0
M  V30 4833 H 459.285 -2.1262 -6.44957 0
M  V30 4834 H 457.231 0.115152 -6.55899 0
M  V30 4835 H 457.148 -1.37908 -7.43315 0
M  V30 4836 H 458.416 -0.245076 -7.79115 0
M  V30 4837 N 462.645 1.35699 -0.801477 0
M  V30 4838 C 464.061 1.52065 -0.484596 0
M  V30 4839 C 464.261 1.75215 0.995084 0
M  V30 4840 O 463.317 1.79061 1.78026 0
M  V30 4841 C 464.63 2.69908 -1.32552 0
M  V30 4842 C 466.178 2.83784 -1.32044 0
M  V30 4843 C 466.653 4.04646 -2.14536 0
M  V30 4844 N 468.144 4.11814 -2.12046 0
M  V30 4845 C 468.879 5.04437 -2.72636 0
M  V30 4846 N 468.375 6.02426 -3.42133 0
M  V30 4847 N 470.168 4.97144 -2.62305 0
M  V30 4848 H 462.319 1.18928 -1.75983 0
M  V30 4849 H 464.582 0.581455 -0.748741 0
M  V30 4850 H 464.288 2.59363 -2.37537 0
M  V30 4851 H 464.162 3.64376 -0.975181 0
M  V30 4852 H 466.549 2.93783 -0.27846 0
M  V30 4853 H 466.63 1.90188 -1.71062 0
M  V30 4854 H 466.274 3.95407 -3.18772 0
M  V30 4855 H 466.204 4.97413 -1.72882 0
M  V30 4856 H 468.695 3.41664 -1.61476 0
M  V30 4857 H 469.008 6.69688 -3.85666 0
M  V30 4858 H 467.353 6.02615 -3.46237 0
M  V30 4859 H 470.544 4.19546 -2.07603 0
M  V30 4860 H 470.717 5.69138 -3.09815 0
M  V30 4861 N 464.123 0.554532 1.47522 0
M  V30 4862 C 465.369 0.0377449 2.03365 0
M  V30 4863 C 465.724 -1.29654 1.42154 0
M  V30 4864 O 465.017 -1.83022 0.566865 0
M  V30 4865 C 465.211 -0.115927 3.57212 0
M  V30 4866 C 465.04 1.20191 4.33341 0
M  V30 4867 C 463.81 1.76849 4.73342 0
M  V30 4868 C 466.008 2.11849 4.68641 0
M  V30 4869 N 463.99 3.02665 5.34104 0
M  V30 4870 C 465.361 3.22245 5.29677 0
M  V30 4871 C 467.416 2.11876 4.5057 0
M  V30 4872 C 466.119 4.32763 5.74551 0
M  V30 4873 C 468.145 3.21405 4.9644 0
M  V30 4874 C 467.507 4.30519 5.57523 0
M  V30 4875 H 463.606 0.0559107 0.779999 0
M  V30 4876 H 466.19 0.741232 1.80038 0
M  V30 4877 H 464.361 -0.788533 3.80311 0
M  V30 4878 H 466.093 -0.634538 3.99695 0
M  V30 4879 H 462.848 1.30681 4.55214 0
M  V30 4880 H 463.272 3.66788 5.69031 0
M  V30 4881 H 467.914 1.28801 4.02704 0
M  V30 4882 H 465.632 5.166 6.2141 0
M  V30 4883 H 469.218 3.22509 4.8423 0
M  V30 4884 H 468.098 5.13873 5.92371 0
M  V30 4885 N 465.601 -1.54893 0.290851 0
M  V30 4886 C 466.847 -2.0023 -0.321867 0
M  V30 4887 C 467.18 -1.179 -1.54316 0
M  V30 4888 O 466.455 -0.25293 -1.92848 0
M  V30 4889 C 466.738 -3.53456 -0.688515 0
M  V30 4890 C 466.591 -4.46532 0.541209 0
M  V30 4891 C 467.91 -4.13057 -1.51895 0
M  V30 4892 H 465.029 -0.727891 -0.115515 0
M  V30 4893 H 467.671 -1.85722 0.400931 0
M  V30 4894 H 465.821 -3.6595 -1.30433 0
M  V30 4895 H 467.493 -4.4596 1.17973 0
M  V30 4896 H 465.736 -4.17545 1.17636 0
M  V30 4897 H 466.407 -5.51475 0.240675 0
M  V30 4898 H 468.883 -4.03937 -0.99872 0
M  V30 4899 H 467.759 -5.20448 -1.74429 0
M  V30 4900 H 468.02 -3.64284 -2.50498 0
M  V30 4901 N 467.08 -0.0183926 -1.57589 0
M  V30 4902 C 468.027 0.967022 -2.09565 0
M  V30 4903 C 468.997 1.32983 -0.995225 0
M  V30 4904 O 470.182 1.42501 -1.26878 0
M  V30 4905 C 467.322 2.24772 -2.61861 0
M  V30 4906 C 466.435 1.94232 -3.85873 0
M  V30 4907 C 465.57 3.16518 -4.26603 0
M  V30 4908 C 464.609 2.81748 -5.43401 0
M  V30 4909 N 463.746 3.96626 -5.79338 0
M  V30 4910 H 468.586 0.516874 -2.93483 0
M  V30 4911 H 466.123 0.243544 -1.4507 0
M  V30 4912 H 468.081 2.99667 -2.90268 0
M  V30 4913 H 466.711 2.67423 -1.8079 0
M  V30 4914 H 465.763 1.09625 -3.64262 0
M  V30 4915 H 467.075 1.64616 -4.70853 0
M  V30 4916 H 466.229 3.99743 -4.56389 0
M  V30 4917 H 464.968 3.49286 -3.40368 0
M  V30 4918 H 463.973 1.96933 -5.1332 0
M  V30 4919 H 465.198 2.50207 -6.31327 0
M  V30 4920 H 463.144 4.29257 -4.96059 0
M  V30 4921 H 463.061 3.70598 -6.58933 0
M  V30 4922 H 464.329 4.80586 -6.13724 0
M  V30 4923 N 468.558 1.5553 0.254621 0
M  V30 4924 C 469.506 1.9048 1.33492 0
M  V30 4925 C 470.5 0.78304 1.50216 0
M  V30 4926 O 471.706 0.967582 1.51782 0
M  V30 4927 H 468.081 0.604846 0.44684 0
M  V30 4928 H 470.052 2.80688 1.01275 0
M  V30 4929 C 468.801 2.20928 2.68489 0
M  V30 4930 H 468.124 3.06742 2.56417 0
M  V30 4931 H 469.564 2.49291 3.42972 0
M  V30 4932 C 468.023 1.023 3.20993 0
M  V30 4933 O 468.553 0.267027 4.00811 0
M  V30 4934 N 466.759 0.815714 2.78917 0
M  V30 4935 H 466.306 1.43217 2.14119 0
M  V30 4936 H 466.264 0.0236532 3.14391 0
M  V30 4937 N 470.036 -0.519951 1.48776 0
M  V30 4938 C 471.447 -1.10177 1.50725 0
M  V30 4939 C 471.798 -1.94153 0.282678 0
M  V30 4940 O 470.923 -2.07645 -0.609298 0
M  V30 4941 C 471.518 -2.00482 2.73116 0
M  V30 4942 C 470.077 -2.53862 2.77905 0
M  V30 4943 C 469.224 -1.31047 2.44381 0
M  V30 4944 H 472.175 -0.30473 1.55747 0
M  V30 4945 H 472.196 -2.8491 2.52203 0
M  V30 4946 H 471.708 -1.39335 3.62225 0
M  V30 4947 H 469.809 -3.18702 1.93029 0
M  V30 4948 H 469.922 -2.9231 3.79594 0
M  V30 4949 H 468.286 -1.62953 1.95751 0
M  V30 4950 H 469.069 -0.71637 3.35743 0
M  V30 4951 N 471.514 -1.37532 -0.769588 0
M  V30 4952 C 472.744 -1.35861 -1.55645 0
M  V30 4953 C 473.152 0.0574398 -1.89113 0
M  V30 4954 O 472.495 1.03021 -1.52093 0
M  V30 4955 C 472.557 -2.13431 -2.89288 0
M  V30 4956 C 472.221 -3.62378 -2.78444 0
M  V30 4957 C 473.218 -4.56215 -2.49326 0
M  V30 4958 C 470.903 -4.05529 -2.96398 0
M  V30 4959 C 472.897 -5.91181 -2.38294 0
M  V30 4960 C 470.584 -5.40579 -2.84987 0
M  V30 4961 C 471.582 -6.33218 -2.55975 0
M  V30 4962 O 471.27 -7.65787 -2.44594 0
M  V30 4963 H 471.002 -0.467001 -0.48876 0
M  V30 4964 H 473.556 -1.81505 -0.961515 0
M  V30 4965 H 471.786 -1.62481 -3.50909 0
M  V30 4966 H 473.475 -2.04368 -3.50697 0
M  V30 4967 H 474.241 -4.24187 -2.35139 0
M  V30 4968 H 470.12 -3.33781 -3.1798 0
M  V30 4969 H 473.664 -6.63457 -2.15571 0
M  V30 4970 H 469.561 -5.72209 -2.98743 0
M  V30 4971 H 470.329 -7.76132 -2.59927 0
M  V30 4972 N 472.992 0.995999 -1.22138 0
M  V30 4973 C 474.403 1.54961 -1.04135 0
M  V30 4974 C 474.754 1.92159 0.396147 0
M  V30 4975 O 473.879 1.74435 1.28069 0
M  V30 4976 C 474.474 2.81581 -1.88408 0
M  V30 4977 C 473.033 3.33396 -1.74712 0
M  V30 4978 C 472.18 2.06509 -1.85066 0
M  V30 4979 H 475.131 0.817436 -1.36028 0
M  V30 4980 H 475.152 3.53822 -1.39966 0
M  V30 4981 H 474.664 2.54476 -2.93025 0
M  V30 4982 H 472.765 3.65416 -0.728159 0
M  V30 4983 H 472.878 4.04208 -2.57202 0
M  V30 4984 H 471.242 2.19925 -1.28472 0
M  V30 4985 H 472.025 1.81804 -2.91208 0
M  V30 4986 N 474.47 1.03057 1.19235 0
M  V30 4987 C 475.403 0.557384 2.21288 0
M  V30 4988 C 476.381 -0.402675 1.57535 0
M  V30 4989 O 477.565 -0.319376 1.85775 0
M  V30 4990 C 474.692 -0.187041 3.38183 0
M  V30 4991 C 473.738 0.72471 4.20298 0
M  V30 4992 S 474.571 2.20187 4.88137 0
M  V30 4993 C 475.727 1.46801 6.08441 0
M  V30 4994 H 475.96 1.42207 2.61083 0
M  V30 4995 H 473.493 0.840651 1.29508 0
M  V30 4996 H 475.451 -0.610405 4.05936 0
M  V30 4997 H 474.112 -1.02748 2.96819 0
M  V30 4998 H 473.305 0.149911 5.03777 0
M  V30 4999 H 472.907 1.08647 3.57871 0
M  V30 5000 H 475.199 0.755522 6.73274 0
M  V30 5001 H 476.142 2.27946 6.70407 0
M  V30 5002 H 476.55 0.964762 5.56195 0
M  V30 5003 N 475.948 -1.35272 0.808662 0
M  V30 5004 C 476.911 -2.28082 0.226093 0
M  V30 5005 C 477.911 -1.49673 -0.587762 0
M  V30 5006 O 479.101 -1.69404 -0.405943 0
M  V30 5007 C 476.233 -3.33955 -0.684596 0
M  V30 5008 H 477.426 -2.81116 1.04469 0
M  V30 5009 H 474.979 -1.45162 0.579466 0
M  V30 5010 H 475.714 -2.86111 -1.5268 0
M  V30 5011 H 475.499 -3.91965 -0.102699 0
M  V30 5012 H 476.989 -4.03219 -1.08646 0
M  V30 5013 N 477.426 -0.562348 -1.47226 0
M  V30 5014 C 478.651 -0.0432632 -2.07355 0
M  V30 5015 C 479.076 1.24332 -1.41149 0
M  V30 5016 O 478.434 1.74603 -0.488226 0
M  V30 5017 C 478.482 0.130288 -3.60365 0
M  V30 5018 O 477.586 1.19166 -3.94808 0
M  V30 5019 H 476.927 -0.0536334 -0.66183 0
M  V30 5020 H 479.457 -0.779495 -1.89169 0
M  V30 5021 H 479.467 0.342881 -4.06557 0
M  V30 5022 H 478.142 -0.809389 -4.07948 0
M  V30 5023 H 476.719 0.959153 -3.60354 0
M  V30 5024 N 478.904 1.54736 -0.299062 0
M  V30 5025 C 479.834 2.26409 0.571085 0
M  V30 5026 C 480.815 1.2629 1.13951 0
M  V30 5027 O 482 1.55059 1.16921 0
M  V30 5028 C 479.13 3.00338 1.74396 0
M  V30 5029 C 478.084 4.07588 1.30599 0
M  V30 5030 C 477.41 4.69222 2.56387 0
M  V30 5031 C 478.71 5.20455 0.438645 0
M  V30 5032 H 480.404 2.99388 -0.0266991 0
M  V30 5033 H 477.95 1.43993 -0.0142812 0
M  V30 5034 H 479.903 3.49198 2.35878 0
M  V30 5035 H 478.627 2.24934 2.36796 0
M  V30 5036 H 477.286 3.59575 0.71424 0
M  V30 5037 H 476.934 3.9046 3.17097 0
M  V30 5038 H 476.634 5.41653 2.27784 0
M  V30 5039 H 478.158 5.20844 3.18675 0
M  V30 5040 H 479.572 5.65221 0.959085 0
M  V30 5041 H 477.969 5.99594 0.246466 0
M  V30 5042 H 479.039 4.8192 -0.536738 0
M  V30 5043 N 480.382 0.0267497 1.57577 0
M  V30 5044 C 481.631 -0.651736 1.9088 0
M  V30 5045 C 481.944 -1.73427 0.904576 0
M  V30 5046 O 483.15 -2.46923 1.12877 0
M  V30 5047 C 481.606 -1.21048 3.38933 0
M  V30 5048 C 481.214 -0.161362 4.47709 0
M  V30 5049 C 482.958 -1.86562 3.81307 0
M  V30 5050 C 480.865 -0.731611 5.86857 0
M  V30 5051 H 479.795 -0.247198 0.712326 0
M  V30 5052 H 482.446 0.0916641 1.83271 0
M  V30 5053 H 480.828 -2.00542 3.41466 0
M  V30 5054 H 482.002 0.61094 4.56732 0
M  V30 5055 H 480.317 0.394877 4.14523 0
M  V30 5056 H 482.914 -2.30178 4.8262 0
M  V30 5057 H 483.257 -2.70735 3.16241 0
M  V30 5058 H 483.79 -1.13762 3.81186 0
M  V30 5059 H 480.529 0.0719329 6.55461 0
M  V30 5060 H 480.049 -1.47245 5.81445 0
M  V30 5061 H 481.728 -1.22208 6.35354 0
M  V30 5062 N 481.861 -1.55662 -0.24637 0
M  V30 5063 C 483.086 -1.81914 -0.996093 0
M  V30 5064 C 483.511 -0.603875 -1.78143 0
M  V30 5065 O 482.869 0.447091 -1.75701 0
M  V30 5066 C 482.917 -3.05908 -1.90925 0
M  V30 5067 O 482.021 -2.82861 -3.00105 0
M  V30 5068 H 481.362 -0.600481 -0.283406 0
M  V30 5069 H 483.892 -2.02848 -0.267199 0
M  V30 5070 H 483.902 -3.35356 -2.3238 0
M  V30 5071 H 482.577 -3.93999 -1.33183 0
M  V30 5072 H 481.154 -2.64583 -2.62775 0
M  V30 5073 N 483.339 0.512053 -1.4905 0
M  V30 5074 C 484.564 1.2959 -1.6193 0
M  V30 5075 C 484.989 1.85906 -0.286454 0
M  V30 5076 O 484.347 1.65312 0.744426 0
M  V30 5077 C 484.395 2.40987 -2.68249 0
M  V30 5078 O 483.499 3.44531 -2.26654 0
M  V30 5079 H 482.84 0.383053 -0.542371 0
M  V30 5080 H 485.37 0.614231 -1.95162 0
M  V30 5081 H 485.38 2.86913 -2.90078 0
M  V30 5082 H 484.055 1.99361 -3.65004 0
M  V30 5083 H 482.632 3.046 -2.15112 0
M  V30 5084 N 484.817 1.37938 0.762283 0
M  V30 5085 C 485.747 1.37176 1.88958 0
M  V30 5086 C 486.728 0.238945 1.68413 0
M  V30 5087 O 487.913 0.440726 1.89133 0
M  V30 5088 C 485.043 1.18742 3.2637 0
M  V30 5089 C 483.997 2.29136 3.61498 0
M  V30 5090 C 483.323 1.95816 4.97554 0
M  V30 5091 C 484.623 3.71363 3.6727 0
M  V30 5092 H 486.317 2.31509 1.89853 0
M  V30 5093 H 483.863 1.11438 0.912005 0
M  V30 5094 H 485.816 1.16837 4.04879 0
M  V30 5095 H 484.54 0.208683 3.25933 0
M  V30 5096 H 483.199 2.30213 2.85303 0
M  V30 5097 H 482.847 0.964475 4.93667 0
M  V30 5098 H 482.547 2.69745 5.22026 0
M  V30 5099 H 484.071 1.95513 5.78452 0
M  V30 5100 H 485.485 3.72364 4.35911 0
M  V30 5101 H 483.882 4.44425 4.03245 0
M  V30 5102 H 484.952 4.04305 2.67704 0
M  V30 5103 N 486.295 -0.989507 1.22664 0
M  V30 5104 C 487.542 -1.72953 1.05325 0
M  V30 5105 C 487.87 -1.90104 -0.411168 0
M  V30 5106 O 487.125 -1.44386 -1.32103 0
M  V30 5107 C 487.424 -3.13649 1.71345 0
M  V30 5108 C 487.09 -3.16403 3.21248 0
M  V30 5109 C 485.752 -3.16862 3.62149 0
M  V30 5110 C 488.104 -3.12428 4.17179 0
M  V30 5111 C 485.432 -3.11051 4.97458 0
M  V30 5112 C 487.784 -3.08159 5.52468 0
M  V30 5113 C 486.448 -3.06935 5.92746 0
M  V30 5114 H 485.718 -0.632881 0.385412 0
M  V30 5115 H 488.365 -1.15863 1.52473 0
M  V30 5116 H 486.67 -3.74069 1.16532 0
M  V30 5117 H 488.367 -3.69658 1.55416 0
M  V30 5118 H 484.957 -3.16798 2.88682 0
M  V30 5119 H 489.141 -3.11221 3.86595 0
M  V30 5120 H 484.397 -3.0845 5.27891 0
M  V30 5121 H 488.571 -3.04039 6.26525 0
M  V30 5122 H 486.198 -3.02186 6.97558 0
M  V30 5123 N 487.773 -1.03688 -1.18687 0
M  V30 5124 C 488.721 -0.618292 -2.24232 0
M  V30 5125 C 489.715 0.353045 -1.6568 0
M  V30 5126 O 490.921 0.220749 -1.78641 0
M  V30 5127 H 487.296 -0.181711 -0.729716 0
M  V30 5128 H 489.267 -1.51893 -2.56848 0
M  V30 5129 C 488.016 0.00677342 -3.47699 0
M  V30 5130 H 487.339 -0.731692 -3.93047 0
M  V30 5131 H 488.779 0.262492 -4.23187 0
M  V30 5132 C 487.238 1.25572 -3.12623 0
M  V30 5133 O 487.768 2.34691 -3.26011 0
M  V30 5134 N 485.974 1.14755 -2.66982 0
M  V30 5135 H 485.521 0.259601 -2.56289 0
M  V30 5136 H 485.479 1.98412 -2.43885 0
M  V30 5137 N 489.251 1.34841 -0.815825 0
M  V30 5138 C 490.199 2.31549 -0.220888 0
M  V30 5139 C 491.193 1.5707 0.634457 0
M  V30 5140 O 492.399 1.72125 0.526589 0
M  V30 5141 H 488.774 0.750153 -0.0526782 0
M  V30 5142 H 490.745 2.7926 -1.05149 0
M  V30 5143 C 489.494 3.42335 0.608427 0
M  V30 5144 H 488.817 3.9978 -0.0404121 0
M  V30 5145 H 490.257 4.12258 0.990931 0
M  V30 5146 C 488.716 2.86173 1.77782 0
M  V30 5147 O 489.246 2.80474 2.87571 0
M  V30 5148 N 487.452 2.43093 1.59229 0
M  V30 5149 H 486.999 2.47928 0.699237 0
M  V30 5150 H 486.957 2.05866 2.37627 0
M  V30 5151 N 490.729 0.570148 1.46925 0
M  V30 5152 C 491.662 -0.218362 2.27153 0
M  V30 5153 C 492.64 -0.90847 1.34854 0
M  V30 5154 O 493.824 -0.924875 1.64251 0
M  V30 5155 C 490.951 -1.3122 3.12248 0
M  V30 5156 C 489.997 -0.729277 4.20219 0
M  V30 5157 S 490.83 0.434159 5.33737 0
M  V30 5158 C 491.986 -0.661188 6.22398 0
M  V30 5159 H 492.219 0.462393 2.93682 0
M  V30 5160 H 489.752 0.356753 1.50222 0
M  V30 5161 H 491.71 -1.93856 3.61842 0
M  V30 5162 H 490.371 -1.96485 2.45056 0
M  V30 5163 H 489.564 -1.5511 4.79538 0
M  V30 5164 H 489.166 -0.178836 3.73572 0
M  V30 5165 H 491.458 -1.55006 6.5953 0
M  V30 5166 H 492.401 -0.105046 7.08022 0
M  V30 5167 H 492.809 -0.959682 5.56283 0
M  V30 5168 N 492.207 -1.54576 0.307264 0
M  V30 5169 C 493.137 -2.26708 -0.55907 0
M  V30 5170 C 494.118 -1.26893 -1.1328 0
M  V30 5171 O 495.303 -1.55677 -1.16097 0
M  V30 5172 C 492.433 -3.01259 -1.72801 0
M  V30 5173 C 491.387 -4.08275 -1.28435 0
M  V30 5174 C 490.713 -4.70575 -2.53895 0
M  V30 5175 C 492.013 -5.2068 -0.411038 0
M  V30 5176 H 493.707 -2.9937 0.042576 0
M  V30 5177 H 491.253 -1.43983 0.0219173 0
M  V30 5178 H 493.206 -3.50444 -2.34023 0
M  V30 5179 H 491.93 -2.26187 -2.356 0
M  V30 5180 H 490.589 -3.59949 -0.695161 0
M  V30 5181 H 490.237 -3.92136 -3.15021 0
M  V30 5182 H 489.937 -5.42854 -2.24908 0
M  V30 5183 H 491.461 -5.22527 -3.15908 0
M  V30 5184 H 492.875 -5.65721 -0.929097 0
M  V30 5185 H 491.272 -5.99716 -0.214664 0
M  V30 5186 H 492.342 -4.81629 0.562287 0
M  V30 5187 N 493.685 -0.035106 -1.57561 0
M  V30 5188 C 495.096 0.502885 -1.798 0
M  V30 5189 C 495.447 1.71892 -0.945921 0
M  V30 5190 O 494.572 2.15822 -0.157991 0
M  V30 5191 C 495.167 0.919097 -3.26095 0
M  V30 5192 C 493.726 1.40216 -3.49308 0
M  V30 5193 C 492.873 0.369709 -2.74824 0
M  V30 5194 H 495.824 -0.261102 -1.56537 0
M  V30 5195 H 495.845 1.78308 -3.36135 0
M  V30 5196 H 495.357 0.0338526 -3.88085 0
M  V30 5197 H 493.458 2.30714 -2.92578 0
M  V30 5198 H 493.571 1.40541 -4.58023 0
M  V30 5199 H 491.935 0.839113 -2.40481 0
M  V30 5200 H 492.718 -0.507173 -3.39533 0
M  V30 5201 N 495.163 1.55791 0.238111 0
M  V30 5202 C 496.095 1.87513 1.31802 0
M  V30 5203 C 497.108 0.762053 1.43863 0
M  V30 5204 O 498.297 1.04024 1.45056 0
M  V30 5205 C 495.397 2.05402 2.69561 0
M  V30 5206 C 494.57 3.3632 2.79656 0
M  V30 5207 C 493.629 3.43844 3.98319 0
M  V30 5208 O 492.655 4.16994 3.87433 0
M  V30 5209 N 493.857 2.73777 5.11885 0
M  V30 5210 H 496.622 2.80734 1.04922 0
M  V30 5211 H 494.183 1.56135 0.428196 0
M  V30 5212 H 496.175 2.07769 3.47296 0
M  V30 5213 H 494.745 1.18884 2.89111 0
M  V30 5214 H 493.965 3.46195 1.88528 0
M  V30 5215 H 495.253 4.22594 2.83358 0
M  V30 5216 H 494.651 2.14094 5.23622 0
M  V30 5217 H 493.208 2.81825 5.87723 0
M  V30 5218 N 496.642 -0.504142 1.49319 0
M  V30 5219 C 497.888 -1.26033 1.58882 0
M  V30 5220 C 498.221 -1.92268 0.273274 0
M  V30 5221 O 497.496 -1.80567 -0.72291 0
M  V30 5222 C 497.779 -2.32976 2.7458 0
M  V30 5223 C 497.632 -1.71263 4.1592 0
M  V30 5224 C 498.951 -3.34561 2.85932 0
M  V30 5225 H 496.07 -0.456863 0.578312 0
M  V30 5226 H 498.712 -0.558965 1.81592 0
M  V30 5227 H 496.862 -2.92796 2.55348 0
M  V30 5228 H 498.534 -1.15294 4.4666 0
M  V30 5229 H 496.777 -1.01686 4.21714 0
M  V30 5230 H 497.448 -2.48816 4.92742 0
M  V30 5231 H 499.924 -2.84727 3.0343 0
M  V30 5232 H 498.8 -4.06754 3.68568 0
M  V30 5233 H 499.061 -3.96695 1.95154 0
M  V30 5234 N 498.12 -1.38341 -0.754957 0
M  V30 5235 C 499.052 -1.31347 -1.87831 0
M  V30 5236 C 500.065 -0.225955 -1.61224 0
M  V30 5237 O 501.254 -0.48341 -1.7183 0
M  V30 5238 C 498.354 -1.01201 -3.23437 0
M  V30 5239 C 497.527 -2.20834 -3.77559 0
M  V30 5240 C 496.586 -1.87454 -4.91678 0
M  V30 5241 O 495.612 -2.59934 -5.06382 0
M  V30 5242 N 496.814 -0.828682 -5.74555 0
M  V30 5243 H 499.579 -2.28147 -1.94342 0
M  V30 5244 H 497.14 -1.32184 -0.934828 0
M  V30 5245 H 499.132 -0.769249 -3.97322 0
M  V30 5246 H 497.702 -0.132011 -3.12321 0
M  V30 5247 H 496.922 -2.61184 -2.95256 0
M  V30 5248 H 498.21 -3.00678 -4.10451 0
M  V30 5249 H 497.608 -0.227591 -5.65242 0
M  V30 5250 H 496.165 -0.645802 -6.48593 0
M  V30 5251 N 499.598 0.982988 -1.23187 0
M  V30 5252 C 500.846 1.72052 -1.06031 0
M  V30 5253 C 501.167 1.90769 0.404019 0
M  V30 5254 O 500.437 1.47446 1.28982 0
M  V30 5255 H 499.017 0.637499 -0.389363 0
M  V30 5256 H 501.679 1.18338 -1.54862 0
M  V30 5257 H 500.775 2.7111 -1.54615 0
M  V30 5258 N 501.076 1.04316 1.18135 0
M  V30 5259 C 502.008 0.594444 2.21357 0
M  V30 5260 C 503.021 -0.337215 1.59269 0
M  V30 5261 O 504.21 -0.131337 1.78016 0
M  V30 5262 C 501.31 -0.151251 3.38562 0
M  V30 5263 C 500.483 0.788907 4.30227 0
M  V30 5264 C 499.542 0.0860572 5.2613 0
M  V30 5265 O 498.568 0.717302 5.64662 0
M  V30 5266 N 499.77 -1.17969 5.68387 0
M  V30 5267 H 502.535 1.48227 2.60478 0
M  V30 5268 H 500.096 0.92396 1.32946 0
M  V30 5269 H 502.088 -0.631352 3.99745 0
M  V30 5270 H 500.658 -0.940639 2.98112 0
M  V30 5271 H 499.878 1.44882 3.6661 0
M  V30 5272 H 501.166 1.42738 4.88368 0
M  V30 5273 H 500.564 -1.71302 5.3914 0
M  V30 5274 H 499.121 -1.60402 6.31755 0
M  V30 5275 N 502.554 -1.34406 0.822964 0
M  V30 5276 C 503.965 -1.8069 0.469879 0
M  V30 5277 C 504.316 -1.68223 -1.00972 0
M  V30 5278 O 503.441 -1.22226 -1.78577 0
M  V30 5279 C 504.036 -3.28064 0.846118 0
M  V30 5280 C 502.595 -3.72428 0.545402 0
M  V30 5281 C 501.742 -2.56116 1.06301 0
M  V30 5282 H 504.693 -1.22153 1.01313 0
M  V30 5283 H 504.714 -3.80205 0.149922 0
M  V30 5284 H 504.226 -3.37107 1.92304 0
M  V30 5285 H 502.327 -3.68924 -0.522109 0
M  V30 5286 H 502.44 -4.66548 1.0895 0
M  V30 5287 H 500.804 -2.50048 0.484554 0
M  V30 5288 H 501.587 -2.67928 2.14638 0
M  V30 5289 N 504.032 -0.577932 -1.46621 0
M  V30 5290 C 504.965 0.206312 -2.27265 0
M  V30 5291 C 505.943 0.901306 -1.35334 0
M  V30 5292 O 507.127 0.916151 -1.64739 0
M  V30 5293 C 504.254 1.29563 -3.1294 0
M  V30 5294 C 503.3 0.706981 -4.206 0
M  V30 5295 S 504.133 -0.462459 -5.33499 0
M  V30 5296 C 505.289 0.628171 -6.2274 0
M  V30 5297 H 505.522 -0.477961 -2.93433 0
M  V30 5298 H 503.055 -0.364715 -1.50031 0
M  V30 5299 H 505.013 1.91935 -3.62865 0
M  V30 5300 H 503.674 1.95183 -2.46095 0
M  V30 5301 H 502.867 1.52565 -4.80354 0
M  V30 5302 H 502.469 0.159022 -3.73662 0
M  V30 5303 H 504.761 1.51506 -6.60342 0
M  V30 5304 H 505.704 0.0674961 -7.08068 0
M  V30 5305 H 506.112 0.930167 -5.56784 0
M  V30 5306 N 505.51 1.54411 -0.315457 0
M  V30 5307 C 506.42 2.27737 0.56329 0
M  V30 5308 C 507.436 1.31787 1.13614 0
M  V30 5309 O 508.612 1.64791 1.15784 0
M  V30 5310 C 505.677 3.01478 1.71207 0
M  V30 5311 C 504.738 4.12997 1.17185 0
M  V30 5312 C 503.971 4.83212 2.26588 0
M  V30 5313 O 504.194 4.52884 3.46775 0
M  V30 5314 O 503.128 5.70299 1.92463 0
M  V30 5315 H 506.954 3.03683 -0.0319614 0
M  V30 5316 H 504.539 1.49178 -0.0814188 0
M  V30 5317 H 506.421 3.47683 2.38106 0
M  V30 5318 H 505.096 2.28414 2.29366 0
M  V30 5319 H 504.003 3.71159 0.468174 0
M  V30 5320 H 505.336 4.8808 0.635501 0
M  V30 5321 N 506.988 0.0434614 1.5754 0
M  V30 5322 C 508.236 -0.630786 1.92004 0
M  V30 5323 C 508.557 -1.71836 0.921807 0
M  V30 5324 O 507.827 -1.9587 -0.034522 0
M  V30 5325 H 506.407 -0.235988 0.708745 0
M  V30 5326 H 509.069 0.0946462 1.9467 0
M  V30 5327 H 508.165 -1.07434 2.93026 0
M  V30 5328 N 508.466 -1.55915 -0.229846 0
M  V30 5329 C 509.376 -1.94891 -1.30593 0
M  V30 5330 C 510.392 -0.851604 -1.51736 0
M  V30 5331 O 511.568 -1.15447 -1.65027 0
M  V30 5332 C 508.633 -2.25052 -2.63728 0
M  V30 5333 C 507.694 -3.48306 -2.5096 0
M  V30 5334 C 506.927 -3.77019 -3.77747 0
M  V30 5335 O 507.15 -3.07534 -4.80395 0
M  V30 5336 O 506.084 -4.70523 -3.75356 0
M  V30 5337 H 509.91 -2.86581 -1.00525 0
M  V30 5338 H 507.495 -1.43017 -0.432025 0
M  V30 5339 H 509.377 -2.45682 -3.42372 0
M  V30 5340 H 508.052 -1.36538 -2.93495 0
M  V30 5341 H 506.959 -3.32964 -1.70546 0
M  V30 5342 H 508.292 -4.37177 -2.26136 0
M  V30 5343 N 509.944 0.496216 -1.49584 0
M  V30 5344 C 510.892 1.61805 -1.67098 0
M  V30 5345 C 511.886 1.60667 -0.536877 0
M  V30 5346 O 513.092 1.65118 -0.716654 0
M  V30 5347 H 509.467 0.53646 -0.526986 0
M  V30 5348 H 511.438 1.44187 -2.61252 0
M  V30 5349 C 510.187 2.99912 -1.75921 0
M  V30 5350 H 509.51 3.01496 -2.62565 0
M  V30 5351 H 510.95 3.77931 -1.92209 0
M  V30 5352 C 509.409 3.33092 -0.505088 0
M  V30 5353 O 509.939 4.00019 0.367085 0
M  V30 5354 N 508.145 2.88278 -0.366599 0
M  V30 5355 H 507.692 2.33989 -1.07735 0
M  V30 5356 H 507.65 3.10846 0.47142 0
M  V30 5357 N 511.423 1.38739 0.74761 0
M  V30 5358 C 512.651 1.38521 1.53686 0
M  V30 5359 C 513.066 -0.0235129 1.88785 0
M  V30 5360 O 512.423 -0.991662 1.53207 0
M  V30 5361 C 512.474 2.24641 2.83229 0
M  V30 5362 O 512.195 3.60026 2.49625 0
M  V30 5363 C 513.696 2.32669 3.77333 0
M  V30 5364 H 510.916 0.473589 0.475347 0
M  V30 5365 H 513.46 1.82395 0.924786 0
M  V30 5366 H 511.615 1.84213 3.40799 0
M  V30 5367 H 512.029 4.05435 3.3275 0
M  V30 5368 H 513.503 2.97201 4.65162 0
M  V30 5369 H 513.98 1.3421 4.18192 0
M  V30 5370 H 514.586 2.73512 3.25685 0
M  V30 5371 N 512.901 -0.976442 1.23707 0
M  V30 5372 C 513.833 -2.07212 0.979574 0
M  V30 5373 C 514.846 -1.6273 -0.0478528 0
M  V30 5374 O 516.035 -1.77506 0.18815 0
M  V30 5375 C 513.135 -3.35835 0.45479 0
M  V30 5376 C 512.308 -4.09268 1.54331 0
M  V30 5377 C 511.367 -5.16166 1.02271 0
M  V30 5378 O 510.393 -5.42827 1.71254 0
M  V30 5379 N 511.595 -5.80313 -0.147419 0
M  V30 5380 H 514.36 -2.29878 1.92292 0
M  V30 5381 H 511.921 -1.14343 1.14618 0
M  V30 5382 H 513.913 -4.04597 0.0914631 0
M  V30 5383 H 512.483 -3.10106 -0.394068 0
M  V30 5384 H 511.703 -3.34906 2.07923 0
M  V30 5385 H 512.991 -4.55095 2.27522 0
M  V30 5386 H 512.389 -5.61043 -0.724353 0
M  V30 5387 H 510.946 -6.50231 -0.451972 0
M  V30 5388 N 514.379 -1.04941 -1.1758 0
M  V30 5389 C 515.625 -0.759112 -1.88057 0
M  V30 5390 C 515.958 0.711918 -1.8068 0
M  V30 5391 O 515.233 1.52035 -1.21308 0
M  V30 5392 C 515.516 -1.237 -3.38187 0
M  V30 5393 C 515.369 -2.77078 -3.54327 0
M  V30 5394 C 516.688 -0.834014 -4.32125 0
M  V30 5395 H 513.807 -0.277237 -0.682868 0
M  V30 5396 H 516.449 -1.30296 -1.38286 0
M  V30 5397 H 514.599 -0.774337 -3.80705 0
M  V30 5398 H 516.271 -3.31449 -3.20842 0
M  V30 5399 H 514.514 -3.16477 -2.96689 0
M  V30 5400 H 515.185 -3.05577 -4.59703 0
M  V30 5401 H 517.661 -1.23228 -3.97434 0
M  V30 5402 H 516.537 -1.19603 -5.35711 0
M  V30 5403 H 516.798 0.262195 -4.41322 0
M  V30 5404 N 515.857 1.33968 -0.830081 0
M  V30 5405 C 516.767 2.33164 -0.259207 0
M  V30 5406 C 517.783 1.62951 0.610164 0
M  V30 5407 O 518.959 1.94668 0.516369 0
M  V30 5408 C 516.024 3.42088 0.563598 0
M  V30 5409 C 515.085 4.28037 -0.329014 0
M  V30 5410 C 514.318 5.3176 0.454616 0
M  V30 5411 O 514.541 5.44876 1.6872 0
M  V30 5412 O 513.475 6.01669 -0.166794 0
M  V30 5413 H 517.301 2.83832 -1.08041 0
M  V30 5414 H 514.886 1.37154 -0.59239 0
M  V30 5415 H 516.768 4.08581 1.03147 0
M  V30 5416 H 515.443 2.93651 1.36201 0
M  V30 5417 H 514.35 3.64443 -0.844538 0
M  V30 5418 H 515.683 4.79934 -1.09196 0
M  V30 5419 N 517.335 0.585699 1.46312 0
M  V30 5420 C 518.245 -0.148236 2.34131 0
M  V30 5421 C 519.261 -0.882972 1.49932 0
M  V30 5422 O 520.437 -0.845484 1.82794 0
M  V30 5423 C 517.502 -1.14714 3.27172 0
M  V30 5424 C 516.563 -0.416746 4.27272 0
M  V30 5425 C 515.796 -1.36806 5.15868 0
M  V30 5426 O 516.019 -2.60475 5.07454 0
M  V30 5427 O 514.953 -0.877018 5.95476 0
M  V30 5428 H 518.779 0.572882 2.98248 0
M  V30 5429 H 516.364 0.346082 1.45336 0
M  V30 5430 H 518.246 -1.72303 3.84564 0
M  V30 5431 H 516.921 -1.84967 2.65648 0
M  V30 5432 H 515.828 0.201061 3.73559 0
M  V30 5433 H 517.161 0.244872 4.9159 0
M  V30 5434 N 518.813 -1.54241 0.323641 0
M  V30 5435 C 520.059 -2.00867 -0.279323 0
M  V30 5436 C 520.392 -1.21146 -1.5178 0
M  V30 5437 O 519.667 -0.29378 -1.92269 0
M  V30 5438 C 519.95 -3.54837 -0.613387 0
M  V30 5439 C 519.803 -4.45284 0.635803 0
M  V30 5440 C 521.122 -4.16186 -1.43099 0
M  V30 5441 H 518.241 -0.730177 -0.100049 0
M  V30 5442 H 520.883 -1.84829 0.440235 0
M  V30 5443 H 519.033 -3.68634 -1.22641 0
M  V30 5444 H 520.705 -4.43357 1.27406 0
M  V30 5445 H 518.948 -4.14956 1.26466 0
M  V30 5446 H 519.619 -5.5084 0.357597 0
M  V30 5447 H 522.095 -4.05964 -0.912814 0
M  V30 5448 H 520.971 -5.24031 -1.6335 0
M  V30 5449 H 521.232 -3.69516 -2.42715 0
M  V30 5450 N 520.291 -0.0518155 -1.57515 0
M  V30 5451 C 521.707 0.304735 -1.56664 0
M  V30 5452 C 521.907 1.71395 -1.05953 0
M  V30 5453 O 520.963 2.42123 -0.716414 0
M  V30 5454 C 522.276 0.132614 -3.00407 0
M  V30 5455 C 523.824 0.20367 -3.12337 0
M  V30 5456 C 524.299 0.0600706 -4.57961 0
M  V30 5457 N 525.79 0.116326 -4.63054 0
M  V30 5458 C 526.525 0.0293363 -5.73392 0
M  V30 5459 N 526.021 -0.110038 -6.92713 0
M  V30 5460 N 527.814 0.0849651 -5.62036 0
M  V30 5461 H 519.965 -0.973056 -1.888 0
M  V30 5462 H 522.228 -0.377781 -0.869474 0
M  V30 5463 H 521.934 -0.839019 -3.41546 0
M  V30 5464 H 521.808 0.893376 -3.66468 0
M  V30 5465 H 524.195 1.16578 -2.71097 0
M  V30 5466 H 524.276 -0.587857 -2.48954 0
M  V30 5467 H 523.92 -0.898715 -4.99886 0
M  V30 5468 H 523.85 0.87075 -5.19351 0
M  V30 5469 H 526.341 0.22327 -3.7724 0
M  V30 5470 H 526.654 -0.169104 -7.72615 0
M  V30 5471 H 524.999 -0.145132 -6.94848 0
M  V30 5472 H 528.19 0.192411 -4.67704 0
M  V30 5473 H 528.363 0.0137131 -6.47999 0
M  V30 5474 N 521.769 1.56035 0.221574 0
M  V30 5475 C 523.015 1.79312 0.947372 0
M  V30 5476 C 523.348 0.621453 1.83988 0
M  V30 5477 O 522.623 -0.379287 1.90766 0
M  V30 5478 C 522.906 3.1267 1.78633 0
M  V30 5479 C 522.759 4.40284 0.920312 0
M  V30 5480 C 524.078 3.4247 2.7641 0
M  V30 5481 H 521.197 0.652328 0.342982 0
M  V30 5482 H 523.839 1.88765 0.216244 0
M  V30 5483 H 521.989 3.04741 2.40967 0
M  V30 5484 H 523.661 4.60232 0.313718 0
M  V30 5485 H 521.904 4.33212 0.225734 0
M  V30 5486 H 522.575 5.30033 1.54171 0
M  V30 5487 H 525.051 3.50526 2.24211 0
M  V30 5488 H 523.927 4.3695 3.32213 0
M  V30 5489 H 524.188 2.64635 3.54148 0
M  V30 5490 N 523.247 -0.488276 1.49845 0
M  V30 5491 C 524.477 -1.26344 1.63465 0
M  V30 5492 C 524.885 -1.86637 0.310379 0
M  V30 5493 O 524.228 -1.69184 -0.715712 0
M  V30 5494 C 524.29 -2.42407 2.65479 0
M  V30 5495 C 523.954 -2.02886 4.09495 0
M  V30 5496 C 524.951 -1.56124 4.95904 0
M  V30 5497 C 522.636 -2.12131 4.55308 0
M  V30 5498 C 524.63 -1.19129 6.26169 0
M  V30 5499 C 522.317 -1.74747 5.85582 0
M  V30 5500 C 523.315 -1.28322 6.70837 0
M  V30 5501 O 523.003 -0.914491 7.98682 0
M  V30 5502 H 522.735 -0.388921 0.552916 0
M  V30 5503 H 525.289 -0.591288 1.96705 0
M  V30 5504 H 523.519 -3.12739 2.27445 0
M  V30 5505 H 525.208 -3.04409 2.68495 0
M  V30 5506 H 525.974 -1.48417 4.61733 0
M  V30 5507 H 521.853 -2.47217 3.89107 0
M  V30 5508 H 525.397 -0.828211 6.92666 0
M  V30 5509 H 521.294 -1.82109 6.19279 0
M  V30 5510 H 522.062 -1.04485 8.11804 0
M  V30 5511 N 524.725 -1.39134 -0.740242 0
M  V30 5512 C 526.002 -1.26584 -1.49117 0
M  V30 5513 C 526.382 0.126902 -2.10718 0
M  V30 5514 O 525.73 1.13765 -1.98166 0
M  V30 5515 C 525.94 -2.38619 -2.54681 0
M  V30 5516 C 527.288 -2.77685 -3.21211 0
M  V30 5517 O 528.312 -2.38029 -2.64991 0
M  V30 5518 O 527.171 -3.46115 -4.22926 0
M  V30 5519 H 524.265 -0.495769 -0.661923 0
M  V30 5520 H 526.811 -1.50995 -0.774514 0
M  V30 5521 H 525.583 -3.3175 -2.07504 0
M  V30 5522 H 525.206 -2.15845 -3.33911 0
M  V30 5523 N 526.204 0.969867 -1.24223 0
M  V30 5524 C 527.452 1.70918 -1.0785 0
M  V30 5525 C 527.773 1.91186 0.383763 0
M  V30 5526 O 527.043 1.48806 1.27411 0
M  V30 5527 H 525.623 0.633334 -0.396103 0
M  V30 5528 H 528.285 1.16689 -1.56108 0
M  V30 5529 H 527.381 2.69455 -1.57482 0
M  V30 5530 N 527.682 1.05563 1.17022 0
M  V30 5531 C 528.91 0.78845 1.91288 0
M  V30 5532 C 529.325 -0.656318 1.77025 0
M  V30 5533 O 528.682 -1.44869 1.10992 0
M  V30 5534 C 528.733 1.16444 3.42232 0
M  V30 5535 O 528.454 2.5525 3.5606 0
M  V30 5536 C 529.955 0.923937 4.33565 0
M  V30 5537 H 527.175 0.286389 0.606813 0
M  V30 5538 H 529.719 1.4073 1.48375 0
M  V30 5539 H 527.874 0.590266 3.82877 0
M  V30 5540 H 528.288 2.70097 4.49609 0
M  V30 5541 H 529.762 1.23672 5.37968 0
M  V30 5542 H 530.239 -0.140688 4.38975 0
M  V30 5543 H 530.845 1.48214 3.98639 0
M  V30 5544 N 529.16 -1.33526 0.837174 0
M  V30 5545 C 530.07 -2.33023 0.271568 0
M  V30 5546 C 531.086 -1.63272 -0.601514 0
M  V30 5547 O 532.262 -1.94939 -0.506038 0
M  V30 5548 C 529.327 -3.42382 -0.545448 0
M  V30 5549 C 528.388 -4.27857 0.351709 0
M  V30 5550 C 527.621 -5.31994 -0.426409 0
M  V30 5551 O 527.844 -5.45763 -1.65828 0
M  V30 5552 O 526.778 -6.01572 0.1987 0
M  V30 5553 H 530.604 -2.83256 1.09545 0
M  V30 5554 H 528.189 -1.36837 0.599655 0
M  V30 5555 H 530.071 -4.09122 -1.00979 0
M  V30 5556 H 528.746 -2.94369 -1.34641 0
M  V30 5557 H 527.653 -3.6399 0.863853 0
M  V30 5558 H 528.986 -4.79349 1.1174 0
M  V30 5559 N 530.638 -0.59345 -1.46 0
M  V30 5560 C 532.049 -0.169801 -1.85926 0
M  V30 5561 C 532.4 1.26984 -1.49565 0
M  V30 5562 O 531.525 1.96076 -0.915602 0
M  V30 5563 C 532.12 -0.301385 -3.37457 0
M  V30 5564 C 530.679 0.0674684 -3.7634 0
M  V30 5565 C 529.826 -0.632383 -2.69993 0
M  V30 5566 H 532.777 -0.801014 -1.37002 0
M  V30 5567 H 532.798 0.470331 -3.77582 0
M  V30 5568 H 532.31 -1.34927 -3.63891 0
M  V30 5569 H 530.411 1.11507 -3.55523 0
M  V30 5570 H 530.524 -0.316332 -4.78055 0
M  V30 5571 H 528.888 -0.0714961 -2.546 0
M  V30 5572 H 529.671 -1.68212 -2.99265 0
M  V30 5573 N 532.116 1.54067 -0.331816 0
M  V30 5574 C 533.362 2.01012 0.268667 0
M  V30 5575 C 533.695 1.2195 1.51136 0
M  V30 5576 O 532.97 0.303972 1.9211 0
M  V30 5577 C 533.253 3.55158 0.59456 0
M  V30 5578 C 533.106 4.4494 -0.659409 0
M  V30 5579 C 534.425 4.16939 1.4089 0
M  V30 5580 H 531.544 0.730698 0.0961756 0
M  V30 5581 H 534.186 1.84593 -0.450031 0
M  V30 5582 H 532.336 3.6928 1.20685 0
M  V30 5583 H 534.008 4.42675 -1.29756 0
M  V30 5584 H 532.251 4.1428 -1.28665 0
M  V30 5585 H 532.922 5.50643 -0.386804 0
M  V30 5586 H 535.398 4.06443 0.891272 0
M  V30 5587 H 534.274 5.24889 1.60569 0
M  V30 5588 H 534.535 3.70798 2.40752 0
M  V30 5589 N 533.594 0.0601682 1.57485 0
M  V30 5590 C 535.005 -0.474217 1.80577 0
M  V30 5591 C 535.356 -1.70365 0.973147 0
M  V30 5592 O 534.481 -2.15544 0.192306 0
M  V30 5593 C 535.076 -0.867102 3.27516 0
M  V30 5594 C 533.635 -1.34642 3.51495 0
M  V30 5595 C 532.782 -0.32594 2.75378 0
M  V30 5596 H 535.733 0.285973 1.56102 0
M  V30 5597 H 535.754 -1.72938 3.38929 0
M  V30 5598 H 535.266 0.0278927 3.8809 0
M  V30 5599 H 533.367 -2.2603 2.96212 0
M  V30 5600 H 533.48 -1.33237 4.60201 0
M  V30 5601 H 531.844 -0.800749 2.41785 0
M  V30 5602 H 532.627 0.561125 3.38683 0
M  V30 5603 N 535.072 -1.5615 -0.213296 0
M  V30 5604 C 536.32 -1.79191 -0.934612 0
M  V30 5605 C 536.641 -0.630112 -1.84539 0
M  V30 5606 O 535.911 0.35257 -1.92701 0
M  V30 5607 H 534.491 -0.660937 -0.348097 0
M  V30 5608 H 537.153 -1.93618 -0.22317 0
M  V30 5609 H 536.249 -2.71656 -1.53654 0
M  V30 5610 N 536.55 0.480323 -1.50102 0
M  V30 5611 C 537.827 1.24159 -1.51142 0
M  V30 5612 C 538.207 2.09605 -0.250818 0
M  V30 5613 O 537.555 2.15274 0.766118 0
M  V30 5614 C 537.765 2.08057 -2.80202 0
M  V30 5615 C 539.113 2.66556 -3.30504 0
M  V30 5616 O 540.137 2.18308 -2.81461 0
M  V30 5617 O 538.996 3.54442 -4.15973 0
M  V30 5618 H 536.09 0.562928 -0.605839 0
M  V30 5619 H 538.636 0.492899 -1.62384 0
M  V30 5620 H 537.408 1.45032 -3.6343 0
M  V30 5621 H 537.031 2.90079 -2.71919 0
M  V30 5622 N 538.028 1.39524 0.732853 0
M  V30 5623 C 539.439 1.32905 1.31122 0
M  V30 5624 C 539.79 -0.00558708 1.96199 0
M  V30 5625 O 538.915 -0.907706 1.96443 0
M  V30 5626 C 539.51 2.40704 2.38426 0
M  V30 5627 C 538.069 2.37599 2.91931 0
M  V30 5628 C 537.216 2.2248 1.65523 0
M  V30 5629 H 540.167 1.49581 0.530207 0
M  V30 5630 H 540.188 2.07616 3.18867 0
M  V30 5631 H 539.7 3.37829 1.91033 0
M  V30 5632 H 537.801 1.44119 3.43599 0
M  V30 5633 H 537.914 3.32538 3.44899 0
M  V30 5634 H 536.278 1.69691 1.8994 0
M  V30 5635 H 537.061 3.21577 1.20178 0
M  V30 5636 N 539.506 -0.963266 1.24736 0
M  V30 5637 C 540.783 -1.68248 0.9976 0
M  V30 5638 C 541.163 -2.05599 -0.478776 0
M  V30 5639 O 540.511 -1.7626 -1.45412 0
M  V30 5640 C 540.721 -2.91118 1.92487 0
M  V30 5641 C 542.069 -3.63261 2.19833 0
M  V30 5642 O 543.093 -3.01184 1.90176 0
M  V30 5643 O 541.952 -4.75019 2.7022 0
M  V30 5644 H 539.046 -0.735744 0.377637 0
M  V30 5645 H 541.592 -1.01696 1.35853 0
M  V30 5646 H 540.364 -2.60242 2.92215 0
M  V30 5647 H 539.987 -3.65402 1.56738 0
M  V30 5648 N 540.985 -1.06182 -1.16461 0
M  V30 5649 C 541.918 -0.615859 -2.19733 0
M  V30 5650 C 542.896 0.360766 -1.58547 0
M  V30 5651 O 544.08 0.270009 -1.86556 0
M  V30 5652 C 541.207 0.097312 -3.3856 0
M  V30 5653 C 540.253 -0.835889 -4.18229 0
M  V30 5654 S 541.086 -2.33052 -4.82128 0
M  V30 5655 C 542.242 -1.62881 -6.04335 0
M  V30 5656 H 542.475 -1.49079 -2.57221 0
M  V30 5657 H 540.008 -0.874692 -1.27234 0
M  V30 5658 H 541.966 0.502563 -4.07412 0
M  V30 5659 H 540.627 0.948418 -2.99439 0
M  V30 5660 H 539.82 -0.283426 -5.03202 0
M  V30 5661 H 539.422 -1.18097 -3.54865 0
M  V30 5662 H 541.714 -0.933764 -6.71034 0
M  V30 5663 H 542.657 -2.45641 -6.64128 0
M  V30 5664 H 543.065 -1.11189 -5.53441 0
M  V30 5665 N 542.463 1.3308 -0.844243 0
M  V30 5666 C 543.691 2.01808 -0.456203 0
M  V30 5667 C 544.106 1.63498 0.944131 0
M  V30 5668 O 543.463 0.85102 1.61443 0
M  V30 5669 C 543.514 3.56922 -0.573513 0
M  V30 5670 O 543.235 3.93851 -1.91868 0
M  V30 5671 C 544.736 4.42922 -0.183125 0
M  V30 5672 H 541.956 0.646273 -0.180477 0
M  V30 5673 H 544.5 1.69891 -1.1383 0
M  V30 5674 H 542.655 3.87352 0.0607367 0
M  V30 5675 H 543.069 4.88564 -1.90802 0
M  V30 5676 H 544.543 5.51093 -0.316241 0
M  V30 5677 H 545.02 4.30386 0.875477 0
M  V30 5678 H 545.626 4.1786 -0.792027 0
M  V30 5679 N 543.941 0.601185 1.45683 0
M  V30 5680 C 545.357 0.264315 1.57396 0
M  V30 5681 C 545.557 -1.23324 1.59353 0
M  V30 5682 O 544.613 -2.01594 1.52039 0
M  V30 5683 C 545.926 0.929839 2.85962 0
M  V30 5684 C 547.474 0.905156 2.99626 0
M  V30 5685 C 547.949 1.55057 4.30954 0
M  V30 5686 N 549.44 1.51576 4.37697 0
M  V30 5687 C 550.175 1.98436 5.37969 0
M  V30 5688 N 549.671 2.53352 6.44813 0
M  V30 5689 N 551.464 1.89242 5.29286 0
M  V30 5690 H 543.615 1.57363 1.42656 0
M  V30 5691 H 545.878 0.658831 0.681649 0
M  V30 5692 H 545.584 1.98404 2.90394 0
M  V30 5693 H 545.458 0.449224 3.74515 0
M  V30 5694 H 547.845 -0.14048 2.94765 0
M  V30 5695 H 547.926 1.42397 2.12501 0
M  V30 5696 H 547.57 2.5955 4.36573 0
M  V30 5697 H 547.5 1.00682 5.16886 0
M  V30 5698 H 549.991 1.11452 3.61091 0
M  V30 5699 H 550.304 2.86918 7.17564 0
M  V30 5700 H 548.649 2.57388 6.45582 0
M  V30 5701 H 551.84 1.46083 4.44722 0
M  V30 5702 H 552.013 2.26075 6.07284 0
M  V30 5703 N 545.419 -1.53889 0.339982 0
M  V30 5704 C 546.649 -2.04973 -0.258738 0
M  V30 5705 C 547.057 -1.21485 -1.45045 0
M  V30 5706 O 546.4 -0.2422 -1.82096 0
M  V30 5707 C 546.462 -3.51783 -0.740853 0
M  V30 5708 C 546.126 -4.55802 0.330734 0
M  V30 5709 C 547.123 -5.06512 1.17226 0
M  V30 5710 C 544.808 -4.99966 0.483637 0
M  V30 5711 C 546.802 -5.99963 2.15227 0
M  V30 5712 C 544.489 -5.93229 1.46704 0
M  V30 5713 C 545.487 -6.43115 2.29981 0
M  V30 5714 O 545.175 -7.34545 3.26649 0
M  V30 5715 H 544.907 -0.673807 -0.0544037 0
M  V30 5716 H 547.461 -1.99492 0.489107 0
M  V30 5717 H 545.691 -3.54717 -1.53988 0
M  V30 5718 H 547.38 -3.85857 -1.25973 0
M  V30 5719 H 548.146 -4.73158 1.0652 0
M  V30 5720 H 544.025 -4.6074 -0.15471 0
M  V30 5721 H 547.569 -6.38825 2.80265 0
M  V30 5722 H 543.466 -6.25998 1.57468 0
M  V30 5723 H 544.234 -7.52468 3.22078 0
M  V30 5724 N 546.897 -0.0685191 -1.57451 0
M  V30 5725 C 548.143 0.602239 -1.93652 0
M  V30 5726 C 548.476 1.6946 -0.948526 0
M  V30 5727 O 547.751 1.94487 0.022782 0
M  V30 5728 C 548.034 1.18223 -3.4014 0
M  V30 5729 C 547.887 0.0967431 -4.49696 0
M  V30 5730 C 549.206 2.08872 -3.87377 0
M  V30 5731 H 546.325 0.217453 -0.70419 0
M  V30 5732 H 548.967 -0.133821 -1.89528 0
M  V30 5733 H 547.117 1.80953 -3.43785 0
M  V30 5734 H 548.789 -0.536155 -4.58174 0
M  V30 5735 H 547.032 -0.573063 -4.29998 0
M  V30 5736 H 547.703 0.542894 -5.49324 0
M  V30 5737 H 550.179 1.56081 -3.85717 0
M  V30 5738 H 549.055 2.46389 -4.90493 0
M  V30 5739 H 549.316 2.99572 -3.25129 0
M  V30 5740 N 548.375 1.56261 0.205012 0
M  V30 5741 C 549.652 1.70856 0.952233 0
M  V30 5742 C 550.032 0.620501 2.01775 0
M  V30 5743 O 549.38 -0.370035 2.25484 0
M  V30 5744 C 549.59 3.12807 1.54767 0
M  V30 5745 C 550.938 3.72733 2.0336 0
M  V30 5746 O 551.962 3.15873 1.64629 0
M  V30 5747 O 550.821 4.72501 2.746 0
M  V30 5748 H 547.915 0.696496 0.445895 0
M  V30 5749 H 550.461 1.6857 0.195489 0
M  V30 5750 H 549.233 3.83465 0.779132 0
M  V30 5751 H 548.856 3.1928 2.36951 0
M  V30 5752 N 549.853 -0.472356 1.50355 0
M  V30 5753 C 551.269 -0.806001 1.37753 0
M  V30 5754 C 551.469 -1.968 0.432649 0
M  V30 5755 O 550.525 -2.52189 -0.12519 0
M  V30 5756 C 551.838 -1.11926 2.79093 0
M  V30 5757 C 553.386 -1.22579 2.87999 0
M  V30 5758 C 553.861 -1.57218 4.3017 0
M  V30 5759 N 555.352 -1.64212 4.33115 0
M  V30 5760 C 556.087 -1.92517 5.40116 0
M  V30 5761 N 555.583 -2.1885 6.57325 0
M  V30 5762 N 557.376 -1.94008 5.27558 0
M  V30 5763 H 549.527 0.293451 2.10363 0
M  V30 5764 H 551.79 0.0687672 0.945503 0
M  V30 5765 H 551.496 -0.338504 3.50067 0
M  V30 5766 H 551.37 -2.05577 3.16256 0
M  V30 5767 H 553.757 -1.99722 2.17245 0
M  V30 5768 H 553.838 -0.269107 2.54381 0
M  V30 5769 H 553.482 -0.806154 5.01461 0
M  V30 5770 H 553.412 -2.54034 4.61275 0
M  V30 5771 H 555.903 -1.45906 3.48597 0
M  V30 5772 H 556.216 -2.39718 7.3468 0
M  V30 5773 H 554.561 -2.16245 6.60502 0
M  V30 5774 H 557.752 -1.72931 4.34986 0
M  V30 5775 H 557.925 -2.15731 6.11035 0
M  V30 5776 N 551.331 -1.39911 -0.725443 0
M  V30 5777 C 552.578 -1.37654 -1.48518 0
M  V30 5778 C 552.906 0.0243982 -1.94485 0
M  V30 5779 O 552.161 1.00708 -1.67799 0
M  V30 5780 C 552.46 -2.30368 -2.7325 0
M  V30 5781 C 552.126 -3.77817 -2.461 0
M  V30 5782 C 550.788 -4.17991 -2.38405 0
M  V30 5783 C 553.14 -4.71036 -2.23103 0
M  V30 5784 C 550.468 -5.49433 -2.05768 0
M  V30 5785 C 552.82 -6.02766 -1.9198 0
M  V30 5786 C 551.484 -6.41993 -1.82761 0
M  V30 5787 H 550.754 -0.503713 -0.543465 0
M  V30 5788 H 553.401 -1.7249 -0.831822 0
M  V30 5789 H 551.706 -1.88683 -3.43375 0
M  V30 5790 H 553.403 -2.2591 -3.31309 0
M  V30 5791 H 549.993 -3.45982 -2.52972 0
M  V30 5792 H 554.177 -4.40823 -2.2801 0
M  V30 5793 H 549.433 -5.78738 -1.9716 0
M  V30 5794 H 553.607 -6.74519 -1.73197 0
M  V30 5795 H 551.234 -7.43761 -1.57237 0
M  V30 5796 N 552.809 0.956637 -1.25245 0
M  V30 5797 C 554.057 1.69764 -1.09657 0
M  V30 5798 C 554.378 1.91583 0.363464 0
M  V30 5799 O 553.648 1.50149 1.25825 0
M  V30 5800 H 552.228 0.629097 -0.402798 0
M  V30 5801 H 554.89 1.15026 -1.57337 0
M  V30 5802 H 553.986 2.67769 -1.60331 0
M  V30 5803 N 554.287 1.06798 1.15896 0
M  V30 5804 C 555.234 0.683314 2.20453 0
M  V30 5805 C 556.204 -0.32255 1.62938 0
M  V30 5806 O 557.389 -0.210276 1.89638 0
M  V30 5807 C 554.529 0.0813266 3.45004 0
M  V30 5808 C 553.642 1.13799 4.16742 0
M  V30 5809 C 552.777 0.501598 5.28826 0
M  V30 5810 C 551.816 1.54144 5.92373 0
M  V30 5811 N 550.953 0.928038 6.9594 0
M  V30 5812 H 555.793 1.57932 2.52708 0
M  V30 5813 H 553.33 0.789544 1.24115 0
M  V30 5814 H 555.288 -0.285274 4.16224 0
M  V30 5815 H 553.918 -0.77806 3.13283 0
M  V30 5816 H 552.97 1.62223 3.44075 0
M  V30 5817 H 554.282 1.92664 4.60089 0
M  V30 5818 H 553.436 0.0823162 6.06644 0
M  V30 5819 H 552.175 -0.318883 4.86656 0
M  V30 5820 H 551.18 1.97056 5.13273 0
M  V30 5821 H 552.405 2.3641 6.36621 0
M  V30 5822 H 550.351 0.12836 6.55874 0
M  V30 5823 H 550.268 1.65401 7.37685 0
M  V30 5824 H 551.536 0.534071 7.77668 0
M  V30 5825 N 555.766 -1.3263 0.851289 0
M  V30 5826 C 556.994 -2.01563 0.466899 0
M  V30 5827 C 557.409 -1.63996 -0.935447 0
M  V30 5828 O 556.766 -0.85957 -1.6099 0
M  V30 5829 C 556.817 -3.56613 0.592433 0
M  V30 5830 O 556.538 -3.92828 1.93954 0
M  V30 5831 C 558.039 -4.42818 0.206612 0
M  V30 5832 H 555.259 -0.645307 0.183902 0
M  V30 5833 H 557.803 -1.69285 1.1473 0
M  V30 5834 H 555.958 -3.87379 -0.0401936 0
M  V30 5835 H 556.372 -4.87545 1.9339 0
M  V30 5836 H 557.846 -5.50918 0.345462 0
M  V30 5837 H 558.323 -4.30844 -0.85264 0
M  V30 5838 H 558.929 -4.17434 0.814176 0
M  V30 5839 N 557.244 -0.608902 -1.45362 0
M  V30 5840 C 558.191 0.109172 -2.30542 0
M  V30 5841 C 559.161 0.858704 -1.42181 0
M  V30 5842 O 560.346 0.844178 -1.71109 0
M  V30 5843 C 557.486 1.09971 -3.27109 0
M  V30 5844 C 556.599 0.350911 -4.30572 0
M  V30 5845 C 555.734 1.33129 -5.14247 0
M  V30 5846 C 554.773 0.570377 -6.09437 0
M  V30 5847 N 553.91 1.5001 -6.85887 0
M  V30 5848 H 558.75 -0.623195 -2.91411 0
M  V30 5849 H 556.287 -0.319122 -1.43597 0
M  V30 5850 H 558.245 1.68714 -3.81564 0
M  V30 5851 H 556.875 1.79947 -2.67991 0
M  V30 5852 H 555.927 -0.352054 -3.78767 0
M  V30 5853 H 557.239 -0.242725 -4.98209 0
M  V30 5854 H 556.393 1.99074 -5.73109 0
M  V30 5855 H 555.132 1.95885 -4.46632 0
M  V30 5856 H 554.137 -0.102702 -5.49704 0
M  V30 5857 H 555.362 -0.0521607 -6.7908 0
M  V30 5858 H 553.308 2.11529 -6.2096 0
M  V30 5859 H 553.225 0.959934 -7.49881 0
M  V30 5860 H 554.493 2.14909 -7.49289 0
M  V30 5861 N 558.722 1.53707 -0.348139 0
M  V30 5862 C 559.95 2.05406 0.248224 0
M  V30 5863 C 560.365 1.22282 1.43849 0
M  V30 5864 O 559.722 0.259244 1.80649 0
M  V30 5865 C 559.773 3.55446 0.658793 0
M  V30 5866 O 559.494 4.35417 -0.484149 0
M  V30 5867 C 560.995 4.23335 1.31539 0
M  V30 5868 H 558.215 0.669344 0.0471075 0
M  V30 5869 H 560.759 1.98257 -0.501456 0
M  V30 5870 H 558.914 3.62803 1.35841 0
M  V30 5871 H 559.328 5.24268 -0.155949 0
M  V30 5872 H 560.802 5.29692 1.55338 0
M  V30 5873 H 561.279 3.75967 2.27036 0
M  V30 5874 H 561.885 4.20184 0.657683 0
M  V30 5875 N 560.2 0.0768682 1.57412 0
M  V30 5876 C 561.446 -0.591961 1.93968 0
M  V30 5877 C 561.779 -1.68954 0.9575 0
M  V30 5878 O 561.054 -1.94496 -0.0124675 0
M  V30 5879 C 561.337 -1.16418 3.40762 0
M  V30 5880 C 561.19 -0.0728933 4.49741 0
M  V30 5881 C 562.509 -2.06814 3.88479 0
M  V30 5882 H 559.628 -0.213716 0.705333 0
M  V30 5883 H 562.27 0.14387 1.89455 0
M  V30 5884 H 560.42 -1.79128 3.4474 0
M  V30 5885 H 562.092 0.560446 4.57883 0
M  V30 5886 H 560.335 0.595859 4.29688 0
M  V30 5887 H 561.006 -0.513755 5.49604 0
M  V30 5888 H 563.482 -1.54033 3.8654 0
M  V30 5889 H 562.358 -2.43785 4.91793 0
M  V30 5890 H 562.619 -2.97844 3.26713 0
M  V30 5891 N 561.678 -1.56367 -0.196722 0
M  V30 5892 C 562.925 -1.80529 -0.917366 0
M  V30 5893 C 563.253 -0.649817 -1.83324 0
M  V30 5894 O 562.508 0.36451 -1.92275 0
M  V30 5895 C 562.807 -3.10663 -1.767 0
M  V30 5896 C 562.473 -4.3962 -1.00225 0
M  V30 5897 C 561.135 -4.74653 -0.791095 0
M  V30 5898 C 563.487 -5.1913 -0.464035 0
M  V30 5899 C 560.815 -5.86692 -0.0302155 0
M  V30 5900 C 563.167 -6.31964 0.283625 0
M  V30 5901 C 561.831 -6.65581 0.505813 0
M  V30 5902 H 561.101 -0.660602 -0.335688 0
M  V30 5903 H 563.748 -1.90615 -0.183844 0
M  V30 5904 H 562.053 -2.95807 -2.56915 0
M  V30 5905 H 563.75 -3.26563 -2.32718 0
M  V30 5906 H 560.34 -4.12127 -1.17684 0
M  V30 5907 H 564.524 -4.9248 -0.614575 0
M  V30 5908 H 559.78 -6.11211 0.151917 0
M  V30 5909 H 563.954 -6.92791 0.708057 0
M  V30 5910 H 561.581 -7.52239 1.0973 0
M  V30 5911 N 563.156 0.464375 -1.50603 0
M  V30 5912 C 564.567 1.04507 -1.5471 0
M  V30 5913 C 564.918 1.9297 -0.354542 0
M  V30 5914 O 564.043 2.09763 0.531812 0
M  V30 5915 C 564.638 1.90207 -2.80369 0
M  V30 5916 C 563.197 2.43373 -2.87135 0
M  V30 5917 C 562.344 1.21886 -2.49076 0
M  V30 5918 H 565.295 0.246716 -1.56771 0
M  V30 5919 H 565.316 2.75353 -2.62604 0
M  V30 5920 H 564.828 1.25796 -3.67147 0
M  V30 5921 H 562.929 3.11318 -2.04724 0
M  V30 5922 H 563.042 2.7802 -3.90181 0
M  V30 5923 H 561.406 1.55575 -2.01664 0
M  V30 5924 H 562.189 0.591268 -3.3817 0
M  V30 5925 N 564.634 1.40294 0.718013 0
M  V30 5926 C 565.882 1.38167 1.47494 0
M  V30 5927 C 566.203 -0.01607 1.94993 0
M  V30 5928 O 565.473 -0.970396 1.70177 0
M  V30 5929 H 564.053 0.508505 0.547203 0
M  V30 5930 H 566.715 1.75324 0.851322 0
M  V30 5931 H 565.811 2.05503 2.34894 0
M  V30 5932 N 566.112 -0.949982 1.2575 0
M  V30 5933 C 567.06 -2.06869 1.06339 0
M  V30 5934 C 568.054 -1.69399 -0.00708901 0
M  V30 5935 O 569.26 -1.79383 0.148897 0
M  V30 5936 H 565.635 -0.677197 0.326969 0
M  V30 5937 H 567.606 -2.20396 2.01167 0
M  V30 5938 C 566.355 -3.40503 0.703769 0
M  V30 5939 H 565.678 -3.69807 1.51931 0
M  V30 5940 H 567.118 -4.19623 0.607677 0
M  V30 5941 C 565.577 -3.31685 -0.5905 0
M  V30 5942 O 566.107 -3.67085 -1.63131 0
M  V30 5943 N 564.313 -2.84797 -0.577859 0
M  V30 5944 H 563.86 -2.56186 0.26951 0
M  V30 5945 H 563.818 -2.79279 -1.44398 0
M  V30 5946 O 567.629 -1.19786 -1.08322 0
M  V30 5947 H 568.32 -0.948322 -1.68898 0
M  V30 END ATOM
M  V30 BEGIN BOND
M  V30 END BOND
M  V30 END CTAB
M  END
$$$$
