drugbank_target|Q9XB59 (5R)-carbapenem-3-carboxylate synthase (DB03360)
 OpenBabel12092120253D

  0  0  0     0  0            999 V3000
M  V30 BEGIN CTAB
M  V30 COUNTS 4404 4460 0 0 0
M  V30 BEGIN ATOM
M  V30 1 H -0.908 1.98254 -0.117106 0
M  V30 2 N 0 1.576 0 0
M  V30 3 C 0.933 2.03868 1.02534 0
M  V30 4 C 1.911 0.928543 1.3348 0
M  V30 5 O 3.095 1.19667 1.45644 0
M  V30 6 C 0.222 2.43627 2.35294 0
M  V30 7 C -0.732 3.65373 2.2001 0
M  V30 8 S 0.101 5.13292 1.52614 0
M  V30 9 C 1.257 5.56322 2.86805 0
M  V30 10 H 1.49 2.90518 0.631377 0
M  V30 11 H -0.977 1.52953 0.210867 0
M  V30 12 H 0.981 2.67203 3.11629 0
M  V30 13 H -0.358 1.57376 2.7183 0
M  V30 14 H -1.165 3.90944 3.18086 0
M  V30 15 H -1.563 3.418 1.51819 0
M  V30 16 H 0.729 5.58782 3.83104 0
M  V30 17 H 1.672 6.56266 2.65933 0
M  V30 18 H 2.08 4.83886 2.90714 0
M  V30 19 N 1.4781 -0.272755 1.55222 0
M  V30 20 C 2.7031 -1.02683 1.80197 0
M  V30 21 C 3.1281 -1.79142 0.573551 0
M  V30 22 O 2.4861 -1.74917 -0.476849 0
M  V30 23 C 2.5341 -1.9609 3.02624 0
M  V30 24 O 1.6381 -3.04863 2.77727 0
M  V30 25 H 0.9791 -0.293557 0.595584 0
M  V30 26 H 3.5091 -0.30159 2.02365 0
M  V30 27 H 3.5191 -2.38039 3.31363 0
M  V30 28 H 2.1941 -1.39851 3.91682 0
M  V30 29 H 0.7711 -2.67228 2.60084 0
M  V30 30 N 2.9562 -1.48159 -0.537278 0
M  V30 31 C 3.8662 -1.64807 -1.6696 0
M  V30 32 C 4.8822 -0.530651 -1.65711 0
M  V30 33 O 6.0582 -0.800784 -1.84796 0
M  V30 34 C 3.1232 -1.67708 -3.03438 0
M  V30 35 C 2.1842 -2.91025 -3.156 0
M  V30 36 C 1.4172 -2.93778 -4.45567 0
M  V30 37 O 1.6402 -2.05153 -5.3223 0
M  V30 38 O 0.5742 -3.85868 -4.61941 0
M  V30 39 H 4.4002 -2.6066 -1.55853 0
M  V30 40 H 1.9852 -1.31475 -0.709549 0
M  V30 41 H 3.8672 -1.7218 -3.84619 0
M  V30 42 H 2.5422 -0.750278 -3.14885 0
M  V30 43 H 1.4492 -2.92089 -2.33741 0
M  V30 44 H 2.7822 -3.83065 -3.09066 0
M  V30 45 N 4.4343 0.785586 -1.36625 0
M  V30 46 C 5.6833 1.53883 -1.30396 0
M  V30 47 C 5.9963 1.95271 0.113452 0
M  V30 48 O 7.2023 2.69858 0.298142 0
M  V30 49 C 5.6583 2.77808 -2.28802 0
M  V30 50 C 5.2663 2.43574 -3.75999 0
M  V30 51 C 7.0103 3.55783 -2.31558 0
M  V30 52 C 4.9173 3.63919 -4.66173 0
M  V30 53 H 3.8473 0.577678 -0.484566 0
M  V30 54 H 6.4983 0.861705 -1.62009 0
M  V30 55 H 4.8803 3.47339 -1.90188 0
M  V30 56 H 6.0543 1.81916 -4.23371 0
M  V30 57 H 4.3693 1.78803 -3.76056 0
M  V30 58 H 6.9663 4.45205 -2.96137 0
M  V30 59 H 7.3093 3.94644 -1.3252 0
M  V30 60 H 7.8423 2.93235 -2.68809 0
M  V30 61 H 4.5813 3.3015 -5.66287 0
M  V30 62 H 4.1013 4.2473 -4.23515 0
M  V30 63 H 5.7803 4.30901 -4.82632 0
M  V30 64 N 5.9124 1.20967 1.01018 0
M  V30 65 C 7.1584 1.02526 1.74975 0
M  V30 66 C 7.4914 -0.4408 1.89131 0
M  V30 67 O 6.7664 -1.32718 1.42184 0
M  V30 68 C 7.0494 1.71699 3.1653 0
M  V30 69 C 6.9024 3.25791 3.10129 0
M  V30 70 C 8.2214 1.45531 4.15342 0
M  V30 71 H 5.3404 0.373863 0.635134 0
M  V30 72 H 7.9824 1.49071 1.17805 0
M  V30 73 H 6.1324 1.32128 3.65341 0
M  V30 74 H 7.8044 3.74697 2.69072 0
M  V30 75 H 6.0474 3.56363 2.47362 0
M  V30 76 H 6.7184 3.69353 4.10222 0
M  V30 77 H 9.1944 1.79872 3.75213 0
M  V30 78 H 8.0704 1.96453 5.1254 0
M  V30 79 H 8.3314 0.384237 4.40427 0
M  V30 80 N 7.3905 -1.2043 1.01659 0
M  V30 81 C 8.3375 -2.23215 0.586822 0
M  V30 82 C 9.3075 -1.61382 -0.393085 0
M  V30 83 O 10.4925 -1.88544 -0.292525 0
M  V30 84 C 7.6325 -3.45032 -0.0687464 0
M  V30 85 C 6.7455 -4.21296 0.955724 0
M  V30 86 C 5.8805 -5.30507 0.271208 0
M  V30 87 C 4.9195 -5.98515 1.28244 0
M  V30 88 N 4.0565 -6.99316 0.62459 0
M  V30 89 H 8.8965 -2.59336 1.46796 0
M  V30 90 H 6.4335 -1.27431 0.734836 0
M  V30 91 H 8.3915 -4.1459 -0.465965 0
M  V30 92 H 7.0215 -3.09604 -0.913529 0
M  V30 93 H 6.0735 -3.50803 1.4711 0
M  V30 94 H 7.3855 -4.6803 1.72479 0
M  V30 95 H 6.5395 -6.06428 -0.18151 0
M  V30 96 H 5.2785 -4.8481 -0.530163 0
M  V30 97 H 4.2835 -5.21355 1.74554 0
M  V30 98 H 5.5085 -6.46298 2.08509 0
M  V30 99 H 3.4545 -6.55812 -0.156914 0
M  V30 100 H 3.3715 -7.44178 1.33172 0
M  V30 101 H 4.6395 -7.79255 0.195462 0
M  V30 102 N 8.8686 -0.792821 -1.36206 0
M  V30 103 C 10.1156 -0.366786 -1.99151 0
M  V30 104 C 10.4436 1.06243 -1.62919 0
M  V30 105 O 9.6986 1.74927 -0.877442 0
M  V30 106 C 9.9976 -0.481501 -3.54142 0
M  V30 107 C 9.6636 -1.87202 -4.10203 0
M  V30 108 C 8.3256 -2.25248 -4.25226 0
M  V30 109 C 10.6776 -2.78237 -4.40719 0
M  V30 110 C 8.0056 -3.53723 -4.68078 0
M  V30 111 C 10.3576 -4.06144 -4.85005 0
M  V30 112 C 9.0216 -4.44207 -4.98234 0
M  V30 113 H 8.2916 -0.134217 -0.728743 0
M  V30 114 H 10.9386 -1.01094 -1.62641 0
M  V30 115 H 9.2436 0.246146 -3.91026 0
M  V30 116 H 10.9406 -0.132844 -4.0078 0
M  V30 117 H 7.5306 -1.56639 -3.98951 0
M  V30 118 H 11.7146 -2.50097 -4.28679 0
M  V30 119 H 6.9706 -3.8308 -4.76508 0
M  V30 120 H 11.1446 -4.76796 -5.07581 0
M  V30 121 H 8.7716 -5.43814 -5.31197 0
M  V30 122 N 10.3467 1.47872 -0.545128 0
M  V30 123 C 11.2947 2.31533 0.222512 0
M  V30 124 C 12.2887 1.42177 0.920985 0
M  V30 125 O 13.4947 1.59005 0.843645 0
M  V30 126 H 9.8697 0.746519 0.0906278 0
M  V30 127 H 11.8407 2.94139 -0.50246 0
M  V30 128 C 10.5897 3.2457 1.24699 0
M  V30 129 H 9.9127 3.93283 0.718944 0
M  V30 130 H 11.3527 3.85963 1.75523 0
M  V30 131 C 9.8117 2.47237 2.28856 0
M  V30 132 O 10.3417 2.20808 3.35569 0
M  V30 133 N 8.5477 2.08461 2.02466 0
M  V30 134 H 8.0947 2.30155 1.157 0
M  V30 135 H 8.0527 1.57033 2.72375 0
M  V30 136 N 11.8248 0.280983 1.55075 0
M  V30 137 C 13.2358 -0.215629 1.85451 0
M  V30 138 C 13.5868 -1.54991 1.203 0
M  V30 139 O 12.7118 -2.10699 0.493435 0
M  V30 140 C 13.3068 -0.398026 3.36454 0
M  V30 141 C 11.8658 -0.838866 3.66933 0
M  V30 142 C 11.0128 0.064458 2.77225 0
M  V30 143 H 13.9638 0.502601 1.50531 0
M  V30 144 H 13.9848 -1.23569 3.59876 0
M  V30 145 H 13.4968 0.573241 3.83843 0
M  V30 146 H 11.5978 -1.8214 3.25048 0
M  V30 147 H 11.7108 -0.672123 4.74362 0
M  V30 148 H 10.0748 -0.452863 2.50642 0
M  V30 149 H 10.8578 1.03172 3.2743 0
M  V30 150 N 13.3029 -1.57598 0.00835791 0
M  V30 151 C 14.5489 -1.91211 -0.675732 0
M  V30 152 C 14.8819 -0.883139 -1.72958 0
M  V30 153 O 14.1569 0.097016 -1.94258 0
M  V30 154 C 14.4399 -3.35379 -1.31123 0
M  V30 155 C 14.2929 -4.48999 -0.268356 0
M  V30 156 C 15.6119 -3.7912 -2.23508 0
M  V30 157 H 12.7309 -0.695374 -0.244179 0
M  V30 158 H 15.3729 -1.89901 0.0613655 0
M  V30 159 H 13.5229 -3.36626 -1.93946 0
M  V30 160 H 15.1949 -4.59887 0.360844 0
M  V30 161 H 13.4379 -4.31873 0.408482 0
M  V30 162 H 14.1089 -5.46851 -0.752218 0
M  V30 163 H 16.5849 -3.79477 -1.70693 0
M  V30 164 H 15.4609 -4.80729 -2.64936 0
M  V30 165 H 15.7219 -3.13455 -3.11766 0
M  V30 166 N 14.781 0.264519 -1.55364 0
M  V30 167 C 15.714 1.35297 -1.83766 0
M  V30 168 C 16.692 1.47171 -0.691336 0
M  V30 169 O 17.876 1.63663 -0.935238 0
M  V30 170 C 15.003 2.72847 -2.00679 0
M  V30 171 C 14.049 2.78214 -3.23263 0
M  V30 172 S 14.882 2.36601 -4.80396 0
M  V30 173 C 16.038 3.7611 -5.00292 0
M  V30 174 H 16.271 1.11003 -2.758 0
M  V30 175 H 13.804 0.464596 -1.47244 0
M  V30 176 H 15.762 3.52057 -2.11108 0
M  V30 177 H 14.423 2.94388 -1.09518 0
M  V30 178 H 13.616 3.7919 -3.3201 0
M  V30 179 H 13.218 2.07034 -3.11469 0
M  V30 180 H 15.51 4.71457 -4.86554 0
M  V30 181 H 16.453 3.7231 -6.02321 0
M  V30 182 H 16.861 3.67806 -4.28228 0
M  V30 183 N 16.2591 1.48442 0.529413 0
M  V30 184 C 17.2221 1.62524 1.61612 0
M  V30 185 C 18.2221 0.498509 1.52877 0
M  V30 186 O 19.4121 0.76431 1.56537 0
M  V30 187 C 16.5441 1.59597 3.01233 0
M  V30 188 H 17.7371 2.59423 1.50465 0
M  V30 189 H 15.2901 1.37047 0.751514 0
M  V30 190 H 16.0251 0.641781 3.17886 0
M  V30 191 H 15.8101 2.41397 3.08982 0
M  V30 192 H 17.3001 1.72646 3.80241 0
M  V30 193 N 17.7372 -0.778329 1.37039 0
M  V30 194 C 18.9622 -1.57248 1.35233 0
M  V30 195 C 19.3872 -1.87999 -0.0615568 0
M  V30 196 O 18.7452 -1.48734 -1.03672 0
M  V30 197 C 18.7932 -2.86353 2.19167 0
M  V30 198 O 17.8972 -3.80442 1.59178 0
M  V30 199 H 17.2382 -0.476569 0.462362 0
M  V30 200 H 19.7682 -0.963853 1.80474 0
M  V30 201 H 19.7782 -3.35519 2.32145 0
M  V30 202 H 18.4532 -2.63299 3.21942 0
M  V30 203 H 17.0302 -3.39067 1.55203 0
M  V30 204 N 19.2153 -1.21501 -1.00376 0
M  V30 205 C 20.4633 -1.03095 -1.73827 0
M  V30 206 C 20.7843 0.436341 -1.90055 0
M  V30 207 O 20.0543 1.31466 -1.45236 0
M  V30 208 H 18.6343 -0.378487 -0.644016 0
M  V30 209 H 21.2963 -1.52831 -1.20949 0
M  V30 210 H 20.3923 -1.49991 -2.73695 0
M  V30 211 N 20.6934 1.19889 -1.02296 0
M  V30 212 C 21.9404 1.8942 -0.715972 0
M  V30 213 C 22.2684 1.79251 0.754944 0
M  V30 214 O 21.5234 1.17526 1.56481 0
M  V30 215 C 21.8224 3.39883 -1.10518 0
M  V30 216 C 21.4884 3.70254 -2.57337 0
M  V30 217 C 20.1504 3.78254 -2.97452 0
M  V30 218 C 22.5024 3.84052 -3.52354 0
M  V30 219 C 19.8304 3.97514 -4.31509 0
M  V30 220 C 22.1824 4.04824 -4.86108 0
M  V30 221 C 20.8464 4.11054 -5.25919 0
M  V30 222 H 20.1164 0.693138 -0.261993 0
M  V30 223 H 22.7634 1.42012 -1.28472 0
M  V30 224 H 21.0684 3.8915 -0.454953 0
M  V30 225 H 22.7654 3.9199 -0.845261 0
M  V30 226 H 19.3554 3.64632 -2.25258 0
M  V30 227 H 23.5394 3.77221 -3.22518 0
M  V30 228 H 18.7954 4.00574 -4.61898 0
M  V30 229 H 22.9694 4.14442 -5.59653 0
M  V30 230 H 20.5964 4.2573 -6.29808 0
M  V30 231 N 22.1715 0.800033 1.35784 0
M  V30 232 C 23.4195 0.376597 1.9856 0
M  V30 233 C 23.7405 -1.05812 1.63795 0
M  V30 234 O 23.0105 -1.73103 0.917171 0
M  V30 235 H 21.5905 0.136261 0.734467 0
M  V30 236 H 24.2525 1.02442 1.65806 0
M  V30 237 H 23.3485 0.477002 3.08433 0
M  V30 238 N 23.6496 -1.47581 0.552962 0
M  V30 239 C 24.6126 -2.28439 -0.186605 0
M  V30 240 C 25.6126 -1.36706 -0.84665 0
M  V30 241 O 26.8026 -1.59378 -0.703164 0
M  V30 242 C 23.9346 -3.16264 -1.2724 0
M  V30 243 H 25.1276 -2.95294 0.523609 0
M  V30 244 H 22.6806 -1.532 0.309745 0
M  V30 245 H 23.4156 -2.54091 -2.01514 0
M  V30 246 H 23.2006 -3.83769 -0.803968 0
M  V30 247 H 24.6906 -3.77198 -1.79196 0
M  V30 248 N 25.1277 -0.289203 -1.54924 0
M  V30 249 C 26.3577 0.325989 -2.04012 0
M  V30 250 C 26.7657 1.48961 -1.1665 0
M  V30 251 O 26.1087 1.82794 -0.1822 0
M  V30 252 C 26.1707 0.856112 -3.49158 0
M  V30 253 C 25.8347 -0.180697 -4.56643 0
M  V30 254 C 26.8317 -1.0051 -5.10092 0
M  V30 255 C 24.5167 -0.318998 -5.01286 0
M  V30 256 C 26.5107 -1.95385 -6.06715 0
M  V30 257 C 24.1977 -1.27121 -5.97732 0
M  V30 258 C 25.1957 -2.08713 -6.50329 0
M  V30 259 O 24.8837 -3.02322 -7.44887 0
M  V30 260 H 24.6157 0.0765276 -0.671654 0
M  V30 261 H 27.1697 -0.423254 -2.00992 0
M  V30 262 H 25.3997 1.65567 -3.49463 0
M  V30 263 H 27.0887 1.38591 -3.81507 0
M  V30 264 H 27.8547 -0.90906 -4.76404 0
M  V30 265 H 23.7337 0.306108 -4.59983 0
M  V30 266 H 27.2777 -2.59111 -6.47694 0
M  V30 267 H 23.1747 -1.36801 -6.30837 0
M  V30 268 H 23.9427 -2.97165 -7.6265 0
M  V30 269 N 26.6058 1.57591 -0.0167156 0
M  V30 270 C 27.8548 1.90461 0.663877 0
M  V30 271 C 28.1678 0.893515 1.73999 0
M  V30 272 O 29.3738 1.11302 2.47637 0
M  V30 273 C 27.8298 3.38155 1.23204 0
M  V30 274 C 27.4378 4.47597 0.189866 0
M  V30 275 C 29.1818 3.80111 1.88986 0
M  V30 276 C 27.0888 5.86379 0.768964 0
M  V30 277 H 26.0188 0.710738 0.251729 0
M  V30 278 H 28.6698 1.83326 -0.0799926 0
M  V30 279 H 27.0518 3.40182 2.02712 0
M  V30 280 H 28.2258 4.57112 -0.581846 0
M  V30 281 H 26.5408 4.14766 -0.368475 0
M  V30 282 H 29.1378 4.81145 2.33247 0
M  V30 283 H 29.4808 3.14511 2.72743 0
M  V30 284 H 30.0138 3.80454 1.16187 0
M  V30 285 H 26.7528 6.55493 -0.0301957 0
M  V30 286 H 26.2728 5.80496 1.50945 0
M  V30 287 H 27.9518 6.34563 1.26251 0
M  V30 288 N 28.0839 -0.256276 1.55502 0
M  V30 289 C 29.3609 -1.00789 1.67633 0
M  V30 290 C 29.7409 -2.03706 0.553826 0
M  V30 291 O 29.0889 -2.24145 -0.443969 0
M  V30 292 C 29.2989 -1.64968 3.07549 0
M  V30 293 C 30.6469 -2.15505 3.65845 0
M  V30 294 O 31.6709 -1.74925 3.1029 0
M  V30 295 O 30.5299 -2.89986 4.63217 0
M  V30 296 H 27.6239 -0.468553 0.681459 0
M  V30 297 H 30.1699 -0.250806 1.67836 0
M  V30 298 H 28.9419 -0.904785 3.80696 0
M  V30 299 H 28.5649 -2.47321 3.11317 0
M  V30 300 N 29.562 -1.4872 -0.521534 0
M  V30 301 C 30.512 -1.60269 -1.62166 0
M  V30 302 C 31.496 -0.45935 -1.54204 0
M  V30 303 O 32.688 -0.711241 -1.62081 0
M  V30 304 C 29.817 -1.65344 -3.00859 0
M  V30 305 C 28.903 -2.85187 -3.13894 0
M  V30 306 N 29.294 -4.09509 -2.96877 0
M  V30 307 C 27.592 -2.82695 -3.44963 0
M  V30 308 C 28.293 -4.89959 -3.13552 0
M  V30 309 N 27.269 -4.22934 -3.41508 0
M  V30 310 H 31.071 -2.5413 -1.47632 0
M  V30 311 H 28.585 -1.45209 -0.727194 0
M  V30 312 H 30.582 -1.71713 -3.79895 0
M  V30 313 H 29.242 -0.726058 -3.16478 0
M  V30 314 H 30.253 -4.39814 -2.73467 0
M  V30 315 H 26.93 -1.99249 -3.66887 0
M  V30 316 H 28.32 -5.98654 -3.05061 0
M  V30 317 N 31.0401 0.771051 -1.3745 0
M  V30 318 C 32.4561 1.07171 -1.18265 0
M  V30 319 C 32.6561 2.01491 -0.019287 0
M  V30 320 O 31.7121 2.44244 0.640408 0
M  V30 321 C 33.0251 1.66854 -2.50161 0
M  V30 322 C 34.5731 1.79109 -2.56689 0
M  V30 323 C 35.0481 2.42205 -3.88717 0
M  V30 324 N 36.5391 2.49655 -3.90162 0
M  V30 325 C 37.2741 2.9933 -4.8907 0
M  V30 326 N 36.7701 3.49172 -5.98374 0
M  V30 327 N 38.5631 2.9821 -4.76474 0
M  V30 328 H 30.7141 0.144796 -2.11906 0
M  V30 329 H 32.9771 0.126863 -0.939473 0
M  V30 330 H 32.6831 1.05017 -3.35655 0
M  V30 331 H 32.5571 2.6614 -2.673 0
M  V30 332 H 34.9441 2.40077 -1.71601 0
M  V30 333 H 35.0251 0.785757 -2.43433 0
M  V30 334 H 34.6691 1.81875 -4.74219 0
M  V30 335 H 34.5991 3.43345 -3.99276 0
M  V30 336 H 37.0901 2.14383 -3.11205 0
M  V30 337 H 37.4031 3.8548 -6.69795 0
M  V30 338 H 35.7481 3.47275 -6.02018 0
M  V30 339 H 38.9391 2.58572 -3.90203 0
M  V30 340 H 39.1121 3.36613 -5.53711 0
M  V30 341 N 32.5182 1.22032 0.997298 0
M  V30 342 C 33.7952 0.950823 1.70935 0
M  V30 343 C 34.1752 -0.535292 2.042 0
M  V30 344 O 33.5232 -1.50217 1.72183 0
M  V30 345 C 33.7332 1.84386 2.96315 0
M  V30 346 C 35.0812 2.09732 3.69185 0
M  V30 347 O 36.1052 1.81798 3.06314 0
M  V30 348 O 34.9642 2.57018 4.82291 0
M  V30 349 H 32.0582 0.357204 0.745878 0
M  V30 350 H 34.6042 1.32997 1.05404 0
M  V30 351 H 33.3762 2.84928 2.68201 0
M  V30 352 H 32.9992 1.46602 3.69586 0
M  V30 353 N 33.9963 -1.19345 1.0293 0
M  V30 354 C 35.2433 -1.89038 0.726008 0
M  V30 355 C 35.5713 -1.79649 -0.745427 0
M  V30 356 O 34.8263 -1.18354 -1.55855 0
M  V30 357 C 35.1253 -3.39292 1.12319 0
M  V30 358 C 34.7913 -3.68885 2.59297 0
M  V30 359 C 33.4533 -3.76671 2.99453 0
M  V30 360 C 35.8053 -3.82178 3.54386 0
M  V30 361 C 33.1333 -3.9522 4.33611 0
M  V30 362 C 35.4853 -4.0224 4.88248 0
M  V30 363 C 34.1493 -4.08259 5.28092 0
M  V30 364 H 33.4193 -0.691739 0.265665 0
M  V30 365 H 36.0663 -1.41328 1.29223 0
M  V30 366 H 34.3713 -3.88903 0.475584 0
M  V30 367 H 36.0683 -3.91536 0.866037 0
M  V30 368 H 32.6583 -3.63433 2.27189 0
M  V30 369 H 36.8423 -3.75505 3.24514 0
M  V30 370 H 32.0983 -3.98119 4.64016 0
M  V30 371 H 36.2723 -4.11468 5.61843 0
M  V30 372 H 33.8993 -4.22384 6.32057 0
M  V30 373 N 35.4744 -0.807222 -1.35358 0
M  V30 374 C 36.4044 -0.232509 -2.3234 0
M  V30 375 C 37.3854 0.642386 -1.57504 0
M  V30 376 O 38.5704 0.572526 -1.85569 0
M  V30 377 C 35.7004 0.619238 -3.41735 0
M  V30 378 C 34.6544 -0.157215 -4.27711 0
M  V30 379 C 33.9804 0.816273 -5.28433 0
M  V30 380 C 35.2804 -1.35656 -5.04376 0
M  V30 381 H 36.9744 -1.04276 -2.80654 0
M  V30 382 H 34.5204 -0.50288 -1.34934 0
M  V30 383 H 36.4734 1.03137 -4.08584 0
M  V30 384 H 35.1974 1.46239 -2.92031 0
M  V30 385 H 33.8564 -0.550525 -3.62443 0
M  V30 386 H 33.5044 1.65494 -4.74996 0
M  V30 387 H 33.2044 0.301067 -5.86828 0
M  V30 388 H 34.7284 1.22659 -5.98153 0
M  V30 389 H 36.1424 -1.01927 -5.64166 0
M  V30 390 H 34.5394 -1.8063 -5.7227 0
M  V30 391 H 35.6094 -2.14288 -4.34981 0
M  V30 392 N 36.9525 1.47285 -0.560781 0
M  V30 393 C 37.8625 2.33846 0.187954 0
M  V30 394 C 38.8785 1.48412 0.908293 0
M  V30 395 O 40.0545 1.81332 0.876388 0
M  V30 396 C 37.1195 3.25178 1.2025 0
M  V30 397 C 36.1805 4.26504 0.489208 0
M  V30 398 C 35.4135 5.13472 1.45542 0
M  V30 399 O 35.6365 5.02959 2.6905 0
M  V30 400 O 34.5705 5.93902 0.977963 0
M  V30 401 H 38.3965 2.99177 -0.522177 0
M  V30 402 H 35.9815 1.45903 -0.321364 0
M  V30 403 H 37.8635 3.81584 1.78805 0
M  V30 404 H 36.5385 2.6247 1.89449 0
M  V30 405 H 35.4455 3.73847 -0.137627 0
M  V30 406 H 36.7785 4.91935 -0.161399 0
M  V30 407 N 38.4306 0.297415 1.54768 0
M  V30 408 C 39.3936 -0.567375 2.22066 0
M  V30 409 C 40.3936 -1.06409 1.20556 0
M  V30 410 O 41.5836 -0.960691 1.45315 0
M  V30 411 C 38.7156 -1.78517 2.90421 0
M  V30 412 H 39.9086 0.0205534 2.99893 0
M  V30 413 H 37.4616 0.0482163 1.56226 0
M  V30 414 H 38.1966 -2.41303 2.16664 0
M  V30 415 H 37.9816 -1.43669 3.64831 0
M  V30 416 H 39.4716 -2.39964 3.41771 0
M  V30 417 N 39.9087 -1.5758 0.0250728 0
M  V30 418 C 40.8557 -2.09973 -0.958129 0
M  V30 419 C 41.8257 -1.00085 -1.3256 0
M  V30 420 O 43.0107 -1.27481 -1.41962 0
M  V30 421 C 40.1507 -2.62812 -2.2366 0
M  V30 422 C 39.2637 -3.86693 -1.92594 0
M  V30 423 C 38.3987 -4.27941 -3.14707 0
M  V30 424 C 37.4377 -5.44591 -2.79442 0
M  V30 425 N 36.5747 -5.81014 -3.94167 0
M  V30 426 H 41.4147 -2.937 -0.504428 0
M  V30 427 H 38.9517 -1.45172 -0.237392 0
M  V30 428 H 40.9097 -2.91536 -2.98434 0
M  V30 429 H 39.5397 -1.81922 -2.66654 0
M  V30 430 H 38.5917 -3.64723 -1.0808 0
M  V30 431 H 39.9037 -4.71547 -1.62619 0
M  V30 432 H 39.0577 -4.58079 -3.97804 0
M  V30 433 H 37.7967 -3.41845 -3.4784 0
M  V30 434 H 36.8017 -5.1415 -1.94755 0
M  V30 435 H 38.0267 -6.32382 -2.47528 0
M  V30 436 H 35.9727 -4.97874 -4.2715 0
M  V30 437 H 35.8897 -6.60498 -3.67801 0
M  V30 438 H 37.1577 -6.15756 -4.7798 0
M  V30 439 N 41.3868 0.248026 -1.55636 0
M  V30 440 C 42.6148 0.993808 -1.81469 0
M  V30 441 C 43.0298 1.78991 -0.60064 0
M  V30 442 O 42.3868 1.77345 0.430682 0
M  V30 443 C 42.4378 1.93258 -3.05506 0
M  V30 444 O 42.1588 1.16869 -4.22224 0
M  V30 445 C 43.6598 2.79444 -3.4413 0
M  V30 446 H 40.8798 0.292486 -0.603898 0
M  V30 447 H 43.4238 0.271253 -2.02693 0
M  V30 448 H 41.5788 2.60943 -2.86335 0
M  V30 449 H 41.9928 1.80359 -4.92515 0
M  V30 450 H 43.4668 3.41066 -4.34026 0
M  V30 451 H 43.9438 3.50499 -2.64665 0
M  V30 452 H 44.5498 2.17214 -3.65648 0
M  V30 453 N 42.8649 1.48995 0.513639 0
M  V30 454 C 43.7749 1.67443 1.64317 0
M  V30 455 C 44.7909 0.556947 1.64846 0
M  V30 456 O 45.9669 0.830082 1.83498 0
M  V30 457 C 43.0319 1.72515 3.00732 0
M  V30 458 C 42.0929 2.96009 3.1093 0
M  V30 459 C 41.3259 3.00829 4.40837 0
M  V30 460 O 41.5489 2.13594 5.28898 0
M  V30 461 O 40.4829 3.93168 4.55744 0
M  V30 462 H 44.3089 2.63106 1.51687 0
M  V30 463 H 41.8939 1.32588 0.688543 0
M  V30 464 H 43.7759 1.78277 3.81831 0
M  V30 465 H 42.4509 0.800278 3.13651 0
M  V30 466 H 41.3579 2.9577 2.29065 0
M  V30 467 H 42.6909 3.87934 3.02933 0
M  V30 468 N 44.343 -0.763751 1.37857 0
M  V30 469 C 45.571 -1.55293 1.36718 0
M  V30 470 C 45.986 -1.88745 -0.0455434 0
M  V30 471 O 45.343 -1.52039 -1.00947 0
M  V30 472 C 45.394 -2.85831 2.2132 0
M  V30 473 O 45.115 -2.5381 3.57089 0
M  V30 474 C 46.616 -3.80023 2.28249 0
M  V30 475 H 43.836 -0.480841 0.468009 0
M  V30 476 H 46.38 -0.946009 1.81303 0
M  V30 477 H 44.535 -3.42926 1.80223 0
M  V30 478 H 44.949 -3.37459 4.01524 0
M  V30 479 H 46.423 -4.68599 2.91752 0
M  V30 480 H 46.9 -4.1973 1.2932 0
M  V30 481 H 47.506 -3.28855 2.69693 0
M  V30 482 N 45.8211 -1.22559 -0.990812 0
M  V30 483 C 47.0701 -1.04553 -1.72486 0
M  V30 484 C 47.3831 0.419349 -1.91052 0
M  V30 485 O 48.5891 0.719121 -2.61803 0
M  V30 486 C 47.0451 -1.82231 -3.10355 0
M  V30 487 C 46.6531 -3.32981 -2.99713 0
M  V30 488 C 48.3971 -1.7268 -3.87791 0
M  V30 489 C 46.3041 -4.03091 -4.32748 0
M  V30 490 H 45.2341 -0.387614 -0.646739 0
M  V30 491 H 47.8851 -1.46429 -1.10593 0
M  V30 492 H 46.2671 -1.33155 -3.72942 0
M  V30 493 H 47.4411 -3.89466 -2.46278 0
M  V30 494 H 45.7561 -3.43231 -2.35758 0
M  V30 495 H 48.3531 -2.22381 -4.86262 0
M  V30 496 H 48.6961 -0.687607 -4.10582 0
M  V30 497 H 49.2291 -2.1931 -3.31885 0
M  V30 498 H 45.9681 -5.07273 -4.15156 0
M  V30 499 H 45.4881 -3.51394 -4.86089 0
M  V30 500 H 47.1671 -4.08804 -5.01486 0
M  V30 501 N 47.2992 1.18797 -1.03562 0
M  V30 502 C 48.2462 2.22253 -0.622259 0
M  V30 503 C 49.2162 1.61987 0.36736 0
M  V30 504 O 50.4012 1.88986 0.262492 0
M  V30 505 C 47.5412 3.45097 0.0138462 0
M  V30 506 C 46.6542 4.19722 -1.02263 0
M  V30 507 C 45.7892 5.30009 -0.355573 0
M  V30 508 C 44.8282 5.96399 -1.37749 0
M  V30 509 N 43.9652 6.98234 -0.735766 0
M  V30 510 H 48.8052 2.56968 -1.50903 0
M  V30 511 H 46.3422 1.26245 -0.755017 0
M  V30 512 H 48.3002 4.15279 0.399948 0
M  V30 513 H 46.9302 3.11018 0.864158 0
M  V30 514 H 45.9822 3.48418 -1.52673 0
M  V30 515 H 47.2942 4.65227 -1.79903 0
M  V30 516 H 46.4482 6.0664 0.0850095 0
M  V30 517 H 45.1872 4.85592 0.452967 0
M  V30 518 H 44.1922 5.18512 -1.82826 0
M  V30 519 H 45.4172 6.42899 -2.18764 0
M  V30 520 H 43.3632 6.55979 0.0525597 0
M  V30 521 H 43.2802 7.41965 -1.44995 0
M  V30 522 H 44.5482 7.78845 -0.31941 0
M  V30 523 N 48.7773 0.814389 1.34928 0
M  V30 524 C 49.7253 0.218424 2.31572 0
M  V30 525 C 50.7193 -0.636128 1.57002 0
M  V30 526 O 51.9253 -0.52842 1.72069 0
M  V30 527 H 48.3003 0.0518799 0.750208 0
M  V30 528 H 50.2713 1.04852 2.79372 0
M  V30 529 C 49.0203 -0.61207 3.4227 0
M  V30 530 H 48.3433 0.0361578 3.99784 0
M  V30 531 H 49.7833 -0.995317 4.12152 0
M  V30 532 C 48.2423 -1.78087 2.85984 0
M  V30 533 O 48.7723 -2.8787 2.80168 0
M  V30 534 N 46.9783 -1.59488 2.42924 0
M  V30 535 H 46.5253 -0.701874 2.47854 0
M  V30 536 H 46.4833 -2.37846 2.05613 0
M  V30 537 N 50.2554 -1.46986 0.568584 0
M  V30 538 C 51.1854 -2.32946 -0.160753 0
M  V30 539 C 52.1664 -1.44487 -0.897631 0
M  V30 540 O 53.3514 -1.73327 -0.875867 0
M  V30 541 C 50.4814 -3.26494 -1.18403 0
M  V30 542 C 49.4354 -4.24282 -0.562895 0
M  V30 543 C 48.7614 -5.07236 -1.69163 0
M  V30 544 C 50.0614 -5.19989 0.490761 0
M  V30 545 H 51.7554 -2.94175 0.556916 0
M  V30 546 H 49.3014 -1.4146 0.26927 0
M  V30 547 H 51.2544 -3.85477 -1.70251 0
M  V30 548 H 49.9784 -2.63343 -1.93179 0
M  V30 549 H 48.6374 -3.66541 -0.0656164 0
M  V30 550 H 48.2854 -4.4048 -2.42871 0
M  V30 551 H 47.9854 -5.7345 -1.28174 0
M  V30 552 H 49.5094 -5.6908 -2.21314 0
M  V30 553 H 50.9234 -5.73271 0.0579047 0
M  V30 554 H 49.3204 -5.94469 0.820165 0
M  V30 555 H 50.3904 -4.64777 1.3824 0
M  V30 556 N 51.7335 -0.305618 -1.54608 0
M  V30 557 C 52.6635 0.561482 -2.26649 0
M  V30 558 C 53.6445 1.13415 -1.26772 0
M  V30 559 O 54.8295 1.16262 -1.55553 0
M  V30 560 C 51.9595 1.73122 -3.01075 0
M  V30 561 C 50.9135 1.2887 -4.08138 0
M  V30 562 C 50.2395 2.54396 -4.70305 0
M  V30 563 C 51.5395 0.416578 -5.20636 0
M  V30 564 H 53.2335 -0.0393902 -2.99374 0
M  V30 565 H 50.7795 -0.020385 -1.43986 0
M  V30 566 H 52.7325 2.34396 -3.50195 0
M  V30 567 H 51.4565 2.3584 -2.25936 0
M  V30 568 H 50.1155 0.698991 -3.59875 0
M  V30 569 H 49.7635 3.15439 -3.918 0
M  V30 570 H 49.4635 2.25486 -5.42614 0
M  V30 571 H 50.9875 3.16464 -5.2219 0
M  V30 572 H 52.4015 0.935116 -5.65622 0
M  V30 573 H 50.7985 0.221046 -5.99693 0
M  V30 574 H 51.8685 -0.557162 -4.81688 0
M  V30 575 N 53.2116 1.57565 -0.0334293 0
M  V30 576 C 54.1446 2.05997 0.981866 0
M  V30 577 C 55.1226 0.956647 1.3148 0
M  V30 578 O 56.3066 1.22729 1.43073 0
M  V30 579 C 53.4336 2.48564 2.30074 0
M  V30 580 C 52.4796 3.69958 2.12211 0
M  V30 581 S 53.3126 5.16414 1.41692 0
M  V30 582 C 54.4686 5.6228 2.7494 0
M  V30 583 H 54.7016 2.91792 0.569612 0
M  V30 584 H 52.2346 1.53366 0.178376 0
M  V30 585 H 54.1926 2.73753 3.05892 0
M  V30 586 H 52.8536 1.63106 2.68431 0
M  V30 587 H 52.0466 3.97603 3.09722 0
M  V30 588 H 51.6486 3.44943 1.44535 0
M  V30 589 H 53.9406 5.66783 3.71165 0
M  V30 590 H 54.8836 6.61759 2.51953 0
M  V30 591 H 55.2916 4.89944 2.80384 0
M  V30 592 N 54.6897 -0.239769 1.55765 0
M  V30 593 C 56.1057 -0.588624 1.48349 0
M  V30 594 C 56.3057 -1.88005 0.72502 0
M  V30 595 O 55.3617 -2.51186 0.257269 0
M  V30 596 C 56.6747 -0.68474 2.928 0
M  V30 597 C 58.2227 -0.77659 3.03213 0
M  V30 598 C 58.6977 -0.904207 4.48986 0
M  V30 599 N 60.1887 -0.968896 4.52953 0
M  V30 600 C 60.9237 -1.08703 5.63002 0
M  V30 601 N 60.4197 -1.17026 6.82845 0
M  V30 602 N 62.2127 -1.12074 5.50814 0
M  V30 603 H 54.3637 0.607911 2.03515 0
M  V30 604 H 56.6267 0.21083 0.924259 0
M  V30 605 H 56.3327 0.194284 3.51163 0
M  V30 606 H 56.2067 -1.55435 3.43686 0
M  V30 607 H 58.5937 -1.64606 2.44926 0
M  V30 608 H 58.6747 0.118315 2.55526 0
M  V30 609 H 58.3187 -0.0392633 5.07885 0
M  V30 610 H 58.2487 -1.81426 4.9436 0
M  V30 611 H 60.7397 -0.915633 3.6664 0
M  V30 612 H 61.0527 -1.25966 7.62465 0
M  V30 613 H 59.3977 -1.13971 6.85591 0
M  V30 614 H 62.5887 -1.05226 4.5612 0
M  V30 615 H 62.7617 -1.20936 6.36615 0
M  V30 616 N 56.1678 -1.49265 -0.50573 0
M  V30 617 C 57.0998 -1.617 -1.62437 0
M  V30 618 C 58.1128 -0.499924 -1.54934 0
M  V30 619 O 59.3018 -0.771785 -1.60953 0
M  V30 620 C 56.4018 -1.5533 -3.01207 0
M  V30 621 C 55.5748 -2.8249 -3.33943 0
M  V30 622 C 54.6338 -2.69238 -4.52103 0
M  V30 623 O 53.6598 -3.43167 -4.5412 0
M  V30 624 N 54.8618 -1.80468 -5.51735 0
M  V30 625 H 57.6268 -2.58177 -1.52199 0
M  V30 626 H 55.1878 -1.46294 -0.693511 0
M  V30 627 H 57.1798 -1.44125 -3.78167 0
M  V30 628 H 55.7498 -0.667297 -3.05395 0
M  V30 629 H 54.9698 -3.08081 -2.45926 0
M  V30 630 H 56.2578 -3.66802 -3.5261 0
M  V30 631 H 55.6558 -1.19653 -5.52901 0
M  V30 632 H 54.2128 -1.75188 -6.27816 0
M  V30 633 N 57.6459 0.756429 -1.3826 0
M  V30 634 C 58.8939 1.51248 -1.34047 0
M  V30 635 C 59.2149 1.94875 0.0698372 0
M  V30 636 O 58.4849 1.67436 1.01696 0
M  V30 637 H 57.0649 0.561018 -0.493222 0
M  V30 638 H 59.7269 0.899347 -1.7291 0
M  V30 639 H 58.8229 2.40472 -1.98947 0
M  V30 640 N 59.124 1.23083 0.984299 0
M  V30 641 C 60.371 1.06057 1.72505 0
M  V30 642 C 60.699 -0.403105 1.90277 0
M  V30 643 O 59.954 -1.3149 1.44944 0
M  V30 644 C 60.253 1.72673 3.1292 0
M  V30 645 C 59.919 3.22586 3.15038 0
M  V30 646 C 58.581 3.63489 3.15324 0
M  V30 647 C 60.933 4.185 3.10657 0
M  V30 648 C 58.261 4.98772 3.08939 0
M  V30 649 C 60.613 5.53769 3.05814 0
M  V30 650 C 59.277 5.94041 3.04419 0
M  V30 651 H 58.547 0.388091 0.631242 0
M  V30 652 H 61.194 1.52963 1.15215 0
M  V30 653 H 59.499 1.18116 3.73572 0
M  V30 654 H 61.196 1.56982 3.68996 0
M  V30 655 H 57.786 2.90022 3.15571 0
M  V30 656 H 61.97 3.87911 3.09579 0
M  V30 657 H 57.226 5.29193 3.0621 0
M  V30 658 H 61.4 6.27808 3.0138 0
M  V30 659 H 59.027 6.98833 2.99227 0
M  V30 660 N 60.6021 -1.18246 1.0419 0
M  V30 661 C 61.8481 -1.88536 0.747122 0
M  V30 662 C 62.1811 -1.80223 -0.723409 0
M  V30 663 O 61.4561 -1.20337 -1.52804 0
M  V30 664 C 61.7391 -3.38968 1.21544 0
M  V30 665 C 61.5921 -3.56084 2.74816 0
M  V30 666 C 62.9111 -4.32648 0.806482 0
M  V30 667 H 60.0301 -0.684619 0.272883 0
M  V30 668 H 62.6721 -1.39113 1.29413 0
M  V30 669 H 60.8221 -3.8119 0.750081 0
M  V30 670 H 62.4941 -3.22946 3.29399 0
M  V30 671 H 60.7371 -2.98699 3.14582 0
M  V30 672 H 61.4081 -4.61639 3.02644 0
M  V30 673 H 63.8841 -3.98211 1.20695 0
M  V30 674 H 62.7601 -5.36462 1.1619 0
M  V30 675 H 63.0211 -4.41146 -0.29029 0
M  V30 676 N 62.0802 -0.821533 -1.34494 0
M  V30 677 C 63.3262 -0.409552 -1.98622 0
M  V30 678 C 63.6592 1.0244 -1.64984 0
M  V30 679 O 62.9342 1.71325 -0.920758 0
M  V30 680 C 63.2172 -0.610458 -3.54888 0
M  V30 681 C 63.0702 -2.09043 -3.98273 0
M  V30 682 C 64.3892 -0.0455379 -4.40076 0
M  V30 683 H 61.5082 -0.15028 -0.721516 0
M  V30 684 H 64.1502 -1.03384 -1.59411 0
M  V30 685 H 62.3002 -0.079044 -3.8842 0
M  V30 686 H 63.9722 -2.68537 -3.75081 0
M  V30 687 H 62.2152 -2.58139 -3.48635 0
M  V30 688 H 62.8862 -2.18182 -5.07051 0
M  V30 689 H 65.3622 -0.499557 -4.1309 0
M  V30 690 H 64.2382 -0.215922 -5.48475 0
M  V30 691 H 64.4992 1.04939 -4.29465 0
M  V30 692 N 63.5583 1.46682 -0.576371 0
M  V30 693 C 64.8043 2.02712 -0.0596221 0
M  V30 694 C 65.1373 1.44765 1.29448 0
M  V30 695 O 64.4123 0.610355 1.84675 0
M  V30 696 C 64.6953 3.60098 0.0129503 0
M  V30 697 C 64.5483 4.28441 -1.3696 0
M  V30 698 C 65.8673 4.34224 0.71678 0
M  V30 699 H 62.9863 0.736637 -0.0231407 0
M  V30 700 H 65.6283 1.74898 -0.742351 0
M  V30 701 H 63.7783 3.83926 0.594378 0
M  V30 702 H 65.4503 4.15896 -1.9957 0
M  V30 703 H 63.6933 3.8805 -1.93907 0
M  V30 704 H 64.3643 5.3716 -1.27135 0
M  V30 705 H 66.8403 4.15503 0.222908 0
M  V30 706 H 65.7163 5.43936 0.73657 0
M  V30 707 H 65.9773 4.04823 1.77682 0
M  V30 708 N 65.0364 0.313813 1.54444 0
M  V30 709 C 65.9834 -0.55655 2.23989 0
M  V30 710 C 66.9534 -1.11943 1.22711 0
M  V30 711 O 68.1384 -1.16158 1.51367 0
M  V30 712 C 65.2784 -1.71635 2.99392 0
M  V30 713 C 64.3914 -1.18364 4.15468 0
M  V30 714 C 63.5264 -2.30834 4.78424 0
M  V30 715 C 62.5654 -1.74762 5.86622 0
M  V30 716 N 61.7024 -2.80855 6.43479 0
M  V30 717 H 66.5424 0.0430893 2.97969 0
M  V30 718 H 64.0794 0.0330359 1.47063 0
M  V30 719 H 66.0374 -2.39868 3.41349 0
M  V30 720 H 64.6674 -2.28742 2.27765 0
M  V30 721 H 63.7194 -0.393163 3.78363 0
M  V30 722 H 65.0314 -0.733262 4.93381 0
M  V30 723 H 64.1854 -3.0699 5.23299 0
M  V30 724 H 62.9244 -2.79204 3.99871 0
M  V30 725 H 61.9294 -0.970995 5.41158 0
M  V30 726 H 63.1544 -1.2728 6.67066 0
M  V30 727 H 61.1004 -3.28535 5.67804 0
M  V30 728 H 61.0174 -2.40351 7.16776 0
M  V30 729 H 62.2854 -3.5687 6.93011 0
M  V30 730 N 66.5145 -1.57545 0.0417849 0
M  V30 731 C 67.4625 -2.12148 -0.953723 0
M  V30 732 C 68.4565 -1.05104 -1.32852 0
M  V30 733 O 69.6625 -1.23524 -1.30927 0
M  V30 734 H 66.0375 -0.677957 -0.325389 0
M  V30 735 H 68.0085 -2.94707 -0.467991 0
M  V30 736 C 66.7575 -2.6739 -2.22257 0
M  V30 737 H 66.0805 -3.49413 -1.94295 0
M  V30 738 H 67.5205 -3.09227 -2.90094 0
M  V30 739 C 65.9795 -1.60723 -2.96091 0
M  V30 740 O 66.5095 -1.01449 -3.88679 0
M  V30 741 N 64.7155 -1.32466 -2.58652 0
M  V30 742 H 64.2625 -1.80856 -1.83437 0
M  V30 743 H 64.2205 -0.61325 -3.08361 0
M  V30 744 N 67.9926 0.231505 -1.5589 0
M  V30 745 C 68.9226 1.29022 -1.94617 0
M  V30 746 C 69.9036 1.4941 -0.813067 0
M  V30 747 O 71.0886 1.6176 -1.07459 0
M  V30 748 C 68.2186 2.64199 -2.25424 0
M  V30 749 C 67.1726 2.58484 -3.41131 0
M  V30 750 C 66.4986 3.97599 -3.57518 0
M  V30 751 C 67.7986 2.1413 -4.76388 0
M  V30 752 H 69.4926 0.968563 -2.83301 0
M  V30 753 H 67.0386 0.464479 -1.36303 0
M  V30 754 H 68.9916 3.38413 -2.51107 0
M  V30 755 H 67.7156 2.98032 -1.33583 0
M  V30 756 H 66.3746 1.86727 -3.15481 0
M  V30 757 H 66.0226 4.28723 -2.6307 0
M  V30 758 H 65.7226 3.94659 -4.35337 0
M  V30 759 H 67.2466 4.7349 -3.85538 0
M  V30 760 H 68.6606 2.78083 -5.01341 0
M  V30 761 H 67.0576 2.2227 -5.57419 0
M  V30 762 H 68.1276 1.09331 -4.72414 0
M  V30 763 N 69.4707 1.49531 0.497807 0
M  V30 764 C 70.7477 1.49682 1.25915 0
M  V30 765 C 71.1277 0.226339 2.09883 0
M  V30 766 O 70.4757 -0.791189 2.14365 0
M  V30 767 C 70.6857 2.77755 2.11313 0
M  V30 768 C 72.0337 3.27371 2.70395 0
M  V30 769 O 73.0577 2.78894 2.21578 0
M  V30 770 O 71.9167 4.11808 3.59272 0
M  V30 771 H 69.0107 0.599228 0.56996 0
M  V30 772 H 71.5567 1.61798 0.511816 0
M  V30 773 H 70.3287 3.61713 1.49264 0
M  V30 774 H 69.9517 2.68515 2.93233 0
M  V30 775 N 70.9488 -0.749086 1.3866 0
M  V30 776 C 72.1978 -1.50371 1.3443 0
M  V30 777 C 72.5108 -1.95503 -0.0616397 0
M  V30 778 O 73.7168 -2.70554 -0.226489 0
M  V30 779 C 72.1728 -2.71644 2.36088 0
M  V30 780 C 71.7808 -2.3352 3.82325 0
M  V30 781 C 73.5248 -3.49518 2.40909 0
M  V30 782 C 71.4318 -3.51431 4.75658 0
M  V30 783 H 70.3618 -0.564628 0.499712 0
M  V30 784 H 73.0128 -0.818449 1.64237 0
M  V30 785 H 71.3948 -3.42175 1.9933 0
M  V30 786 H 72.5688 -1.70627 4.28046 0
M  V30 787 H 70.8838 -1.6877 3.80665 0
M  V30 788 H 73.4808 -4.37197 3.07836 0
M  V30 789 H 73.8238 -3.90992 1.42937 0
M  V30 790 H 74.3568 -2.86005 2.76489 0
M  V30 791 H 71.0958 -3.15019 5.74842 0
M  V30 792 H 70.6158 -4.13352 4.34627 0
M  V30 793 H 72.2948 -4.17953 4.93887 0
M  V30 794 N 72.4269 -1.23603 -0.977757 0
M  V30 795 C 73.7039 -0.977897 -1.69401 0
M  V30 796 C 74.0839 0.502738 -2.05026 0
M  V30 797 O 73.4319 1.47459 -1.74551 0
M  V30 798 C 73.6419 -1.89077 -2.93345 0
M  V30 799 C 74.9899 -2.15579 -3.65802 0
M  V30 800 O 76.0139 -1.86648 -3.03383 0
M  V30 801 O 74.8729 -2.64658 -4.78141 0
M  V30 802 H 71.9669 -0.369025 -0.740101 0
M  V30 803 H 74.5129 -1.34657 -1.03274 0
M  V30 804 H 73.2849 -2.89158 -2.63634 0
M  V30 805 H 72.9079 -1.52463 -3.67207 0
M  V30 806 N 73.905 1.17692 -1.04816 0
M  V30 807 C 75.13 1.92327 -0.776207 0
M  V30 808 C 75.555 1.76082 0.661581 0
M  V30 809 O 74.913 1.076 1.45917 0
M  V30 810 C 74.961 3.41539 -1.15687 0
M  V30 811 O 74.065 4.11402 -0.286775 0
M  V30 812 H 73.406 0.599735 -0.284981 0
M  V30 813 H 75.936 1.49201 -1.4 0
M  V30 814 H 75.946 3.92269 -1.12202 0
M  V30 815 H 74.621 3.52684 -2.20425 0
M  V30 816 H 73.198 3.70939 -0.381903 0
M  V30 817 N 75.3831 0.828654 1.34056 0
M  V30 818 C 76.6601 0.341809 1.9259 0
M  V30 819 C 77.0401 -1.17158 1.75605 0
M  V30 820 O 76.3881 -1.98132 1.13824 0
M  V30 821 C 76.5981 0.777453 3.4023 0
M  V30 822 C 77.9461 0.779579 4.17382 0
M  V30 823 O 78.9701 0.7204 3.48839 0
M  V30 824 O 77.8291 0.857996 5.39723 0
M  V30 825 H 74.9231 0.0946085 0.821571 0
M  V30 826 H 77.4691 0.913827 1.42994 0
M  V30 827 H 76.2411 1.8196 3.46419 0
M  V30 828 H 75.8641 0.181444 3.97186 0
M  V30 829 N 76.8612 -1.46375 0.584142 0
M  V30 830 C 78.0892 -2.06761 0.0759296 0
M  V30 831 C 78.5042 -1.43266 -1.22965 0
M  V30 832 O 77.8612 -0.538458 -1.74376 0
M  V30 833 C 77.9122 -3.61375 -0.0950384 0
M  V30 834 O 77.6332 -4.22495 1.15887 0
M  V30 835 C 79.1342 -4.38693 -0.637434 0
M  V30 836 H 76.3542 -0.668479 0.0581075 0
M  V30 837 H 78.8982 -1.8798 0.805218 0
M  V30 838 H 77.0532 -3.79578 -0.774554 0
M  V30 839 H 77.4672 -5.15385 0.973598 0
M  V30 840 H 78.9412 -5.47464 -0.706237 0
M  V30 841 H 79.4182 -4.06836 -1.65472 0
M  V30 842 H 80.0242 -4.25299 0.00725967 0
M  V30 843 N 78.3393 -0.321999 -1.54275 0
M  V30 844 C 79.5863 0.281044 -2.0054 0
M  V30 845 C 79.9143 1.52265 -1.21019 0
M  V30 846 O 79.1693 1.93687 -0.279982 0
M  V30 847 C 79.4683 0.661769 -3.5122 0
M  V30 848 C 79.1343 -0.480482 -4.48333 0
M  V30 849 C 77.7963 -0.794005 -4.74604 0
M  V30 850 C 80.1483 -1.24783 -5.06042 0
M  V30 851 C 77.4763 -1.87763 -5.55844 0
M  V30 852 C 79.8283 -2.32153 -5.88462 0
M  V30 853 C 78.4923 -2.64089 -6.13036 0
M  V30 854 H 77.7623 0.102841 -0.733829 0
M  V30 855 H 80.4093 -0.445453 -1.86247 0
M  V30 856 H 78.7143 1.46867 -3.63232 0
M  V30 857 H 80.4113 1.13989 -3.84457 0
M  V30 858 H 77.0013 -0.226039 -4.28004 0
M  V30 859 H 81.1853 -1.01887 -4.85729 0
M  V30 860 H 76.4413 -2.12954 -5.73115 0
M  V30 861 H 80.6153 -2.92057 -6.32199 0
M  V30 862 H 78.2423 -3.48185 -6.75775 0
M  V30 863 N 79.8174 1.5752 -0.0501392 0
M  V30 864 C 81.2334 1.56631 0.306402 0
M  V30 865 C 81.4334 1.0577 1.71508 0
M  V30 866 O 80.4894 0.713837 2.422 0
M  V30 867 C 81.8024 3.00393 0.135811 0
M  V30 868 C 83.3504 3.12315 0.206993 0
M  V30 869 C 83.8254 4.57954 0.064944 0
M  V30 870 N 85.3164 4.63041 0.121254 0
M  V30 871 C 86.0514 5.73389 0.0354381 0
M  V30 872 N 85.5474 6.92724 -0.102666 0
M  V30 873 N 87.3404 5.62026 0.090946 0
M  V30 874 H 79.4914 1.88903 -0.971046 0
M  V30 875 H 81.7544 0.869876 -0.376855 0
M  V30 876 H 81.4604 3.41635 -0.835384 0
M  V30 877 H 81.3344 3.66373 0.897275 0
M  V30 878 H 83.7214 2.70973 1.16866 0
M  V30 879 H 83.8024 2.49016 -0.585208 0
M  V30 880 H 83.4464 4.99981 -0.893394 0
M  V30 881 H 83.3764 5.19258 0.876277 0
M  V30 882 H 85.8674 3.77216 0.227284 0
M  V30 883 H 86.1804 7.72633 -0.160882 0
M  V30 884 H 84.5254 6.94864 -0.137737 0
M  V30 885 H 87.7164 4.67684 0.197388 0
M  V30 886 H 87.8894 6.47997 0.0206089 0
M  V30 887 N 81.2955 -0.223234 1.56011 0
M  V30 888 C 82.5725 -0.972108 1.69733 0
M  V30 889 C 82.9525 -2.02485 0.59691 0
M  V30 890 O 82.3005 -2.25037 -0.396324 0
M  V30 891 C 82.5105 -1.58407 3.10979 0
M  V30 892 C 83.8585 -2.07696 3.70334 0
M  V30 893 O 84.8825 -1.68304 3.1393 0
M  V30 894 O 83.7415 -2.80096 4.69264 0
M  V30 895 H 80.8355 -0.453993 0.691245 0
M  V30 896 H 83.3815 -0.215149 1.68331 0
M  V30 897 H 82.1535 -0.823831 3.82529 0
M  V30 898 H 81.7765 -2.40661 3.16493 0
M  V30 899 N 82.7736 -1.49793 -0.48987 0
M  V30 900 C 84.0226 -1.59085 -1.23995 0
M  V30 901 C 84.3356 -0.287907 -1.9347 0
M  V30 902 O 85.5416 -0.259506 -2.70257 0
M  V30 903 C 83.9976 -2.80736 -2.252 0
M  V30 904 C 83.6056 -4.17833 -1.61614 0
M  V30 905 C 85.3496 -2.99364 -3.00967 0
M  V30 906 C 83.2566 -5.30693 -2.60996 0
M  V30 907 H 82.1866 -0.592372 -0.466488 0
M  V30 908 H 84.8376 -1.76197 -0.51252 0
M  V30 909 H 83.2196 -2.57142 -3.01154 0
M  V30 910 H 84.3936 -4.51608 -0.915774 0
M  V30 911 H 82.7086 -4.04656 -0.981977 0
M  V30 912 H 85.3056 -3.80851 -3.75308 0
M  V30 913 H 85.6486 -2.10356 -3.59244 0
M  V30 914 H 86.1816 -3.2305 -2.32128 0
M  V30 915 H 82.9206 -6.21796 -2.07485 0
M  V30 916 H 82.4406 -5.01359 -3.2924 0
M  V30 917 H 84.1196 -5.6049 -3.23202 0
M  V30 918 N 84.2517 0.741722 -1.39055 0
M  V30 919 C 85.4817 1.52876 -1.3897 0
M  V30 920 C 85.8897 1.8919 0.0193266 0
M  V30 921 O 85.2327 1.54138 0.999356 0
M  V30 922 C 85.2947 2.84929 -2.19216 0
M  V30 923 C 84.9587 2.71086 -3.67915 0
M  V30 924 C 85.9557 2.40084 -4.61146 0
M  V30 925 C 83.6407 2.88168 -4.11418 0
M  V30 926 C 85.6347 2.26335 -5.95862 0
M  V30 927 C 83.3217 2.74037 -5.46211 0
M  V30 928 C 84.3197 2.43166 -6.38247 0
M  V30 929 O 84.0077 2.29115 -7.70559 0
M  V30 930 H 83.7397 0.479252 -0.476753 0
M  V30 931 H 86.2937 0.924751 -1.83405 0
M  V30 932 H 84.5237 3.47564 -1.69518 0
M  V30 933 H 86.2127 3.46509 -2.11392 0
M  V30 934 H 86.9787 2.26545 -4.28838 0
M  V30 935 H 82.8577 3.11191 -3.40119 0
M  V30 936 H 86.4017 2.0216 -6.67665 0
M  V30 937 H 82.2987 2.87153 -5.78112 0
M  V30 938 H 83.0667 2.44237 -7.81211 0
M  V30 939 N 85.7298 1.2412 0.971189 0
M  V30 940 C 86.9548 1.10667 1.75407 0
M  V30 941 C 87.3798 -0.337048 1.85056 0
M  V30 942 O 86.7378 -1.24396 1.31892 0
M  V30 943 C 86.7858 1.74726 3.15441 0
M  V30 944 O 85.8898 1.01566 3.99697 0
M  V30 945 H 85.2308 0.387341 0.539317 0
M  V30 946 H 87.7608 1.64358 1.2185 0
M  V30 947 H 87.7708 1.80341 3.6598 0
M  V30 948 H 86.4458 2.79773 3.07734 0
M  V30 949 H 85.0228 1.03713 3.58187 0
M  V30 950 N 87.2079 -1.17134 1.05439 0
M  V30 951 C 88.1709 -2.19439 0.661764 0
M  V30 952 C 89.1709 -1.58199 -0.288042 0
M  V30 953 O 90.3609 -1.74053 -0.0715803 0
M  V30 954 C 87.4929 -3.40889 -0.0276209 0
M  V30 955 H 88.6859 -2.55688 1.56728 0
M  V30 956 H 86.2389 -1.31259 0.848567 0
M  V30 957 H 86.9739 -3.10187 -0.94629 0
M  V30 958 H 86.7589 -3.86586 0.655238 0
M  V30 959 H 88.2489 -4.16603 -0.288342 0
M  V30 960 N 88.686 -0.835752 -1.33615 0
M  V30 961 C 89.916 -0.442701 -2.01801 0
M  V30 962 C 90.324 0.959807 -1.63047 0
M  V30 963 O 89.667 1.63468 -0.838088 0
M  V30 964 C 89.729 -0.480125 -3.56279 0
M  V30 965 C 89.393 -1.8382 -4.18401 0
M  V30 966 C 90.39 -2.80097 -4.37998 0
M  V30 967 C 88.075 -2.13019 -4.54894 0
M  V30 968 C 90.069 -4.03736 -4.9323 0
M  V30 969 C 87.756 -3.36916 -5.09834 0
M  V30 970 C 88.754 -4.32091 -5.28948 0
M  V30 971 O 88.442 -5.53797 -5.82721 0
M  V30 972 H 88.174 -0.17441 -0.653114 0
M  V30 973 H 90.728 -1.129 -1.71589 0
M  V30 974 H 88.958 0.262931 -3.85805 0
M  V30 975 H 90.647 -0.105335 -4.05763 0
M  V30 976 H 91.413 -2.58838 -4.10156 0
M  V30 977 H 87.292 -1.39733 -4.39313 0
M  V30 978 H 90.836 -4.78034 -5.08064 0
M  V30 979 H 86.733 -3.58033 -5.37106 0
M  V30 980 H 87.501 -5.55494 -6.0114 0
M  V30 981 N 90.1641 1.46063 -0.591896 0
M  V30 982 C 91.4121 2.01938 -0.0808391 0
M  V30 983 C 91.7331 1.46475 1.28725 0
M  V30 984 O 91.0031 0.652944 1.84698 0
M  V30 985 H 89.5831 0.746516 -0.0268938 0
M  V30 986 H 92.2451 1.79055 -0.769752 0
M  V30 987 H 91.3411 3.12094 -0.0187578 0
M  V30 988 N 91.6422 0.330177 1.54103 0
M  V30 989 C 92.8702 -0.272179 2.05102 0
M  V30 990 C 93.2852 -1.45267 1.20595 0
M  V30 991 O 92.6422 -1.8094 0.238144 0
M  V30 992 C 92.6932 -0.70023 3.54653 0
M  V30 993 O 92.4142 0.433301 4.35952 0
M  V30 994 C 93.9152 -1.3647 4.21771 0
M  V30 995 H 91.1352 -0.0549159 0.668749 0
M  V30 996 H 93.6792 0.478285 1.98828 0
M  V30 997 H 91.8342 -1.40066 3.61193 0
M  V30 998 H 92.2482 0.0947539 5.24414 0
M  V30 999 H 93.7222 -1.61509 5.27843 0
M  V30 1000 H 94.1992 -2.31409 3.73292 0
M  V30 1001 H 94.8052 -0.706675 4.19388 0
M  V30 1002 N 93.1203 -1.57491 0.0584922 0
M  V30 1003 C 94.3693 -1.92155 -0.613146 0
M  V30 1004 C 94.6823 -0.939334 -1.71569 0
M  V30 1005 O 95.8883 -1.17829 -2.44599 0
M  V30 1006 C 94.3443 -3.41303 -1.14195 0
M  V30 1007 C 93.9523 -4.47944 -0.0711265 0
M  V30 1008 C 95.6963 -3.84988 -1.78841 0
M  V30 1009 C 93.6033 -5.88212 -0.613225 0
M  V30 1010 H 92.5333 -0.717162 -0.232796 0
M  V30 1011 H 95.1843 -1.83049 0.12857 0
M  V30 1012 H 93.5663 -3.45437 -1.93621 0
M  V30 1013 H 94.7403 -4.55408 0.702836 0
M  V30 1014 H 93.0553 -4.13644 0.478313 0
M  V30 1015 H 95.6523 -4.87159 -2.20408 0
M  V30 1016 H 95.9953 -3.21632 -2.64308 0
M  V30 1017 H 96.5283 -3.83401 -1.06059 0
M  V30 1018 H 93.2673 -6.55183 0.203978 0
M  V30 1019 H 92.7873 -5.84294 -1.35501 0
M  V30 1020 H 94.4663 -6.37687 -1.09383 0
M  V30 1021 N 94.5984 0.214957 -1.56127 0
M  V30 1022 C 95.8444 0.939762 -1.79712 0
M  V30 1023 C 96.1774 1.83723 -0.629247 0
M  V30 1024 O 95.4524 1.90925 0.371197 0
M  V30 1025 C 95.7354 1.77306 -3.13424 0
M  V30 1026 C 95.5884 0.90164 -4.40671 0
M  V30 1027 C 96.9074 2.74956 -3.43638 0
M  V30 1028 H 94.0264 0.340214 -0.653776 0
M  V30 1029 H 96.6684 0.20824 -1.88855 0
M  V30 1030 H 94.8184 2.39673 -3.0576 0
M  V30 1031 H 96.4904 0.294206 -4.60361 0
M  V30 1032 H 94.7334 0.207368 -4.33304 0
M  V30 1033 H 95.4044 1.51923 -5.30682 0
M  V30 1034 H 97.8804 2.22724 -3.51473 0
M  V30 1035 H 96.7564 3.30358 -4.38355 0
M  V30 1036 H 97.0174 3.53023 -2.66134 0
M  V30 1037 N 96.0765 1.50051 0.48192 0
M  V30 1038 C 96.9865 1.7089 1.60728 0
M  V30 1039 C 98.0025 0.591788 1.63627 0
M  V30 1040 O 99.1785 0.868817 1.81696 0
M  V30 1041 C 96.2435 1.78855 2.97005 0
M  V30 1042 C 95.3045 3.02537 3.04581 0
M  V30 1043 C 94.5375 3.10112 4.34357 0
M  V30 1044 O 94.7605 2.24765 5.24249 0
M  V30 1045 O 93.6945 4.02747 4.47301 0
M  V30 1046 H 97.5205 2.66264 1.46072 0
M  V30 1047 H 95.1055 1.34018 0.660264 0
M  V30 1048 H 96.9875 1.86336 3.77964 0
M  V30 1049 H 95.6625 0.866628 3.11883 0
M  V30 1050 H 94.5695 3.00563 2.22739 0
M  V30 1051 H 95.9025 3.94272 2.94636 0
M  V30 1052 N 97.5546 -0.734337 1.39446 0
M  V30 1053 C 98.7846 -1.52137 1.39778 0
M  V30 1054 C 99.1926 -1.89198 -0.00929312 0
M  V30 1055 O 98.5356 -1.54666 -0.991168 0
M  V30 1056 C 98.5976 -2.83762 2.20724 0
M  V30 1057 C 98.2616 -2.69131 3.69347 0
M  V30 1058 C 99.2586 -2.37635 4.62413 0
M  V30 1059 C 96.9436 -2.85982 4.1294 0
M  V30 1060 C 98.9376 -2.23172 5.97054 0
M  V30 1061 C 96.6246 -2.71137 5.47657 0
M  V30 1062 C 97.6226 -2.39777 6.39528 0
M  V30 1063 O 97.3106 -2.25026 7.71763 0
M  V30 1064 H 97.0426 -0.476717 0.479288 0
M  V30 1065 H 99.5966 -0.915012 1.83893 0
M  V30 1066 H 97.8266 -3.4666 1.71359 0
M  V30 1067 H 99.5156 -3.45383 2.13226 0
M  V30 1068 H 100.282 -2.24267 4.30034 0
M  V30 1069 H 96.1606 -3.09383 3.41765 0
M  V30 1070 H 99.7046 -1.98617 6.68728 0
M  V30 1071 H 95.6016 -2.84083 5.79626 0
M  V30 1072 H 96.3696 -2.40091 7.82495 0
M  V30 1073 N 99.0327 -1.24633 -0.964593 0
M  V30 1074 C 99.9957 -1.0424 -2.04124 0
M  V30 1075 C 100.996 0.00137563 -1.608 0
M  V30 1076 O 102.186 -0.239883 -1.7254 0
M  V30 1077 C 99.3177 -0.580588 -3.3592 0
M  V30 1078 H 100.511 -1.99803 -2.23649 0
M  V30 1079 H 98.0637 -1.06899 -1.14027 0
M  V30 1080 H 98.7987 0.3781 -3.22088 0
M  V30 1081 H 98.5837 -1.33398 -3.6871 0
M  V30 1082 H 100.074 -0.459034 -4.15069 0
M  V30 1083 N 100.511 1.16574 -1.06058 0
M  V30 1084 C 101.788 1.83048 -0.689416 0
M  V30 1085 C 102.168 1.94122 0.829443 0
M  V30 1086 O 101.516 1.48249 1.7388 0
M  V30 1087 C 101.726 3.20186 -1.38859 0
M  V30 1088 C 103.074 3.95989 -1.53226 0
M  V30 1089 O 104.098 3.29696 -1.3483 0
M  V30 1090 O 102.957 5.14813 -1.83384 0
M  V30 1091 H 100.051 0.790258 -0.243764 0
M  V30 1092 H 102.597 1.23797 -1.16071 0
M  V30 1093 H 101.369 3.07146 -2.4244 0
M  V30 1094 H 100.992 3.87112 -0.907216 0
M  V30 1095 N 101.989 0.842826 1.3317 0
M  V30 1096 C 102.899 0.281444 2.32906 0
M  V30 1097 C 103.915 -0.594587 1.63526 0
M  V30 1098 O 105.091 -0.49777 1.95152 0
M  V30 1099 C 102.156 -0.530929 3.42611 0
M  V30 1100 C 101.217 0.369843 4.27704 0
M  V30 1101 C 100.45 -0.403853 5.3217 0
M  V30 1102 O 100.673 -1.63513 5.46461 0
M  V30 1103 O 99.6069 0.224199 6.01482 0
M  V30 1104 H 103.433 1.10744 2.82789 0
M  V30 1105 H 101.018 0.60545 1.36582 0
M  V30 1106 H 102.9 -0.992437 4.09547 0
M  V30 1107 H 101.575 -1.33392 2.94938 0
M  V30 1108 H 100.482 0.879275 3.6362 0
M  V30 1109 H 101.815 1.13771 4.78871 0
M  V30 1110 N 103.467 -1.45747 0.599634 0
M  V30 1111 C 104.414 -2.30467 -0.123849 0
M  V30 1112 C 105.384 -1.41632 -0.86774 0
M  V30 1113 O 106.569 -1.70568 -0.855056 0
M  V30 1114 C 103.709 -3.26402 -1.12051 0
M  V30 1115 C 102.822 -4.3034 -0.37832 0
M  V30 1116 C 101.957 -5.13389 -1.364 0
M  V30 1117 C 100.996 -6.09061 -0.609171 0
M  V30 1118 N 100.133 -6.84918 -1.54374 0
M  V30 1119 H 104.973 -2.91802 0.604627 0
M  V30 1120 H 102.51 -1.43797 0.309972 0
M  V30 1121 H 104.468 -3.80482 -1.7114 0
M  V30 1122 H 103.098 -2.66839 -1.8165 0
M  V30 1123 H 102.15 -3.78984 0.327929 0
M  V30 1124 H 103.462 -4.98354 0.210997 0
M  V30 1125 H 102.616 -5.7183 -2.02719 0
M  V30 1126 H 101.355 -4.45376 -1.98725 0
M  V30 1127 H 100.36 -5.49758 0.0676979 0
M  V30 1128 H 101.585 -6.79099 0.00891991 0
M  V30 1129 H 99.531 -6.19601 -2.15478 0
M  V30 1130 H 99.448 -7.49254 -1.00766 0
M  V30 1131 H 100.716 -7.47906 -2.19676 0
M  V30 1132 N 104.945 -0.338344 -1.53925 0
M  V30 1133 C 106.194 0.260732 -2.00008 0
M  V30 1134 C 106.507 1.52073 -1.23017 0
M  V30 1135 O 107.713 2.19672 -1.5955 0
M  V30 1136 C 106.169 0.51515 -3.56194 0
M  V30 1137 C 105.777 -0.728645 -4.42035 0
M  V30 1138 C 107.521 1.07337 -4.10706 0
M  V30 1139 C 105.428 -0.445315 -5.89721 0
M  V30 1140 H 104.358 0.101205 -0.747177 0
M  V30 1141 H 107.009 -0.452866 -1.77824 0
M  V30 1142 H 105.391 1.28932 -3.74423 0
M  V30 1143 H 106.565 -1.50352 -4.35581 0
M  V30 1144 H 104.88 -1.20813 -3.98489 0
M  V30 1145 H 107.477 1.30022 -5.18651 0
M  V30 1146 H 107.82 2.0273 -3.63602 0
M  V30 1147 H 108.353 0.360034 -3.96167 0
M  V30 1148 H 105.092 -1.36883 -6.41049 0
M  V30 1149 H 104.612 0.291569 -5.99091 0
M  V30 1150 H 106.291 -0.0606218 -6.46972 0
M  V30 1151 N 106.423 1.57458 -0.0668435 0
M  V30 1152 C 107.671 1.92919 0.602214 0
M  V30 1153 C 107.992 0.947215 1.70449 0
M  V30 1154 O 107.262 -0.00544117 1.95899 0
M  V30 1155 H 105.842 0.71217 0.22544 0
M  V30 1156 H 108.504 1.94508 -0.123535 0
M  V30 1157 H 107.6 2.94589 1.03073 0
M  V30 1158 N 107.901 -0.206675 1.56239 0
M  V30 1159 C 109.147 -0.930218 1.80208 0
M  V30 1160 C 109.48 -1.83387 0.638981 0
M  V30 1161 O 108.755 -1.91119 -0.361066 0
M  V30 1162 C 109.038 -1.75641 3.1436 0
M  V30 1163 C 108.891 -0.878257 4.41142 0
M  V30 1164 C 110.21 -2.73129 3.45092 0
M  V30 1165 H 107.329 -0.336742 0.655571 0
M  V30 1166 H 109.971 -0.198222 1.88963 0
M  V30 1167 H 108.121 -2.38048 3.07027 0
M  V30 1168 H 109.793 -0.269787 4.6051 0
M  V30 1169 H 108.036 -0.184385 4.33408 0
M  V30 1170 H 108.707 -1.49106 5.3148 0
M  V30 1171 H 111.183 -2.20856 3.52649 0
M  V30 1172 H 110.059 -3.28028 4.40101 0
M  V30 1173 H 110.32 -3.51606 2.68003 0
M  V30 1174 N 109.379 -1.50304 -0.473955 0
M  V30 1175 C 110.627 -1.60832 -1.22382 0
M  V30 1176 C 110.948 -0.30939 -1.9253 0
M  V30 1177 O 110.218 0.67296 -1.83978 0
M  V30 1178 H 108.798 -0.592652 -0.454723 0
M  V30 1179 H 111.46 -1.87068 -0.546968 0
M  V30 1180 H 110.556 -2.41803 -1.97327 0
M  V30 1181 N 110.857 0.726932 -1.39834 0
M  V30 1182 C 112.104 1.48664 -1.37496 0
M  V30 1183 C 112.432 1.94482 0.0264678 0
M  V30 1184 O 111.687 1.67692 1.00886 0
M  V30 1185 C 111.986 2.73495 -2.30077 0
M  V30 1186 C 111.652 2.46502 -3.77555 0
M  V30 1187 C 110.314 2.3885 -4.17737 0
M  V30 1188 C 112.666 2.23604 -4.70798 0
M  V30 1189 C 109.994 2.06352 -5.49214 0
M  V30 1190 C 112.346 1.92622 -6.02561 0
M  V30 1191 C 111.01 1.83444 -6.41798 0
M  V30 1192 H 110.28 0.544001 -0.503135 0
M  V30 1193 H 112.927 0.833657 -1.72402 0
M  V30 1194 H 111.232 3.43575 -1.88317 0
M  V30 1195 H 112.929 3.31549 -2.25558 0
M  V30 1196 H 109.519 2.5334 -3.45712 0
M  V30 1197 H 113.703 2.28479 -4.40581 0
M  V30 1198 H 108.959 1.97776 -5.78528 0
M  V30 1199 H 113.133 1.73914 -6.74334 0
M  V30 1200 H 110.76 1.58029 -7.43593 0
M  V30 1201 N 112.336 1.25143 0.95797 0
M  V30 1202 C 113.584 1.09476 1.69881 0
M  V30 1203 C 113.905 -0.365502 1.91544 0
M  V30 1204 O 113.175 -1.25985 1.50015 0
M  V30 1205 H 111.755 0.402128 0.629525 0
M  V30 1206 H 114.417 1.57214 1.15194 0
M  V30 1207 H 113.513 1.60046 2.6794 0
M  V30 1208 N 113.814 -1.1601 1.06675 0
M  V30 1209 C 115.044 -1.90251 0.805497 0
M  V30 1210 C 115.452 -1.77891 -0.64431 0
M  V30 1211 O 114.795 -1.12383 -1.45313 0
M  V30 1212 C 114.857 -3.41419 1.12576 0
M  V30 1213 C 114.521 -3.77564 2.57477 0
M  V30 1214 C 115.518 -3.79161 3.55715 0
M  V30 1215 C 113.203 -4.08079 2.92877 0
M  V30 1216 C 115.197 -4.10767 4.8739 0
M  V30 1217 C 112.884 -4.39351 4.24751 0
M  V30 1218 C 113.882 -4.40675 5.21818 0
M  V30 1219 O 113.57 -4.71202 6.51325 0
M  V30 1220 H 113.302 -0.610018 0.291297 0
M  V30 1221 H 115.856 -1.47958 1.4247 0
M  V30 1222 H 114.086 -3.84079 0.449503 0
M  V30 1223 H 115.775 -3.9694 0.84814 0
M  V30 1224 H 116.541 -3.55693 3.29708 0
M  V30 1225 H 112.42 -4.06211 2.17976 0
M  V30 1226 H 115.964 -4.11715 5.63148 0
M  V30 1227 H 111.861 -4.62285 4.50514 0
M  V30 1228 H 112.629 -4.88996 6.56373 0
M  V30 1229 N 115.292 -0.849877 -1.32721 0
M  V30 1230 C 116.708 -0.539102 -1.50219 0
M  V30 1231 C 116.908 0.931271 -1.78689 0
M  V30 1232 O 115.964 1.71455 -1.85363 0
M  V30 1233 C 117.277 -1.42196 -2.64954 0
M  V30 1234 C 118.825 -1.42189 -2.78839 0
M  V30 1235 C 119.3 -2.28985 -3.96648 0
M  V30 1236 N 120.791 -2.26754 -4.03902 0
M  V30 1237 C 121.526 -2.90644 -4.94281 0
M  V30 1238 N 121.022 -3.63629 -5.897 0
M  V30 1239 N 122.815 -2.80057 -4.87365 0
M  V30 1240 H 114.966 -1.80156 -1.12506 0
M  V30 1241 H 117.229 -0.769217 -0.554085 0
M  V30 1242 H 116.935 -2.46733 -2.50631 0
M  V30 1243 H 116.809 -1.10591 -3.60624 0
M  V30 1244 H 119.196 -0.38419 -2.92588 0
M  V30 1245 H 119.277 -1.77807 -1.83898 0
M  V30 1246 H 118.921 -3.32819 -3.83658 0
M  V30 1247 H 118.851 -1.90702 -4.90857 0
M  V30 1248 H 121.342 -1.73688 -3.3562 0
M  V30 1249 H 121.655 -4.09558 -6.55349 0
M  V30 1250 H 120 -3.67737 -5.89741 0
M  V30 1251 H 123.191 -2.22593 -4.11789 0
M  V30 1252 H 123.364 -3.30132 -5.57599 0
M  V30 1253 N 116.77 1.45427 -0.607355 0
M  V30 1254 C 118.047 1.9557 -0.0344566 0
M  V30 1255 C 118.427 1.54979 1.43334 0
M  V30 1256 O 117.775 0.812241 2.13576 0
M  V30 1257 C 117.985 3.48226 -0.232321 0
M  V30 1258 C 119.333 4.2445 -0.113001 0
M  V30 1259 O 120.357 3.55829 -0.162431 0
M  V30 1260 O 119.216 5.465 0.00209442 0
M  V30 1261 H 116.31 0.826222 0.0358667 0
M  V30 1262 H 118.856 1.55594 -0.6774 0
M  V30 1263 H 117.628 3.70739 -1.25174 0
M  V30 1264 H 117.251 3.95092 0.445896 0
M  V30 1265 N 118.248 0.346503 1.53744 0
M  V30 1266 C 119.476 -0.25041 2.05379 0
M  V30 1267 C 119.891 -1.43979 1.22129 0
M  V30 1268 O 119.248 -1.80677 0.257321 0
M  V30 1269 C 119.299 -0.662575 3.55376 0
M  V30 1270 O 119.02 0.479515 4.35468 0
M  V30 1271 C 120.521 -1.31989 4.23195 0
M  V30 1272 H 117.741 -0.0478198 0.669294 0
M  V30 1273 H 120.285 0.499346 1.9831 0
M  V30 1274 H 118.44 -1.36227 3.62658 0
M  V30 1275 H 118.854 0.15037 5.24284 0
M  V30 1276 H 120.328 -1.55902 5.29527 0
M  V30 1277 H 120.805 -2.27436 3.75725 0
M  V30 1278 H 121.411 -0.662154 4.20114 0
M  V30 1279 N 119.726 -1.57421 0.075193 0
M  V30 1280 C 120.656 -2.15942 -0.888324 0
M  V30 1281 C 121.637 -1.08737 -1.30806 0
M  V30 1282 O 122.822 -1.36787 -1.37851 0
M  V30 1283 C 119.952 -2.72379 -2.1547 0
M  V30 1284 C 118.906 -3.8478 -1.87425 0
M  V30 1285 C 118.232 -4.27834 -3.20721 0
M  V30 1286 C 119.532 -5.08869 -1.17684 0
M  V30 1287 H 121.226 -2.96705 -0.400799 0
M  V30 1288 H 118.772 -1.42723 -0.191342 0
M  V30 1289 H 120.725 -3.11965 -2.83295 0
M  V30 1290 H 119.449 -1.88841 -2.6647 0
M  V30 1291 H 118.108 -3.45703 -1.22004 0
M  V30 1292 H 117.756 -3.41214 -3.6957 0
M  V30 1293 H 117.456 -5.03605 -3.02746 0
M  V30 1294 H 118.98 -4.70039 -3.89738 0
M  V30 1295 H 120.394 -5.4575 -1.75584 0
M  V30 1296 H 118.791 -5.8994 -1.09956 0
M  V30 1297 H 119.861 -4.84648 -0.156453 0
M  V30 1298 N 121.204 0.198386 -1.56346 0
M  V30 1299 C 122.151 1.24589 -1.94284 0
M  V30 1300 C 123.121 1.454 -0.802997 0
M  V30 1301 O 124.306 1.58588 -1.06087 0
M  V30 1302 C 121.446 2.58631 -2.28482 0
M  V30 1303 C 120.559 2.45426 -3.55514 0
M  V30 1304 C 119.694 3.7215 -3.79049 0
M  V30 1305 C 118.733 3.53763 -4.99518 0
M  V30 1306 N 117.87 4.72491 -5.19323 0
M  V30 1307 H 122.71 0.915356 -2.83593 0
M  V30 1308 H 120.247 0.440629 -1.40346 0
M  V30 1309 H 122.205 3.3672 -2.46324 0
M  V30 1310 H 120.835 2.89734 -1.42317 0
M  V30 1311 H 119.887 1.58652 -3.45737 0
M  V30 1312 H 121.199 2.27772 -4.43758 0
M  V30 1313 H 120.353 4.58679 -3.97113 0
M  V30 1314 H 119.092 3.92754 -2.89129 0
M  V30 1315 H 118.097 2.65619 -4.8138 0
M  V30 1316 H 119.322 3.34607 -5.90944 0
M  V30 1317 H 117.268 4.93365 -4.3235 0
M  V30 1318 H 117.185 4.5765 -6.01741 0
M  V30 1319 H 118.453 5.6038 -5.41843 0
M  V30 1320 N 122.682 1.50554 0.465978 0
M  V30 1321 C 123.612 1.72722 1.57128 0
M  V30 1322 C 124.593 0.576294 1.6004 0
M  V30 1323 O 125.778 0.81598 1.76225 0
M  V30 1324 C 122.908 1.82605 2.95419 0
M  V30 1325 C 121.862 2.97835 3.07373 0
M  V30 1326 C 121.188 2.92867 4.47363 0
M  V30 1327 C 122.488 4.38265 2.84114 0
M  V30 1328 H 124.182 2.65267 1.38829 0
M  V30 1329 H 121.728 1.2765 0.666441 0
M  V30 1330 H 123.681 1.96698 3.72677 0
M  V30 1331 H 122.405 0.866858 3.14886 0
M  V30 1332 H 121.064 2.83401 2.3255 0
M  V30 1333 H 120.712 1.94783 4.63755 0
M  V30 1334 H 120.412 3.70227 4.56296 0
M  V30 1335 H 121.936 3.09015 5.26633 0
M  V30 1336 H 123.35 4.53198 3.51118 0
M  V30 1337 H 121.747 5.17115 3.04487 0
M  V30 1338 H 122.817 4.50281 1.7993 0
M  V30 1339 N 124.16 -0.719506 1.40217 0
M  V30 1340 C 125.07 -1.86378 1.42479 0
M  V30 1341 C 126.086 -1.71073 0.317834 0
M  V30 1342 O 127.262 -1.93406 0.561794 0
M  V30 1343 C 124.327 -3.22136 1.28178 0
M  V30 1344 C 123.388 -3.49723 2.48982 0
M  V30 1345 C 122.621 -4.79004 2.35353 0
M  V30 1346 O 122.844 -5.53821 1.36524 0
M  V30 1347 O 121.778 -5.06839 3.2465 0
M  V30 1348 H 125.604 -1.87425 2.38968 0
M  V30 1349 H 123.189 -0.869405 1.21498 0
M  V30 1350 H 125.071 -4.03234 1.22395 0
M  V30 1351 H 123.746 -3.21825 0.347934 0
M  V30 1352 H 122.653 -2.6865 2.60342 0
M  V30 1353 H 123.986 -3.54828 3.41113 0
M  V30 1354 N 125.638 -1.25649 -0.95132 0
M  V30 1355 C 126.886 -1.10375 -1.69298 0
M  V30 1356 C 127.207 0.355339 -1.91735 0
M  V30 1357 O 126.477 1.25188 -1.50681 0
M  V30 1358 H 125.057 -0.405461 -0.627384 0
M  V30 1359 H 127.719 -1.57823 -1.14358 0
M  V30 1360 H 126.815 -1.61465 -2.67087 0
M  V30 1361 N 127.117 1.15442 -1.07289 0
M  V30 1362 C 128.027 2.23786 -0.704057 0
M  V30 1363 C 129.043 1.7166 0.284413 0
M  V30 1364 O 130.219 2.00972 0.131205 0
M  V30 1365 C 127.284 3.46535 -0.106792 0
M  V30 1366 C 126.345 4.13654 -1.14842 0
M  V30 1367 C 125.578 5.30544 -0.57956 0
M  V30 1368 O 125.801 5.67187 0.604585 0
M  V30 1369 O 124.735 5.87154 -1.32414 0
M  V30 1370 H 128.561 2.57664 -1.60757 0
M  V30 1371 H 126.146 1.23152 -0.845803 0
M  V30 1372 H 128.028 4.20804 0.224048 0
M  V30 1373 H 126.703 3.14407 0.770049 0
M  V30 1374 H 125.61 3.4131 -1.5316 0
M  V30 1375 H 126.943 4.49861 -1.99714 0
M  V30 1376 N 128.595 0.856903 1.32268 0
M  V30 1377 C 129.542 0.301172 2.28827 0
M  V30 1378 C 130.512 -0.593104 1.5515 0
M  V30 1379 O 131.697 -0.527537 1.83362 0
M  V30 1380 C 128.837 -0.502523 3.41422 0
M  V30 1381 C 127.95 0.417797 4.29975 0
M  V30 1382 C 127.085 -0.398749 5.29701 0
M  V30 1383 C 126.124 0.518827 6.09897 0
M  V30 1384 N 125.261 -0.260674 7.01616 0
M  V30 1385 H 130.101 1.12983 2.75751 0
M  V30 1386 H 127.638 0.568582 1.35667 0
M  V30 1387 H 129.596 -0.984141 4.05426 0
M  V30 1388 H 128.226 -1.29599 2.95642 0
M  V30 1389 H 127.278 1.01781 3.66531 0
M  V30 1390 H 128.59 1.12191 4.86019 0
M  V30 1391 H 127.744 -0.943435 5.9932 0
M  V30 1392 H 126.483 -1.13622 4.7428 0
M  V30 1393 H 125.488 1.07538 5.39181 0
M  V30 1394 H 126.713 1.25495 6.67404 0
M  V30 1395 H 124.659 -0.981198 6.4862 0
M  V30 1396 H 124.576 0.384364 7.55022 0
M  V30 1397 H 125.844 -0.787014 7.75517 0
M  V30 1398 N 130.073 -1.45103 0.615059 0
M  V30 1399 C 131.321 -2.01784 0.112955 0
M  V30 1400 C 131.642 -1.48504 -1.26378 0
M  V30 1401 O 130.912 -0.682245 -1.83636 0
M  V30 1402 H 129.492 -0.745993 0.0387668 0
M  V30 1403 H 132.154 -1.77808 0.798141 0
M  V30 1404 H 131.25 -3.12025 0.0684069 0
M  V30 1405 N 131.551 -0.354651 -1.53558 0
M  V30 1406 C 132.498 0.496968 -2.25386 0
M  V30 1407 C 133.468 1.0865 -1.25636 0
M  V30 1408 O 134.653 1.12104 -1.54394 0
M  V30 1409 C 131.793 1.63637 -3.03837 0
M  V30 1410 C 130.906 1.07307 -4.18461 0
M  V30 1411 C 130.041 2.18068 -4.84376 0
M  V30 1412 C 129.08 1.59147 -5.91049 0
M  V30 1413 N 128.217 2.63695 -6.50699 0
M  V30 1414 H 133.057 -0.122075 -2.9775 0
M  V30 1415 H 130.594 -0.0720154 -1.46924 0
M  V30 1416 H 132.552 2.30734 -3.47589 0
M  V30 1417 H 131.182 2.22623 -2.33749 0
M  V30 1418 H 130.234 0.292708 -3.79272 0
M  V30 1419 H 131.546 0.602193 -4.95152 0
M  V30 1420 H 130.7 2.93007 -5.31255 0
M  V30 1421 H 129.439 2.68504 -4.07133 0
M  V30 1422 H 128.444 0.827175 -5.43542 0
M  V30 1423 H 129.669 1.09549 -6.70206 0
M  V30 1424 H 127.615 3.13365 -5.76315 0
M  V30 1425 H 127.532 2.21263 -7.22896 0
M  V30 1426 H 128.8 3.3837 -7.02229 0
M  V30 1427 N 133.029 1.57378 -0.0835403 0
M  V30 1428 C 134.278 1.93106 0.582498 0
M  V30 1429 C 134.591 0.96651 1.70053 0
M  V30 1430 O 135.797 1.21705 2.42693 0
M  V30 1431 C 134.253 3.43076 1.08751 0
M  V30 1432 C 133.861 4.48 -0.000146404 0
M  V30 1433 C 135.605 3.87785 1.72694 0
M  V30 1434 C 133.512 5.89113 0.519568 0
M  V30 1435 H 132.442 0.720775 0.221358 0
M  V30 1436 H 135.093 1.82821 -0.157675 0
M  V30 1437 H 133.475 3.48474 1.88101 0
M  V30 1438 H 134.649 4.54233 -0.775199 0
M  V30 1439 H 132.964 4.1283 -0.54406 0
M  V30 1440 H 135.561 4.90604 2.1263 0
M  V30 1441 H 135.904 3.25796 2.59158 0
M  V30 1442 H 136.437 3.8504 0.999457 0
M  V30 1443 H 133.176 6.54775 -0.308186 0
M  V30 1444 H 132.696 5.86376 1.26188 0
M  V30 1445 H 134.375 6.39346 0.992237 0
M  V30 1446 N 134.507 -0.190092 1.56449 0
M  V30 1447 C 135.753 -0.911052 1.81184 0
M  V30 1448 C 136.086 -1.82699 0.658396 0
M  V30 1449 O 135.361 -1.91491 -0.340775 0
M  V30 1450 C 135.644 -1.72297 3.16205 0
M  V30 1451 C 135.497 -0.831419 4.42049 0
M  V30 1452 C 136.816 -2.69454 3.47969 0
M  V30 1453 H 133.935 -0.32977 0.659106 0
M  V30 1454 H 136.577 -0.178169 1.89163 0
M  V30 1455 H 134.727 -2.34778 3.09534 0
M  V30 1456 H 136.399 -0.220929 4.60771 0
M  V30 1457 H 134.642 -0.138406 4.33579 0
M  V30 1458 H 135.313 -1.43461 5.33032 0
M  V30 1459 H 137.789 -2.17104 3.54972 0
M  V30 1460 H 136.665 -3.23342 4.43555 0
M  V30 1461 H 136.926 -3.48744 2.71717 0
M  V30 1462 N 135.985 -1.50799 -0.457987 0
M  V30 1463 C 137.213 -1.66218 -1.23203 0
M  V30 1464 C 137.628 -0.350894 -1.85511 0
M  V30 1465 O 136.985 0.668546 -1.69814 0
M  V30 1466 C 137.036 -2.76291 -2.33121 0
M  V30 1467 O 136.757 -4.02338 -1.73366 0
M  V30 1468 C 138.258 -3.028 -3.2377 0
M  V30 1469 H 135.478 -0.558361 -0.372121 0
M  V30 1470 H 138.022 -1.97099 -0.545179 0
M  V30 1471 H 136.177 -2.48068 -2.97558 0
M  V30 1472 H 136.591 -4.63312 -2.4585 0
M  V30 1473 H 138.065 -3.8345 -3.97077 0
M  V30 1474 H 138.542 -2.14385 -3.83322 0
M  V30 1475 H 139.148 -3.32604 -2.65056 0
M  V30 1476 N 137.463 0.71206 -1.40597 0
M  V30 1477 C 138.711 1.46907 -1.38791 0
M  V30 1478 C 139.032 1.94998 0.00780391 0
M  V30 1479 O 138.302 1.70587 0.963174 0
M  V30 1480 H 136.882 0.545043 -0.51082 0
M  V30 1481 H 139.544 0.843882 -1.75683 0
M  V30 1482 H 138.64 2.34021 -2.06496 0
M  V30 1483 N 138.941 1.26152 0.944643 0
M  V30 1484 C 140.357 1.03189 1.21754 0
M  V30 1485 C 140.557 -0.245112 2.00004 0
M  V30 1486 O 139.613 -0.955176 2.33736 0
M  V30 1487 C 140.926 2.26119 1.98219 0
M  V30 1488 C 142.474 2.30984 2.11224 0
M  V30 1489 C 142.949 3.53597 2.91089 0
M  V30 1490 N 144.44 3.54053 2.98664 0
M  V30 1491 C 145.175 4.45593 3.60881 0
M  V30 1492 N 144.671 5.47416 4.24626 0
M  V30 1493 N 146.464 4.33252 3.58119 0
M  V30 1494 H 138.615 2.08177 0.421437 0
M  V30 1495 H 140.878 0.914723 0.248969 0
M  V30 1496 H 140.584 3.18984 1.48128 0
M  V30 1497 H 140.458 2.3009 2.98895 0
M  V30 1498 H 142.845 1.38635 2.60508 0
M  V30 1499 H 142.926 2.31026 1.09821 0
M  V30 1500 H 142.57 4.46273 2.42493 0
M  V30 1501 H 142.5 3.50802 3.92741 0
M  V30 1502 H 144.991 2.80403 2.53343 0
M  V30 1503 H 145.304 6.13459 4.69987 0
M  V30 1504 H 143.649 5.51278 4.23223 0
M  V30 1505 H 146.84 3.52924 3.0751 0
M  V30 1506 H 147.013 5.04786 4.06319 0
M  V30 1507 N 140.419 -1.14872 1.07899 0
M  V30 1508 C 141.667 -1.85422 0.803941 0
M  V30 1509 C 141.988 -1.83051 -0.67211 0
M  V30 1510 O 141.258 -1.27532 -1.48703 0
M  V30 1511 H 139.838 -0.686537 0.294408 0
M  V30 1512 H 142.5 -1.39226 1.3639 0
M  V30 1513 H 141.596 -2.90399 1.14346 0
M  V30 1514 N 141.898 -0.863906 -1.31812 0
M  V30 1515 C 142.83 -0.272485 -2.27575 0
M  V30 1516 C 143.843 0.56104 -1.52827 0
M  V30 1517 O 145.032 0.384021 -1.7432 0
M  V30 1518 C 142.132 0.63283 -3.32939 0
M  V30 1519 C 141.305 -0.166902 -4.37081 0
M  V30 1520 C 140.364 0.665608 -5.21973 0
M  V30 1521 O 139.39 0.0958091 -5.69119 0
M  V30 1522 N 140.592 1.9787 -5.45736 0
M  V30 1523 H 143.357 -1.0954 -2.78964 0
M  V30 1524 H 140.918 -0.724791 -1.4477 0
M  V30 1525 H 142.91 1.19532 -3.86645 0
M  V30 1526 H 141.48 1.35642 -2.81638 0
M  V30 1527 H 140.7 -0.910838 -3.83533 0
M  V30 1528 H 141.988 -0.715874 -5.03739 0
M  V30 1529 H 141.386 2.46484 -5.09178 0
M  V30 1530 H 139.943 2.48911 -6.024 0
M  V30 1531 N 143.376 1.44774 -0.622745 0
M  V30 1532 C 144.306 2.33382 0.0741861 0
M  V30 1533 C 145.287 1.47719 0.843387 0
M  V30 1534 O 146.472 1.76458 0.810934 0
M  V30 1535 C 143.602 3.30663 1.06204 0
M  V30 1536 C 142.556 4.26079 0.405037 0
M  V30 1537 C 141.882 5.13165 1.5022 0
M  V30 1538 C 143.182 5.1781 -0.683414 0
M  V30 1539 H 144.876 2.91905 -0.665713 0
M  V30 1540 H 142.422 1.40363 -0.321587 0
M  V30 1541 H 144.375 3.9153 1.55827 0
M  V30 1542 H 143.099 2.70331 1.83272 0
M  V30 1543 H 141.758 3.66532 -0.0704683 0
M  V30 1544 H 141.406 4.49191 2.26355 0
M  V30 1545 H 141.106 5.77812 1.06803 0
M  V30 1546 H 142.63 5.76902 2.00041 0
M  V30 1547 H 144.044 5.72661 -0.270631 0
M  V30 1548 H 142.441 5.91015 -1.04023 0
M  V30 1549 H 143.511 4.59326 -1.55395 0
M  V30 1550 N 144.854 0.36279 1.53368 0
M  V30 1551 C 146.265 -0.117022 1.86333 0
M  V30 1552 C 146.616 -1.48397 1.28347 0
M  V30 1553 O 145.741 -2.07787 0.604428 0
M  V30 1554 C 146.336 -0.21912 3.38091 0
M  V30 1555 C 144.895 -0.643184 3.70864 0
M  V30 1556 C 144.042 0.211318 2.76494 0
M  V30 1557 H 146.993 0.581687 1.47655 0
M  V30 1558 H 147.014 -1.04319 3.6592 0
M  V30 1559 H 146.526 0.775902 3.80265 0
M  V30 1560 H 144.627 -1.64654 3.34245 0
M  V30 1561 H 144.74 -0.41973 4.77258 0
M  V30 1562 H 143.104 -0.319367 2.5269 0
M  V30 1563 H 143.887 1.20383 3.21501 0
M  V30 1564 N 146.332 -1.57332 0.0918853 0
M  V30 1565 C 147.579 -1.94236 -0.572577 0
M  V30 1566 C 147.907 -0.973398 -1.6839 0
M  V30 1567 O 147.162 0.00756912 -1.95699 0
M  V30 1568 C 147.461 -3.37689 -1.17051 0
M  V30 1569 C 147.127 -4.50527 -0.183304 0
M  V30 1570 C 145.789 -4.81119 0.0882276 0
M  V30 1571 C 148.141 -5.18883 0.49095 0
M  V30 1572 C 145.469 -5.77395 1.04076 0
M  V30 1573 C 147.821 -6.1618 1.43193 0
M  V30 1574 C 146.485 -6.45179 1.71173 0
M  V30 1575 H 145.755 -0.710762 -0.209521 0
M  V30 1576 H 148.402 -1.9077 0.167036 0
M  V30 1577 H 146.707 -3.37718 -1.9863 0
M  V30 1578 H 148.404 -3.63543 -1.69227 0
M  V30 1579 H 144.994 -4.26681 -0.405124 0
M  V30 1580 H 149.178 -4.95427 0.294312 0
M  V30 1581 H 144.434 -5.98179 1.26457 0
M  V30 1582 H 148.608 -6.68243 1.96023 0
M  V30 1583 H 146.235 -7.1959 2.4514 0
M  V30 1584 N 147.81 0.181792 -1.56548 0
M  V30 1585 C 148.76 1.22961 -1.92002 0
M  V30 1586 C 149.744 1.40331 -0.787146 0
M  V30 1587 O 150.936 1.42478 -1.05019 0
M  V30 1588 C 148.065 2.57144 -2.27446 0
M  V30 1589 C 147.151 2.43512 -3.47222 0
M  V30 1590 N 147.542 1.99577 -4.64761 0
M  V30 1591 C 145.84 2.74368 -3.51622 0
M  V30 1592 C 146.541 1.98156 -5.46909 0
M  V30 1593 N 145.517 2.40164 -4.8767 0
M  V30 1594 H 149.319 0.881462 -2.8037 0
M  V30 1595 H 146.833 0.390141 -1.57644 0
M  V30 1596 H 148.83 3.32847 -2.51035 0
M  V30 1597 H 147.49 2.92771 -1.40411 0
M  V30 1598 H 148.501 1.70078 -4.89177 0
M  V30 1599 H 145.178 3.14102 -2.75038 0
M  V30 1600 H 146.568 1.65975 -6.51077 0
M  V30 1601 N 149.288 1.51039 0.449983 0
M  V30 1602 C 150.251 1.70863 1.5277 0
M  V30 1603 C 151.251 0.578846 1.5002 0
M  V30 1604 O 152.441 0.846213 1.52266 0
M  V30 1605 C 149.573 1.75341 2.9235 0
M  V30 1606 H 150.766 2.67034 1.36502 0
M  V30 1607 H 148.319 1.40838 0.677812 0
M  V30 1608 H 149.054 0.809383 3.14037 0
M  V30 1609 H 148.839 2.57436 2.95752 0
M  V30 1610 H 150.329 1.92559 3.70555 0
M  V30 1611 N 150.766 -0.704594 1.40972 0
M  V30 1612 C 152.043 -1.45847 1.30338 0
M  V30 1613 C 152.423 -2.10973 -0.0732344 0
M  V30 1614 O 151.771 -2.00997 -1.08685 0
M  V30 1615 C 151.981 -2.48525 2.45023 0
M  V30 1616 C 153.329 -3.1404 2.8577 0
M  V30 1617 O 154.353 -2.58848 2.44696 0
M  V30 1618 O 153.212 -4.13981 3.56766 0
M  V30 1619 H 150.306 -0.649092 0.512454 0
M  V30 1620 H 152.852 -0.735836 1.52917 0
M  V30 1621 H 151.624 -1.98994 3.36923 0
M  V30 1622 H 151.247 -3.2831 2.24272 0
M  V30 1623 N 152.244 -1.26651 -0.937939 0
M  V30 1624 C 153.492 -1.12165 -1.68118 0
M  V30 1625 C 153.813 0.334983 -1.92101 0
M  V30 1626 O 153.083 1.23583 -1.52 0
M  V30 1627 H 151.663 -0.412093 -0.623048 0
M  V30 1628 H 154.325 -1.59027 -1.12678 0
M  V30 1629 H 153.421 -1.64289 -2.6536 0
M  V30 1630 N 153.722 1.14298 -1.08507 0
M  V30 1631 C 154.97 1.84993 -0.813763 0
M  V30 1632 C 155.291 1.83405 0.662393 0
M  V30 1633 O 154.561 1.28319 1.48024 0
M  V30 1634 H 153.141 0.684966 -0.298045 0
M  V30 1635 H 155.803 1.385 -1.37126 0
M  V30 1636 H 154.899 2.89788 -1.15884 0
M  V30 1637 N 155.201 0.870884 1.31352 0
M  V30 1638 C 156.131 0.343096 2.30966 0
M  V30 1639 C 157.112 -0.566507 1.60389 0
M  V30 1640 O 158.297 -0.483336 1.88089 0
M  V30 1641 C 155.427 -0.455487 3.443 0
M  V30 1642 C 154.381 0.361103 4.26474 0
M  V30 1643 C 153.707 -0.563221 5.31725 0
M  V30 1644 C 155.007 1.59566 4.97329 0
M  V30 1645 H 156.701 1.17548 2.75359 0
M  V30 1646 H 154.247 0.566686 1.32381 0
M  V30 1647 H 156.2 -0.83525 4.13039 0
M  V30 1648 H 154.924 -1.32139 2.98675 0
M  V30 1649 H 153.583 0.722825 3.59403 0
M  V30 1650 H 153.231 -1.42643 4.82351 0
M  V30 1651 H 152.931 -0.0207409 5.87596 0
M  V30 1652 H 154.455 -0.939808 6.03324 0
M  V30 1653 H 155.869 1.28728 5.58661 0
M  V30 1654 H 154.266 2.07728 5.63 0
M  V30 1655 H 155.336 2.34798 4.24262 0
M  V30 1656 N 156.679 -1.44442 0.630414 0
M  V30 1657 C 157.609 -2.33418 -0.0618083 0
M  V30 1658 C 158.59 -1.48165 -0.835541 0
M  V30 1659 O 159.775 -1.76886 -0.801564 0
M  V30 1660 C 156.905 -3.31222 -1.04449 0
M  V30 1661 C 155.859 -4.26288 -0.382436 0
M  V30 1662 C 155.185 -5.13954 -1.47497 0
M  V30 1663 C 156.485 -5.1744 0.710865 0
M  V30 1664 H 158.179 -2.91548 0.681184 0
M  V30 1665 H 155.725 -1.40191 0.329026 0
M  V30 1666 H 157.678 -3.92351 -1.53748 0
M  V30 1667 H 156.402 -2.71299 -1.81836 0
M  V30 1668 H 155.061 -3.6649 0.0899054 0
M  V30 1669 H 154.709 -4.50385 -2.2397 0
M  V30 1670 H 154.409 -5.7837 -1.03737 0
M  V30 1671 H 155.933 -5.77955 -1.96979 0
M  V30 1672 H 157.347 -5.72509 0.300996 0
M  V30 1673 H 155.744 -5.90455 1.07156 0
M  V30 1674 H 156.814 -4.58496 1.57829 0
M  V30 1675 N 158.157 -0.370918 -1.53173 0
M  V30 1676 C 159.087 0.464847 -2.28826 0
M  V30 1677 C 160.068 1.07936 -1.31468 0
M  V30 1678 O 161.253 1.0956 -1.60344 0
M  V30 1679 C 158.383 1.60196 -3.08147 0
M  V30 1680 C 157.337 1.11443 -4.13237 0
M  V30 1681 C 156.663 2.3422 -4.80672 0
M  V30 1682 C 157.963 0.195384 -5.21934 0
M  V30 1683 H 159.657 -0.166329 -2.98938 0
M  V30 1684 H 157.203 -0.0814359 -1.4377 0
M  V30 1685 H 159.156 2.19332 -3.59822 0
M  V30 1686 H 157.88 2.26045 -2.35735 0
M  V30 1687 H 156.539 0.545727 -3.62515 0
M  V30 1688 H 156.187 2.98537 -4.04827 0
M  V30 1689 H 155.887 2.02269 -5.51689 0
M  V30 1690 H 157.411 2.94032 -5.35143 0
M  V30 1691 H 158.825 0.694375 -5.69079 0
M  V30 1692 H 157.222 -0.0335027 -6.00091 0
M  V30 1693 H 158.292 -0.760961 -4.78892 0
M  V30 1694 N 159.635 1.57281 -0.100228 0
M  V30 1695 C 160.86 1.99302 0.573881 0
M  V30 1696 C 161.285 0.979059 1.60611 0
M  V30 1697 O 160.643 -0.0517803 1.81226 0
M  V30 1698 C 160.691 3.40274 1.19358 0
M  V30 1699 O 159.795 3.41676 2.30935 0
M  V30 1700 H 159.136 0.647944 0.145138 0
M  V30 1701 H 161.666 2.03779 -0.183156 0
M  V30 1702 H 161.676 3.78078 1.53365 0
M  V30 1703 H 160.351 4.13594 0.437385 0
M  V30 1704 H 158.928 3.15672 1.98509 0
M  V30 1705 N 161.113 -0.173488 1.56642 0
M  V30 1706 C 162.045 -1.23935 1.92802 0
M  V30 1707 C 163.058 -1.40589 0.820889 0
M  V30 1708 O 164.247 -1.40631 1.09933 0
M  V30 1709 C 161.347 -2.60837 2.16373 0
M  V30 1710 C 160.52 -2.6551 3.47596 0
M  V30 1711 C 159.579 -3.8376 3.60021 0
M  V30 1712 O 158.605 -3.69859 4.32658 0
M  V30 1713 N 159.807 -5.00127 2.94709 0
M  V30 1714 H 162.572 -0.932236 2.84832 0
M  V30 1715 H 160.133 -0.363268 1.57772 0
M  V30 1716 H 162.125 -3.38407 2.21952 0
M  V30 1717 H 160.695 -2.83948 1.30738 0
M  V30 1718 H 159.915 -1.74052 3.53694 0
M  V30 1719 H 161.203 -2.65641 4.33949 0
M  V30 1720 H 160.601 -5.14322 2.35563 0
M  V30 1721 H 159.158 -5.75567 3.05886 0
M  V30 1722 N 162.591 -1.51276 -0.441967 0
M  V30 1723 C 163.837 -1.63958 -1.19355 0
M  V30 1724 C 164.17 -0.352543 -1.90973 0
M  V30 1725 O 163.445 0.647627 -1.83401 0
M  V30 1726 C 163.728 -2.83979 -2.21422 0
M  V30 1727 C 163.581 -4.22646 -1.53918 0
M  V30 1728 C 164.9 -2.99521 -3.22451 0
M  V30 1729 H 162.019 -0.596709 -0.432559 0
M  V30 1730 H 164.661 -1.83748 -0.483398 0
M  V30 1731 H 162.811 -2.67237 -2.81987 0
M  V30 1732 H 164.483 -4.51045 -0.967256 0
M  V30 1733 H 162.726 -4.25558 -0.841615 0
M  V30 1734 H 163.397 -5.02609 -2.28229 0
M  V30 1735 H 165.873 -3.14944 -2.71937 0
M  V30 1736 H 164.749 -3.85072 -3.91166 0
M  V30 1737 H 165.01 -2.11391 -3.88287 0
M  V30 1738 N 164.069 0.697108 -1.41344 0
M  V30 1739 C 165.346 1.45154 -1.31109 0
M  V30 1740 C 165.726 2.11009 0.0620449 0
M  V30 1741 O 165.074 2.01571 1.07618 0
M  V30 1742 C 165.284 2.47223 -2.46337 0
M  V30 1743 C 166.632 3.1252 -2.87431 0
M  V30 1744 O 167.656 2.57547 -2.46065 0
M  V30 1745 O 166.515 4.12083 -3.58957 0
M  V30 1746 H 163.609 0.646365 -0.515889 0
M  V30 1747 H 166.155 0.727716 -1.53305 0
M  V30 1748 H 164.927 1.97204 -3.37974 0
M  V30 1749 H 164.55 3.27116 -2.2601 0
M  V30 1750 N 165.547 1.27147 0.931209 0
M  V30 1751 C 166.479 1.05364 2.03546 0
M  V30 1752 C 167.492 0.0108438 1.62796 0
M  V30 1753 O 168.681 0.25202 1.76712 0
M  V30 1754 C 165.781 0.575566 3.33977 0
M  V30 1755 C 164.954 1.68985 4.03439 0
M  V30 1756 C 164.013 1.20813 5.12143 0
M  V30 1757 O 163.039 1.90712 5.363 0
M  V30 1758 N 164.241 0.0618851 5.80467 0
M  V30 1759 H 167.006 2.00454 2.22796 0
M  V30 1760 H 164.567 1.18666 1.10136 0
M  V30 1761 H 166.559 0.237264 4.04004 0
M  V30 1762 H 165.129 -0.282016 3.11325 0
M  V30 1763 H 164.349 2.19861 3.27192 0
M  V30 1764 H 165.637 2.4378 4.46597 0
M  V30 1765 H 165.035 -0.521621 5.6329 0
M  V30 1766 H 163.592 -0.217264 6.51438 0
M  V30 1767 N 167.025 -1.13721 1.09112 0
M  V30 1768 C 168.271 -1.85198 0.826414 0
M  V30 1769 C 168.604 -1.83129 -0.646319 0
M  V30 1770 O 167.879 -1.2671 -1.47563 0
M  V30 1771 C 168.162 -3.33507 1.35812 0
M  V30 1772 C 168.015 -3.44108 2.89672 0
M  V30 1773 C 169.334 -4.28838 0.989256 0
M  V30 1774 H 166.453 -0.67243 0.301675 0
M  V30 1775 H 169.095 -1.33499 1.35197 0
M  V30 1776 H 167.245 -3.77666 0.911082 0
M  V30 1777 H 168.917 -3.08684 3.428 0
M  V30 1778 H 167.16 -2.85087 3.26967 0
M  V30 1779 H 167.831 -4.48388 3.21951 0
M  V30 1780 H 170.307 -3.92734 1.37475 0
M  V30 1781 H 169.183 -5.31051 1.38838 0
M  V30 1782 H 169.444 -4.4198 -0.102924 0
M  V30 1783 N 168.503 -0.877838 -1.30888 0
M  V30 1784 C 169.75 -0.492696 -1.96415 0
M  V30 1785 C 170.078 0.956671 -1.69346 0
M  V30 1786 O 169.333 1.68993 -0.986913 0
M  V30 1787 C 169.632 -0.705748 -3.50363 0
M  V30 1788 C 169.298 -2.1291 -3.97467 0
M  V30 1789 C 167.96 -2.51834 -4.1004 0
M  V30 1790 C 170.312 -3.05702 -4.22132 0
M  V30 1791 C 167.64 -3.82775 -4.44635 0
M  V30 1792 C 169.992 -4.36166 -4.58194 0
M  V30 1793 C 168.656 -4.74993 -4.68975 0
M  V30 1794 H 167.926 -0.18029 -0.718733 0
M  V30 1795 H 170.573 -1.11233 -1.55883 0
M  V30 1796 H 168.878 -0.00303058 -3.918 0
M  V30 1797 H 170.575 -0.387456 -3.99124 0
M  V30 1798 H 167.165 -1.81694 -3.88182 0
M  V30 1799 H 171.349 -2.76853 -4.11906 0
M  V30 1800 H 166.605 -4.12609 -4.51181 0
M  V30 1801 H 170.779 -5.08111 -4.76231 0
M  V30 1802 H 168.406 -5.76495 -4.95537 0
M  V30 1803 N 169.982 1.44106 -0.638065 0
M  V30 1804 C 170.912 2.33448 0.0494287 0
M  V30 1805 C 171.893 1.48606 0.827672 0
M  V30 1806 O 173.078 1.77308 0.792173 0
M  V30 1807 C 170.208 3.31771 1.02691 0
M  V30 1808 C 169.162 4.26485 0.359823 0
M  V30 1809 C 168.488 5.14729 1.44769 0
M  V30 1810 C 169.788 5.17056 -0.738296 0
M  V30 1811 H 171.482 2.91183 -0.696636 0
M  V30 1812 H 169.028 1.40014 -0.336456 0
M  V30 1813 H 170.981 3.93161 1.51666 0
M  V30 1814 H 169.705 2.7226 1.80395 0
M  V30 1815 H 168.364 3.66437 -0.10934 0
M  V30 1816 H 168.012 4.51566 2.21578 0
M  V30 1817 H 167.712 5.78913 1.00668 0
M  V30 1818 H 169.236 5.78991 1.93911 0
M  V30 1819 H 170.65 5.72342 -0.331354 0
M  V30 1820 H 169.047 5.89879 -1.10286 0
M  V30 1821 H 170.117 4.57652 -1.60258 0
M  V30 1822 N 171.46 0.379036 1.52974 0
M  V30 1823 C 172.69 -0.20649 2.05566 0
M  V30 1824 C 173.098 -1.41906 1.25137 0
M  V30 1825 O 172.441 -1.81421 0.288464 0
M  V30 1826 C 172.503 -0.651086 3.53555 0
M  V30 1827 C 172.167 0.446626 4.54812 0
M  V30 1828 C 173.164 1.30079 5.03364 0
M  V30 1829 C 170.849 0.610719 4.98573 0
M  V30 1830 C 172.843 2.30426 5.94292 0
M  V30 1831 C 170.53 1.61754 5.89304 0
M  V30 1832 C 171.528 2.46274 6.37054 0
M  V30 1833 O 171.216 3.45237 7.25994 0
M  V30 1834 H 170.948 -0.0372381 0.674974 0
M  V30 1835 H 173.502 0.539718 1.98182 0
M  V30 1836 H 171.732 -1.44911 3.58522 0
M  V30 1837 H 173.421 -1.16112 3.88938 0
M  V30 1838 H 174.187 1.18527 4.70294 0
M  V30 1839 H 170.066 -0.0374044 4.60985 0
M  V30 1840 H 173.61 2.96432 6.31485 0
M  V30 1841 H 169.507 1.73348 6.21788 0
M  V30 1842 H 170.275 3.41124 7.44027 0
M  V30 1843 N 172.938 -1.57226 0.108567 0
M  V30 1844 C 173.901 -2.13602 -0.831082 0
M  V30 1845 C 174.901 -1.06841 -1.20173 0
M  V30 1846 O 176.091 -1.32666 -1.12895 0
M  V30 1847 C 173.223 -2.66769 -2.12243 0
M  V30 1848 H 174.416 -2.97951 -0.341317 0
M  V30 1849 H 171.969 -1.55667 -0.14057 0
M  V30 1850 H 172.704 -1.85977 -2.65675 0
M  V30 1851 H 172.489 -3.44839 -1.86625 0
M  V30 1852 H 173.979 -3.10332 -2.79435 0
M  V30 1853 N 174.416 0.165178 -1.56732 0
M  V30 1854 C 175.379 1.18822 -1.95995 0
M  V30 1855 C 176.379 1.3685 -0.84431 0
M  V30 1856 O 177.569 1.34152 -1.11126 0
M  V30 1857 C 174.701 2.5521 -2.26011 0
M  V30 1858 H 175.894 0.851825 -2.87548 0
M  V30 1859 H 173.447 0.407857 -1.50885 0
M  V30 1860 H 174.182 2.93852 -1.37191 0
M  V30 1861 H 173.967 2.43489 -3.07336 0
M  V30 1862 H 175.457 3.28927 -2.57288 0
M  V30 1863 N 175.894 1.51508 0.433938 0
M  V30 1864 C 176.804 1.75917 1.5521 0
M  V30 1865 C 177.82 0.643545 1.61662 0
M  V30 1866 O 178.996 0.926183 1.7884 0
M  V30 1867 C 176.061 1.88213 2.91164 0
M  V30 1868 C 175.122 3.12074 2.94802 0
M  V30 1869 C 174.355 3.23774 4.24271 0
M  V30 1870 O 174.578 2.4133 5.16833 0
M  V30 1871 O 173.512 4.16774 4.34262 0
M  V30 1872 H 177.338 2.70777 1.37527 0
M  V30 1873 H 174.923 1.36051 0.617293 0
M  V30 1874 H 176.805 1.98267 3.71845 0
M  V30 1875 H 175.48 0.965413 3.08968 0
M  V30 1876 H 174.387 3.07497 2.13065 0
M  V30 1877 H 175.72 4.03446 2.81943 0
M  V30 1878 N 177.372 -0.689602 1.41712 0
M  V30 1879 C 178.621 -1.44534 1.40686 0
M  V30 1880 C 178.934 -1.95588 0.0213352 0
M  V30 1881 O 180.14 -2.71271 -0.111534 0
M  V30 1882 C 178.596 -2.61387 2.47396 0
M  V30 1883 C 178.204 -2.17094 3.91885 0
M  V30 1884 C 179.948 -3.38986 2.55517 0
M  V30 1885 C 177.855 -3.3094 4.90135 0
M  V30 1886 H 176.785 -0.542925 0.52321 0
M  V30 1887 H 179.436 -0.748054 1.6756 0
M  V30 1888 H 177.818 -3.33412 2.13664 0
M  V30 1889 H 178.992 -1.52318 4.34897 0
M  V30 1890 H 177.307 -1.52473 3.8748 0
M  V30 1891 H 179.904 -4.23747 3.26102 0
M  V30 1892 H 180.247 -3.84578 1.59391 0
M  V30 1893 H 180.78 -2.74021 2.8837 0
M  V30 1894 H 177.519 -2.90355 5.87685 0
M  V30 1895 H 177.039 -3.94546 4.51767 0
M  V30 1896 H 178.718 -3.9663 5.11169 0
M  V30 1897 N 178.85 -1.27639 -0.924453 0
M  V30 1898 C 179.797 -1.10644 -2.0255 0
M  V30 1899 C 180.767 -0.00658438 -1.66099 0
M  V30 1900 O 181.952 -0.16952 -1.90045 0
M  V30 1901 C 179.092 -0.76309 -3.36557 0
M  V30 1902 C 178.205 -1.94091 -3.85944 0
M  V30 1903 C 177.34 -1.53914 -5.08413 0
M  V30 1904 C 176.379 -2.68425 -5.50104 0
M  V30 1905 N 175.516 -2.28815 -6.63768 0
M  V30 1906 H 180.356 -2.04858 -2.16419 0
M  V30 1907 H 177.893 -1.01974 -1.06017 0
M  V30 1908 H 179.851 -0.544822 -4.13627 0
M  V30 1909 H 178.481 0.142102 -3.22487 0
M  V30 1910 H 177.533 -2.27162 -3.05125 0
M  V30 1911 H 178.845 -2.7998 -4.12811 0
M  V30 1912 H 177.999 -1.28231 -5.92994 0
M  V30 1913 H 176.738 -0.651391 -4.8333 0
M  V30 1914 H 175.743 -2.94819 -4.64071 0
M  V30 1915 H 176.968 -3.57826 -5.7718 0
M  V30 1916 H 174.914 -1.42495 -6.40337 0
M  V30 1917 H 174.831 -3.08242 -6.90306 0
M  V30 1918 H 176.099 -2.06387 -7.51681 0
M  V30 1919 N 180.328 1.1314 -1.09713 0
M  V30 1920 C 181.276 2.20717 -0.733934 0
M  V30 1921 C 182.27 1.6729 0.266506 0
M  V30 1922 O 183.476 1.79547 0.127656 0
M  V30 1923 H 179.851 0.719292 -0.21937 0
M  V30 1924 H 181.822 2.48611 -1.6503 0
M  V30 1925 C 180.571 3.47265 -0.173849 0
M  V30 1926 H 179.894 3.88716 -0.934873 0
M  V30 1927 H 181.334 4.23979 0.0423126 0
M  V30 1928 C 179.793 3.18724 1.09164 0
M  V30 1929 O 180.323 3.37762 2.17439 0
M  V30 1930 N 178.529 2.72583 1.00732 0
M  V30 1931 H 178.076 2.57291 0.126121 0
M  V30 1932 H 178.034 2.53862 1.85476 0
M  V30 1933 N 181.806 0.884767 1.30421 0
M  V30 1934 C 183.052 0.503851 1.96441 0
M  V30 1935 C 183.385 -0.944518 1.69684 0
M  V30 1936 O 182.66 -1.66737 1.00145 0
M  V30 1937 C 182.943 0.779085 3.51571 0
M  V30 1938 C 182.796 2.27807 3.87846 0
M  V30 1939 C 184.115 0.255452 4.39358 0
M  V30 1940 H 181.234 0.184533 0.713524 0
M  V30 1941 H 183.876 1.10872 1.54297 0
M  V30 1942 H 182.026 0.264274 3.876 0
M  V30 1943 H 183.698 2.86127 3.61841 0
M  V30 1944 H 181.941 2.74479 3.35922 0
M  V30 1945 H 182.612 2.42125 4.96064 0
M  V30 1946 H 185.088 0.696079 4.10236 0
M  V30 1947 H 183.964 0.477361 5.4682 0
M  V30 1948 H 184.225 -0.843293 4.33983 0
M  V30 1949 N 183.284 -1.43765 0.645699 0
M  V30 1950 C 184.231 -2.30745 -0.0504648 0
M  V30 1951 C 185.201 -1.4432 -0.822241 0
M  V30 1952 O 186.386 -1.73202 -0.800358 0
M  V30 1953 C 183.526 -3.29802 -1.0161 0
M  V30 1954 C 182.639 -4.31326 -0.241219 0
M  V30 1955 C 181.774 -5.17469 -1.19998 0
M  V30 1956 C 180.813 -6.10691 -0.415094 0
M  V30 1957 N 179.95 -6.89483 -1.32506 0
M  V30 1958 H 184.79 -2.8973 0.697155 0
M  V30 1959 H 182.327 -1.42738 0.355563 0
M  V30 1960 H 184.285 -3.85734 -1.58949 0
M  V30 1961 H 182.915 -2.72483 -1.73069 0
M  V30 1962 H 181.967 -3.77749 0.448334 0
M  V30 1963 H 183.279 -4.9743 0.369437 0
M  V30 1964 H 182.433 -5.7799 -1.84424 0
M  V30 1965 H 181.172 -4.51473 -1.84455 0
M  V30 1966 H 180.177 -5.49265 0.242565 0
M  V30 1967 H 181.402 -6.78727 0.224966 0
M  V30 1968 H 179.348 -6.26142 -1.95657 0
M  V30 1969 H 179.265 -7.52081 -0.768783 0
M  V30 1970 H 180.533 -7.54516 -1.9577 0
M  V30 1971 N 184.763 -0.387143 -1.52771 0
M  V30 1972 C 186.01 0.195735 -2.01552 0
M  V30 1973 C 186.338 1.46995 -1.27369 0
M  V30 1974 O 185.593 1.92325 -0.361879 0
M  V30 1975 C 185.892 0.512209 -3.53711 0
M  V30 1976 C 185.558 -0.670202 -4.45891 0
M  V30 1977 C 184.22 -0.994586 -4.70809 0
M  V30 1978 C 186.572 -1.46134 -5.00294 0
M  V30 1979 C 183.9 -2.11169 -5.4738 0
M  V30 1980 C 186.252 -2.56903 -5.78086 0
M  V30 1981 C 184.916 -2.89852 -6.01284 0
M  V30 1982 H 184.186 0.0716246 -0.73753 0
M  V30 1983 H 186.833 -0.524046 -1.8419 0
M  V30 1984 H 185.138 1.31329 -3.69134 0
M  V30 1985 H 186.835 0.975804 -3.88946 0
M  V30 1986 H 183.425 -0.407366 -4.2666 0
M  V30 1987 H 187.609 -1.22397 -4.80971 0
M  V30 1988 H 182.865 -2.3707 -5.63567 0
M  V30 1989 H 187.039 -3.18608 -6.19243 0
M  V30 1990 H 184.666 -3.76533 -6.60399 0
M  V30 1991 N 186.241 1.57166 -0.116904 0
M  V30 1992 C 187.657 1.5779 0.239693 0
M  V30 1993 C 187.857 1.1295 1.66867 0
M  V30 1994 O 186.913 0.81592 2.38954 0
M  V30 1995 C 188.226 3.00699 0.00828202 0
M  V30 1996 C 189.774 3.12912 0.0743438 0
M  V30 1997 C 190.249 4.57817 -0.129348 0
M  V30 1998 N 191.74 4.63139 -0.075247 0
M  V30 1999 C 192.475 5.73023 -0.207788 0
M  V30 2000 N 191.971 6.91665 -0.396382 0
M  V30 2001 N 193.764 5.61906 -0.14751 0
M  V30 2002 H 185.915 1.84615 -1.05029 0
M  V30 2003 H 188.178 0.85311 -0.41341 0
M  V30 2004 H 187.884 3.37784 -0.979531 0
M  V30 2005 H 187.758 3.69848 0.741077 0
M  V30 2006 H 190.145 2.75686 1.05268 0
M  V30 2007 H 190.226 2.4631 -0.690297 0
M  V30 2008 H 189.87 4.95742 -1.10465 0
M  V30 2009 H 189.8 5.22507 0.655253 0
M  V30 2010 H 192.291 3.7784 0.0670898 0
M  V30 2011 H 192.604 7.71255 -0.488437 0
M  V30 2012 H 190.949 6.93654 -0.432329 0
M  V30 2013 H 194.14 4.681 -0.00115036 0
M  V30 2014 H 194.313 6.47501 -0.254247 0
M  V30 2015 N 187.719 -0.156864 1.56817 0
M  V30 2016 C 188.967 -0.869404 1.82444 0
M  V30 2017 C 189.288 -1.82147 0.69623 0
M  V30 2018 O 188.558 -1.93847 -0.28287 0
M  V30 2019 H 187.138 -0.324043 0.673056 0
M  V30 2020 H 189.8 -0.153224 1.94297 0
M  V30 2021 H 188.896 -1.43761 2.77019 0
M  V30 2022 N 189.197 -1.51736 -0.425897 0
M  V30 2023 C 190.16 -1.73271 -1.50032 0
M  V30 2024 C 191.16 -0.602639 -1.4908 0
M  V30 2025 O 192.35 -0.87033 -1.509 0
M  V30 2026 C 189.482 -1.79969 -2.89523 0
M  V30 2027 H 190.675 -2.69172 -1.32237 0
M  V30 2028 H 188.228 -1.41899 -0.65532 0
M  V30 2029 H 188.963 -0.859241 -3.1271 0
M  V30 2030 H 188.748 -2.62109 -2.91619 0
M  V30 2031 H 190.238 -1.9843 -3.67444 0
M  V30 2032 N 190.675 0.682077 -1.42076 0
M  V30 2033 C 191.903 1.47057 -1.4554 0
M  V30 2034 C 192.318 1.8869 -0.0645779 0
M  V30 2035 O 191.675 1.57666 0.919115 0
M  V30 2036 C 191.726 2.72442 -2.37609 0
M  V30 2037 O 191.447 2.32559 -3.71279 0
M  V30 2038 C 192.948 3.66069 -2.50017 0
M  V30 2039 H 190.168 0.452737 -0.495248 0
M  V30 2040 H 192.712 0.838695 -1.8651 0
M  V30 2041 H 190.867 3.31835 -1.9991 0
M  V30 2042 H 191.281 3.13475 -4.20516 0
M  V30 2043 H 192.755 4.50792 -3.18576 0
M  V30 2044 H 193.232 4.11476 -1.53572 0
M  V30 2045 H 193.838 3.12572 -2.88407 0
M  V30 2046 N 192.153 1.28127 0.917671 0
M  V30 2047 C 193.381 1.17892 1.70026 0
M  V30 2048 C 193.796 -0.262958 1.8696 0
M  V30 2049 O 193.153 -1.17811 1.3938 0
M  V30 2050 C 193.204 1.86872 3.09453 0
M  V30 2051 O 192.925 3.25428 2.93306 0
M  V30 2052 C 194.426 1.8289 4.03815 0
M  V30 2053 H 191.646 0.40942 0.531617 0
M  V30 2054 H 194.19 1.69181 1.14883 0
M  V30 2055 H 192.345 1.39464 3.61426 0
M  V30 2056 H 192.759 3.59918 3.81523 0
M  V30 2057 H 194.233 2.35751 4.99125 0
M  V30 2058 H 194.71 0.800412 4.31845 0
M  V30 2059 H 195.316 2.29959 3.57769 0
M  V30 2060 N 193.631 -1.12557 1.10312 0
M  V30 2061 C 194.877 -1.84311 0.846011 0
M  V30 2062 C 195.21 -1.83805 -0.626859 0
M  V30 2063 O 194.485 -1.28268 -1.46211 0
M  V30 2064 C 194.768 -3.32048 1.39341 0
M  V30 2065 C 194.621 -3.41016 2.93305 0
M  V30 2066 C 195.94 -4.27764 1.03468 0
M  V30 2067 H 193.059 -0.669192 0.30879 0
M  V30 2068 H 195.701 -1.32057 1.36605 0
M  V30 2069 H 193.851 -3.76678 0.951087 0
M  V30 2070 H 195.523 -3.05031 3.46055 0
M  V30 2071 H 193.766 -2.81603 3.29973 0
M  V30 2072 H 194.437 -4.44948 3.26689 0
M  V30 2073 H 196.913 -3.91253 1.41633 0
M  V30 2074 H 195.789 -5.29549 1.44463 0
M  V30 2075 H 196.05 -4.42064 -0.0560404 0
M  V30 2076 N 195.109 -0.891671 -1.2995 0
M  V30 2077 C 196.349 -0.520296 -1.97667 0
M  V30 2078 C 196.713 0.914797 -1.68806 0
M  V30 2079 O 197.914 1.39263 -2.29911 0
M  V30 2080 C 196.185 -0.795222 -3.48441 0
M  V30 2081 S 197.744 -0.526953 -4.35624 0
M  V30 2082 H 194.562 -0.19333 -0.684211 0
M  V30 2083 H 197.164 -1.15238 -1.57926 0
M  V30 2084 H 195.868 -1.83805 -3.66938 0
M  V30 2085 H 195.399 -0.15095 -3.9311 0
M  V30 2086 H 197.414 0.631533 -4.92165 0
M  V30 2087 N 196.587 1.43421 -0.653314 0
M  V30 2088 C 197.864 1.95361 -0.0966581 0
M  V30 2089 C 198.244 1.59461 1.38331 0
M  V30 2090 O 197.592 0.879777 2.10884 0
M  V30 2091 C 197.802 3.47311 -0.342988 0
M  V30 2092 C 199.15 4.23875 -0.24798 0
M  V30 2093 O 200.174 3.55133 -0.275553 0
M  V30 2094 O 199.033 5.4623 -0.171771 0
M  V30 2095 H 196.127 0.826945 0.00956291 0
M  V30 2096 H 198.673 1.5336 -0.726558 0
M  V30 2097 H 197.445 3.66569 -1.36906 0
M  V30 2098 H 197.068 3.9631 0.319975 0
M  V30 2099 N 198.065 0.39524 1.52563 0
M  V30 2100 C 199.015 -0.4541 2.23432 0
M  V30 2101 C 199.999 -1.02482 1.24042 0
M  V30 2102 O 201.191 -0.949938 1.49349 0
M  V30 2103 C 198.32 -1.57769 3.049 0
M  V30 2104 C 197.406 -1.01842 4.1169 0
M  V30 2105 N 197.797 -0.184613 5.05463 0
M  V30 2106 C 196.095 -1.29033 4.26927 0
M  V30 2107 C 196.796 0.125013 5.81566 0
M  V30 2108 N 195.772 -0.480498 5.41472 0
M  V30 2109 H 199.574 0.189413 2.93289 0
M  V30 2110 H 197.088 0.204877 1.61102 0
M  V30 2111 H 199.085 -2.19862 3.54212 0
M  V30 2112 H 197.745 -2.22397 2.36579 0
M  V30 2113 H 198.756 0.178602 5.17592 0
M  V30 2114 H 195.433 -1.93721 3.69836 0
M  V30 2115 H 196.823 0.800962 6.67109 0
M  V30 2116 N 199.544 -1.57102 0.125237 0
M  V30 2117 C 200.507 -2.14471 -0.80838 0
M  V30 2118 C 201.507 -1.0811 -1.19033 0
M  V30 2119 O 202.697 -1.33856 -1.11482 0
M  V30 2120 C 199.829 -2.69005 -2.09402 0
M  V30 2121 H 201.022 -2.98297 -0.309696 0
M  V30 2122 H 198.575 -1.55807 -0.124051 0
M  V30 2123 H 199.31 -1.88785 -2.63687 0
M  V30 2124 H 199.095 -3.46799 -1.82957 0
M  V30 2125 H 200.585 -3.13278 -2.76128 0
M  V30 2126 N 201.022 0.148545 -1.56898 0
M  V30 2127 C 201.952 1.18524 -2.01182 0
M  V30 2128 C 202.933 1.4489 -0.891123 0
M  V30 2129 O 204.118 1.55836 -1.15882 0
M  V30 2130 C 201.248 2.51879 -2.39112 0
M  V30 2131 C 200.202 2.40038 -3.54353 0
M  V30 2132 C 199.528 3.78089 -3.78091 0
M  V30 2133 C 200.828 1.88577 -4.87069 0
M  V30 2134 H 202.522 0.817029 -2.88036 0
M  V30 2135 H 200.068 0.391575 -1.38574 0
M  V30 2136 H 202.021 3.24627 -2.68692 0
M  V30 2137 H 200.745 2.90532 -1.49193 0
M  V30 2138 H 199.404 1.69742 -3.24936 0
M  V30 2139 H 199.052 4.14175 -2.85426 0
M  V30 2140 H 198.752 3.71028 -4.55645 0
M  V30 2141 H 200.276 4.52387 -4.10095 0
M  V30 2142 H 201.69 2.51117 -5.15377 0
M  V30 2143 H 200.087 1.9241 -5.68417 0
M  V30 2144 H 201.157 0.84136 -4.77545 0
M  V30 2145 N 202.5 1.5196 0.417844 0
M  V30 2146 C 203.463 1.74065 1.49111 0
M  V30 2147 C 204.463 0.610537 1.48758 0
M  V30 2148 O 205.653 0.87832 1.50437 0
M  V30 2149 C 202.785 1.81502 2.88565 0
M  V30 2150 H 203.978 2.69869 1.30807 0
M  V30 2151 H 201.531 1.42244 0.647785 0
M  V30 2152 H 202.266 0.875813 3.1225 0
M  V30 2153 H 202.051 2.63651 2.90225 0
M  V30 2154 H 203.541 2.00376 3.66387 0
M  V30 2155 N 203.978 -0.674533 1.42435 0
M  V30 2156 C 205.218 -1.4466 1.44405 0
M  V30 2157 C 205.582 -1.91911 0.0585784 0
M  V30 2158 O 206.783 -2.68759 -0.0469991 0
M  V30 2159 C 205.054 -2.61136 2.44013 0
M  V30 2160 S 206.613 -3.49981 2.64687 0
M  V30 2161 H 203.431 -0.494074 0.511284 0
M  V30 2162 H 206.033 -0.785162 1.7904 0
M  V30 2163 H 204.737 -2.24662 3.43446 0
M  V30 2164 H 204.268 -3.32153 2.10803 0
M  V30 2165 H 206.283 -4.57124 1.93007 0
M  V30 2166 N 205.456 -1.28612 -0.910864 0
M  V30 2167 C 206.388 -1.08589 -2.01844 0
M  V30 2168 C 207.401 -0.0367419 -1.62759 0
M  V30 2169 O 208.59 -0.280101 -1.76289 0
M  V30 2170 C 205.69 -0.628626 -3.33019 0
M  V30 2171 C 204.863 -1.75382 -4.00699 0
M  V30 2172 C 203.922 -1.28945 -5.10156 0
M  V30 2173 O 202.948 -1.9922 -5.33198 0
M  V30 2174 N 204.15 -0.154224 -5.80295 0
M  V30 2175 H 206.915 -2.03973 -2.19579 0
M  V30 2176 H 204.476 -1.20403 -1.08234 0
M  V30 2177 H 206.468 -0.301508 -4.03575 0
M  V30 2178 H 205.038 0.232451 -3.11735 0
M  V30 2179 H 204.258 -2.25039 -3.23653 0
M  V30 2180 H 205.546 -2.50854 -4.42662 0
M  V30 2181 H 204.944 0.43194 -5.64049 0
M  V30 2182 H 203.501 0.113599 -6.51701 0
M  V30 2183 N 206.934 1.1197 -1.10907 0
M  V30 2184 C 207.844 2.21433 -0.774896 0
M  V30 2185 C 208.86 1.72478 0.229657 0
M  V30 2186 O 210.036 2.01288 0.0672008 0
M  V30 2187 C 207.101 3.4602 -0.216986 0
M  V30 2188 C 206.162 4.09791 -1.27944 0
M  V30 2189 C 205.395 5.28431 -0.748055 0
M  V30 2190 O 205.618 5.68823 0.423833 0
M  V30 2191 O 204.552 5.82644 -1.51027 0
M  V30 2192 H 208.378 2.5242 -1.68873 0
M  V30 2193 H 205.963 1.20399 -0.884555 0
M  V30 2194 H 207.845 4.21304 0.090059 0
M  V30 2195 H 206.52 3.16698 0.669633 0
M  V30 2196 H 205.427 3.36265 -1.63941 0
M  V30 2197 H 206.76 4.4328 -2.13925 0
M  V30 2198 N 208.412 0.89855 1.29475 0
M  V30 2199 C 209.345 0.319981 2.25945 0
M  V30 2200 C 210.323 -0.567189 1.52387 0
M  V30 2201 O 211.507 -0.514254 1.8135 0
M  V30 2202 C 208.634 -0.544013 3.34303 0
M  V30 2203 C 207.68 0.275682 4.25608 0
M  V30 2204 S 208.513 1.67272 5.08704 0
M  V30 2205 C 209.669 0.815621 6.20563 0
M  V30 2206 H 209.902 1.13767 2.74671 0
M  V30 2207 H 207.435 0.69882 1.3768 0
M  V30 2208 H 209.393 -1.03673 3.97193 0
M  V30 2209 H 208.054 -1.33593 2.84274 0
M  V30 2210 H 207.247 -0.384263 5.02533 0
M  V30 2211 H 206.849 0.701496 3.67362 0
M  V30 2212 H 209.141 0.0385042 6.77489 0
M  V30 2213 H 210.084 1.55691 6.90772 0
M  V30 2214 H 210.492 0.370516 5.63283 0
M  V30 2215 N 209.89 -1.43072 0.660911 0
M  V30 2216 C 211.301 -1.84932 0.256348 0
M  V30 2217 C 211.652 -1.55325 -1.19868 0
M  V30 2218 O 210.777 -1.00607 -1.91591 0
M  V30 2219 C 211.372 -3.35684 0.458475 0
M  V30 2220 C 209.931 -3.76245 0.108161 0
M  V30 2221 C 209.078 -2.66749 0.757641 0
M  V30 2222 H 212.029 -1.33116 0.864051 0
M  V30 2223 H 212.05 -3.79365 -0.293683 0
M  V30 2224 H 211.562 -3.572 1.51755 0
M  V30 2225 H 209.663 -3.60338 -0.948014 0
M  V30 2226 H 209.776 -4.76058 0.538992 0
M  V30 2227 H 208.14 -2.53989 0.190185 0
M  V30 2228 H 208.923 -2.91092 1.81989 0
M  V30 2229 N 211.368 -0.403325 -1.52352 0
M  V30 2230 C 212.331 0.413051 -2.25447 0
M  V30 2231 C 213.331 0.978513 -1.276 0
M  V30 2232 O 214.521 0.858305 -1.51587 0
M  V30 2233 C 211.653 1.58087 -3.02029 0
M  V30 2234 H 212.846 -0.227094 -2.99039 0
M  V30 2235 H 210.399 -0.155722 -1.55522 0
M  V30 2236 H 211.134 2.25804 -2.32772 0
M  V30 2237 H 210.919 1.18195 -3.73861 0
M  V30 2238 H 212.409 2.1585 -3.57489 0
M  V30 2239 N 212.846 1.57033 -0.133567 0
M  V30 2240 C 213.796 2.12641 0.822671 0
M  V30 2241 C 214.78 1.05081 1.21847 0
M  V30 2242 O 215.972 1.31287 1.18713 0
M  V30 2243 C 213.101 2.74094 2.06706 0
M  V30 2244 C 212.187 3.88757 1.69497 0
M  V30 2245 N 212.578 4.95194 1.03037 0
M  V30 2246 C 210.876 3.99213 1.98859 0
M  V30 2247 C 211.577 5.75414 0.852873 0
M  V30 2248 N 210.553 5.25726 1.3825 0
M  V30 2249 H 214.355 2.92308 0.305537 0
M  V30 2250 H 211.869 1.62256 0.0684276 0
M  V30 2251 H 213.866 3.12285 2.76195 0
M  V30 2252 H 212.526 1.95896 2.5895 0
M  V30 2253 H 213.537 5.13247 0.692669 0
M  V30 2254 H 210.214 3.32075 2.53047 0
M  V30 2255 H 211.604 6.71089 0.330091 0
M  V30 2256 N 214.325 -0.140222 1.56975 0
M  V30 2257 C 215.255 -1.17456 2.01808 0
M  V30 2258 C 216.236 -1.44415 0.898794 0
M  V30 2259 O 217.421 -1.5522 1.16707 0
M  V30 2260 C 214.551 -2.50607 2.40444 0
M  V30 2261 C 213.505 -2.38155 3.55621 0
M  V30 2262 C 212.831 -3.76078 3.80091 0
M  V30 2263 C 214.131 -1.85991 4.88062 0
M  V30 2264 H 215.825 -0.801743 2.88466 0
M  V30 2265 H 213.371 -0.38422 1.38779 0
M  V30 2266 H 215.324 -3.23197 2.7041 0
M  V30 2267 H 214.048 -2.89737 1.50732 0
M  V30 2268 H 212.707 -1.68016 3.25832 0
M  V30 2269 H 212.355 -4.12656 2.87618 0
M  V30 2270 H 212.055 -3.68606 4.57606 0
M  V30 2271 H 213.579 -4.50206 4.12488 0
M  V30 2272 H 214.993 -2.4838 5.16701 0
M  V30 2273 H 213.39 -1.89393 5.6943 0
M  V30 2274 H 214.46 -0.816023 4.77984 0
M  V30 2275 N 215.803 -1.52179 -0.40978 0
M  V30 2276 C 216.733 -1.78435 -1.5061 0
M  V30 2277 C 217.714 -0.635295 -1.57791 0
M  V30 2278 O 218.899 -0.880823 -1.73076 0
M  V30 2279 C 216.029 -1.93444 -2.88439 0
M  V30 2280 C 214.983 -3.09038 -2.96108 0
M  V30 2281 C 214.309 -3.09268 -4.36185 0
M  V30 2282 C 215.609 -4.48508 -2.67652 0
M  V30 2283 H 217.303 -2.70237 -1.28889 0
M  V30 2284 H 214.849 -1.30036 -0.618605 0
M  V30 2285 H 216.802 -2.10394 -3.65119 0
M  V30 2286 H 215.526 -0.983129 -3.11452 0
M  V30 2287 H 214.185 -2.91837 -2.21872 0
M  V30 2288 H 213.833 -2.11861 -4.56206 0
M  V30 2289 H 213.533 -3.86907 -4.42241 0
M  V30 2290 H 215.057 -3.28348 -5.14801 0
M  V30 2291 H 216.471 -4.65918 -3.34056 0
M  V30 2292 H 214.868 -5.28059 -2.85085 0
M  V30 2293 H 215.938 -4.56649 -1.63095 0
M  V30 2294 N 217.281 0.66697 -1.42791 0
M  V30 2295 C 218.697 0.981027 -1.25889 0
M  V30 2296 C 218.897 2.00793 -0.168695 0
M  V30 2297 O 217.953 2.48321 0.45747 0
M  V30 2298 C 219.266 1.47838 -2.61848 0
M  V30 2299 C 220.814 1.59575 -2.69267 0
M  V30 2300 C 221.289 2.12704 -4.05612 0
M  V30 2301 N 222.78 2.20026 -4.07606 0
M  V30 2302 C 223.515 2.62227 -5.09926 0
M  V30 2303 N 223.011 3.03824 -6.22626 0
M  V30 2304 N 224.804 2.62045 -4.97281 0
M  V30 2305 H 216.955 -0.0127891 -2.12396 0
M  V30 2306 H 219.218 0.0568258 -0.946295 0
M  V30 2307 H 218.924 0.798299 -3.4252 0
M  V30 2308 H 218.798 2.45579 -2.86305 0
M  V30 2309 H 221.185 2.26687 -1.88936 0
M  V30 2310 H 221.266 0.60302 -2.48591 0
M  V30 2311 H 220.91 1.46198 -4.86404 0
M  V30 2312 H 220.84 3.12782 -4.23645 0
M  V30 2313 H 223.331 1.90708 -3.2625 0
M  V30 2314 H 223.644 3.34734 -6.96544 0
M  V30 2315 H 221.989 3.01662 -6.26119 0
M  V30 2316 H 225.18 2.28916 -4.08308 0
M  V30 2317 H 225.353 2.94613 -5.77154 0
M  V30 2318 N 218.759 1.29093 0.90403 0
M  V30 2319 C 220.005 1.16986 1.65656 0
M  V30 2320 C 220.338 -0.278925 1.92186 0
M  V30 2321 O 219.613 -1.2019 1.5292 0
M  V30 2322 C 219.896 1.97908 3.0084 0
M  V30 2323 C 219.749 3.50903 2.81403 0
M  V30 2324 C 221.068 1.80208 4.01513 0
M  V30 2325 H 218.187 0.426346 0.601164 0
M  V30 2326 H 220.829 1.58518 1.04747 0
M  V30 2327 H 218.979 1.62616 3.52829 0
M  V30 2328 H 220.651 3.96153 2.36348 0
M  V30 2329 H 218.894 3.76045 2.1627 0
M  V30 2330 H 219.565 4.02791 3.77443 0
M  V30 2331 H 222.041 2.11025 3.58619 0
M  V30 2332 H 220.917 2.39184 4.94047 0
M  V30 2333 H 221.178 0.756119 4.35586 0
M  V30 2334 N 220.237 -1.11381 1.11499 0
M  V30 2335 C 221.167 -2.19509 0.796125 0
M  V30 2336 C 222.148 -1.68458 -0.235796 0
M  V30 2337 O 223.333 -1.93947 -0.0991344 0
M  V30 2338 C 220.463 -3.46475 0.239205 0
M  V30 2339 C 219.417 -4.10744 1.20307 0
M  V30 2340 C 218.743 -5.32293 0.50683 0
M  V30 2341 C 220.043 -4.55597 2.55399 0
M  V30 2342 H 221.737 -2.46439 1.70024 0
M  V30 2343 H 219.283 -1.18446 0.818935 0
M  V30 2344 H 221.236 -4.214 0.00392006 0
M  V30 2345 H 219.96 -3.19006 -0.700206 0
M  V30 2346 H 218.619 -3.37813 1.42399 0
M  V30 2347 H 218.267 -5.01095 -0.437408 0
M  V30 2348 H 217.967 -5.76243 1.1497 0
M  V30 2349 H 219.491 -6.09956 0.280351 0
M  V30 2350 H 220.905 -5.21841 2.37391 0
M  V30 2351 H 219.302 -5.10363 3.15673 0
M  V30 2352 H 220.372 -3.69013 3.14575 0
M  V30 2353 N 221.715 -0.905404 -1.28997 0
M  V30 2354 C 222.625 -0.392246 -2.31298 0
M  V30 2355 C 223.641 0.515889 -1.66176 0
M  V30 2356 O 224.817 0.404093 -1.97304 0
M  V30 2357 C 221.882 0.36686 -3.44754 0
M  V30 2358 C 220.943 -0.573485 -4.25452 0
M  V30 2359 C 220.176 0.149488 -5.33491 0
M  V30 2360 O 220.399 1.37255 -5.5364 0
M  V30 2361 O 219.333 -0.510919 -5.99728 0
M  V30 2362 H 223.159 -1.2411 -2.77183 0
M  V30 2363 H 220.744 -0.669926 -1.33538 0
M  V30 2364 H 222.626 0.795907 -4.13816 0
M  V30 2365 H 221.301 1.19169 -3.00966 0
M  V30 2366 H 220.208 -1.05176 -3.59011 0
M  V30 2367 H 221.541 -1.36489 -4.72897 0
M  V30 2368 N 223.193 1.4272 -0.668489 0
M  V30 2369 C 224.103 2.34596 0.0139753 0
M  V30 2370 C 225.119 1.5474 0.795703 0
M  V30 2371 O 226.295 1.87334 0.739466 0
M  V30 2372 C 223.36 3.33202 0.957982 0
M  V30 2373 C 222.421 4.28957 0.17149 0
M  V30 2374 C 221.654 5.22853 1.07053 0
M  V30 2375 O 221.877 5.21531 2.31001 0
M  V30 2376 O 220.811 5.9952 0.534727 0
M  V30 2377 H 224.637 2.9448 -0.742661 0
M  V30 2378 H 222.222 1.43117 -0.428705 0
M  V30 2379 H 224.104 3.93796 1.50008 0
M  V30 2380 H 222.779 2.758 1.69458 0
M  V30 2381 H 221.686 3.71796 -0.414558 0
M  V30 2382 H 223.019 4.89383 -0.52586 0
M  V30 2383 N 224.671 0.411399 1.52136 0
M  V30 2384 C 225.581 -0.419774 2.30814 0
M  V30 2385 C 226.597 -1.0515 1.38634 0
M  V30 2386 O 227.773 -1.05252 1.71709 0
M  V30 2387 C 224.838 -1.52019 3.11594 0
M  V30 2388 C 223.899 -0.91129 4.19516 0
M  V30 2389 C 223.132 -1.95927 4.96436 0
M  V30 2390 O 223.355 -3.17775 4.73683 0
M  V30 2391 O 222.289 -1.56423 5.81219 0
M  V30 2392 H 226.115 0.221805 3.02889 0
M  V30 2393 H 223.7 0.174547 1.48377 0
M  V30 2394 H 225.582 -2.15898 3.61892 0
M  V30 2395 H 224.257 -2.14633 2.42311 0
M  V30 2396 H 223.164 -0.235157 3.7336 0
M  V30 2397 H 224.497 -0.32904 4.91099 0
M  V30 2398 N 226.149 -1.5696 0.141893 0
M  V30 2399 C 227.377 -2.00322 -0.517579 0
M  V30 2400 C 227.792 -1.02193 -1.58752 0
M  V30 2401 O 227.149 -0.0181619 -1.82491 0
M  V30 2402 C 227.2 -3.43618 -1.12289 0
M  V30 2403 O 226.921 -4.37995 -0.0956929 0
M  V30 2404 C 228.422 -4.02231 -1.86347 0
M  V30 2405 H 225.642 -0.657243 -0.135177 0
M  V30 2406 H 228.186 -2.03146 0.234973 0
M  V30 2407 H 226.341 -3.41662 -1.82609 0
M  V30 2408 H 226.755 -5.21729 -0.538469 0
M  V30 2409 H 228.229 -5.04509 -2.23997 0
M  V30 2410 H 228.706 -3.42655 -2.74744 0
M  V30 2411 H 229.312 -4.07802 -1.20737 0
M  V30 2412 N 227.627 0.131896 -1.57047 0
M  V30 2413 C 228.874 0.841932 -1.84168 0
M  V30 2414 C 229.202 1.8048 -0.725066 0
M  V30 2415 O 228.457 1.93618 0.284692 0
M  V30 2416 C 228.756 1.63703 -3.17704 0
M  V30 2417 C 228.422 0.81961 -4.43388 0
M  V30 2418 C 227.084 0.594148 -4.77518 0
M  V30 2419 C 229.436 0.248977 -5.20605 0
M  V30 2420 C 226.764 -0.212409 -5.86315 0
M  V30 2421 C 229.116 -0.544701 -6.30251 0
M  V30 2422 C 227.78 -0.780599 -6.6292 0
M  V30 2423 H 227.05 0.308085 -0.673917 0
M  V30 2424 H 229.697 0.104867 -1.91213 0
M  V30 2425 H 228.002 2.44464 -3.06177 0
M  V30 2426 H 229.699 2.19015 -3.35907 0
M  V30 2427 H 226.289 1.00542 -4.16641 0
M  V30 2428 H 230.473 0.410408 -4.946 0
M  V30 2429 H 225.729 -0.404524 -6.1006 0
M  V30 2430 H 229.903 -0.993922 -6.89271 0
M  V30 2431 H 227.53 -1.40742 -7.47058 0
M  V30 2432 N 229.106 1.52395 0.401703 0
M  V30 2433 C 230.016 1.7917 1.51444 0
M  V30 2434 C 231.032 0.677691 1.6026 0
M  V30 2435 O 232.208 0.963909 1.76835 0
M  V30 2436 C 229.273 1.94347 2.87107 0
M  V30 2437 C 228.334 3.18257 2.88116 0
M  V30 2438 C 227.567 3.32701 4.17308 0
M  V30 2439 O 227.79 2.52238 5.11598 0
M  V30 2440 O 226.724 4.25891 4.25324 0
M  V30 2441 H 230.55 2.73633 1.31752 0
M  V30 2442 H 228.135 1.3733 0.588296 0
M  V30 2443 H 230.017 2.06109 3.67555 0
M  V30 2444 H 228.692 1.03073 3.06851 0
M  V30 2445 H 227.599 3.11947 2.06494 0
M  V30 2446 H 228.932 4.09336 2.73322 0
M  V30 2447 N 230.584 -0.659388 1.43143 0
M  V30 2448 C 231.83 -1.42145 1.44647 0
M  V30 2449 C 232.163 -1.9408 0.0681907 0
M  V30 2450 O 231.438 -1.71899 -0.910007 0
M  V30 2451 C 231.721 -2.60735 2.48373 0
M  V30 2452 C 231.574 -2.14332 3.95451 0
M  V30 2453 C 232.893 -3.62951 2.48906 0
M  V30 2454 H 230.012 -0.51552 0.526696 0
M  V30 2455 H 232.654 -0.748069 1.74654 0
M  V30 2456 H 230.804 -3.18184 2.22916 0
M  V30 2457 H 232.476 -1.61932 4.31944 0
M  V30 2458 H 230.719 -1.4576 4.08578 0
M  V30 2459 H 231.39 -2.99583 4.63631 0
M  V30 2460 H 233.866 -3.1525 2.71582 0
M  V30 2461 H 232.742 -4.43487 3.23435 0
M  V30 2462 H 233.003 -4.15126 1.52061 0
M  V30 2463 N 232.062 -1.29571 -0.897171 0
M  V30 2464 C 233.478 -1.07637 -1.17841 0
M  V30 2465 C 233.678 0.170713 -2.00776 0
M  V30 2466 O 232.734 0.867768 -2.3712 0
M  V30 2467 C 234.047 -2.3332 -1.8969 0
M  V30 2468 C 235.595 -2.38664 -2.02505 0
M  V30 2469 C 236.07 -3.64157 -2.77765 0
M  V30 2470 N 237.561 -3.64894 -2.85318 0
M  V30 2471 C 238.296 -4.58679 -3.44094 0
M  V30 2472 N 237.792 -5.62799 -4.04017 0
M  V30 2473 N 239.585 -4.46245 -3.41793 0
M  V30 2474 H 231.736 -2.09598 -0.343883 0
M  V30 2475 H 233.999 -0.923333 -0.214848 0
M  V30 2476 H 233.705 -3.24262 -1.36187 0
M  V30 2477 H 233.579 -2.41025 -2.9015 0
M  V30 2478 H 235.966 -1.48208 -2.55183 0
M  V30 2479 H 236.047 -2.34943 -1.01171 0
M  V30 2480 H 235.691 -4.54965 -2.25763 0
M  V30 2481 H 235.621 -3.65137 -3.7945 0
M  V30 2482 H 238.112 -2.89613 -2.42761 0
M  V30 2483 H 238.425 -6.3048 -4.46895 0
M  V30 2484 H 236.77 -5.66605 -4.02472 0
M  V30 2485 H 239.961 -3.64094 -2.94199 0
M  V30 2486 H 240.134 -5.19518 -3.87304 0
M  V30 2487 N 233.54 1.10788 -1.12088 0
M  V30 2488 C 234.786 1.82942 -0.875226 0
M  V30 2489 C 235.119 1.84779 0.597538 0
M  V30 2490 O 234.394 1.30578 1.44152 0
M  V30 2491 C 234.677 3.29789 -1.44606 0
M  V30 2492 C 234.53 3.36307 -2.98693 0
M  V30 2493 C 235.849 4.26064 -1.10261 0
M  V30 2494 H 232.968 0.664195 -0.319397 0
M  V30 2495 H 235.61 1.29867 -1.38689 0
M  V30 2496 H 233.76 3.75118 -1.01089 0
M  V30 2497 H 235.432 2.99487 -3.50864 0
M  V30 2498 H 233.675 2.76318 -3.34411 0
M  V30 2499 H 234.346 4.39694 -3.33726 0
M  V30 2500 H 236.822 3.88951 -1.4784 0
M  V30 2501 H 235.698 5.27183 -1.52869 0
M  V30 2502 H 235.959 4.42098 -0.0142953 0
M  V30 2503 N 235.018 0.912232 1.28515 0
M  V30 2504 C 235.948 0.416403 2.29757 0
M  V30 2505 C 236.929 -0.515194 1.6211 0
M  V30 2506 O 238.114 -0.423253 1.89532 0
M  V30 2507 C 235.244 -0.34572 3.45575 0
M  V30 2508 C 234.198 0.496599 4.25109 0
M  V30 2509 C 233.524 -0.393771 5.33248 0
M  V30 2510 C 234.824 1.75307 4.92001 0
M  V30 2511 H 236.518 1.26249 2.7148 0
M  V30 2512 H 234.064 0.608515 1.30511 0
M  V30 2513 H 236.017 -0.703422 4.15488 0
M  V30 2514 H 234.741 -1.2257 3.02728 0
M  V30 2515 H 233.4 0.8368 3.56922 0
M  V30 2516 H 233.048 -1.27225 4.86644 0
M  V30 2517 H 232.748 0.166209 5.87365 0
M  V30 2518 H 234.272 -0.747389 6.06009 0
M  V30 2519 H 235.686 1.46437 5.54283 0
M  V30 2520 H 234.083 2.25534 5.56106 0
M  V30 2521 H 235.153 2.48176 4.16577 0
M  V30 2522 N 236.496 -1.42363 0.676048 0
M  V30 2523 C 237.406 -2.346 -0.00153389 0
M  V30 2524 C 238.422 -1.5516 -0.787485 0
M  V30 2525 O 239.598 -1.87723 -0.729521 0
M  V30 2526 C 236.663 -3.33705 -0.940298 0
M  V30 2527 C 235.724 -4.29042 -0.148739 0
M  V30 2528 C 234.957 -5.23413 -1.04279 0
M  V30 2529 O 235.18 -5.22749 -2.28232 0
M  V30 2530 O 234.114 -5.99795 -0.502925 0
M  V30 2531 H 237.94 -2.94082 0.758268 0
M  V30 2532 H 235.525 -1.42888 0.436289 0
M  V30 2533 H 237.407 -3.94586 -1.47917 0
M  V30 2534 H 236.082 -2.76695 -1.67993 0
M  V30 2535 H 234.989 -3.71571 0.43427 0
M  V30 2536 H 236.322 -4.89097 0.551805 0
M  V30 2537 N 237.974 -0.419461 -1.51915 0
M  V30 2538 C 239.39 -0.0708431 -1.59443 0
M  V30 2539 C 239.59 1.41796 -1.43164 0
M  V30 2540 O 238.646 2.18596 -1.26381 0
M  V30 2541 C 239.959 -0.574991 -2.95151 0
M  V30 2542 C 241.507 -0.533867 -3.08413 0
M  V30 2543 C 241.982 -1.01469 -4.46618 0
M  V30 2544 N 243.473 -0.971939 -4.52888 0
M  V30 2545 C 244.208 -1.31505 -5.58116 0
M  V30 2546 N 243.704 -1.73014 -6.70849 0
M  V30 2547 N 245.497 -1.23436 -5.48379 0
M  V30 2548 H 237.648 -1.38836 -1.60743 0
M  V30 2549 H 239.911 -0.570998 -0.756747 0
M  V30 2550 H 239.617 -1.61597 -3.12377 0
M  V30 2551 H 239.491 0.00979777 -3.77199 0
M  V30 2552 H 241.878 0.498086 -2.90866 0
M  V30 2553 H 241.959 -1.15484 -2.28248 0
M  V30 2554 H 241.603 -2.04502 -4.6491 0
M  V30 2555 H 241.533 -0.370433 -5.25295 0
M  V30 2556 H 244.024 -0.666893 -3.71969 0
M  V30 2557 H 244.337 -1.97479 -7.47143 0
M  V30 2558 H 242.682 -1.76926 -6.72103 0
M  V30 2559 H 245.873 -0.908869 -4.59192 0
M  V30 2560 H 246.046 -1.50506 -6.30279 0
M  V30 2561 N 239.452 1.56882 -0.150215 0
M  V30 2562 C 240.7 1.9584 0.499105 0
M  V30 2563 C 241.021 1.03623 1.65188 0
M  V30 2564 O 240.291 0.0984084 1.95653 0
M  V30 2565 H 238.871 0.723119 0.187373 0
M  V30 2566 H 241.533 1.9358 -0.226466 0
M  V30 2567 H 240.629 2.99638 0.873122 0
M  V30 2568 N 240.93 -0.123565 1.57115 0
M  V30 2569 C 242.16 -0.845233 1.88519 0
M  V30 2570 C 242.568 -1.74168 0.739064 0
M  V30 2571 O 241.911 -1.81244 -0.299355 0
M  V30 2572 C 241.973 -1.73452 3.14888 0
M  V30 2573 C 241.637 -1.01285 4.45635 0
M  V30 2574 C 242.634 -0.355774 5.18681 0
M  V30 2575 C 240.319 -0.99538 4.92339 0
M  V30 2576 C 242.313 0.309114 6.3665 0
M  V30 2577 C 240 -0.32669 6.10226 0
M  V30 2578 C 240.998 0.324406 6.82229 0
M  V30 2579 O 240.686 0.982437 7.97874 0
M  V30 2580 H 240.418 -0.248534 0.628655 0
M  V30 2581 H 242.972 -0.113907 2.05084 0
M  V30 2582 H 241.202 -2.50737 2.94394 0
M  V30 2583 H 242.891 -2.33021 3.32349 0
M  V30 2584 H 243.657 -0.360918 4.83655 0
M  V30 2585 H 239.536 -1.49159 4.36202 0
M  V30 2586 H 243.08 0.8179 6.92789 0
M  V30 2587 H 238.977 -0.319294 6.4471 0
M  V30 2588 H 239.745 0.886454 8.13686 0
M  V30 2589 N 242.408 -1.52605 -0.393616 0
M  V30 2590 C 243.638 -1.71046 -1.15874 0
M  V30 2591 C 244.046 -0.426483 -1.84331 0
M  V30 2592 O 243.389 0.608513 -1.73329 0
M  V30 2593 C 243.451 -2.80118 -2.25332 0
M  V30 2594 C 243.115 -4.21381 -1.76881 0
M  V30 2595 C 244.112 -5.04697 -1.24808 0
M  V30 2596 C 241.797 -4.67683 -1.83244 0
M  V30 2597 C 243.791 -6.32393 -0.797387 0
M  V30 2598 C 241.478 -5.95364 -1.37787 0
M  V30 2599 C 242.476 -6.77549 -0.861208 0
M  V30 2600 O 242.164 -8.02837 -0.413252 0
M  V30 2601 H 241.896 -0.576155 -0.353583 0
M  V30 2602 H 244.45 -2.00018 -0.467123 0
M  V30 2603 H 242.68 -2.46557 -2.97904 0
M  V30 2604 H 244.369 -2.87006 -2.87023 0
M  V30 2605 H 245.135 -4.70111 -1.19252 0
M  V30 2606 H 241.014 -4.03805 -2.22401 0
M  V30 2607 H 244.558 -6.9649 -0.393437 0
M  V30 2608 H 240.455 -6.29455 -1.43026 0
M  V30 2609 H 241.223 -8.16749 -0.53515 0
M  V30 2610 N 243.887 0.651787 -1.4349 0
M  V30 2611 C 245.133 1.41376 -1.45398 0
M  V30 2612 C 245.466 1.94041 -0.0784823 0
M  V30 2613 O 244.741 1.72379 0.900878 0
M  V30 2614 C 245.024 2.59414 -2.49752 0
M  V30 2615 C 244.877 2.12232 -3.96582 0
M  V30 2616 C 246.196 3.61626 -2.50827 0
M  V30 2617 H 243.315 0.512719 -0.529422 0
M  V30 2618 H 245.957 0.738796 -1.75048 0
M  V30 2619 H 244.107 3.16997 -2.246 0
M  V30 2620 H 245.779 1.59639 -4.32797 0
M  V30 2621 H 244.022 1.43592 -4.09346 0
M  V30 2622 H 244.693 2.9712 -4.65214 0
M  V30 2623 H 247.169 3.13805 -2.7325 0
M  V30 2624 H 246.045 4.41766 -3.25783 0
M  V30 2625 H 246.306 4.14314 -1.5426 0
M  V30 2626 N 245.365 1.30045 0.890287 0
M  V30 2627 C 246.642 1.09227 1.62262 0
M  V30 2628 C 247.022 -0.360305 2.08002 0
M  V30 2629 O 246.37 -1.35084 1.84295 0
M  V30 2630 C 246.58 2.08835 2.79623 0
M  V30 2631 C 247.928 2.40266 3.50082 0
M  V30 2632 O 248.952 2.07104 2.89804 0
M  V30 2633 O 247.811 2.96967 4.58773 0
M  V30 2634 H 244.905 0.419132 0.712922 0
M  V30 2635 H 247.451 1.41451 0.937529 0
M  V30 2636 H 246.223 3.06633 2.43089 0
M  V30 2637 H 245.846 1.77397 3.55832 0
M  V30 2638 N 246.843 -1.10192 1.12674 0
M  V30 2639 C 248.089 -1.82475 0.884915 0
M  V30 2640 C 248.422 -1.85093 -0.58773 0
M  V30 2641 O 247.697 -1.3134 -1.43457 0
M  V30 2642 C 247.98 -3.29018 1.46353 0
M  V30 2643 C 247.833 -3.34718 3.00473 0
M  V30 2644 C 249.152 -4.25473 1.12519 0
M  V30 2645 H 246.271 -0.662492 0.322915 0
M  V30 2646 H 248.913 -1.2913 1.39375 0
M  V30 2647 H 247.063 -3.74576 1.03077 0
M  V30 2648 H 248.735 -2.97622 3.52447 0
M  V30 2649 H 246.978 -2.74541 3.35872 0
M  V30 2650 H 247.649 -4.37918 3.36053 0
M  V30 2651 H 250.125 -3.88161 1.499 0
M  V30 2652 H 249.001 -5.26365 1.55663 0
M  V30 2653 H 249.262 -4.42084 0.0377407 0
M  V30 2654 N 248.321 -0.919034 -1.28029 0
M  V30 2655 C 249.546 -0.570357 -1.99403 0
M  V30 2656 C 249.971 0.842486 -1.68178 0
M  V30 2657 O 249.329 1.56391 -0.917141 0
M  V30 2658 C 249.377 -0.792541 -3.51783 0
M  V30 2659 O 248.481 0.145988 -4.12142 0
M  V30 2660 H 247.822 -0.220555 -0.6263 0
M  V30 2661 H 250.352 -1.23592 -1.63053 0
M  V30 2662 H 250.362 -0.704708 -4.01868 0
M  V30 2663 H 249.037 -1.82247 -3.73844 0
M  V30 2664 H 247.614 0.00897528 -3.72899 0
M  V30 2665 N 249.799 1.42003 -0.683588 0
M  V30 2666 C 251.21 1.84501 -0.285736 0
M  V30 2667 C 251.561 1.57213 1.17382 0
M  V30 2668 O 250.686 1.03642 1.89966 0
M  V30 2669 C 251.281 3.34912 -0.511821 0
M  V30 2670 C 249.84 3.76025 -0.168005 0
M  V30 2671 C 248.987 2.6551 -0.799983 0
M  V30 2672 H 251.938 1.31724 -0.885119 0
M  V30 2673 H 251.959 3.79784 0.233292 0
M  V30 2674 H 251.471 3.54741 -1.57418 0
M  V30 2675 H 249.572 3.61801 0.890567 0
M  V30 2676 H 249.685 4.75141 -0.614661 0
M  V30 2677 H 248.049 2.53654 -0.230568 0
M  V30 2678 H 248.832 2.8816 -1.86597 0
M  V30 2679 N 251.277 0.427512 1.51691 0
M  V30 2680 C 252.554 -0.201684 1.94557 0
M  V30 2681 C 252.934 -1.60981 1.36559 0
M  V30 2682 O 252.282 -2.21814 0.548702 0
M  V30 2683 C 252.492 -0.189394 3.48486 0
M  V30 2684 C 253.84 -0.39978 4.22714 0
M  V30 2685 O 254.864 -0.267945 3.55191 0
M  V30 2686 O 253.723 -0.661249 5.42485 0
M  V30 2687 H 250.817 -0.135261 0.815864 0
M  V30 2688 H 253.363 0.484782 1.62628 0
M  V30 2689 H 252.135 0.795431 3.8313 0
M  V30 2690 H 251.758 -0.919187 3.86829 0
M  V30 2691 N 252.755 -1.56801 0.158532 0
M  V30 2692 C 254.003 -1.96102 -0.488712 0
M  V30 2693 C 254.324 -1.04498 -1.64636 0
M  V30 2694 O 253.594 -0.108783 -1.95598 0
M  V30 2695 H 252.174 -0.724102 -0.183535 0
M  V30 2696 H 254.836 -1.93457 0.236728 0
M  V30 2697 H 253.932 -3.00097 -0.857219 0
M  V30 2698 N 254.233 0.115231 -1.57178 0
M  V30 2699 C 255.479 0.818565 -1.86202 0
M  V30 2700 C 255.834 1.77316 -0.746785 0
M  V30 2701 O 255.127 1.89923 0.25291 0
M  V30 2702 C 255.321 1.60324 -3.19423 0
M  V30 2703 C 255.15 0.726138 -4.43799 0
M  V30 2704 C 253.92 0.379535 -5.03873 0
M  V30 2705 C 256.118 0.0420774 -5.14283 0
M  V30 2706 N 254.1 -0.507841 -6.11796 0
M  V30 2707 C 255.471 -0.704152 -6.15988 0
M  V30 2708 C 257.526 -0.0339486 -4.97888 0
M  V30 2709 C 256.229 -1.51927 -7.03072 0
M  V30 2710 C 258.255 -0.835906 -5.85463 0
M  V30 2711 C 257.617 -1.57031 -6.86673 0
M  V30 2712 H 253.716 0.276343 -0.731545 0
M  V30 2713 H 256.3 0.0821032 -1.94527 0
M  V30 2714 H 254.471 2.31072 -3.12186 0
M  V30 2715 H 256.203 2.2522 -3.36241 0
M  V30 2716 H 252.958 0.722634 -4.68054 0
M  V30 2717 H 253.382 -0.94349 -6.70393 0
M  V30 2718 H 258.024 0.519496 -4.19596 0
M  V30 2719 H 255.742 -2.08386 -7.80769 0
M  V30 2720 H 259.328 -0.89714 -5.74841 0
M  V30 2721 H 258.208 -2.18088 -7.53264 0
M  V30 2722 N 255.711 1.52812 0.385517 0
M  V30 2723 C 256.958 1.68026 1.1302 0
M  V30 2724 C 257.286 0.421934 1.89868 0
M  V30 2725 O 256.541 -0.595749 1.86412 0
M  V30 2726 C 256.84 2.86856 2.13187 0
M  V30 2727 C 256.506 4.24159 1.5297 0
M  V30 2728 C 255.168 4.61501 1.36274 0
M  V30 2729 C 257.52 5.09627 1.09223 0
M  V30 2730 C 254.848 5.81966 0.743837 0
M  V30 2731 C 257.2 6.30719 0.487411 0
M  V30 2732 C 255.864 6.6679 0.307777 0
M  V30 2733 H 255.134 0.614849 0.413571 0
M  V30 2734 H 257.781 1.86962 0.414405 0
M  V30 2735 H 256.086 2.6235 2.90998 0
M  V30 2736 H 257.783 2.95821 2.70722 0
M  V30 2737 H 254.373 3.94746 1.66954 0
M  V30 2738 H 258.557 4.81343 1.20922 0
M  V30 2739 H 253.813 6.08519 0.592891 0
M  V30 2740 H 257.987 6.96259 0.140143 0
M  V30 2741 H 255.614 7.60001 -0.173879 0
M  V30 2742 N 257.189 -0.644168 1.43834 0
M  V30 2743 C 258.136 -1.75671 1.49694 0
M  V30 2744 C 259.106 -1.6246 0.345809 0
M  V30 2745 O 260.291 -1.82573 0.554234 0
M  V30 2746 C 257.431 -3.13867 1.43463 0
M  V30 2747 C 256.544 -3.38147 2.6885 0
M  V30 2748 C 255.679 -4.66241 2.54544 0
M  V30 2749 C 254.718 -4.83657 3.75157 0
M  V30 2750 N 253.855 -6.03016 3.59605 0
M  V30 2751 H 258.695 -1.69998 2.44754 0
M  V30 2752 H 256.232 -0.829458 1.21484 0
M  V30 2753 H 258.19 -3.9377 1.37843 0
M  V30 2754 H 256.82 -3.18588 0.519783 0
M  V30 2755 H 255.872 -2.52276 2.84712 0
M  V30 2756 H 257.184 -3.46899 3.58417 0
M  V30 2757 H 256.338 -5.54285 2.46683 0
M  V30 2758 H 255.077 -4.59826 1.62516 0
M  V30 2759 H 254.082 -3.94046 3.83416 0
M  V30 2760 H 255.307 -4.91896 4.68204 0
M  V30 2761 H 253.253 -5.97715 2.7032 0
M  V30 2762 H 253.17 -6.12766 4.42779 0
M  V30 2763 H 254.438 -6.93657 3.55613 0
M  V30 2764 N 258.668 -1.30515 -0.883378 0
M  V30 2765 C 259.914 -1.19607 -1.63774 0
M  V30 2766 C 260.247 0.248314 -1.92606 0
M  V30 2767 O 259.522 1.17742 -1.54813 0
M  V30 2768 C 259.805 -2.02669 -2.97653 0
M  V30 2769 C 259.658 -3.55335 -2.75784 0
M  V30 2770 C 260.977 -1.86573 -3.98596 0
M  V30 2771 H 258.096 -0.435856 -0.594305 0
M  V30 2772 H 260.738 -1.60165 -1.02212 0
M  V30 2773 H 258.888 -1.68208 -3.50197 0
M  V30 2774 H 260.56 -3.99863 -2.30016 0
M  V30 2775 H 258.803 -3.79438 -2.1026 0
M  V30 2776 H 259.474 -4.08745 -3.70988 0
M  V30 2777 H 261.95 -2.16703 -3.55217 0
M  V30 2778 H 260.826 -2.47014 -4.90179 0
M  V30 2779 H 261.087 -0.825321 -4.34328 0
M  V30 2780 N 260.146 1.09593 -1.13257 0
M  V30 2781 C 261.557 1.63229 -0.906274 0
M  V30 2782 C 261.908 1.8811 0.557578 0
M  V30 2783 O 261.033 1.62953 1.42391 0
M  V30 2784 C 261.628 2.96535 -1.63867 0
M  V30 2785 C 260.187 3.47003 -1.45828 0
M  V30 2786 C 259.334 2.2145 -1.66898 0
M  V30 2787 H 262.285 0.92978 -1.28611 0
M  V30 2788 H 262.306 3.64411 -1.09476 0
M  V30 2789 H 261.818 2.78394 -2.70404 0
M  V30 2790 H 259.919 3.70272 -0.415848 0
M  V30 2791 H 260.032 4.24551 -2.2202 0
M  V30 2792 H 258.396 2.30022 -1.09371 0
M  V30 2793 H 259.179 2.0583 -2.74752 0
M  V30 2794 N 261.624 0.925811 1.2754 0
M  V30 2795 C 262.87 0.566092 1.94739 0
M  V30 2796 C 263.203 -0.890057 1.72603 0
M  V30 2797 O 262.478 -1.63467 1.05399 0
M  V30 2798 C 262.761 0.89054 3.48915 0
M  V30 2799 C 262.614 2.4003 3.80402 0
M  V30 2800 C 263.933 0.395101 4.38323 0
M  V30 2801 H 261.052 0.20714 0.707292 0
M  V30 2802 H 263.694 1.15725 1.50691 0
M  V30 2803 H 261.844 0.387452 3.86563 0
M  V30 2804 H 263.516 2.97494 3.52555 0
M  V30 2805 H 261.759 2.85028 3.2702 0
M  V30 2806 H 262.43 2.57785 4.8811 0
M  V30 2807 H 264.906 0.826241 4.07814 0
M  V30 2808 H 263.782 0.651086 5.45025 0
M  V30 2809 H 264.043 -0.704798 4.36446 0
M  V30 2810 N 263.102 -1.41638 0.69111 0
M  V30 2811 C 264.349 -2.01299 0.220193 0
M  V30 2812 C 264.677 -1.54715 -1.17871 0
M  V30 2813 O 263.932 -0.747193 -1.80874 0
M  V30 2814 C 264.231 -3.56714 0.221277 0
M  V30 2815 C 263.897 -4.22792 1.56709 0
M  V30 2816 C 262.559 -4.40557 1.93554 0
M  V30 2817 C 264.911 -4.59883 2.45268 0
M  V30 2818 C 262.239 -4.92688 3.18552 0
M  V30 2819 C 264.591 -5.13403 3.69595 0
M  V30 2820 C 263.255 -5.29379 4.06589 0
M  V30 2821 H 262.525 -0.736606 0.0805743 0
M  V30 2822 H 265.172 -1.69598 0.889319 0
M  V30 2823 H 263.477 -3.8818 -0.531391 0
M  V30 2824 H 265.174 -4.00678 -0.160547 0
M  V30 2825 H 261.764 -4.09336 1.2705 0
M  V30 2826 H 265.948 -4.45817 2.18084 0
M  V30 2827 H 261.204 -5.03242 3.47214 0
M  V30 2828 H 265.378 -5.41084 4.38407 0
M  V30 2829 H 263.005 -5.69537 5.03519 0
M  V30 2830 N 264.58 -0.43555 -1.51462 0
M  V30 2831 C 265.808 0.130242 -2.0649 0
M  V30 2832 C 266.223 1.36614 -1.30315 0
M  V30 2833 O 265.58 1.78869 -0.362223 0
M  V30 2834 C 265.631 0.454253 -3.58635 0
M  V30 2835 O 265.352 -0.73259 -4.31931 0
M  V30 2836 C 266.853 1.07091 -4.3017 0
M  V30 2837 H 264.073 0.00871669 -0.670943 0
M  V30 2838 H 266.617 -0.614117 -1.95061 0
M  V30 2839 H 264.772 1.14851 -3.69984 0
M  V30 2840 H 265.186 -0.455787 -5.22516 0
M  V30 2841 H 266.66 1.24764 -5.37716 0
M  V30 2842 H 267.137 2.05144 -3.88346 0
M  V30 2843 H 267.743 0.416089 -4.2326 0
M  V30 2844 N 266.058 1.56714 -0.166846 0
M  V30 2845 C 267.335 1.88412 0.525373 0
M  V30 2846 C 267.715 1.07602 1.81618 0
M  V30 2847 O 267.063 0.168621 2.27877 0
M  V30 2848 C 267.273 3.40363 0.771613 0
M  V30 2849 C 268.621 4.10007 1.1036 0
M  V30 2850 O 269.645 3.45655 0.860304 0
M  V30 2851 O 268.504 5.2369 1.56239 0
M  V30 2852 H 265.598 0.781587 0.270278 0
M  V30 2853 H 268.144 1.68458 -0.204946 0
M  V30 2854 H 266.916 3.91046 -0.141093 0
M  V30 2855 H 266.539 3.65914 1.55541 0
M  V30 2856 N 267.536 -0.106894 1.57237 0
M  V30 2857 C 268.466 -1.13148 2.04254 0
M  V30 2858 C 269.447 -1.42476 0.929224 0
M  V30 2859 O 270.632 -1.52709 1.19973 0
M  V30 2860 C 267.762 -2.4545 2.45706 0
M  V30 2861 C 266.716 -2.30558 3.60592 0
M  V30 2862 C 266.042 -3.67931 3.87983 0
M  V30 2863 C 267.342 -1.75597 4.91897 0
M  V30 2864 H 269.036 -0.740374 2.90101 0
M  V30 2865 H 266.582 -0.354696 1.39563 0
M  V30 2866 H 268.535 -3.17389 2.77205 0
M  V30 2867 H 267.259 -2.86475 1.56843 0
M  V30 2868 H 265.918 -1.61067 3.29322 0
M  V30 2869 H 265.566 -4.06462 2.96306 0
M  V30 2870 H 265.266 -3.58817 4.65322 0
M  V30 2871 H 266.79 -4.41356 4.21945 0
M  V30 2872 H 268.204 -2.37364 5.21854 0
M  V30 2873 H 266.601 -1.77272 5.73319 0
M  V30 2874 H 267.671 -0.714451 4.79608 0
M  V30 2875 N 269.014 -1.53014 -0.377408 0
M  V30 2876 C 270.262 -1.6829 -1.11906 0
M  V30 2877 C 270.583 -0.431206 -1.90173 0
M  V30 2878 O 269.853 0.554595 -1.87886 0
M  V30 2879 H 268.433 -0.620371 -0.416112 0
M  V30 2880 H 271.095 -1.90167 -0.426893 0
M  V30 2881 H 270.191 -2.53862 -1.8155 0
M  V30 2882 N 270.492 0.636531 -1.44174 0
M  V30 2883 C 271.738 1.39649 -1.47884 0
M  V30 2884 C 272.093 1.92098 -0.107747 0
M  V30 2885 O 271.386 1.70391 0.876208 0
M  V30 2886 C 271.58 2.58309 -2.47005 0
M  V30 2887 C 271.409 2.17476 -3.93617 0
M  V30 2888 C 270.179 2.0501 -4.61843 0
M  V30 2889 C 272.377 1.76722 -4.82984 0
M  V30 2890 N 270.359 1.57683 -5.93304 0
M  V30 2891 C 271.73 1.40601 -6.03847 0
M  V30 2892 C 273.785 1.64054 -4.70096 0
M  V30 2893 C 272.488 0.930787 -7.13252 0
M  V30 2894 C 274.514 1.17937 -5.79521 0
M  V30 2895 C 273.876 0.827625 -6.99521 0
M  V30 2896 H 269.975 0.506027 -0.596205 0
M  V30 2897 H 272.559 0.730791 -1.80465 0
M  V30 2898 H 270.73 3.22514 -2.16423 0
M  V30 2899 H 272.462 3.25083 -2.41045 0
M  V30 2900 H 269.217 2.25294 -4.16581 0
M  V30 2901 H 269.641 1.36334 -6.63131 0
M  V30 2902 H 274.283 1.89882 -3.77762 0
M  V30 2903 H 272.001 0.660012 -8.054 0
M  V30 2904 H 275.587 1.08601 -5.71574 0
M  V30 2905 H 274.467 0.476231 -7.82753 0
M  V30 2906 N 271.97 1.30982 0.876444 0
M  V30 2907 C 273.216 1.20474 1.63138 0
M  V30 2908 C 273.549 -0.238096 1.92735 0
M  V30 2909 O 272.824 -1.1692 1.55435 0
M  V30 2910 C 273.107 2.04244 2.96574 0
M  V30 2911 C 272.96 3.56793 2.73896 0
M  V30 2912 C 274.279 1.88684 3.97601 0
M  V30 2913 H 271.398 0.439001 0.591985 0
M  V30 2914 H 274.04 1.60704 1.01361 0
M  V30 2915 H 272.19 1.70063 3.493 0
M  V30 2916 H 273.862 4.01077 2.27892 0
M  V30 2917 H 272.105 3.80548 2.08245 0
M  V30 2918 H 272.776 4.10706 3.68815 0
M  V30 2919 H 275.252 2.18584 3.54062 0
M  V30 2920 H 274.128 2.4961 4.88862 0
M  V30 2921 H 274.389 0.848343 4.33884 0
M  V30 2922 N 273.449 -1.08991 1.13837 0
M  V30 2923 C 274.865 -1.33312 0.877506 0
M  V30 2924 C 275.065 -1.95587 -0.48456 0
M  V30 2925 O 274.121 -2.20509 -1.23013 0
M  V30 2926 C 275.434 -2.24045 2.0056 0
M  V30 2927 C 276.982 -2.37542 2.03821 0
M  V30 2928 C 277.457 -3.31614 3.15905 0
M  V30 2929 N 278.948 -3.39189 3.15445 0
M  V30 2930 C 279.683 -4.11992 3.98811 0
M  V30 2931 N 279.179 -4.87553 4.92203 0
M  V30 2932 N 280.972 -4.07762 3.86894 0
M  V30 2933 H 273.123 -0.669456 2.01574 0
M  V30 2934 H 275.386 -0.357482 0.878015 0
M  V30 2935 H 275.092 -1.85521 2.98789 0
M  V30 2936 H 274.966 -3.24466 1.92359 0
M  V30 2937 H 277.353 -2.75327 1.06202 0
M  V30 2938 H 277.434 -1.36884 2.16093 0
M  V30 2939 H 277.078 -2.94551 4.13766 0
M  V30 2940 H 277.008 -4.32186 3.0087 0
M  V30 2941 H 279.499 -2.85314 2.47799 0
M  V30 2942 H 279.812 -5.40549 5.52292 0
M  V30 2943 H 278.157 -4.86627 4.96205 0
M  V30 2944 H 281.348 -3.47833 3.13257 0
M  V30 2945 H 281.521 -4.64238 4.52092 0
M  V30 2946 N 274.927 -0.932562 -1.27047 0
M  V30 2947 C 275.874 -0.434072 -2.26681 0
M  V30 2948 C 276.844 0.501639 -1.58344 0
M  V30 2949 O 278.029 0.419734 -1.86126 0
M  V30 2950 C 275.169 0.30261 -3.43771 0
M  V30 2951 C 274.282 -0.667774 -4.26808 0
M  V30 2952 C 273.417 0.0892393 -5.31125 0
M  V30 2953 C 272.456 -0.873532 -6.05835 0
M  V30 2954 N 271.593 -0.148832 -7.01942 0
M  V30 2955 H 276.433 -1.28868 -2.68695 0
M  V30 2956 H 273.97 -0.646713 -1.32121 0
M  V30 2957 H 275.928 0.746092 -4.10474 0
M  V30 2958 H 274.558 1.12142 -3.02695 0
M  V30 2959 H 273.61 -1.22978 -3.59973 0
M  V30 2960 H 274.922 -1.40337 -4.78651 0
M  V30 2961 H 274.076 0.592409 -6.03801 0
M  V30 2962 H 272.815 0.85777 -4.80097 0
M  V30 2963 H 271.82 -1.38791 -5.31994 0
M  V30 2964 H 273.045 -1.64193 -6.58952 0
M  V30 2965 H 270.991 0.601365 -6.53238 0
M  V30 2966 H 270.908 -0.82391 -7.51497 0
M  V30 2967 H 272.176 0.333527 -7.78786 0
M  V30 2968 N 276.405 1.4127 -0.698611 0
M  V30 2969 C 277.338 2.28195 0.0153898 0
M  V30 2970 C 278.316 1.42402 0.784883 0
M  V30 2971 O 279.5 1.71828 0.775067 0
M  V30 2972 C 276.627 3.22685 1.02918 0
M  V30 2973 C 275.673 4.25041 0.352501 0
M  V30 2974 S 276.506 5.27757 -0.907322 0
M  V30 2975 C 277.662 6.25812 0.104796 0
M  V30 2976 H 277.895 2.88403 -0.721858 0
M  V30 2977 H 275.428 1.46452 -0.488996 0
M  V30 2978 H 277.386 3.77655 1.60893 0
M  V30 2979 H 276.047 2.61566 1.73902 0
M  V30 2980 H 275.24 4.91437 1.11828 0
M  V30 2981 H 274.842 3.73682 -0.154254 0
M  V30 2982 H 277.134 6.70705 0.957103 0
M  V30 2983 H 278.077 7.06149 -0.525323 0
M  V30 2984 H 278.485 5.62615 0.460931 0
M  V30 2985 N 277.883 0.443576 1.51229 0
M  V30 2986 C 278.813 -0.355142 2.30783 0
M  V30 2987 C 279.794 -1.0154 1.36468 0
M  V30 2988 O 280.979 -1.01785 1.65389 0
M  V30 2989 C 278.109 -1.45312 3.15439 0
M  V30 2990 C 277.063 -0.916002 4.18083 0
M  V30 2991 C 276.389 -2.1102 4.91299 0
M  V30 2992 C 277.689 0.0538602 5.22272 0
M  V30 2993 H 279.383 0.308767 2.97804 0
M  V30 2994 H 276.929 0.149937 1.43217 0
M  V30 2995 H 278.882 -2.01914 3.69876 0
M  V30 2996 H 277.606 -2.14541 2.46252 0
M  V30 2997 H 276.265 -0.372145 3.64706 0
M  V30 2998 H 275.913 -2.78882 4.18609 0
M  V30 2999 H 275.613 -1.75717 5.60712 0
M  V30 3000 H 277.137 -2.68164 5.48562 0
M  V30 3001 H 278.551 -0.422069 5.71744 0
M  V30 3002 H 276.948 0.319776 5.99247 0
M  V30 3003 H 278.018 0.98858 4.74716 0
M  V30 3004 N 279.361 -1.56624 0.175154 0
M  V30 3005 C 280.61 -1.96173 -0.468921 0
M  V30 3006 C 280.923 -1.06401 -1.64128 0
M  V30 3007 O 282.129 -1.35648 -2.35185 0
M  V30 3008 C 280.585 -3.48833 -0.885633 0
M  V30 3009 C 280.193 -4.47237 0.261343 0
M  V30 3010 C 281.937 -3.97194 -1.49791 0
M  V30 3011 C 279.844 -5.9114 -0.175214 0
M  V30 3012 H 278.774 -0.732455 -0.178958 0
M  V30 3013 H 281.425 -1.81591 0.263997 0
M  V30 3014 H 279.807 -3.58848 -1.67464 0
M  V30 3015 H 280.981 -4.4894 1.03871 0
M  V30 3016 H 279.296 -4.08956 0.783827 0
M  V30 3017 H 281.893 -5.02167 -1.83665 0
M  V30 3018 H 282.236 -3.40351 -2.39722 0
M  V30 3019 H 282.769 -3.90212 -0.773267 0
M  V30 3020 H 279.508 -6.51865 0.689414 0
M  V30 3021 H 279.028 -5.92735 -0.91786 0
M  V30 3022 H 280.707 -6.44044 -0.617792 0
M  V30 3023 N 280.839 0.0985539 -1.57292 0
M  V30 3024 C 282.069 0.815135 -1.8984 0
M  V30 3025 C 282.477 1.7297 -0.766679 0
M  V30 3026 O 281.82 1.81698 0.270483 0
M  V30 3027 C 281.882 1.6842 -3.17608 0
M  V30 3028 C 281.546 0.94182 -4.4719 0
M  V30 3029 C 282.543 0.273212 -5.19182 0
M  V30 3030 C 280.228 0.916927 -4.9386 0
M  V30 3031 C 282.222 -0.410361 -6.36078 0
M  V30 3032 C 279.909 0.229567 -6.10669 0
M  V30 3033 C 280.907 -0.432902 -6.81627 0
M  V30 3034 O 280.595 -1.10925 -7.9621 0
M  V30 3035 H 280.327 0.238501 -0.632529 0
M  V30 3036 H 282.881 0.0812659 -2.05239 0
M  V30 3037 H 281.111 2.46022 -2.98345 0
M  V30 3038 H 282.8 2.27704 -3.36015 0
M  V30 3039 H 283.566 0.283927 -4.84168 0
M  V30 3040 H 279.445 1.42201 -4.3852 0
M  V30 3041 H 282.989 -0.928013 -6.914 0
M  V30 3042 H 278.886 0.216686 -6.45136 0
M  V30 3043 H 279.654 -1.01579 -8.12172 0
M  V30 3044 N 282.317 1.53212 0.369288 0
M  V30 3045 C 283.564 1.69215 1.11232 0
M  V30 3046 C 283.892 0.442048 1.8941 0
M  V30 3047 O 283.147 -0.575944 1.87033 0
M  V30 3048 C 283.446 2.89101 2.10132 0
M  V30 3049 C 283.112 4.25758 1.48463 0
M  V30 3050 C 281.774 4.6292 1.31372 0
M  V30 3051 C 284.126 5.10757 1.03811 0
M  V30 3052 C 281.454 5.82722 0.68207 0
M  V30 3053 C 283.806 6.31201 0.420487 0
M  V30 3054 C 282.47 6.67079 0.237038 0
M  V30 3055 H 281.74 0.619201 0.407027 0
M  V30 3056 H 284.387 1.87391 0.394552 0
M  V30 3057 H 282.692 2.65421 2.88199 0
M  V30 3058 H 284.389 2.98676 2.6757 0
M  V30 3059 H 280.979 3.96494 1.62758 0
M  V30 3060 H 285.163 4.82599 1.1581 0
M  V30 3061 H 280.419 6.09113 0.528316 0
M  V30 3062 H 284.593 6.96368 0.0662874 0
M  V30 3063 H 282.22 7.59774 -0.254477 0
M  V30 3064 N 283.795 -0.628877 1.44509 0
M  V30 3065 C 285.206 -1.21054 1.42137 0
M  V30 3066 C 285.557 -1.95715 0.137881 0
M  V30 3067 O 284.682 -2.02554 -0.761645 0
M  V30 3068 C 285.277 -2.20189 2.57493 0
M  V30 3069 C 283.836 -2.73777 2.58308 0
M  V30 3070 C 282.983 -1.48813 2.33987 0
M  V30 3071 H 285.934 -0.41942 1.53057 0
M  V30 3072 H 285.955 -3.02833 2.30375 0
M  V30 3073 H 285.467 -1.6582 3.50892 0
M  V30 3074 H 283.568 -3.32142 1.68856 0
M  V30 3075 H 283.681 -3.19662 3.56865 0
M  V30 3076 H 282.045 -1.77024 1.83124 0
M  V30 3077 H 282.828 -0.963442 3.29504 0
M  V30 3078 N 285.273 -1.31445 -0.869486 0
M  V30 3079 C 286.52 -1.21158 -1.62256 0
M  V30 3080 C 286.848 0.230155 -1.93133 0
M  V30 3081 O 286.103 1.17906 -1.56194 0
M  V30 3082 C 286.402 -2.00145 -2.96102 0
M  V30 3083 C 286.068 -3.4964 -2.84715 0
M  V30 3084 C 284.73 -3.90403 -2.81317 0
M  V30 3085 C 287.082 -4.44769 -2.71716 0
M  V30 3086 C 284.41 -5.24561 -2.62778 0
M  V30 3087 C 286.762 -5.79054 -2.54714 0
M  V30 3088 C 285.426 -6.19037 -2.49699 0
M  V30 3089 H 284.696 -0.443348 -0.593737 0
M  V30 3090 H 287.343 -1.62715 -1.00976 0
M  V30 3091 H 285.648 -1.5127 -3.6142 0
M  V30 3092 H 287.345 -1.89566 -3.53363 0
M  V30 3093 H 283.935 -3.17256 -2.88178 0
M  V30 3094 H 288.119 -4.14208 -2.73397 0
M  V30 3095 H 283.375 -5.54613 -2.57321 0
M  V30 3096 H 287.549 -6.52393 -2.43632 0
M  V30 3097 H 285.176 -7.22935 -2.35093 0
M  V30 3098 N 286.751 1.08385 -1.14413 0
M  V30 3099 C 288.028 1.77429 -0.823297 0
M  V30 3100 C 288.408 1.9974 0.683163 0
M  V30 3101 O 287.756 1.60739 1.62405 0
M  V30 3102 C 287.966 3.09004 -1.62227 0
M  V30 3103 C 289.314 3.83532 -1.82177 0
M  V30 3104 O 290.338 3.18786 -1.58915 0
M  V30 3105 O 289.197 4.99792 -2.21067 0
M  V30 3106 H 286.291 0.769999 -0.301712 0
M  V30 3107 H 288.837 1.14846 -1.24934 0
M  V30 3108 H 287.609 2.88316 -2.64555 0
M  V30 3109 H 287.232 3.79316 -1.19187 0
M  V30 3110 N 288.23 0.939286 1.26551 0
M  V30 3111 C 289.14 0.453432 2.30176 0
M  V30 3112 C 290.156 -0.471649 1.67486 0
M  V30 3113 O 291.332 -0.35164 1.98306 0
M  V30 3114 C 288.397 -0.275326 3.45605 0
M  V30 3115 C 287.458 0.686084 4.23782 0
M  V30 3116 C 286.691 -0.00798994 5.33699 0
M  V30 3117 O 286.914 -1.22528 5.57085 0
M  V30 3118 O 285.848 0.669746 5.98162 0
M  V30 3119 H 289.674 1.31416 2.73795 0
M  V30 3120 H 287.259 0.705095 1.31715 0
M  V30 3121 H 289.141 -0.685911 4.1578 0
M  V30 3122 H 287.816 -1.11147 3.0402 0
M  V30 3123 H 286.723 1.14658 3.56096 0
M  V30 3124 H 288.056 1.48979 4.69112 0
M  V30 3125 N 289.708 -1.40897 0.706093 0
M  V30 3126 C 290.956 -2.00657 0.241054 0
M  V30 3127 C 291.277 -1.56241 -1.16678 0
M  V30 3128 O 290.547 -0.79765 -1.78926 0
M  V30 3129 H 289.127 -0.742018 0.0861308 0
M  V30 3130 H 291.789 -1.72372 0.909604 0
M  V30 3131 H 290.885 -3.10958 0.266705 0
M  V30 3132 N 291.186 -0.45159 -1.50991 0
M  V30 3133 C 292.118 0.388634 -2.25881 0
M  V30 3134 C 293.131 0.974041 -1.30446 0
M  V30 3135 O 294.32 0.865758 -1.56099 0
M  V30 3136 C 291.42 1.5571 -3.01011 0
M  V30 3137 C 290.593 1.08801 -4.23652 0
M  V30 3138 C 289.652 2.12825 -4.8124 0
M  V30 3139 O 288.678 1.71678 -5.42693 0
M  V30 3140 N 289.88 3.45453 -4.66522 0
M  V30 3141 H 292.645 -0.25329 -2.98628 0
M  V30 3142 H 290.206 -0.281268 -1.59438 0
M  V30 3143 H 292.198 2.24952 -3.3642 0
M  V30 3144 H 290.768 2.10409 -2.31186 0
M  V30 3145 H 289.988 0.22215 -3.93574 0
M  V30 3146 H 291.276 0.752213 -5.03209 0
M  V30 3147 H 290.674 3.81605 -4.17605 0
M  V30 3148 H 289.231 4.10549 -5.06254 0
M  V30 3149 N 292.664 1.56529 -0.183458 0
M  V30 3150 C 294.075 1.83739 0.331177 0
M  V30 3151 C 294.426 1.10373 1.62211 0
M  V30 3152 O 293.551 0.36071 2.13373 0
M  V30 3153 C 294.146 3.33306 0.607646 0
M  V30 3154 C 292.705 3.60969 1.06668 0
M  V30 3155 C 291.852 2.77086 0.109029 0
M  V30 3156 H 294.803 1.53379 -0.407484 0
M  V30 3157 H 294.824 3.51444 1.45832 0
M  V30 3158 H 294.336 3.86677 -0.332086 0
M  V30 3159 H 292.437 3.13021 2.0211 0
M  V30 3160 H 292.55 4.69231 0.967447 0
M  V30 3161 H 290.914 2.47319 0.608714 0
M  V30 3162 H 291.697 3.33241 -0.82494 0
M  V30 3163 N 294.142 -0.090211 1.57342 0
M  V30 3164 C 295.105 -1.09335 2.01441 0
M  V30 3165 C 296.105 -1.32666 0.908641 0
M  V30 3166 O 297.295 -1.28697 1.174 0
M  V30 3167 C 294.427 -2.44136 2.3793 0
M  V30 3168 H 295.62 -0.713662 2.91285 0
M  V30 3169 H 293.173 -0.335404 1.52659 0
M  V30 3170 H 293.908 -2.86972 1.51055 0
M  V30 3171 H 293.693 -2.28548 3.18603 0
M  V30 3172 H 295.183 -3.16277 2.72688 0
M  V30 3173 N 295.62 -1.53406 -0.361157 0
M  V30 3174 C 296.845 -1.74024 -1.12829 0
M  V30 3175 C 297.27 -0.470069 -1.82132 0
M  V30 3176 O 296.628 0.57619 -1.719 0
M  V30 3177 C 296.676 -2.90903 -2.13091 0
M  V30 3178 O 295.78 -2.59821 -3.20261 0
M  V30 3179 H 295.121 -0.577804 -0.327168 0
M  V30 3180 H 297.651 -2.00307 -0.41693 0
M  V30 3181 H 297.661 -3.17194 -2.56616 0
M  V30 3182 H 296.336 -3.83034 -1.62042 0
M  V30 3183 H 294.913 -2.44362 -2.81677 0
M  V30 3184 N 297.098 0.621204 -1.44841 0
M  V30 3185 C 298.344 1.38073 -1.49357 0
M  V30 3186 C 298.699 1.91973 -0.128115 0
M  V30 3187 O 297.992 1.71311 0.858087 0
M  V30 3188 C 298.186 2.55675 -2.4973 0
M  V30 3189 C 298.015 2.13289 -3.95901 0
M  V30 3190 C 296.785 2.001 -4.63991 0
M  V30 3191 C 298.983 1.7159 -4.84831 0
M  V30 3192 N 296.965 1.51381 -5.94943 0
M  V30 3193 C 298.336 1.34188 -6.05304 0
M  V30 3194 C 300.391 1.59059 -4.7181 0
M  V30 3195 C 299.094 0.855085 -7.14199 0
M  V30 3196 C 301.12 1.11784 -5.8074 0
M  V30 3197 C 300.482 0.753385 -7.0036 0
M  V30 3198 H 296.581 0.499675 -0.601539 0
M  V30 3199 H 299.165 0.711609 -1.8123 0
M  V30 3200 H 297.336 3.20201 -2.19832 0
M  V30 3201 H 299.068 3.22509 -2.4448 0
M  V30 3202 H 295.823 2.20863 -4.18947 0
M  V30 3203 H 296.247 1.29293 -6.64539 0
M  V30 3204 H 300.889 1.85865 -3.79755 0
M  V30 3205 H 298.607 0.574552 -8.06055 0
M  V30 3206 H 302.193 1.02533 -5.72694 0
M  V30 3207 H 301.073 0.393183 -7.83214 0
M  V30 3208 N 298.576 1.31904 0.862503 0
M  V30 3209 C 299.486 1.22161 2.00285 0
M  V30 3210 C 300.502 0.136785 1.73462 0
M  V30 3211 O 301.678 0.355994 1.98229 0
M  V30 3212 C 298.743 0.937093 3.33796 0
M  V30 3213 C 297.804 2.10957 3.73893 0
M  V30 3214 C 297.037 1.83853 5.01033 0
M  V30 3215 O 297.26 0.777274 5.65079 0
M  V30 3216 O 296.194 2.69741 5.38074 0
M  V30 3217 H 300.02 2.18008 2.11439 0
M  V30 3218 H 297.605 1.11716 0.991957 0
M  V30 3219 H 299.487 0.794583 4.13841 0
M  V30 3220 H 298.162 0.00871894 3.23699 0
M  V30 3221 H 297.069 2.30752 2.94456 0
M  V30 3222 H 298.402 3.02046 3.88625 0
M  V30 3223 N 300.054 -1.07777 1.14986 0
M  V30 3224 C 301.465 -1.61766 0.932127 0
M  V30 3225 C 301.816 -1.88974 -0.527581 0
M  V30 3226 O 300.941 -1.65198 -1.39781 0
M  V30 3227 C 301.536 -2.93891 1.68563 0
M  V30 3228 C 300.095 -3.44639 1.5133 0
M  V30 3229 C 299.242 -2.18767 1.704 0
M  V30 3230 H 302.193 -0.909201 1.30074 0
M  V30 3231 H 302.214 -3.62623 1.15259 0
M  V30 3232 H 301.726 -2.74057 2.74799 0
M  V30 3233 H 299.827 -3.69564 0.474702 0
M  V30 3234 H 299.94 -4.20966 2.28746 0
M  V30 3235 H 298.304 -2.28253 1.13016 0
M  V30 3236 H 299.087 -2.01433 2.77992 0
M  V30 3237 N 301.532 -0.945985 -1.26051 0
M  V30 3238 C 302.948 -0.649045 -1.45807 0
M  V30 3239 C 303.148 0.796158 -1.85104 0
M  V30 3240 O 302.204 1.57233 -1.97571 0
M  V30 3241 C 303.517 -1.61458 -2.53677 0
M  V30 3242 C 305.065 -1.62481 -2.67524 0
M  V30 3243 C 305.54 -2.57776 -3.7857 0
M  V30 3244 N 307.031 -2.5609 -3.85969 0
M  V30 3245 C 307.766 -3.26508 -4.7136 0
M  V30 3246 N 307.262 -4.0637 -5.61102 0
M  V30 3247 N 309.055 -3.15437 -4.65248 0
M  V30 3248 H 301.206 -1.88005 -0.988328 0
M  V30 3249 H 303.469 -0.808198 -0.4955 0
M  V30 3250 H 303.175 -2.64644 -2.31638 0
M  V30 3251 H 303.049 -1.37036 -3.51427 0
M  V30 3252 H 305.436 -0.600167 -2.88933 0
M  V30 3253 H 305.517 -1.90958 -1.70202 0
M  V30 3254 H 305.161 -3.60361 -3.57913 0
M  V30 3255 H 305.091 -2.26587 -4.75359 0
M  V30 3256 H 307.582 -1.98105 -3.21812 0
M  V30 3257 H 307.895 -4.57042 -6.23164 0
M  V30 3258 H 306.24 -4.10469 -5.60839 0
M  V30 3259 H 309.431 -2.52525 -3.94143 0
M  V30 3260 H 309.604 -3.70584 -5.31575 0
M  V30 3261 N 303.011 1.40521 -0.713556 0
M  V30 3262 C 304.26 2.00155 -0.249192 0
M  V30 3263 C 304.573 1.57224 1.16362 0
M  V30 3264 O 305.779 2.09542 1.72639 0
M  V30 3265 C 304.235 3.5773 -0.3946 0
M  V30 3266 C 303.843 4.09635 -1.81392 0
M  V30 3267 C 305.587 4.24499 0.00907364 0
M  V30 3268 C 303.494 5.59707 -1.91003 0
M  V30 3269 H 302.424 0.74868 -0.0894114 0
M  V30 3270 H 305.075 1.60784 -0.884352 0
M  V30 3271 H 303.457 3.94792 0.30911 0
M  V30 3272 H 304.631 3.83955 -2.54785 0
M  V30 3273 H 302.946 3.55456 -2.16888 0
M  V30 3274 H 305.543 5.34683 -0.0420404 0
M  V30 3275 H 305.886 4.02824 1.05065 0
M  V30 3276 H 306.419 3.92536 -0.645007 0
M  V30 3277 H 303.158 5.86234 -2.93275 0
M  V30 3278 H 302.678 5.87258 -1.22019 0
M  V30 3279 H 304.357 6.24776 -1.6812 0
M  V30 3280 N 304.489 0.459591 1.5075 0
M  V30 3281 C 305.735 -0.0994966 2.02556 0
M  V30 3282 C 306.068 -1.40399 1.3417 0
M  V30 3283 O 305.343 -1.88892 0.463683 0
M  V30 3284 C 305.626 -0.295242 3.58888 0
M  V30 3285 C 305.479 1.02947 4.37861 0
M  V30 3286 C 306.798 -1.05502 4.27267 0
M  V30 3287 H 303.917 -0.034686 0.736183 0
M  V30 3288 H 306.559 0.602938 1.8018 0
M  V30 3289 H 304.709 -0.893563 3.78084 0
M  V30 3290 H 306.381 1.66348 4.30263 0
M  V30 3291 H 304.624 1.62885 4.02058 0
M  V30 3292 H 305.295 0.846281 5.45474 0
M  V30 3293 H 307.771 -0.547993 4.12476 0
M  V30 3294 H 306.647 -1.16077 5.36486 0
M  V30 3295 H 306.908 -2.08875 3.89645 0
M  V30 3296 N 305.967 -1.56429 0.191757 0
M  V30 3297 C 307.215 -1.97095 -0.447006 0
M  V30 3298 C 307.536 -1.07967 -1.62383 0
M  V30 3299 O 306.806 -0.150248 -1.95323 0
M  V30 3300 H 305.386 -0.727832 -0.168135 0
M  V30 3301 H 308.048 -1.92911 0.27771 0
M  V30 3302 H 307.144 -3.01848 -0.793371 0
M  V30 3303 N 307.445 0.0818655 -1.57387 0
M  V30 3304 C 308.692 0.782914 -1.86753 0
M  V30 3305 C 309.02 1.78082 -0.782118 0
M  V30 3306 O 308.275 1.94426 0.22295 0
M  V30 3307 C 308.574 1.53513 -3.22752 0
M  V30 3308 C 308.24 0.678134 -4.45771 0
M  V30 3309 C 306.902 0.441929 -4.79166 0
M  V30 3310 C 309.254 0.0832243 -5.21134 0
M  V30 3311 C 306.582 -0.398833 -5.85343 0
M  V30 3312 C 308.934 -0.744935 -6.28199 0
M  V30 3313 C 307.598 -0.991107 -6.60101 0
M  V30 3314 H 306.868 0.286489 -0.683378 0
M  V30 3315 H 309.515 0.0439808 -1.91449 0
M  V30 3316 H 307.82 2.34599 -3.138 0
M  V30 3317 H 309.517 2.08218 -3.42705 0
M  V30 3318 H 306.107 0.872357 -4.19628 0
M  V30 3319 H 310.291 0.252847 -4.95655 0
M  V30 3320 H 305.547 -0.598405 -6.08465 0
M  V30 3321 H 309.721 -1.21271 -6.8576 0
M  V30 3322 H 307.348 -1.64437 -7.42202 0
M  V30 3323 N 308.923 1.53595 0.353017 0
M  V30 3324 C 310.151 1.74311 1.1146 0
M  V30 3325 C 310.566 0.477854 1.82653 0
M  V30 3326 O 309.923 -0.549977 1.74016 0
M  V30 3327 C 309.974 2.91694 2.13534 0
M  V30 3328 O 309.695 4.13325 1.45238 0
M  V30 3329 C 311.196 3.24384 3.02142 0
M  V30 3330 H 308.416 0.582669 0.332773 0
M  V30 3331 H 310.96 2.00386 0.408107 0
M  V30 3332 H 309.115 2.67977 2.79763 0
M  V30 3333 H 309.529 4.79148 2.13349 0
M  V30 3334 H 311.003 4.09893 3.69718 0
M  V30 3335 H 311.48 2.40282 3.67643 0
M  V30 3336 H 312.086 3.50073 2.41514 0
M  V30 3337 N 310.401 -0.613514 1.45168 0
M  V30 3338 C 311.678 -1.37263 1.39349 0
M  V30 3339 C 312.058 -2.11012 0.0610848 0
M  V30 3340 O 311.406 -2.07502 -0.956825 0
M  V30 3341 C 311.616 -2.3244 2.60332 0
M  V30 3342 C 312.964 -2.9523 3.05163 0
M  V30 3343 O 313.988 -2.42762 2.60663 0
M  V30 3344 O 312.847 -3.90454 3.82372 0
M  V30 3345 H 309.941 -0.615188 0.552696 0
M  V30 3346 H 312.487 -0.637097 1.57287 0
M  V30 3347 H 311.259 -1.77164 3.48896 0
M  V30 3348 H 310.882 -3.13383 2.44698 0
M  V30 3349 N 311.879 -1.3236 -0.855495 0
M  V30 3350 C 312.829 -1.17809 -1.95205 0
M  V30 3351 C 313.813 -0.0852319 -1.60674 0
M  V30 3352 O 315.005 -0.311651 -1.74235 0
M  V30 3353 C 312.134 -0.902437 -3.31226 0
M  V30 3354 C 311.22 -2.03695 -3.7198 0
M  V30 3355 N 311.611 -3.28544 -3.84568 0
M  V30 3356 C 309.909 -1.93993 -4.016 0
M  V30 3357 C 310.61 -4.02847 -4.19629 0
M  V30 3358 N 309.586 -3.31138 -4.31102 0
M  V30 3359 H 313.388 -2.12462 -2.0307 0
M  V30 3360 H 310.902 -1.24127 -1.0472 0
M  V30 3361 H 312.899 -0.77915 -4.09554 0
M  V30 3362 H 311.559 0.0357267 -3.2468 0
M  V30 3363 H 312.57 -3.6349 -3.68911 0
M  V30 3364 H 309.247 -1.07733 -4.03361 0
M  V30 3365 H 310.637 -5.10506 -4.36845 0
M  V30 3366 N 313.357 1.07166 -1.15556 0
M  V30 3367 C 314.267 2.17947 -0.868116 0
M  V30 3368 C 315.283 1.73297 0.156297 0
M  V30 3369 O 316.459 2.01392 -0.0182327 0
M  V30 3370 C 313.524 3.44789 -0.36355 0
M  V30 3371 C 312.585 4.03996 -1.45209 0
M  V30 3372 C 311.818 5.24783 -0.971508 0
M  V30 3373 O 312.041 5.70109 0.182194 0
M  V30 3374 O 310.975 5.75715 -1.75603 0
M  V30 3375 H 314.801 2.4503 -1.79427 0
M  V30 3376 H 312.386 1.16539 -0.934824 0
M  V30 3377 H 314.268 4.21307 -0.0887113 0
M  V30 3378 H 312.943 3.19253 0.534708 0
M  V30 3379 H 311.85 3.29009 -1.78056 0
M  V30 3380 H 313.183 4.33808 -2.32533 0
M  V30 3381 N 314.835 0.952656 1.25548 0
M  V30 3382 C 316.063 0.623496 1.97282 0
M  V30 3383 C 316.478 -0.803987 1.70826 0
M  V30 3384 O 315.835 -1.53755 0.983147 0
M  V30 3385 C 315.886 0.870209 3.5087 0
M  V30 3386 O 315.607 2.24156 3.76412 0
M  V30 3387 C 317.108 0.553164 4.39835 0
M  V30 3388 H 314.328 0.233931 0.628902 0
M  V30 3389 H 316.872 1.27649 1.59768 0
M  V30 3390 H 315.027 0.263652 3.86502 0
M  V30 3391 H 315.441 2.31021 4.70882 0
M  V30 3392 H 316.915 0.776342 5.46513 0
M  V30 3393 H 317.392 -0.512215 4.36203 0
M  V30 3394 H 317.998 1.13896 4.09766 0
M  V30 3395 N 316.313 -1.40141 0.720998 0
M  V30 3396 C 317.245 -2.29177 0.0324669 0
M  V30 3397 C 318.258 -1.46105 -0.718126 0
M  V30 3398 O 319.447 -1.69335 -0.564608 0
M  V30 3399 C 316.547 -3.24473 -0.978292 0
M  V30 3400 C 315.72 -4.36423 -0.292115 0
M  V30 3401 C 314.779 -5.12122 -1.20901 0
M  V30 3402 O 313.805 -5.64981 -0.691766 0
M  V30 3403 N 315.007 -5.21992 -2.53978 0
M  V30 3404 H 317.772 -2.88909 0.796984 0
M  V30 3405 H 315.333 -1.51569 0.569068 0
M  V30 3406 H 317.325 -3.71987 -1.59398 0
M  V30 3407 H 315.895 -2.65871 -1.64413 0
M  V30 3408 H 315.115 -3.90967 0.503847 0
M  V30 3409 H 316.403 -5.08467 0.183971 0
M  V30 3410 H 315.801 -4.8054 -2.98493 0
M  V30 3411 H 314.358 -5.72995 -3.10677 0
M  V30 3412 N 317.792 -0.46758 -1.50504 0
M  V30 3413 C 318.755 0.317059 -2.26996 0
M  V30 3414 C 319.755 0.923513 -1.31635 0
M  V30 3415 O 320.945 0.793239 -1.55091 0
M  V30 3416 C 318.077 1.45134 -3.08462 0
M  V30 3417 H 319.27 -0.353723 -2.97807 0
M  V30 3418 H 316.823 -0.221545 -1.54722 0
M  V30 3419 H 317.558 2.15728 -2.4214 0
M  V30 3420 H 317.343 1.02232 -3.78538 0
M  V30 3421 H 318.833 2.00493 -3.66323 0
M  V30 3422 N 319.27 1.56325 -0.20005 0
M  V30 3423 C 320.517 1.97719 0.437411 0
M  V30 3424 C 320.845 1.08709 1.61284 0
M  V30 3425 O 320.1 0.127261 1.95286 0
M  V30 3426 C 320.399 3.4495 0.935103 0
M  V30 3427 C 320.065 4.5072 -0.12749 0
M  V30 3428 C 318.727 4.79368 -0.419451 0
M  V30 3429 C 321.079 5.14268 -0.847231 0
M  V30 3430 C 318.407 5.68854 -1.43604 0
M  V30 3431 C 320.759 6.04852 -1.85301 0
M  V30 3432 C 319.423 6.31855 -2.15211 0
M  V30 3433 H 318.693 0.723507 0.16006 0
M  V30 3434 H 321.34 1.89166 -0.298056 0
M  V30 3435 H 319.645 3.50599 1.74894 0
M  V30 3436 H 321.342 3.74337 1.43781 0
M  V30 3437 H 317.932 4.28458 0.11023 0
M  V30 3438 H 322.116 4.92222 -0.634901 0
M  V30 3439 H 317.372 5.88047 -1.67364 0
M  V30 3440 H 321.546 6.53152 -2.41591 0
M  V30 3441 H 319.173 7.00994 -2.94129 0
M  V30 3442 N 320.748 -0.0735177 1.57428 0
M  V30 3443 C 321.995 -0.772999 1.87166 0
M  V30 3444 C 322.323 -1.77665 0.791551 0
M  V30 3445 O 321.578 -1.94541 -0.212636 0
M  V30 3446 C 321.877 -1.51799 3.23561 0
M  V30 3447 C 321.543 -0.654484 4.46125 0
M  V30 3448 C 320.205 -0.416511 4.79394 0
M  V30 3449 C 322.557 -0.0555862 5.2117 0
M  V30 3450 C 319.885 0.429869 5.85123 0
M  V30 3451 C 322.237 0.778239 6.27795 0
M  V30 3452 C 320.901 1.0261 6.59566 0
M  V30 3453 H 320.171 -0.282861 0.684888 0
M  V30 3454 H 322.818 -0.0338272 1.9147 0
M  V30 3455 H 321.123 -2.32932 3.1504 0
M  V30 3456 H 322.82 -2.06397 3.43804 0
M  V30 3457 H 319.41 -0.850091 4.20085 0
M  V30 3458 H 323.594 -0.226558 4.95783 0
M  V30 3459 H 318.85 0.630665 6.08139 0
M  V30 3460 H 323.024 1.24906 6.85107 0
M  V30 3461 H 320.651 1.68371 7.4132 0
M  V30 3462 N 322.226 -1.5378 -0.344866 0
M  V30 3463 C 323.158 -1.77988 -1.44406 0
M  V30 3464 C 324.171 -0.661138 -1.48771 0
M  V30 3465 O 325.36 -0.937842 -1.51877 0
M  V30 3466 C 322.46 -1.86345 -2.8307 0
M  V30 3467 C 321.633 -3.16256 -3.0216 0
M  V30 3468 C 320.692 -3.15588 -4.21059 0
M  V30 3469 O 319.718 -3.89314 -4.15239 0
M  V30 3470 N 320.92 -2.37864 -5.29529 0
M  V30 3471 H 323.685 -2.72839 -1.24012 0
M  V30 3472 H 321.246 -1.52814 -0.534737 0
M  V30 3473 H 323.238 -1.83351 -3.60783 0
M  V30 3474 H 321.808 -0.986858 -2.96614 0
M  V30 3475 H 321.028 -3.32385 -2.11929 0
M  V30 3476 H 322.316 -4.0207 -3.11797 0
M  V30 3477 H 321.714 -1.77514 -5.37127 0
M  V30 3478 H 320.271 -2.40668 -6.05741 0
M  V30 3479 N 323.704 0.605807 -1.45491 0
M  V30 3480 C 324.614 1.74466 -1.56839 0
M  V30 3481 C 325.63 1.68006 -0.452772 0
M  V30 3482 O 326.806 1.8833 -0.713708 0
M  V30 3483 C 323.871 3.10931 -1.53371 0
M  V30 3484 C 322.932 3.28832 -2.75986 0
M  V30 3485 C 322.165 4.58787 -2.72673 0
M  V30 3486 O 322.388 5.4122 -1.80102 0
M  V30 3487 O 321.322 4.79438 -3.63899 0
M  V30 3488 H 325.148 1.67843 -2.53106 0
M  V30 3489 H 322.733 0.770108 -1.28022 0
M  V30 3490 H 324.615 3.92233 -1.54051 0
M  V30 3491 H 323.29 3.18042 -0.602572 0
M  V30 3492 H 322.197 2.47112 -2.80867 0
M  V30 3493 H 323.53 3.26599 -3.68231 0
M  V30 3494 N 325.182 1.32811 0.848464 0
M  V30 3495 C 326.112 1.24882 1.97299 0
M  V30 3496 C 327.093 0.131357 1.69592 0
M  V30 3497 O 328.278 0.319553 1.91553 0
M  V30 3498 C 325.408 0.97746 3.33261 0
M  V30 3499 C 324.362 2.05682 3.75338 0
M  V30 3500 C 323.688 1.63777 5.09 0
M  V30 3501 C 324.988 3.47254 3.90144 0
M  V30 3502 H 326.682 2.18966 2.04191 0
M  V30 3503 H 324.228 1.05413 0.981029 0
M  V30 3504 H 326.181 0.908513 4.1149 0
M  V30 3505 H 324.905 0.000980011 3.266 0
M  V30 3506 H 323.564 2.11603 2.99366 0
M  V30 3507 H 323.212 0.648569 4.98801 0
M  V30 3508 H 322.912 2.36 5.38124 0
M  V30 3509 H 324.436 1.5833 5.89715 0
M  V30 3510 H 325.85 3.43888 4.58709 0
M  V30 3511 H 324.247 4.1788 4.30693 0
M  V30 3512 H 325.317 3.86462 2.92874 0
M  V30 3513 N 326.66 -1.06551 1.16123 0
M  V30 3514 C 327.908 -1.78947 0.939267 0
M  V30 3515 C 328.229 -1.87532 -0.534476 0
M  V30 3516 O 327.499 -1.38211 -1.38833 0
M  V30 3517 H 326.079 -0.662807 0.344523 0
M  V30 3518 H 328.741 -1.28725 1.46342 0
M  V30 3519 H 327.837 -2.81117 1.35572 0
M  V30 3520 N 328.138 -0.959301 -1.25041 0
M  V30 3521 C 329.101 -0.487677 -2.23952 0
M  V30 3522 C 330.101 0.41119 -1.55454 0
M  V30 3523 O 331.291 0.207825 -1.72956 0
M  V30 3524 C 328.423 0.294807 -3.39623 0
M  V30 3525 H 329.616 -1.36198 -2.67189 0
M  V30 3526 H 327.169 -0.743042 -1.37508 0
M  V30 3527 H 327.904 1.18658 -3.01813 0
M  V30 3528 H 327.689 -0.35012 -3.90534 0
M  V30 3529 H 329.179 0.614089 -4.1306 0
M  V30 3530 N 329.616 1.39756 -0.72842 0
M  V30 3531 C 330.863 2.00645 -0.273487 0
M  V30 3532 C 331.191 1.57786 1.13727 0
M  V30 3533 O 330.446 0.794886 1.7883 0
M  V30 3534 C 330.745 3.56002 -0.315776 0
M  V30 3535 C 330.411 4.18489 -1.67863 0
M  V30 3536 C 329.073 4.3527 -2.05166 0
M  V30 3537 C 331.425 4.53219 -2.57375 0
M  V30 3538 C 328.753 4.84069 -3.31503 0
M  V30 3539 C 331.105 5.03423 -3.83077 0
M  V30 3540 C 329.769 5.18413 -4.20481 0
M  V30 3541 H 329.039 0.734211 -0.100076 0
M  V30 3542 H 331.686 1.6718 -0.933972 0
M  V30 3543 H 329.991 3.89452 0.428285 0
M  V30 3544 H 331.688 4.00963 0.0542575 0
M  V30 3545 H 328.278 4.05824 -1.37858 0
M  V30 3546 H 332.462 4.39878 -2.29827 0
M  V30 3547 H 327.718 4.93859 -3.60435 0
M  V30 3548 H 331.892 5.2927 -4.52599 0
M  V30 3549 H 329.519 5.55987 -5.18443 0
M  V30 3550 N 331.094 0.475555 1.50254 0
M  V30 3551 C 332.024 -0.30611 2.31485 0
M  V30 3552 C 333.005 -0.986228 1.38591 0
M  V30 3553 O 334.19 -0.982541 1.67511 0
M  V30 3554 C 331.32 -1.38588 3.1845 0
M  V30 3555 C 330.274 -0.827115 4.19932 0
M  V30 3556 C 329.6 -2.00551 4.95665 0
M  V30 3557 C 330.9 0.16463 5.2204 0
M  V30 3558 H 332.594 0.371866 2.97082 0
M  V30 3559 H 330.14 0.180282 1.42867 0
M  V30 3560 H 332.093 -1.94023 3.74076 0
M  V30 3561 H 330.817 -2.09269 2.50747 0
M  V30 3562 H 329.476 -0.294702 3.65414 0
M  V30 3563 H 329.124 -2.6994 4.2443 0
M  V30 3564 H 328.824 -1.63784 5.64313 0
M  V30 3565 H 330.348 -2.56468 5.54127 0
M  V30 3566 H 331.762 -0.300699 5.72511 0
M  V30 3567 H 330.159 0.446813 5.98434 0
M  V30 3568 H 331.229 1.08905 4.72512 0
M  V30 3569 N 332.573 -1.56217 0.208337 0
M  V30 3570 C 333.52 -2.19699 -0.707192 0
M  V30 3571 C 334.49 -1.14836 -1.20008 0
M  V30 3572 O 335.675 -1.4314 -1.26157 0
M  V30 3573 C 332.815 -2.87061 -1.91546 0
M  V30 3574 C 331.928 -4.06483 -1.46271 0
M  V30 3575 C 331.063 -4.61665 -2.62752 0
M  V30 3576 C 330.102 -5.73417 -2.14147 0
M  V30 3577 N 329.239 -6.22948 -3.23853 0
M  V30 3578 H 334.079 -2.97575 -0.159111 0
M  V30 3579 H 331.616 -1.46948 -0.0667874 0
M  V30 3580 H 333.574 -3.24294 -2.62468 0
M  V30 3581 H 332.204 -2.11725 -2.43664 0
M  V30 3582 H 331.256 -3.74825 -0.648886 0
M  V30 3583 H 332.568 -4.87271 -1.06622 0
M  V30 3584 H 331.722 -5.01272 -3.41776 0
M  V30 3585 H 330.461 -3.80013 -3.05682 0
M  V30 3586 H 329.466 -5.33326 -1.33581 0
M  V30 3587 H 330.691 -6.56897 -1.72232 0
M  V30 3588 H 328.637 -5.44213 -3.6629 0
M  V30 3589 H 328.554 -6.98823 -2.88414 0
M  V30 3590 H 329.822 -6.6721 -4.03052 0
M  V30 3591 N 334.051 0.0651679 -1.57465 0
M  V30 3592 C 334.983 1.10359 -2.00882 0
M  V30 3593 C 335.996 1.346 -0.915788 0
M  V30 3594 O 337.185 1.32723 -1.1936 0
M  V30 3595 C 334.285 2.45312 -2.33828 0
M  V30 3596 C 333.458 2.40934 -3.65061 0
M  V30 3597 C 332.517 3.58047 -3.85602 0
M  V30 3598 O 331.543 3.39175 -4.57109 0
M  V30 3599 N 332.745 4.78637 -3.28462 0
M  V30 3600 H 335.51 0.733807 -2.90578 0
M  V30 3601 H 333.071 0.253719 -1.599 0
M  V30 3602 H 335.063 3.22314 -2.44737 0
M  V30 3603 H 333.633 2.74267 -1.49988 0
M  V30 3604 H 332.853 1.49273 -3.64844 0
M  V30 3605 H 334.141 2.35117 -4.51218 0
M  V30 3606 H 333.539 4.96872 -2.70433 0
M  V30 3607 H 332.096 5.53127 -3.44809 0
M  V30 3608 N 335.529 1.53961 0.336706 0
M  V30 3609 C 336.94 1.62914 0.911925 0
M  V30 3610 C 337.291 0.514795 1.89326 0
M  V30 3611 O 336.416 -0.354395 2.13478 0
M  V30 3612 C 337.011 2.95304 1.66076 0
M  V30 3613 C 335.57 3.06496 2.18489 0
M  V30 3614 C 334.717 2.58403 1.00613 0
M  V30 3615 H 337.668 1.58285 0.114649 0
M  V30 3616 H 337.689 2.84727 2.5241 0
M  V30 3617 H 337.201 3.76387 0.946276 0
M  V30 3618 H 335.302 2.3006 2.93092 0
M  V30 3619 H 335.415 4.1208 2.44391 0
M  V30 3620 H 333.779 2.13977 1.38152 0
M  V30 3621 H 334.562 3.41932 0.306179 0
M  V30 3622 N 337.007 -0.598083 1.45811 0
M  V30 3623 C 338.423 -0.919847 1.30426 0
M  V30 3624 C 338.623 -1.99759 0.264303 0
M  V30 3625 O 337.679 -2.50221 -0.338472 0
M  V30 3626 C 338.992 -1.35176 2.68603 0
M  V30 3627 C 340.54 -1.46546 2.76574 0
M  V30 3628 C 341.015 -1.9311 4.15298 0
M  V30 3629 N 342.506 -2.00328 4.1764 0
M  V30 3630 C 343.241 -2.37599 5.21856 0
M  V30 3631 N 342.737 -2.73771 6.36413 0
M  V30 3632 N 344.53 -2.38021 5.09218 0
M  V30 3633 H 336.681 0.114111 2.12093 0
M  V30 3634 H 338.944 -0.0116121 0.947929 0
M  V30 3635 H 338.65 -0.633969 3.45939 0
M  V30 3636 H 338.524 -2.3164 2.97696 0
M  V30 3637 H 340.911 -2.17415 1.99537 0
M  V30 3638 H 340.992 -0.483727 2.51185 0
M  V30 3639 H 340.636 -1.22824 4.92825 0
M  V30 3640 H 340.566 -2.92213 4.38086 0
M  V30 3641 H 343.057 -1.74925 3.34977 0
M  V30 3642 H 343.37 -3.0112 7.11721 0
M  V30 3643 H 341.715 -2.71445 6.39799 0
M  V30 3644 H 344.906 -2.09174 4.18765 0
M  V30 3645 H 345.079 -2.66741 5.90554 0
M  V30 3646 N 338.485 -1.33259 -0.841409 0
M  V30 3647 C 339.715 -1.2742 -1.62628 0
M  V30 3648 C 340.123 0.157604 -1.88542 0
M  V30 3649 O 339.466 1.10938 -1.46419 0
M  V30 3650 C 339.528 -1.97797 -3.00194 0
M  V30 3651 C 339.192 -3.47109 -2.97261 0
M  V30 3652 C 340.189 -4.42358 -2.73159 0
M  V30 3653 C 337.874 -3.89247 -3.17478 0
M  V30 3654 C 339.868 -5.77718 -2.69296 0
M  V30 3655 C 337.555 -5.24713 -3.13241 0
M  V30 3656 C 338.553 -6.1876 -2.89181 0
M  V30 3657 O 338.241 -7.51745 -2.84843 0
M  V30 3658 H 337.973 -0.440436 -0.512827 0
M  V30 3659 H 340.527 -1.76153 -1.05638 0
M  V30 3660 H 338.757 -1.43652 -3.59028 0
M  V30 3661 H 340.446 -1.8549 -3.61038 0
M  V30 3662 H 341.212 -4.11127 -2.57294 0
M  V30 3663 H 337.091 -3.16456 -3.35226 0
M  V30 3664 H 340.635 -6.51097 -2.50436 0
M  V30 3665 H 336.532 -5.55569 -3.28654 0
M  V30 3666 H 337.3 -7.61262 -3.00702 0
M  V30 3667 N 339.963 1.05934 -1.16686 0
M  V30 3668 C 341.193 1.82226 -0.973515 0
M  V30 3669 C 341.601 1.8297 0.481532 0
M  V30 3670 O 340.944 1.25009 1.34604 0
M  V30 3671 C 341.006 3.29897 -1.42858 0
M  V30 3672 C 340.67 3.52849 -2.90425 0
M  V30 3673 C 341.667 3.45595 -3.88407 0
M  V30 3674 C 339.352 3.80053 -3.28428 0
M  V30 3675 C 341.346 3.65217 -5.22394 0
M  V30 3676 C 339.033 3.99325 -4.62583 0
M  V30 3677 C 340.031 3.91905 -5.59374 0
M  V30 3678 O 339.719 4.10647 -6.91104 0
M  V30 3679 H 339.451 0.581314 -0.345036 0
M  V30 3680 H 342.005 1.3453 -1.55212 0
M  V30 3681 H 340.235 3.78472 -0.793477 0
M  V30 3682 H 341.924 3.87692 -1.20207 0
M  V30 3683 H 342.69 3.24564 -3.60393 0
M  V30 3684 H 338.569 3.84936 -2.53664 0
M  V30 3685 H 342.113 3.59341 -5.9793 0
M  V30 3686 H 338.01 4.19846 -4.90306 0
M  V30 3687 H 338.778 4.27915 -6.97733 0
M  V30 3688 N 341.441 0.965919 1.2453 0
M  V30 3689 C 342.671 0.643451 1.96324 0
M  V30 3690 C 343.079 -0.790927 1.71875 0
M  V30 3691 O 342.422 -1.54208 0.998273 0
M  V30 3692 C 342.484 0.836078 3.49643 0
M  V30 3693 C 342.148 2.24975 3.97788 0
M  V30 3694 C 343.145 3.22735 4.07601 0
M  V30 3695 C 340.83 2.57697 4.31158 0
M  V30 3696 C 342.824 4.51303 4.50116 0
M  V30 3697 C 340.511 3.86492 4.73357 0
M  V30 3698 C 341.509 4.83107 4.828 0
M  V30 3699 O 341.197 6.09605 5.24058 0
M  V30 3700 H 340.929 0.239223 0.632257 0
M  V30 3701 H 343.483 1.29587 1.59362 0
M  V30 3702 H 341.713 0.12649 3.86493 0
M  V30 3703 H 343.402 0.512965 4.02646 0
M  V30 3704 H 344.168 2.98783 3.82039 0
M  V30 3705 H 340.047 1.83216 4.23028 0
M  V30 3706 H 343.591 5.26716 4.57401 0
M  V30 3707 H 339.488 4.10245 4.98366 0
M  V30 3708 H 340.256 6.13146 5.42213 0
M  V30 3709 N 342.919 -1.39368 0.735821 0
M  V30 3710 C 343.866 -2.30599 0.0963825 0
M  V30 3711 C 344.836 -1.49257 -0.728794 0
M  V30 3712 O 346.021 -1.77941 -0.688588 0
M  V30 3713 C 343.161 -3.35596 -0.804305 0
M  V30 3714 C 342.274 -4.31987 0.0335761 0
M  V30 3715 C 341.409 -5.24053 -0.868461 0
M  V30 3716 C 340.448 -6.12095 -0.0258776 0
M  V30 3717 N 339.585 -6.96514 -0.883893 0
M  V30 3718 H 344.425 -2.8471 0.880002 0
M  V30 3719 H 341.962 -1.40188 0.445619 0
M  V30 3720 H 343.92 -3.95062 -1.34096 0
M  V30 3721 H 342.55 -2.82938 -1.55389 0
M  V30 3722 H 341.602 -3.74133 0.68766 0
M  V30 3723 H 342.914 -4.94074 0.685036 0
M  V30 3724 H 342.068 -5.88549 -1.47293 0
M  V30 3725 H 340.807 -4.62289 -1.5537 0
M  V30 3726 H 339.812 -5.4661 0.591386 0
M  V30 3727 H 341.037 -6.75923 0.656156 0
M  V30 3728 H 338.983 -6.37318 -1.55441 0
M  V30 3729 H 338.9 -7.55448 -0.288931 0
M  V30 3730 H 340.168 -7.65439 -1.4739 0
M  V30 3731 N 344.397 -0.483516 -1.5 0
M  V30 3732 C 345.347 0.32306 -2.257 0
M  V30 3733 C 346.331 0.950755 -1.29805 0
M  V30 3734 O 347.523 0.861247 -1.54634 0
M  V30 3735 C 344.652 1.39724 -3.13579 0
M  V30 3736 C 343.738 0.776663 -4.16928 0
M  V30 3737 N 344.129 -0.1104 -5.0568 0
M  V30 3738 C 342.427 1.03922 -4.33724 0
M  V30 3739 C 343.128 -0.46387 -5.79848 0
M  V30 3740 N 342.104 0.163987 -5.43353 0
M  V30 3741 H 345.906 -0.360086 -2.91686 0
M  V30 3742 H 343.42 -0.298456 -1.59634 0
M  V30 3743 H 345.417 1.98837 -3.66428 0
M  V30 3744 H 344.077 2.08225 -2.49143 0
M  V30 3745 H 345.088 -0.480069 -5.1567 0
M  V30 3746 H 341.765 1.71829 -3.80501 0
M  V30 3747 H 343.155 -1.18854 -6.61304 0
M  V30 3748 N 345.875 1.56104 -0.216619 0
M  V30 3749 C 347.122 1.98172 0.416416 0
M  V30 3750 C 347.45 1.10413 1.60122 0
M  V30 3751 O 346.705 0.147967 1.9514 0
M  V30 3752 C 347.004 3.45923 0.898464 0
M  V30 3753 C 346.67 4.50559 -0.175288 0
M  V30 3754 C 345.332 4.78897 -0.470271 0
M  V30 3755 C 347.684 5.1334 -0.901728 0
M  V30 3756 C 345.012 5.67299 -1.4963 0
M  V30 3757 C 347.364 6.02853 -1.91705 0
M  V30 3758 C 346.028 6.29537 -2.21901 0
M  V30 3759 H 345.298 0.725164 0.152377 0
M  V30 3760 H 347.945 1.88839 -0.318103 0
M  V30 3761 H 346.25 3.52434 1.71165 0
M  V30 3762 H 347.947 3.75841 1.39803 0
M  V30 3763 H 344.537 4.28551 0.0647806 0
M  V30 3764 H 348.721 4.91521 -0.687072 0
M  V30 3765 H 343.977 5.86239 -1.73592 0
M  V30 3766 H 348.151 6.50552 -2.48505 0
M  V30 3767 H 345.778 6.97835 -3.01548 0
M  V30 3768 N 347.353 -0.0568162 1.57498 0
M  V30 3769 C 348.599 -0.748893 1.89111 0
M  V30 3770 C 348.954 -1.74422 0.81208 0
M  V30 3771 O 348.247 -1.90731 -0.182247 0
M  V30 3772 C 348.441 -1.48359 3.25153 0
M  V30 3773 C 348.27 -0.560924 4.46188 0
M  V30 3774 C 347.04 -0.192264 5.04934 0
M  V30 3775 C 349.238 0.148824 5.14085 0
M  V30 3776 N 347.22 0.734555 6.0949 0
M  V30 3777 C 348.591 0.932286 6.12951 0
M  V30 3778 C 350.646 0.218713 4.97419 0
M  V30 3779 C 349.349 1.77917 6.96949 0
M  V30 3780 C 351.375 1.05262 5.81957 0
M  V30 3781 C 350.737 1.82409 6.80372 0
M  V30 3782 H 346.836 -0.249002 0.741298 0
M  V30 3783 H 349.42 -0.00984926 1.94698 0
M  V30 3784 H 347.591 -2.19326 3.20547 0
M  V30 3785 H 349.323 -2.12586 3.44368 0
M  V30 3786 H 346.078 -0.548421 4.70414 0
M  V30 3787 H 346.502 1.19165 6.6643 0
M  V30 3788 H 351.144 -0.363407 4.21235 0
M  V30 3789 H 348.862 2.3722 7.72497 0
M  V30 3790 H 352.448 1.10987 5.71116 0
M  V30 3791 H 351.328 2.45895 7.44651 0
M  V30 3792 N 348.832 -1.54138 -0.328536 0
M  V30 3793 C 349.742 -1.86192 -1.42723 0
M  V30 3794 C 350.758 -0.753382 -1.56844 0
M  V30 3795 O 351.934 -1.04718 -1.72035 0
M  V30 3796 C 348.999 -2.07824 -2.77507 0
M  V30 3797 C 348.06 -3.31641 -2.72603 0
M  V30 3798 C 347.293 -3.52232 -4.00959 0
M  V30 3799 O 347.516 -2.7636 -4.9898 0
M  V30 3800 O 346.45 -4.45699 -4.0452 0
M  V30 3801 H 350.276 -2.79608 -1.18547 0
M  V30 3802 H 347.861 -1.3998 -0.522104 0
M  V30 3803 H 349.743 -2.23411 -3.57303 0
M  V30 3804 H 348.418 -1.17596 -3.01584 0
M  V30 3805 H 347.325 -3.21444 -1.91376 0
M  V30 3806 H 348.658 -4.2191 -2.53481 0
M  V30 3807 N 350.31 0.590341 -1.46126 0
M  V30 3808 C 351.587 1.35029 -1.41515 0
M  V30 3809 C 351.967 2.10888 -0.0946472 0
M  V30 3810 O 351.315 2.08998 0.923693 0
M  V30 3811 C 351.525 2.28269 -2.63997 0
M  V30 3812 C 352.873 2.90338 -3.09821 0
M  V30 3813 O 353.897 2.38585 -2.64492 0
M  V30 3814 O 352.756 3.84321 -3.88535 0
M  V30 3815 H 349.85 0.606317 -0.562413 0
M  V30 3816 H 352.396 0.611994 -1.58281 0
M  V30 3817 H 351.168 1.71591 -3.51671 0
M  V30 3818 H 350.791 3.0945 -2.49652 0
M  V30 3819 N 351.788 1.33704 0.83433 0
M  V30 3820 C 353.036 1.25169 1.58673 0
M  V30 3821 C 353.357 -0.18127 1.94156 0
M  V30 3822 O 352.627 -1.11113 1.6134 0
M  V30 3823 H 351.207 0.4603 0.58833 0
M  V30 3824 H 353.869 1.67478 0.996847 0
M  V30 3825 H 352.965 1.84856 2.51465 0
M  V30 3826 N 353.266 -1.05314 1.17247 0
M  V30 3827 C 354.543 -1.75184 0.87005 0
M  V30 3828 C 354.923 -2.01481 -0.629965 0
M  V30 3829 O 354.271 -1.64988 -1.58086 0
M  V30 3830 C 354.481 -3.04594 1.70363 0
M  V30 3831 C 355.829 -3.78567 1.92281 0
M  V30 3832 O 356.853 -3.14461 1.67311 0
M  V30 3833 O 355.712 -4.93755 2.3424 0
M  V30 3834 H 352.806 -0.761729 0.322021 0
M  V30 3835 H 355.352 -1.11493 1.27935 0
M  V30 3836 H 354.124 -2.81201 2.72106 0
M  V30 3837 H 353.747 -3.76022 1.29202 0
M  V30 3838 N 354.744 -0.972509 -1.24016 0
M  V30 3839 C 355.674 -0.525548 -2.27509 0
M  V30 3840 C 356.655 0.437262 -1.64384 0
M  V30 3841 O 357.84 0.332343 -1.91335 0
M  V30 3842 C 354.97 0.180448 -3.46831 0
M  V30 3843 C 353.924 -0.698859 -4.22256 0
M  V30 3844 C 353.25 0.138903 -5.3452 0
M  V30 3845 C 354.55 -1.98582 -4.83076 0
M  V30 3846 H 356.244 -1.39058 -2.65148 0
M  V30 3847 H 353.79 -0.67009 -1.27459 0
M  V30 3848 H 355.743 0.504387 -4.18371 0
M  V30 3849 H 354.467 1.07987 -3.08231 0
M  V30 3850 H 353.126 -1.00614 -3.52523 0
M  V30 3851 H 352.774 1.03862 -4.9216 0
M  V30 3852 H 352.474 -0.446259 -5.85903 0
M  V30 3853 H 353.998 0.457404 -6.08884 0
M  V30 3854 H 355.412 -1.72715 -5.46665 0
M  V30 3855 H 353.809 -2.5181 -5.44713 0
M  V30 3856 H 354.879 -2.67769 -4.04262 0
M  V30 3857 N 356.222 1.38976 -0.743202 0
M  V30 3858 C 357.152 2.33171 -0.123873 0
M  V30 3859 C 358.133 1.54336 0.71516 0
M  V30 3860 O 359.318 1.82696 0.658467 0
M  V30 3861 C 356.448 3.38474 0.777978 0
M  V30 3862 C 355.402 4.27979 0.0424758 0
M  V30 3863 C 354.728 5.2405 1.06189 0
M  V30 3864 C 356.028 5.10155 -1.1198 0
M  V30 3865 H 357.722 2.85213 -0.910709 0
M  V30 3866 H 355.268 1.37133 -0.439388 0
M  V30 3867 H 357.221 4.03328 1.22084 0
M  V30 3868 H 355.945 2.84891 1.59702 0
M  V30 3869 H 354.604 3.64616 -0.380853 0
M  V30 3870 H 354.252 4.66758 1.87472 0
M  V30 3871 H 353.952 5.84785 0.574485 0
M  V30 3872 H 355.476 5.9178 1.50428 0
M  V30 3873 H 356.89 5.68307 -0.75499 0
M  V30 3874 H 355.287 5.80073 -1.53738 0
M  V30 3875 H 356.357 4.44504 -1.93764 0
M  V30 3876 N 357.7 0.491464 1.49741 0
M  V30 3877 C 358.949 -0.0582189 2.01616 0
M  V30 3878 C 359.262 -1.38927 1.3769 0
M  V30 3879 O 360.468 -2.02509 1.80838 0
M  V30 3880 C 358.924 -0.154235 3.59569 0
M  V30 3881 C 358.532 1.1696 4.32463 0
M  V30 3882 C 360.276 -0.65479 4.1942 0
M  V30 3883 C 358.183 1.03627 5.8225 0
M  V30 3884 H 357.113 -0.0255317 0.753568 0
M  V30 3885 H 359.764 0.629445 1.72367 0
M  V30 3886 H 358.146 -0.906138 3.85493 0
M  V30 3887 H 359.32 1.93405 4.18248 0
M  V30 3888 H 357.635 1.60285 3.84315 0
M  V30 3889 H 360.232 -0.771903 5.29099 0
M  V30 3890 H 360.575 -1.65127 3.8215 0
M  V30 3891 H 361.108 0.040304 3.9778 0
M  V30 3892 H 357.847 2.00672 6.24028 0
M  V30 3893 H 357.367 0.312546 5.98985 0
M  V30 3894 H 359.046 0.711114 6.4308 0
M  V30 3895 N 359.178 -1.55987 0.224894 0
M  V30 3896 C 360.111 -2.16413 -0.723929 0
M  V30 3897 C 361.089 -1.10952 -1.18863 0
M  V30 3898 O 362.273 -1.39225 -1.27077 0
M  V30 3899 C 359.4 -2.74711 -1.98121 0
M  V30 3900 C 358.446 -3.9303 -1.6562 0
M  V30 3901 S 359.279 -5.29817 -0.778058 0
M  V30 3902 C 360.435 -5.91555 -2.04483 0
M  V30 3903 H 360.668 -2.96555 -0.210347 0
M  V30 3904 H 358.201 -1.54397 0.00955457 0
M  V30 3905 H 360.159 -3.08938 -2.70311 0
M  V30 3906 H 358.82 -1.94555 -2.46591 0
M  V30 3907 H 358.013 -4.32334 -2.59043 0
M  V30 3908 H 357.615 -3.59966 -1.01491 0
M  V30 3909 H 359.907 -6.07732 -2.99446 0
M  V30 3910 H 360.85 -6.87498 -1.69563 0
M  V30 3911 H 361.258 -5.20419 -2.18688 0
M  V30 3912 N 360.656 0.0484629 -1.57525 0
M  V30 3913 C 361.933 0.777447 -1.79486 0
M  V30 3914 C 362.313 1.94597 -0.818251 0
M  V30 3915 O 361.661 2.28047 0.143767 0
M  V30 3916 C 361.871 1.22864 -3.26658 0
M  V30 3917 C 363.219 1.65251 -3.91123 0
M  V30 3918 O 364.243 1.32372 -3.3069 0
M  V30 3919 O 363.102 2.26207 -4.97486 0
M  V30 3920 H 360.196 0.374357 -0.737419 0
M  V30 3921 H 362.742 0.0267359 -1.69679 0
M  V30 3922 H 361.514 0.393589 -3.89316 0
M  V30 3923 H 361.137 2.03996 -3.41279 0
M  V30 3924 N 362.134 1.5431 0.320358 0
M  V30 3925 C 363.082 1.84647 1.4145 0
M  V30 3926 C 364.076 0.718624 1.53402 0
M  V30 3927 O 365.282 0.902335 1.5575 0
M  V30 3928 H 361.657 0.585349 0.472091 0
M  V30 3929 H 363.628 2.7614 1.13089 0
M  V30 3930 C 362.377 2.09341 2.77617 0
M  V30 3931 H 361.7 2.9559 2.69196 0
M  V30 3932 H 363.14 2.3452 3.53237 0
M  V30 3933 C 361.599 0.885939 3.25043 0
M  V30 3934 O 362.129 0.0967891 4.01583 0
M  V30 3935 N 360.335 0.696682 2.82125 0
M  V30 3936 H 359.882 1.34006 2.2 0
M  V30 3937 H 359.84 -0.109712 3.14209 0
M  V30 3938 N 363.613 -0.582584 1.46437 0
M  V30 3939 C 365.029 -0.905962 1.31394 0
M  V30 3940 C 365.229 -1.99468 0.285476 0
M  V30 3941 O 364.285 -2.50566 -0.311914 0
M  V30 3942 C 365.598 -1.3232 2.70022 0
M  V30 3943 C 367.146 -1.43604 2.78113 0
M  V30 3944 C 367.621 -1.88694 4.17323 0
M  V30 3945 N 369.112 -1.95887 4.19741 0
M  V30 3946 C 369.847 -2.32051 5.24347 0
M  V30 3947 N 369.343 -2.67006 6.39281 0
M  V30 3948 N 371.136 -2.32606 5.11713 0
M  V30 3949 H 363.287 0.1366 2.1196 0
M  V30 3950 H 365.55 -0.00155736 0.947999 0
M  V30 3951 H 365.256 -0.597242 3.46592 0
M  V30 3952 H 365.13 -2.28469 3.00136 0
M  V30 3953 H 367.517 -2.15286 2.01832 0
M  V30 3954 H 367.598 -0.457059 2.51684 0
M  V30 3955 H 367.242 -1.1759 4.941 0
M  V30 3956 H 367.172 -2.8755 4.4116 0
M  V30 3957 H 369.663 -1.71362 3.36814 0
M  V30 3958 H 369.976 -2.93554 7.14875 0
M  V30 3959 H 368.321 -2.64644 6.42642 0
M  V30 3960 H 371.512 -2.04721 4.2096 0
M  V30 3961 H 371.685 -2.60462 5.93349 0
M  V30 3962 N 365.091 -1.34144 -0.827227 0
M  V30 3963 C 366.507 -1.13732 -1.11969 0
M  V30 3964 C 366.707 0.0640463 -2.01398 0
M  V30 3965 O 365.763 0.740856 -2.41387 0
M  V30 3966 C 367.076 -2.43047 -1.77055 0
M  V30 3967 C 368.624 -2.49063 -1.89569 0
M  V30 3968 C 369.099 -3.78369 -2.58072 0
M  V30 3969 N 370.59 -3.79505 -2.65575 0
M  V30 3970 C 371.325 -4.76274 -3.19297 0
M  V30 3971 N 370.821 -5.83424 -3.73616 0
M  V30 3972 N 372.614 -4.63735 -3.17658 0
M  V30 3973 H 364.765 -2.11126 -0.232296 0
M  V30 3974 H 367.028 -0.933424 -0.165602 0
M  V30 3975 H 366.734 -3.31025 -1.18807 0
M  V30 3976 H 366.608 -2.56066 -2.76966 0
M  V30 3977 H 368.995 -1.61527 -2.46968 0
M  V30 3978 H 369.076 -2.39975 -0.885745 0
M  V30 3979 H 368.72 -4.66293 -2.01329 0
M  V30 3980 H 368.65 -3.84737 -3.59562 0
M  V30 3981 H 371.141 -3.02074 -2.27068 0
M  V30 3982 H 371.454 -6.53282 -4.12846 0
M  V30 3983 H 369.799 -5.87143 -3.71871 0
M  V30 3984 H 372.99 -3.79177 -2.74486 0
M  V30 3985 H 373.163 -5.39318 -3.59221 0
M  V30 3986 N 366.569 1.04691 -1.17803 0
M  V30 3987 C 367.815 1.78045 -0.970969 0
M  V30 3988 C 368.148 1.87686 0.498751 0
M  V30 3989 O 367.423 1.38035 1.37027 0
M  V30 3990 C 367.706 3.2166 -1.61884 0
M  V30 3991 C 367.559 3.20001 -3.161 0
M  V30 3992 C 368.878 4.1962 -1.3269 0
M  V30 3993 H 365.997 0.64633 -0.354155 0
M  V30 3994 H 368.639 1.22333 -1.45378 0
M  V30 3995 H 366.789 3.69232 -1.20831 0
M  V30 3996 H 368.461 2.80467 -3.66246 0
M  V30 3997 H 366.704 2.58203 -3.48588 0
M  V30 3998 H 367.375 4.21386 -3.56564 0
M  V30 3999 H 369.851 3.80567 -1.68249 0
M  V30 4000 H 368.727 5.18339 -1.80599 0
M  V30 4001 H 368.988 4.414 -0.248622 0
M  V30 4002 N 368.047 0.979072 1.23499 0
M  V30 4003 C 369.296 0.642751 1.91185 0
M  V30 4004 C 369.609 -0.827253 1.77245 0
M  V30 4005 O 370.815 -1.27458 2.39722 0
M  V30 4006 C 369.271 1.09901 3.42709 0
M  V30 4007 C 368.879 2.59327 3.65313 0
M  V30 4008 C 370.623 0.836371 4.16179 0
M  V30 4009 C 368.53 2.98627 5.10467 0
M  V30 4010 H 367.46 0.236698 0.715884 0
M  V30 4011 H 370.111 1.1868 1.39955 0
M  V30 4012 H 368.493 0.48319 3.93041 0
M  V30 4013 H 369.667 3.26136 3.25533 0
M  V30 4014 H 367.982 2.83323 3.05151 0
M  V30 4015 H 370.579 1.10586 5.23139 0
M  V30 4016 H 370.922 -0.227509 4.15678 0
M  V30 4017 H 371.455 1.41371 3.71832 0
M  V30 4018 H 368.194 4.04133 5.16098 0
M  V30 4019 H 367.714 2.3651 5.51201 0
M  V30 4020 H 369.393 2.89159 5.78788 0
M  V30 4021 N 369.525 -1.3858 0.750561 0
M  V30 4022 C 370.475 -2.27795 0.0965949 0
M  V30 4023 C 371.459 -1.45048 -0.696411 0
M  V30 4024 O 372.651 -1.67812 -0.562863 0
M  V30 4025 C 369.78 -3.33894 -0.798085 0
M  V30 4026 C 368.866 -4.241 0.0016067 0
M  V30 4027 N 369.257 -4.95067 1.03647 0
M  V30 4028 C 367.555 -4.45429 -0.225674 0
M  V30 4029 C 368.256 -5.61489 1.52004 0
M  V30 4030 N 367.232 -5.37135 0.835874 0
M  V30 4031 H 371.034 -2.80125 0.889228 0
M  V30 4032 H 368.548 -1.51446 0.586323 0
M  V30 4033 H 370.545 -3.96693 -1.28219 0
M  V30 4034 H 369.205 -2.83123 -1.5897 0
M  V30 4035 H 370.216 -4.98104 1.41819 0
M  V30 4036 H 366.893 -4.05571 -0.990872 0
M  V30 4037 H 368.283 -6.28264 2.38188 0
M  V30 4038 N 371.003 -0.499398 -1.49478 0
M  V30 4039 C 371.913 0.284489 -2.32869 0
M  V30 4040 C 372.929 0.968885 -1.44529 0
M  V30 4041 O 374.105 0.95062 -1.77553 0
M  V30 4042 C 371.17 1.33594 -3.19928 0
M  V30 4043 C 370.231 0.665149 -4.24116 0
M  V30 4044 C 369.464 1.6665 -5.07014 0
M  V30 4045 O 369.687 2.89618 -4.91404 0
M  V30 4046 O 368.621 1.22271 -5.8935 0
M  V30 4047 H 372.447 -0.39802 -3.01081 0
M  V30 4048 H 370.032 -0.260758 -1.47107 0
M  V30 4049 H 371.914 1.94431 -3.73864 0
M  V30 4050 H 370.589 2.0014 -2.54412 0
M  V30 4051 H 369.496 0.0170769 -3.74096 0
M  V30 4052 H 370.829 0.0421555 -4.92182 0
M  V30 4053 N 372.481 1.55866 -0.233164 0
M  V30 4054 C 373.897 1.59133 0.121988 0
M  V30 4055 C 374.097 1.25016 1.58029 0
M  V30 4056 O 373.153 0.990922 2.32243 0
M  V30 4057 C 374.466 2.99932 -0.214792 0
M  V30 4058 C 376.014 3.12601 -0.157971 0
M  V30 4059 C 376.489 4.55597 -0.46859 0
M  V30 4060 N 377.98 4.61305 -0.418585 0
M  V30 4061 C 378.715 5.69903 -0.63227 0
M  V30 4062 N 378.211 6.86819 -0.90835 0
M  V30 4063 N 380.004 5.59264 -0.563913 0
M  V30 4064 H 372.155 1.76315 -1.18434 0
M  V30 4065 H 374.418 0.820093 -0.475553 0
M  V30 4066 H 374.124 3.29588 -1.22739 0
M  V30 4067 H 373.998 3.74327 0.464691 0
M  V30 4068 H 376.385 2.82735 0.845283 0
M  V30 4069 H 376.466 2.40511 -0.871102 0
M  V30 4070 H 376.11 4.86182 -1.46934 0
M  V30 4071 H 376.04 5.25928 0.265865 0
M  V30 4072 H 378.531 3.77297 -0.213368 0
M  V30 4073 H 378.844 7.65507 -1.05919 0
M  V30 4074 H 377.189 6.88536 -0.945673 0
M  V30 4075 H 380.38 4.66802 -0.348372 0
M  V30 4076 H 380.553 6.43831 -0.733847 0
M  V30 4077 N 373.959 -0.0401083 1.57549 0
M  V30 4078 C 374.869 -1.06133 2.0922 0
M  V30 4079 C 375.885 -1.40356 1.0284 0
M  V30 4080 O 377.061 -1.49897 1.34509 0
M  V30 4081 C 374.126 -2.34658 2.55218 0
M  V30 4082 C 373.187 -2.07117 3.76033 0
M  V30 4083 C 372.42 -3.29514 4.19829 0
M  V30 4084 O 372.643 -4.39794 3.63232 0
M  V30 4085 O 371.577 -3.15863 5.12362 0
M  V30 4086 H 375.403 -0.652244 2.96613 0
M  V30 4087 H 372.988 -0.256368 1.47184 0
M  V30 4088 H 374.87 -3.10239 2.85184 0
M  V30 4089 H 373.545 -2.74883 1.70941 0
M  V30 4090 H 372.452 -1.29139 3.51104 0
M  V30 4091 H 373.785 -1.71754 4.61261 0
M  V30 4092 N 375.437 -1.54477 -0.31217 0
M  V30 4093 C 376.347 -1.87695 -1.4074 0
M  V30 4094 C 377.363 -0.769975 -1.56036 0
M  V30 4095 O 378.539 -1.06537 -1.70915 0
M  V30 4096 C 375.604 -2.10755 -2.75287 0
M  V30 4097 C 374.665 -3.34514 -2.69071 0
M  V30 4098 C 373.898 -3.56465 -3.97201 0
M  V30 4099 O 374.121 -2.81637 -4.96021 0
M  V30 4100 O 373.055 -4.49964 -3.9977 0
M  V30 4101 H 376.881 -2.80849 -1.15574 0
M  V30 4102 H 374.466 -1.40526 -0.507228 0
M  V30 4103 H 376.348 -2.27188 -3.54913 0
M  V30 4104 H 375.023 -1.20788 -3.0032 0
M  V30 4105 H 373.93 -3.23456 -1.87955 0
M  V30 4106 H 375.263 -4.24575 -2.48992 0
M  V30 4107 N 376.915 0.57481 -1.46744 0
M  V30 4108 C 378.162 1.33272 -1.52462 0
M  V30 4109 C 378.49 1.93669 -0.179572 0
M  V30 4110 O 377.745 1.7743 0.825664 0
M  V30 4111 C 378.044 2.476 -2.57738 0
M  V30 4112 C 377.71 2.05146 -4.01529 0
M  V30 4113 C 376.372 1.93284 -4.40676 0
M  V30 4114 C 378.724 1.72506 -4.91824 0
M  V30 4115 C 376.052 1.47049 -5.67973 0
M  V30 4116 C 378.404 1.27748 -6.19567 0
M  V30 4117 C 377.068 1.14468 -6.57612 0
M  V30 4118 H 376.338 0.487678 -0.557899 0
M  V30 4119 H 378.985 0.646456 -1.80259 0
M  V30 4120 H 377.29 3.21708 -2.23632 0
M  V30 4121 H 378.987 3.05807 -2.5939 0
M  V30 4122 H 375.577 2.15316 -3.7059 0
M  V30 4123 H 379.761 1.80552 -4.62293 0
M  V30 4124 H 375.017 1.35417 -5.96215 0
M  V30 4125 H 379.191 1.01547 -6.88957 0
M  V30 4126 H 376.818 0.78419 -7.56145 0
M  V30 4127 N 378.394 1.34581 0.820102 0
M  V30 4128 C 379.342 1.26401 1.95258 0
M  V30 4129 C 380.336 0.161553 1.68628 0
M  V30 4130 O 381.542 0.326703 1.7701 0
M  V30 4131 H 377.917 0.392749 0.64129 0
M  V30 4132 H 379.888 2.22105 1.99279 0
M  V30 4133 C 378.637 1.03919 3.31807 0
M  V30 4134 H 377.96 1.87984 3.52848 0
M  V30 4135 H 379.4 1.02232 4.11491 0
M  V30 4136 C 377.859 -0.257433 3.35915 0
M  V30 4137 O 378.389 -1.25784 3.81499 0
M  V30 4138 N 376.595 -0.291524 2.89134 0
M  V30 4139 H 376.142 0.523161 2.52232 0
M  V30 4140 H 376.1 -1.15883 2.92264 0
M  V30 4141 N 379.872 -1.04064 1.18357 0
M  V30 4142 C 381.149 -1.74252 0.888581 0
M  V30 4143 C 381.529 -2.02138 -0.60856 0
M  V30 4144 O 380.877 -1.66656 -1.56327 0
M  V30 4145 C 381.087 -3.0277 1.73584 0
M  V30 4146 C 382.435 -3.76506 1.96286 0
M  V30 4147 O 383.459 -3.12668 1.70637 0
M  V30 4148 O 382.318 -4.91243 2.39464 0
M  V30 4149 H 379.412 -0.758271 0.330082 0
M  V30 4150 H 381.958 -1.1013 1.2911 0
M  V30 4151 H 380.73 -2.78299 2.75073 0
M  V30 4152 H 380.353 -3.74631 1.33183 0
M  V30 4153 N 381.35 -0.985608 -1.22978 0
M  V30 4154 C 382.627 -0.573599 -1.87001 0
M  V30 4155 C 383.007 0.949213 -1.88555 0
M  V30 4156 O 382.355 1.82811 -1.37086 0
M  V30 4157 C 382.565 -1.18564 -3.28243 0
M  V30 4158 C 383.913 -1.28163 -4.04796 0
M  V30 4159 O 384.937 -1.13949 -3.37482 0
M  V30 4160 O 383.796 -1.50832 -5.25273 0
M  V30 4161 H 380.89 -0.193868 -0.803955 0
M  V30 4162 H 383.436 -1.08102 -1.30813 0
M  V30 4163 H 382.208 -2.22758 -3.21706 0
M  V30 4164 H 381.831 -0.663363 -3.92027 0
M  V30 4165 N 382.828 1.3818 -0.7579 0
M  V30 4166 C 384.105 1.94106 -0.241306 0
M  V30 4167 C 384.485 1.69282 1.26122 0
M  V30 4168 O 383.833 1.03378 2.03777 0
M  V30 4169 C 384.043 3.43809 -0.59967 0
M  V30 4170 C 385.391 4.20868 -0.561717 0
M  V30 4171 O 386.415 3.5211 -0.538222 0
M  V30 4172 O 385.274 5.43451 -0.576478 0
M  V30 4173 H 382.368 0.825376 -0.0518042 0
M  V30 4174 H 384.914 1.47548 -0.838315 0
M  V30 4175 H 383.686 3.55403 -1.6372 0
M  V30 4176 H 383.309 3.97592 0.0251197 0
M  V30 4177 N 384.306 0.507319 1.49211 0
M  V30 4178 C 385.555 -0.0368315 2.01666 0
M  V30 4179 C 385.868 -1.37459 1.39156 0
M  V30 4180 O 387.074 -2.00579 1.82976 0
M  V30 4181 C 385.53 -0.116089 3.59713 0
M  V30 4182 C 385.138 1.2154 4.31198 0
M  V30 4183 C 386.882 -0.610268 4.2009 0
M  V30 4184 C 384.789 1.09796 5.81119 0
M  V30 4185 H 383.719 -0.0175376 0.753796 0
M  V30 4186 H 386.37 0.647691 1.71689 0
M  V30 4187 H 384.752 -0.8652 3.86433 0
M  V30 4188 H 385.926 1.9783 4.16173 0
M  V30 4189 H 384.241 1.64352 3.82593 0
M  V30 4190 H 386.838 -0.715742 5.29888 0
M  V30 4191 H 387.181 -1.61064 3.8388 0
M  V30 4192 H 387.714 0.0824916 3.97714 0
M  V30 4193 H 384.453 2.0728 6.21864 0
M  V30 4194 H 383.973 0.376058 5.9862 0
M  V30 4195 H 385.652 0.779281 6.4229 0
M  V30 4196 N 385.784 -1.5574 0.241426 0
M  V30 4197 C 387.03 -1.99104 -0.385406 0
M  V30 4198 C 387.363 -1.1293 -1.57988 0
M  V30 4199 O 386.638 -0.191449 -1.93555 0
M  V30 4200 C 386.921 -3.51087 -0.800616 0
M  V30 4201 C 386.774 -4.48028 0.398874 0
M  V30 4202 C 388.093 -4.08015 -1.64959 0
M  V30 4203 H 385.212 -0.723848 -0.138614 0
M  V30 4204 H 387.854 -1.86903 0.341642 0
M  V30 4205 H 386.004 -3.61615 -1.4201 0
M  V30 4206 H 387.676 -4.49487 1.03726 0
M  V30 4207 H 385.919 -4.21077 1.04293 0
M  V30 4208 H 386.59 -5.51962 0.0651056 0
M  V30 4209 H 389.066 -4.00555 -1.12672 0
M  V30 4210 H 387.942 -5.14635 -1.90898 0
M  V30 4211 H 388.203 -3.56131 -2.61961 0
M  V30 4212 N 387.262 0.0317525 -1.57568 0
M  V30 4213 C 388.678 0.38735 -1.54828 0
M  V30 4214 C 388.878 1.7677 -0.967187 0
M  V30 4215 O 387.934 2.45581 -0.587063 0
M  V30 4216 C 389.247 0.291667 -2.99282 0
M  V30 4217 C 390.795 0.368946 -3.10818 0
M  V30 4218 C 391.27 0.302741 -4.56998 0
M  V30 4219 N 392.761 0.361617 -4.61786 0
M  V30 4220 C 393.496 0.333238 -5.72431 0
M  V30 4221 N 392.992 0.257308 -6.92322 0
M  V30 4222 N 394.785 0.382769 -5.60795 0
M  V30 4223 H 386.936 -0.871609 -1.93692 0
M  V30 4224 H 389.199 -0.331161 -0.888277 0
M  V30 4225 H 388.905 -0.656794 -3.45513 0
M  V30 4226 H 388.779 1.08638 -3.61217 0
M  V30 4227 H 391.166 1.30784 -2.64536 0
M  V30 4228 H 391.247 -0.455066 -2.5172 0
M  V30 4229 H 390.891 -0.632473 -5.03947 0
M  V30 4230 H 390.821 1.14482 -5.14005 0
M  V30 4231 H 393.312 0.422923 -3.75526 0
M  V30 4232 H 393.625 0.24068 -7.72425 0
M  V30 4233 H 391.97 0.223396 -6.94641 0
M  V30 4234 H 395.161 0.44006 -4.66027 0
M  V30 4235 H 395.334 0.357184 -6.47015 0
M  V30 4236 N 388.74 1.54641 0.303973 0
M  V30 4237 C 390.156 1.45788 0.649463 0
M  V30 4238 C 390.356 0.64666 1.90842 0
M  V30 4239 O 389.412 0.153183 2.52035 0
M  V30 4240 C 390.725 2.89718 0.805227 0
M  V30 4241 C 392.273 2.99742 0.901305 0
M  V30 4242 C 392.748 4.44863 1.08909 0
M  V30 4243 N 394.239 4.48559 1.15536 0
M  V30 4244 C 394.974 5.58026 1.3189 0
M  V30 4245 N 394.47 6.77422 1.45161 0
M  V30 4246 N 396.263 5.45708 1.34755 0
M  V30 4247 H 388.414 2.05854 -0.523237 0
M  V30 4248 H 390.677 0.932186 -0.172431 0
M  V30 4249 H 390.383 3.51666 -0.0489108 0
M  V30 4250 H 390.257 3.36964 1.69513 0
M  V30 4251 H 392.644 2.3791 1.74593 0
M  V30 4252 H 392.725 2.55797 -0.0125531 0
M  V30 4253 H 392.369 5.07288 0.249241 0
M  V30 4254 H 392.299 4.86436 2.01713 0
M  V30 4255 H 394.79 3.6254 1.06646 0
M  V30 4256 H 395.103 7.56604 1.57387 0
M  V30 4257 H 393.448 6.80292 1.42223 0
M  V30 4258 H 396.639 4.51378 1.23996 0
M  V30 4259 H 396.812 6.3107 1.47157 0
M  V30 4260 N 390.218 -0.567019 1.47046 0
M  V30 4261 C 391.148 -1.68482 1.61667 0
M  V30 4262 C 392.129 -1.6358 0.466418 0
M  V30 4263 O 393.314 -1.81354 0.694574 0
M  V30 4264 C 390.444 -3.07124 1.62148 0
M  V30 4265 C 389.398 -3.26867 2.76301 0
M  V30 4266 C 388.724 -4.66196 2.61849 0
M  V30 4267 C 390.024 -3.13186 4.17986 0
M  V30 4268 H 391.718 -1.56502 2.5524 0
M  V30 4269 H 389.264 -0.751486 1.22836 0
M  V30 4270 H 391.217 -3.8516 1.70968 0
M  V30 4271 H 389.941 -3.2004 0.651287 0
M  V30 4272 H 388.6 -2.51237 2.66975 0
M  V30 4273 H 388.248 -4.75898 1.62879 0
M  V30 4274 H 387.948 -4.80356 3.38425 0
M  V30 4275 H 389.472 -5.46379 2.72584 0
M  V30 4276 H 390.886 -3.81049 4.2834 0
M  V30 4277 H 389.283 -3.3886 4.95272 0
M  V30 4278 H 390.353 -2.10057 4.3704 0
M  V30 4279 N 391.696 -1.35014 -0.812953 0
M  V30 4280 C 392.926 -1.30841 -1.59888 0
M  V30 4281 C 393.334 0.117576 -1.88834 0
M  V30 4282 O 392.677 1.07807 -1.48739 0
M  V30 4283 C 392.739 -2.0412 -2.95931 0
M  V30 4284 C 392.403 -3.53336 -2.89832 0
M  V30 4285 C 393.4 -4.48052 -2.63714 0
M  V30 4286 C 391.085 -3.95894 -3.0915 0
M  V30 4287 C 393.079 -5.833 -2.56982 0
M  V30 4288 C 390.766 -5.31239 -3.0204 0
M  V30 4289 C 391.764 -6.24754 -2.75991 0
M  V30 4290 O 391.452 -7.57617 -2.68833 0
M  V30 4291 H 391.184 -0.451215 -0.50337 0
M  V30 4292 H 393.738 -1.78354 -1.01877 0
M  V30 4293 H 391.968 -1.51235 -3.559 0
M  V30 4294 H 393.657 -1.93107 -3.57022 0
M  V30 4295 H 394.423 -4.16492 -2.48515 0
M  V30 4296 H 390.302 -3.23495 -3.28438 0
M  V30 4297 H 393.846 -6.56263 -2.36569 0
M  V30 4298 H 389.743 -5.62415 -3.16796 0
M  V30 4299 H 390.511 -7.67469 -2.84487 0
M  V30 4300 N 393.175 1.03435 -1.18907 0
M  V30 4301 C 394.591 1.28973 -0.940111 0
M  V30 4302 C 394.791 1.97676 0.390691 0
M  V30 4303 O 393.847 2.26127 1.12352 0
M  V30 4304 C 395.16 2.14221 -2.11021 0
M  V30 4305 C 396.708 2.27547 -2.14922 0
M  V30 4306 C 397.183 3.16164 -3.31367 0
M  V30 4307 N 398.674 3.23752 -3.31269 0
M  V30 4308 C 399.409 3.92495 -4.18014 0
M  V30 4309 N 398.905 4.63515 -5.14904 0
M  V30 4310 N 400.698 3.88838 -4.05908 0
M  V30 4311 H 392.849 0.57252 -2.04538 0
M  V30 4312 H 395.112 0.315184 -0.894071 0
M  V30 4313 H 394.818 1.71054 -3.073 0
M  V30 4314 H 394.692 3.14919 -2.0762 0
M  V30 4315 H 397.079 2.69947 -1.19217 0
M  V30 4316 H 397.16 1.26418 -2.22378 0
M  V30 4317 H 396.804 2.74474 -4.27348 0
M  V30 4318 H 396.734 4.17339 -3.21148 0
M  V30 4319 H 399.225 2.73167 -2.61129 0
M  V30 4320 H 399.538 5.13583 -5.77453 0
M  V30 4321 H 397.883 4.62398 -5.18857 0
M  V30 4322 H 401.074 3.32491 -3.29495 0
M  V30 4323 H 401.247 4.4214 -4.73726 0
M  V30 4324 N 394.653 0.992116 1.22453 0
M  V30 4325 C 395.901 0.666215 1.90804 0
M  V30 4326 C 396.222 -0.804152 1.77647 0
M  V30 4327 O 395.492 -1.57629 1.16318 0
M  V30 4328 H 394.072 0.243423 0.706225 0
M  V30 4329 H 396.734 1.25845 1.48825 0
M  V30 4330 H 395.83 0.928069 2.97982 0
M  V30 4331 N 396.131 -1.37776 0.765217 0
M  V30 4332 C 397.063 -2.28958 0.105361 0
M  V30 4333 C 398.076 -1.48316 -0.67128 0
M  V30 4334 O 399.265 -1.71046 -0.51045 0
M  V30 4335 C 396.365 -3.27421 -0.874569 0
M  V30 4336 C 395.538 -4.37132 -0.153123 0
M  V30 4337 C 394.597 -5.1571 -1.04547 0
M  V30 4338 O 393.623 -5.66896 -0.511672 0
M  V30 4339 N 394.825 -5.29808 -2.37243 0
M  V30 4340 H 397.59 -2.86227 0.888495 0
M  V30 4341 H 395.151 -1.49682 0.617 0
M  V30 4342 H 397.143 -3.7687 -1.47483 0
M  V30 4343 H 395.713 -2.70967 -1.55871 0
M  V30 4344 H 394.933 -3.89166 0.627975 0
M  V30 4345 H 396.221 -5.07625 0.345643 0
M  V30 4346 H 395.619 -4.89793 -2.83054 0
M  V30 4347 H 394.176 -5.82589 -2.9229 0
M  V30 4348 N 397.609 -0.515225 -1.4894 0
M  V30 4349 C 398.837 0.0206034 -2.0689 0
M  V30 4350 C 399.252 1.29514 -1.37374 0
M  V30 4351 O 398.609 1.76698 -0.456529 0
M  V30 4352 C 398.66 0.26351 -3.60538 0
M  V30 4353 O 398.381 -0.960517 -4.27441 0
M  V30 4354 C 399.882 0.841383 -4.35242 0
M  V30 4355 H 397.102 -0.0268608 -0.670462 0
M  V30 4356 H 399.646 -0.716651 -1.91532 0
M  V30 4357 H 397.801 0.950777 -3.75552 0
M  V30 4358 H 398.215 -0.73212 -5.19365 0
M  V30 4359 H 399.689 0.96085 -5.43573 0
M  V30 4360 H 400.166 1.8427 -3.98674 0
M  V30 4361 H 400.772 0.191143 -4.2487 0
M  V30 4362 N 399.087 1.5561 -0.249682 0
M  V30 4363 C 400.05 2.20217 0.635394 0
M  V30 4364 C 401.05 1.17227 1.10066 0
M  V30 4365 O 402.24 1.42292 1.00492 0
M  V30 4366 C 399.372 2.84794 1.87363 0
M  V30 4367 H 400.565 2.99814 0.0716752 0
M  V30 4368 H 398.118 1.563 -0.000153234 0
M  V30 4369 H 398.853 2.09142 2.47851 0
M  V30 4370 H 398.638 3.60241 1.5482 0
M  V30 4371 H 400.128 3.3423 2.5036 0
M  V30 4372 N 400.565 -0.0233959 1.57583 0
M  V30 4373 C 401.842 -0.748794 1.807 0
M  V30 4374 C 402.222 -1.9327 0.849106 0
M  V30 4375 O 401.57 -2.28247 -0.107468 0
M  V30 4376 C 401.78 -1.17651 3.28571 0
M  V30 4377 C 403.128 -1.59008 3.93702 0
M  V30 4378 O 404.152 -1.27094 3.32755 0
M  V30 4379 O 403.011 -2.18264 5.01022 0
M  V30 4380 H 400.105 -0.362578 0.743281 0
M  V30 4381 H 402.651 0.000261958 1.697 0
M  V30 4382 H 401.423 -0.331603 3.89892 0
M  V30 4383 H 401.046 -1.98541 3.44481 0
M  V30 4384 N 402.043 -1.548 -0.295768 0
M  V30 4385 C 403.292 -1.73538 -1.02798 0
M  V30 4386 C 403.605 -0.531159 -1.8825 0
M  V30 4387 O 404.811 -0.600458 -2.64777 0
M  V30 4388 C 403.267 -3.07051 -1.87744 0
M  V30 4389 C 402.875 -4.34968 -1.07269 0
M  V30 4390 C 404.619 -3.35146 -2.60533 0
M  V30 4391 C 402.526 -5.5953 -1.91521 0
M  V30 4392 H 401.456 -0.646794 -0.387522 0
M  V30 4393 H 404.107 -1.81278 -0.284718 0
M  V30 4394 H 402.489 -2.93289 -2.66078 0
M  V30 4395 H 403.663 -4.5958 -0.335117 0
M  V30 4396 H 401.978 -4.13847 -0.460384 0
M  V30 4397 H 404.575 -4.2541 -3.23929 0
M  V30 4398 H 404.918 -2.54255 -3.29636 0
M  V30 4399 H 405.451 -3.49902 -1.89244 0
M  V30 4400 H 402.19 -6.43103 -1.26878 0
M  V30 4401 H 401.71 -5.39096 -2.62937 0
M  V30 4402 H 403.389 -5.96982 -2.49442 0
M  V30 4403 O 403.56 0.441645 -1.55344 0
M  V30 4404 H 404.251 1.0953 -1.59759 0
M  V30 END ATOM
M  V30 BEGIN BOND
M  V30 END BOND
M  V30 END CTAB
M  END
$$$$
