drugbank_target|P35372 Mu-type opioid receptor (DB00193; DB00295; DB00318; DB00321; DB00327; DB00333; DB00454; DB00497; DB00504; DB00514; DB00611; DB00647; DB00652; DB00704; DB00708; DB00802; DB00813; DB00836; DB00844; DB00854; DB00899; DB00904; DB00913; DB00921; DB00956; DB01081; DB01183; DB01192; DB01209; DB01221; DB01227; DB01238; DB01433; DB01439; DB01444; DB01452; DB01466; DB01497; DB01535; DB01548; DB01565; DB01571; DB05046; DB05492; DB05509; DB06204; DB06230; DB06274; DB06409; DB06738; DB06800; DB09049; DB09061; DB09089; DB09173; DB09209; DB09272; DB09289; DB11130; DB11186; DB11691; DB12668; DB14009; DB14011; DB14146; DB14881)
 OpenBabel12092119393D

  0  0  0     0  0            999 V3000
M  V30 BEGIN CTAB
M  V30 COUNTS 6309 6387 0 0 0
M  V30 BEGIN ATOM
M  V30 1 H -0.908 1.98254 -0.117106 0
M  V30 2 N 0 1.576 0 0
M  V30 3 C 0.933 2.03868 1.02534 0
M  V30 4 C 1.911 0.928543 1.3348 0
M  V30 5 O 3.095 1.19667 1.45644 0
M  V30 6 C 0.222 2.43627 2.35294 0
M  V30 7 C -0.732 3.65373 2.2001 0
M  V30 8 S 0.101 5.13292 1.52614 0
M  V30 9 C 1.257 5.56322 2.86805 0
M  V30 10 H 1.49 2.90518 0.631377 0
M  V30 11 H -0.977 1.52953 0.210867 0
M  V30 12 H 0.981 2.67203 3.11629 0
M  V30 13 H -0.358 1.57376 2.7183 0
M  V30 14 H -1.165 3.90944 3.18086 0
M  V30 15 H -1.563 3.418 1.51819 0
M  V30 16 H 0.729 5.58782 3.83104 0
M  V30 17 H 1.672 6.56266 2.65933 0
M  V30 18 H 2.08 4.83886 2.90714 0
M  V30 19 N 1.4781 -0.272755 1.55222 0
M  V30 20 C 2.7551 -1.02562 1.66555 0
M  V30 21 C 3.1351 -2.04282 0.532189 0
M  V30 22 O 2.4831 -2.23662 -0.467717 0
M  V30 23 C 2.6931 -1.6822 3.05782 0
M  V30 24 C 4.0411 -2.19373 3.63539 0
M  V30 25 O 5.0651 -1.78206 3.08417 0
M  V30 26 O 3.9241 -2.94883 4.60115 0
M  V30 27 H 1.0181 -0.475755 0.676451 0
M  V30 28 H 3.5641 -0.268593 1.67561 0
M  V30 29 H 2.3361 -0.945112 3.79715 0
M  V30 30 H 1.9591 -2.50609 3.08676 0
M  V30 31 N 2.9562 -1.48159 -0.537278 0
M  V30 32 C 4.1812 -1.59707 -1.32319 0
M  V30 33 C 4.6062 -0.254859 -1.86365 0
M  V30 34 O 3.9642 0.772378 -1.64024 0
M  V30 35 C 4.0122 -2.6412 -2.45505 0
M  V30 36 O 3.1162 -2.20774 -3.48328 0
M  V30 37 H 2.4572 -0.535791 -0.392204 0
M  V30 38 H 4.9872 -1.94092 -0.647268 0
M  V30 39 H 4.9972 -2.85166 -2.91795 0
M  V30 40 H 3.6722 -3.61567 -2.05528 0
M  V30 41 H 2.2492 -2.09911 -3.08207 0
M  V30 42 N 4.4343 0.785586 -1.36625 0
M  V30 43 C 5.6593 1.57963 -1.34397 0
M  V30 44 C 6.0843 1.87964 0.071526 0
M  V30 45 O 5.4423 1.48182 1.0446 0
M  V30 46 C 5.4903 2.87511 -2.17646 0
M  V30 47 O 4.5943 3.81281 -1.57158 0
M  V30 48 H 3.9353 0.479014 -0.459828 0
M  V30 49 H 6.4653 0.973411 -1.79961 0
M  V30 50 H 6.4753 3.36745 -2.30362 0
M  V30 51 H 5.1503 2.65002 -3.20541 0
M  V30 52 H 3.7273 3.39885 -1.53403 0
M  V30 53 N 5.9124 1.20967 1.01018 0
M  V30 54 C 6.8754 0.965918 2.07853 0
M  V30 55 C 7.8754 -0.0610545 1.60684 0
M  V30 56 O 9.0654 0.175681 1.73312 0
M  V30 57 C 6.1974 0.455513 3.37843 0
M  V30 58 H 7.3904 1.91365 2.3091 0
M  V30 59 H 4.9434 1.02594 1.17916 0
M  V30 60 H 5.6784 -0.497381 3.20463 0
M  V30 61 H 5.4634 1.19622 3.73407 0
M  V30 62 H 6.9534 0.304667 4.16487 0
M  V30 63 N 7.3905 -1.2043 1.01659 0
M  V30 64 C 8.3535 -2.21433 0.591616 0
M  V30 65 C 9.3535 -1.57203 -0.338226 0
M  V30 66 O 10.5435 -1.73737 -0.126918 0
M  V30 67 C 7.6755 -3.40628 -0.136058 0
M  V30 68 H 8.8685 -2.60545 1.48514 0
M  V30 69 H 6.4215 -1.33893 0.806379 0
M  V30 70 H 7.1565 -3.07019 -1.04449 0
M  V30 71 H 6.9415 -3.88475 0.531917 0
M  V30 72 H 8.4315 -4.15475 -0.420735 0
M  V30 73 N 8.8686 -0.792821 -1.36206 0
M  V30 74 C 10.2796 -0.429513 -1.81692 0
M  V30 75 C 10.6306 1.04695 -1.65932 0
M  V30 76 O 9.7556 1.81256 -1.18218 0
M  V30 77 C 10.3506 -0.772831 -3.29868 0
M  V30 78 C 8.9096 -0.462307 -3.7355 0
M  V30 79 C 8.0566 -1.00569 -2.5842 0
M  V30 80 H 11.0076 -0.985672 -1.24379 0
M  V30 81 H 11.0286 -0.0651928 -3.80444 0
M  V30 82 H 10.5406 -1.84747 -3.41307 0
M  V30 83 H 8.6416 0.604158 -3.67669 0
M  V30 84 H 8.7546 -0.985299 -4.68859 0
M  V30 85 H 7.1186 -0.428734 -2.51066 0
M  V30 86 H 7.9016 -2.08616 -2.72643 0
M  V30 87 N 10.3467 1.47872 -0.545128 0
M  V30 88 C 11.5747 2.06889 -0.021084 0
M  V30 89 C 11.9897 1.39955 1.2672 0
M  V30 90 O 11.3467 0.492036 1.75742 0
M  V30 91 C 11.3977 3.60996 0.190817 0
M  V30 92 O 11.1187 4.25419 -1.04644 0
M  V30 93 C 12.6197 4.36849 0.753521 0
M  V30 94 H 9.8397 0.669785 -0.0403635 0
M  V30 95 H 12.3837 1.90049 -0.755095 0
M  V30 96 H 10.5387 3.77391 0.87492 0
M  V30 97 H 10.9527 5.17785 -0.836611 0
M  V30 98 H 12.4267 5.45399 0.851139 0
M  V30 99 H 12.9037 4.02306 1.762 0
M  V30 100 H 13.5097 4.25169 0.105503 0
M  V30 101 N 11.8248 0.280983 1.55075 0
M  V30 102 C 12.7728 -0.619864 2.24188 0
M  V30 103 C 13.7668 -1.15315 1.24092 0
M  V30 104 O 14.9728 -1.1061 1.42005 0
M  V30 105 H 11.3478 -0.218459 0.719569 0
M  V30 106 H 13.3188 -0.0141831 2.98397 0
M  V30 107 C 12.0678 -1.7899 2.98091 0
M  V30 108 H 11.3908 -1.38874 3.74905 0
M  V30 109 H 12.8308 -2.39672 3.49762 0
M  V30 110 C 11.2898 -2.68192 2.03899 0
M  V30 111 O 11.8198 -3.6872 1.594 0
M  V30 112 N 10.0258 -2.35488 1.70275 0
M  V30 113 H 9.5728 -1.53787 2.06658 0
M  V30 114 H 9.5308 -2.95442 1.07524 0
M  V30 115 N 13.3029 -1.57598 0.00835791 0
M  V30 116 C 14.2659 -2.07884 -0.965242 0
M  V30 117 C 15.2659 -0.989825 -1.26725 0
M  V30 118 O 16.4559 -1.25218 -1.21104 0
M  V30 119 C 13.5879 -2.52731 -2.28779 0
M  V30 120 H 14.7809 -2.95178 -0.530112 0
M  V30 121 H 12.3339 -1.54458 -0.239283 0
M  V30 122 H 13.0689 -1.68705 -2.76964 0
M  V30 123 H 12.8539 -3.32272 -2.08177 0
M  V30 124 H 14.3439 -2.91933 -2.98605 0
M  V30 125 N 14.781 0.264519 -1.55364 0
M  V30 126 C 16.006 1.01726 -1.80739 0
M  V30 127 C 16.431 1.78836 -0.583044 0
M  V30 128 O 15.789 1.75167 0.467566 0
M  V30 129 C 15.837 1.94482 -3.03659 0
M  V30 130 O 14.941 3.03386 -2.7934 0
M  V30 131 H 14.282 0.290395 -0.597132 0
M  V30 132 H 16.812 0.290854 -2.02522 0
M  V30 133 H 16.822 2.36278 -3.32621 0
M  V30 134 H 15.497 1.37772 -3.92418 0
M  V30 135 H 14.074 2.65844 -2.61498 0
M  V30 136 N 16.2591 1.48442 0.529413 0
M  V30 137 C 17.2071 1.63452 1.65487 0
M  V30 138 C 18.2011 0.500955 1.61823 0
M  V30 139 O 19.4071 0.679695 1.66674 0
M  V30 140 H 15.7821 0.514905 0.548066 0
M  V30 141 H 17.7531 2.57975 1.49971 0
M  V30 142 C 16.5021 1.69196 3.03756 0
M  V30 143 H 15.8251 2.55784 3.07269 0
M  V30 144 H 17.2651 1.83743 3.82119 0
M  V30 145 C 15.7241 0.430765 3.34135 0
M  V30 146 O 16.2541 -0.4561 3.99102 0
M  V30 147 N 14.4601 0.302293 2.89023 0
M  V30 148 H 14.0071 1.02496 2.36331 0
M  V30 149 H 13.9651 -0.540546 3.09718 0
M  V30 150 N 17.7372 -0.778329 1.37039 0
M  V30 151 C 18.9772 -1.54973 1.33276 0
M  V30 152 C 19.3412 -1.91816 -0.0839376 0
M  V30 153 O 20.5422 -2.6767 -0.246228 0
M  V30 154 C 18.8132 -2.78517 2.23971 0
M  V30 155 S 20.3722 -3.6865 2.37997 0
M  V30 156 H 17.1902 -0.530639 0.473226 0
M  V30 157 H 19.7922 -0.915806 1.72723 0
M  V30 158 H 18.4962 -2.4952 3.25835 0
M  V30 159 H 18.0272 -3.46875 1.85584 0
M  V30 160 H 20.0422 -4.70182 1.58567 0
M  V30 161 N 19.2153 -1.21501 -1.00376 0
M  V30 162 C 20.4433 -1.059 -1.77744 0
M  V30 163 C 20.8583 0.391125 -1.84704 0
M  V30 164 O 20.2153 1.27133 -1.30933 0
M  V30 165 C 20.2663 -1.65111 -3.21591 0
M  V30 166 O 19.9873 -3.0445 -3.15027 0
M  V30 167 C 21.4883 -1.54637 -4.15454 0
M  V30 168 H 18.7083 -0.371825 -0.558558 0
M  V30 169 H 21.2523 -1.60865 -1.26264 0
M  V30 170 H 19.4073 -1.14235 -3.70175 0
M  V30 171 H 19.8213 -3.3278 -4.0541 0
M  V30 172 H 21.2953 -2.00808 -5.14179 0
M  V30 173 H 21.7723 -0.501022 -4.36333 0
M  V30 174 H 22.3783 -2.04767 -3.72761 0
M  V30 175 N 20.6934 1.19889 -1.02296 0
M  V30 176 C 21.9704 1.85148 -0.630832 0
M  V30 177 C 22.3504 1.91385 0.890782 0
M  V30 178 O 21.6984 1.42642 1.78509 0
M  V30 179 C 21.9084 3.24442 -1.28602 0
M  V30 180 C 23.2564 4.00663 -1.4055 0
M  V30 181 O 24.2804 3.33818 -1.24273 0
M  V30 182 O 23.1394 5.20387 -1.66913 0
M  V30 183 H 20.2334 0.797613 -0.218499 0
M  V30 184 H 22.7794 1.27427 -1.12074 0
M  V30 185 H 21.5514 3.14704 -2.32545 0
M  V30 186 H 21.1744 3.89802 -0.7836 0
M  V30 187 N 22.1715 0.800033 1.35784 0
M  V30 188 C 23.1345 0.211565 2.28221 0
M  V30 189 C 24.1345 -0.59728 1.49296 0
M  V30 190 O 25.3245 -0.416721 1.69142 0
M  V30 191 C 22.4565 -0.705846 3.33513 0
M  V30 192 H 23.6495 1.02677 2.81776 0
M  V30 193 H 21.2025 0.570211 1.45528 0
M  V30 194 H 21.9375 -1.54498 2.85133 0
M  V30 195 H 21.7225 -0.127655 3.91892 0
M  V30 196 H 23.2125 -1.11211 4.02519 0
M  V30 197 N 23.6496 -1.47581 0.552962 0
M  V30 198 C 24.5796 -2.32762 -0.185451 0
M  V30 199 C 25.5606 -1.43527 -0.912905 0
M  V30 200 O 26.7456 -1.72388 -0.894201 0
M  V30 201 C 23.8756 -3.25219 -1.21859 0
M  V30 202 C 22.8296 -4.23661 -0.607864 0
M  V30 203 C 22.1556 -5.05413 -1.74533 0
M  V30 204 C 23.4556 -5.20481 0.435582 0
M  V30 205 H 25.1496 -2.94749 0.525684 0
M  V30 206 H 22.6956 -1.41738 0.254251 0
M  V30 207 H 24.6486 -3.8365 -1.7433 0
M  V30 208 H 23.3726 -2.61279 -1.95961 0
M  V30 209 H 22.0316 -3.66451 -0.104489 0
M  V30 210 H 21.6796 -4.3788 -2.47529 0
M  V30 211 H 21.3796 -5.72059 -1.34249 0
M  V30 212 H 22.9036 -5.66701 -2.27338 0
M  V30 213 H 24.3176 -5.733 -0.00290157 0
M  V30 214 H 22.7146 -5.95305 0.757067 0
M  V30 215 H 23.7846 -4.66217 1.33303 0
M  V30 216 N 25.1277 -0.289203 -1.54924 0
M  V30 217 C 26.0907 0.579144 -2.21762 0
M  V30 218 C 27.0907 1.07047 -1.1999 0
M  V30 219 O 28.2807 0.968384 -1.44803 0
M  V30 220 C 25.4127 1.80055 -2.8947 0
M  V30 221 H 26.6057 -0.00464908 -2.999 0
M  V30 222 H 24.1587 -0.0399306 -1.56249 0
M  V30 223 H 24.8937 2.42449 -2.15381 0
M  V30 224 H 24.6787 1.45602 -3.64064 0
M  V30 225 H 26.1687 2.41773 -3.40493 0
M  V30 226 N 26.6058 1.57591 -0.0167156 0
M  V30 227 C 27.8358 1.95292 0.674149 0
M  V30 228 C 28.2438 0.891097 1.66901 0
M  V30 229 O 27.5868 -0.136908 1.83189 0
M  V30 230 C 27.6488 3.29072 1.44747 0
M  V30 231 C 27.3128 4.52879 0.612331 0
M  V30 232 C 28.3098 5.1979 -0.107126 0
M  V30 233 C 25.9948 4.99242 0.553381 0
M  V30 234 C 27.9888 6.31375 -0.874339 0
M  V30 235 C 25.6758 6.10713 -0.217546 0
M  V30 236 C 26.6738 6.76637 -0.930123 0
M  V30 237 O 26.3618 7.85969 -1.68844 0
M  V30 238 H 26.0938 0.648275 0.191615 0
M  V30 239 H 28.6478 2.05284 -0.0690148 0
M  V30 240 H 26.8778 3.15535 2.2355 0
M  V30 241 H 28.5668 3.51764 2.02526 0
M  V30 242 H 29.3328 4.84948 -0.0708392 0
M  V30 243 H 25.2118 4.47744 1.09757 0
M  V30 244 H 28.7558 6.82764 -1.43106 0
M  V30 245 H 24.6528 6.44994 -0.255593 0
M  V30 246 H 25.4208 8.02571 -1.6069 0
M  V30 247 N 28.0839 -0.256276 1.55502 0
M  V30 248 C 29.3089 -1.00766 1.81276 0
M  V30 249 C 29.7339 -1.78524 0.59252 0
M  V30 250 O 29.0919 -1.75413 -0.45827 0
M  V30 251 C 29.1399 -1.92869 3.04687 0
M  V30 252 O 28.2439 -3.019 2.80945 0
M  V30 253 H 27.5849 -0.287224 0.598664 0
M  V30 254 H 30.1149 -0.280109 2.02674 0
M  V30 255 H 30.1249 -2.34511 3.33869 0
M  V30 256 H 28.7999 -1.35689 3.93143 0
M  V30 257 H 27.3769 -2.64454 2.62904 0
M  V30 258 N 29.562 -1.4872 -0.521534 0
M  V30 259 C 30.787 -1.61101 -1.30618 0
M  V30 260 C 31.212 -0.274611 -1.86085 0
M  V30 261 O 30.57 0.754937 -1.64834 0
M  V30 262 C 30.618 -2.66709 -2.4269 0
M  V30 263 O 29.722 -2.24456 -3.45967 0
M  V30 264 H 29.063 -0.539921 -0.386499 0
M  V30 265 H 31.593 -1.94767 -0.626645 0
M  V30 266 H 31.603 -2.88245 -2.88754 0
M  V30 267 H 30.278 -3.63727 -2.01682 0
M  V30 268 H 28.855 -2.13168 -3.05964 0
M  V30 269 N 31.0401 0.771051 -1.3745 0
M  V30 270 C 32.2801 1.54264 -1.34096 0
M  V30 271 C 32.6441 1.91858 0.0737639 0
M  V30 272 O 33.8451 2.67797 0.23203 0
M  V30 273 C 32.1161 2.77326 -2.25445 0
M  V30 274 S 33.6751 3.67383 -2.39948 0
M  V30 275 H 30.4931 0.528122 -0.476034 0
M  V30 276 H 33.0951 0.906633 -1.73206 0
M  V30 277 H 31.7991 2.47788 -3.27153 0
M  V30 278 H 31.3301 3.45886 -1.87421 0
M  V30 279 H 33.3451 4.69334 -1.61059 0
M  V30 280 N 32.5182 1.22032 0.997298 0
M  V30 281 C 33.7432 1.06921 1.77715 0
M  V30 282 C 34.1682 -0.376226 1.84299 0
M  V30 283 O 33.5262 -1.27165 1.29223 0
M  V30 284 C 33.5742 1.67996 3.19076 0
M  V30 285 O 32.6782 0.930653 4.01762 0
M  V30 286 H 32.0192 0.375814 0.547412 0
M  V30 287 H 34.5492 1.61737 1.25309 0
M  V30 288 H 34.5592 1.72538 3.69723 0
M  V30 289 H 33.2342 2.73182 3.13599 0
M  V30 290 H 31.8112 0.960917 3.60307 0
M  V30 291 N 33.9963 -1.19345 1.0293 0
M  V30 292 C 35.4073 -1.70725 0.755633 0
M  V30 293 C 35.7583 -1.82326 -0.724676 0
M  V30 294 O 34.8833 -1.49471 -1.56484 0
M  V30 295 C 35.4783 -3.10084 1.36503 0
M  V30 296 C 34.0373 -3.58723 1.13994 0
M  V30 297 C 33.1843 -2.35577 1.46283 0
M  V30 298 H 36.1353 -1.0418 1.19718 0
M  V30 299 H 36.1563 -3.72787 0.762217 0
M  V30 300 H 35.6683 -3.01609 2.44241 0
M  V30 301 H 33.7693 -3.72512 0.0807901 0
M  V30 302 H 33.8823 -4.42816 1.82894 0
M  V30 303 H 32.2463 -2.38935 0.88217 0
M  V30 304 H 33.0293 -2.29731 2.55105 0
M  V30 305 N 35.4744 -0.807222 -1.35358 0
M  V30 306 C 36.4374 -0.223665 -2.28106 0
M  V30 307 C 37.4374 0.589354 -1.4961 0
M  V30 308 O 38.6274 0.407745 -1.69361 0
M  V30 309 C 35.7594 0.688149 -3.33882 0
M  V30 310 H 36.9524 -1.04169 -2.81227 0
M  V30 311 H 34.5054 -0.577921 -1.45223 0
M  V30 312 H 35.2404 1.52984 -2.85948 0
M  V30 313 H 35.0254 0.10687 -3.91954 0
M  V30 314 H 36.5154 1.09075 -4.03104 0
M  V30 315 N 36.9525 1.47285 -0.560781 0
M  V30 316 C 38.3635 1.86258 -0.128343 0
M  V30 317 C 38.7145 1.46699 1.30284 0
M  V30 318 O 37.8395 0.871698 1.98067 0
M  V30 319 C 38.4345 3.38044 -0.22614 0
M  V30 320 C 36.9935 3.76096 0.151283 0
M  V30 321 C 36.1405 2.71335 -0.572084 0
M  V30 322 H 39.0915 1.38752 -0.770297 0
M  V30 323 H 39.1125 3.76441 0.554322 0
M  V30 324 H 38.6245 3.66806 -1.26788 0
M  V30 325 H 36.7255 3.52951 1.19399 0
M  V30 326 H 36.8385 4.78641 -0.209765 0
M  V30 327 H 35.2025 2.54696 -0.0147653 0
M  V30 328 H 35.9855 3.02938 -1.61504 0
M  V30 329 N 38.4306 0.297415 1.54768 0
M  V30 330 C 39.6556 -0.318435 2.04941 0
M  V30 331 C 40.0806 -1.4701 1.17345 0
M  V30 332 O 39.4386 -1.80436 0.176758 0
M  V30 333 C 39.4866 -0.755749 3.52592 0
M  V30 334 O 38.5906 -1.86088 3.68028 0
M  V30 335 H 37.9316 -0.062421 0.661059 0
M  V30 336 H 40.4616 0.438215 1.99852 0
M  V30 337 H 40.4716 -1.04552 3.94376 0
M  V30 338 H 39.1466 0.0867233 4.1581 0
M  V30 339 H 37.7236 -1.57193 3.38149 0
M  V30 340 N 39.9087 -1.5758 0.0250728 0
M  V30 341 C 41.3197 -1.79476 -0.514323 0
M  V30 342 C 41.6707 -0.934956 -1.72491 0
M  V30 343 O 40.7957 -0.144245 -2.15919 0
M  V30 344 C 41.3907 -3.25503 -0.939842 0
M  V30 345 C 39.9497 -3.48408 -1.42438 0
M  V30 346 C 39.0967 -2.74583 -0.387201 0
M  V30 347 H 42.0477 -1.567 0.25113 0
M  V30 348 H 42.0687 -3.34992 -1.80445 0
M  V30 349 H 41.5807 -3.88056 -0.0585628 0
M  V30 350 H 39.6817 -2.91103 -2.32572 0
M  V30 351 H 39.7947 -4.57119 -1.43455 0
M  V30 352 H 38.1587 -2.39942 -0.854409 0
M  V30 353 H 38.9417 -3.39849 0.485543 0
M  V30 354 N 41.3868 0.248026 -1.55636 0
M  V30 355 C 42.6348 0.974295 -1.77065 0
M  V30 356 C 42.9558 1.85897 -0.588849 0
M  V30 357 O 42.2258 1.91868 0.395407 0
M  V30 358 H 40.8058 0.362733 -0.653019 0
M  V30 359 H 43.4678 0.266244 -1.93073 0
M  V30 360 H 42.5638 1.59667 -2.68166 0
M  V30 361 N 42.8649 1.48995 0.513639 0
M  V30 362 C 44.0899 1.61792 1.29762 0
M  V30 363 C 44.5149 0.284475 1.85936 0
M  V30 364 O 43.8729 -0.746185 1.65232 0
M  V30 365 C 43.9209 2.67993 2.41272 0
M  V30 366 O 43.0249 2.26287 3.44772 0
M  V30 367 H 42.3659 0.541963 0.38363 0
M  V30 368 H 44.8959 1.95097 0.616307 0
M  V30 369 H 44.9059 2.89772 2.87221 0
M  V30 370 H 43.5809 3.64791 1.9975 0
M  V30 371 H 42.1579 2.14788 3.04829 0
M  V30 372 N 44.343 -0.763751 1.37857 0
M  V30 373 C 45.589 -1.52396 1.3471 0
M  V30 374 C 45.944 -1.92288 -0.0656435 0
M  V30 375 O 45.237 -1.6181 -1.02606 0
M  V30 376 C 45.431 -2.79499 2.22745 0
M  V30 377 C 45.26 -2.52031 3.72438 0
M  V30 378 C 44.03 -2.45759 4.4151 0
M  V30 379 C 46.228 -2.19489 4.65112 0
M  V30 380 N 44.21 -2.1046 5.76697 0
M  V30 381 C 45.581 -1.94396 5.88736 0
M  V30 382 C 47.636 -2.05712 4.53417 0
M  V30 383 C 46.339 -1.56917 7.01975 0
M  V30 384 C 48.365 -1.69634 5.66549 0
M  V30 385 C 47.727 -1.45407 6.89229 0
M  V30 386 H 43.826 -0.55765 0.548225 0
M  V30 387 H 46.41 -0.890302 1.73152 0
M  V30 388 H 44.581 -3.4069 1.86507 0
M  V30 389 H 46.313 -3.45465 2.10798 0
M  V30 390 H 43.068 -2.61885 3.94605 0
M  V30 391 H 43.492 -1.95484 6.48163 0
M  V30 392 H 48.134 -2.23123 3.59133 0
M  V30 393 H 45.852 -1.38246 7.96187 0
M  V30 394 H 49.438 -1.59621 5.59475 0
M  V30 395 H 48.318 -1.17904 7.75286 0
M  V30 396 N 45.8211 -1.22559 -0.990812 0
M  V30 397 C 47.0671 -1.05297 -1.73322 0
M  V30 398 C 47.4001 0.410655 -1.89808 0
M  V30 399 O 46.6751 1.30439 -1.44277 0
M  V30 400 C 46.9581 -1.76713 -3.13759 0
M  V30 401 C 46.8111 -3.30684 -3.04907 0
M  V30 402 C 48.1301 -1.52121 -4.12974 0
M  V30 403 H 45.2491 -0.38392 -0.629106 0
M  V30 404 H 47.8911 -1.50926 -1.15418 0
M  V30 405 H 46.0411 -1.37924 -3.63193 0
M  V30 406 H 47.7131 -3.7893 -2.63077 0
M  V30 407 H 45.9561 -3.60253 -2.41661 0
M  V30 408 H 46.6271 -3.75833 -4.04294 0
M  V30 409 H 49.1031 -1.85819 -3.72304 0
M  V30 410 H 47.9791 -2.04582 -5.0935 0
M  V30 411 H 48.2401 -0.454257 -4.3976 0
M  V30 412 N 47.2992 1.18797 -1.03562 0
M  V30 413 C 48.2472 2.24297 -0.615905 0
M  V30 414 C 49.2412 1.65643 0.354808 0
M  V30 415 O 50.4472 1.78618 0.22265 0
M  V30 416 H 46.8222 0.729909 -0.180934 0
M  V30 417 H 48.7932 2.5701 -1.5162 0
M  V30 418 C 47.5422 3.47698 0.0104735 0
M  V30 419 H 46.8652 3.93125 -0.727509 0
M  V30 420 H 48.3052 4.23159 0.266995 0
M  V30 421 C 46.7642 3.12489 1.25905 0
M  V30 422 O 47.2942 3.25761 2.35038 0
M  V30 423 N 45.5002 2.6686 1.15039 0
M  V30 424 H 45.0472 2.56261 0.262328 0
M  V30 425 H 45.0052 2.43674 1.98672 0
M  V30 426 N 48.7773 0.814389 1.34928 0
M  V30 427 C 49.7073 0.244827 2.32213 0
M  V30 428 C 50.6883 -0.634024 1.57842 0
M  V30 429 O 51.8733 -0.562676 1.8587 0
M  V30 430 C 49.0033 -0.601106 3.42058 0
M  V30 431 C 47.9573 0.179896 4.27622 0
M  V30 432 C 47.2833 -0.788237 5.28858 0
M  V30 433 C 48.5833 1.38329 5.03649 0
M  V30 434 H 50.2773 1.05763 2.80097 0
M  V30 435 H 47.8233 0.510029 1.34665 0
M  V30 436 H 49.7763 -1.00968 4.09125 0
M  V30 437 H 48.5003 -1.44688 2.92802 0
M  V30 438 H 47.1593 0.569739 3.62146 0
M  V30 439 H 46.8073 -1.62973 4.75866 0
M  V30 440 H 46.5073 -0.269942 5.8698 0
M  V30 441 H 48.0313 -1.19485 5.98795 0
M  V30 442 H 49.4453 1.04918 5.63618 0
M  V30 443 H 47.8423 1.83662 5.71304 0
M  V30 444 H 48.9123 2.16592 4.33839 0
M  V30 445 N 50.2554 -1.46986 0.568584 0
M  V30 446 C 51.4804 -2.07335 0.0520528 0
M  V30 447 C 51.9054 -1.41675 -1.23733 0
M  V30 448 O 51.2634 -0.495623 -1.74394 0
M  V30 449 C 51.3114 -3.60417 -0.11501 0
M  V30 450 O 50.4154 -3.95309 -1.17492 0
M  V30 451 H 49.7564 -0.661597 0.0564385 0
M  V30 452 H 52.2864 -1.88837 0.787507 0
M  V30 453 H 52.2964 -4.06698 -0.325644 0
M  V30 454 H 50.9714 -4.07601 0.826675 0
M  V30 455 H 49.5484 -3.60757 -0.943869 0
M  V30 456 N 51.7335 -0.305618 -1.54608 0
M  V30 457 C 52.6835 0.583595 -2.20405 0
M  V30 458 C 53.6675 1.09539 -1.17856 0
M  V30 459 O 54.8595 1.0354 -1.43557 0
M  V30 460 C 51.9885 1.75277 -2.95183 0
M  V30 461 C 51.0745 1.25672 -4.05052 0
M  V30 462 N 51.4655 0.478998 -5.03527 0
M  V30 463 C 49.7635 1.53704 -4.18678 0
M  V30 464 C 50.4645 0.214269 -5.81305 0
M  V30 465 N 49.4405 0.795374 -5.3775 0
M  V30 466 H 53.2425 -0.0180946 -2.93894 0
M  V30 467 H 50.7565 -0.110601 -1.62023 0
M  V30 468 H 52.7535 2.4014 -3.40791 0
M  V30 469 H 51.4135 2.35812 -2.23211 0
M  V30 470 H 52.4245 0.123473 -5.17753 0
M  V30 471 H 49.1015 2.14954 -3.57912 0
M  V30 472 H 50.4915 -0.410656 -6.70644 0
M  V30 473 N 53.2116 1.57565 -0.0334293 0
M  V30 474 C 54.1416 2.13511 0.945265 0
M  V30 475 C 55.1226 1.05231 1.33643 0
M  V30 476 O 56.3076 1.33084 1.41429 0
M  V30 477 C 53.4376 2.6657 2.22616 0
M  V30 478 C 52.3916 3.79676 1.97561 0
M  V30 479 C 51.7176 4.1918 3.31952 0
M  V30 480 C 53.0176 5.0557 1.31135 0
M  V30 481 H 54.7116 2.95538 0.479325 0
M  V30 482 H 52.2576 1.42166 0.229115 0
M  V30 483 H 54.2106 3.04344 2.91466 0
M  V30 484 H 52.9346 1.8171 2.71384 0
M  V30 485 H 51.5936 3.42347 1.31127 0
M  V30 486 H 51.2416 3.31296 3.78487 0
M  V30 487 H 50.9416 4.95402 3.15992 0
M  V30 488 H 52.4656 4.59541 4.02063 0
M  V30 489 H 53.8796 5.40903 1.89992 0
M  V30 490 H 52.2766 5.86818 1.25559 0
M  V30 491 H 53.3466 4.84062 0.284894 0
M  V30 492 N 54.6897 -0.239769 1.55765 0
M  V30 493 C 55.9667 -0.990056 1.68693 0
M  V30 494 C 56.3467 -2.03107 0.5754 0
M  V30 495 O 55.6947 -2.24604 -0.42017 0
M  V30 496 C 55.9047 -1.61696 3.09282 0
M  V30 497 C 57.2527 -2.11613 3.6811 0
M  V30 498 O 58.2767 -1.71624 3.12127 0
M  V30 499 O 57.1357 -2.85057 4.66267 0
M  V30 500 H 54.2297 -0.461299 0.686391 0
M  V30 501 H 56.7757 -0.232991 1.68093 0
M  V30 502 H 55.5477 -0.864357 3.81634 0
M  V30 503 H 55.1707 -2.44005 3.13923 0
M  V30 504 N 56.1678 -1.49265 -0.50573 0
M  V30 505 C 57.4158 -1.582 -1.25766 0
M  V30 506 C 57.7368 -0.268482 -1.93143 0
M  V30 507 O 57.0068 0.711833 -1.8251 0
M  V30 508 H 55.5868 -0.582873 -0.467191 0
M  V30 509 H 58.2488 -1.85865 -0.586525 0
M  V30 510 H 57.3448 -2.37563 -2.02412 0
M  V30 511 N 57.6459 0.756429 -1.3826 0
M  V30 512 C 58.5939 1.89149 -1.35372 0
M  V30 513 C 59.5879 1.67691 -0.24004 0
M  V30 514 O 60.7939 1.75294 -0.408919 0
M  V30 515 H 57.1689 0.622271 -0.422236 0
M  V30 516 H 59.1399 1.88701 -2.31159 0
M  V30 517 C 57.8889 3.26599 -1.19284 0
M  V30 518 H 57.2119 3.43695 -2.0424 0
M  V30 519 H 58.6519 4.06274 -1.21316 0
M  V30 520 C 57.1109 3.3675 0.100454 0
M  V30 521 O 57.6409 3.86951 1.07851 0
M  V30 522 N 55.8469 2.90179 0.15633 0
M  V30 523 H 55.3939 2.49517 -0.640253 0
M  V30 524 H 55.3519 2.97352 1.02123 0
M  V30 525 N 59.124 1.23083 0.984299 0
M  V30 526 C 60.054 1.03292 2.09411 0
M  V30 527 C 61.035 -0.048923 1.7003 0
M  V30 528 O 62.22 0.114967 1.93859 0
M  V30 529 C 59.35 0.619155 3.41736 0
M  V30 530 C 58.304 1.64791 3.95004 0
M  V30 531 C 57.63 1.0897 5.23478 0
M  V30 532 C 58.93 3.03999 4.24714 0
M  V30 533 H 60.624 1.96119 2.26225 0
M  V30 534 H 58.17 0.944344 1.08711 0
M  V30 535 H 60.123 0.467777 4.18796 0
M  V30 536 H 58.847 -0.344786 3.24775 0
M  V30 537 H 57.506 1.78721 3.20085 0
M  V30 538 H 57.154 0.11686 5.02864 0
M  V30 539 H 56.854 1.77704 5.60085 0
M  V30 540 H 58.378 0.950093 6.03163 0
M  V30 541 H 59.792 2.93393 4.92538 0
M  V30 542 H 58.189 3.69936 4.72512 0
M  V30 543 H 59.259 3.53285 3.32142 0
M  V30 544 N 60.6021 -1.18246 1.0419 0
M  V30 545 C 61.8271 -1.92736 0.765996 0
M  V30 546 C 62.2521 -1.75728 -0.67091 0
M  V30 547 O 61.6101 -1.06825 -1.46486 0
M  V30 548 C 61.6581 -3.42148 1.13875 0
M  V30 549 O 60.7621 -4.11548 0.264954 0
M  V30 550 H 60.1031 -0.601238 0.281797 0
M  V30 551 H 62.6331 -1.49942 1.39207 0
M  V30 552 H 62.6431 -3.92858 1.1012 0
M  V30 553 H 61.3181 -3.53848 2.18551 0
M  V30 554 H 59.8951 -3.71137 0.362226 0
M  V30 555 N 62.0802 -0.821533 -1.34494 0
M  V30 556 C 63.3572 -0.33159 -1.92769 0
M  V30 557 C 63.7372 1.18088 -1.74981 0
M  V30 558 O 63.0852 1.98733 -1.12772 0
M  V30 559 C 63.2952 -0.759398 -3.40638 0
M  V30 560 C 64.6432 -0.757433 -4.1779 0
M  V30 561 O 65.6672 -0.70189 -3.49216 0
M  V30 562 O 64.5262 -0.829361 -5.4017 0
M  V30 563 H 61.6202 -0.0902502 -0.822061 0
M  V30 564 H 64.1662 -0.906231 -1.43477 0
M  V30 565 H 62.9382 -1.8012 -3.47379 0
M  V30 566 H 62.5612 -0.160378 -3.97276 0
M  V30 567 N 63.5583 1.46682 -0.576371 0
M  V30 568 C 64.9693 1.86112 -0.148091 0
M  V30 569 C 65.3203 1.48073 1.2872 0
M  V30 570 O 64.4453 0.892656 1.97131 0
M  V30 571 C 65.0403 3.37786 -0.261982 0
M  V30 572 C 63.5993 3.76235 0.111384 0
M  V30 573 C 62.7463 2.70713 -0.60083 0
M  V30 574 H 65.6973 1.37927 -0.78497 0
M  V30 575 H 65.7183 3.77007 0.514364 0
M  V30 576 H 65.2303 3.6544 -1.30671 0
M  V30 577 H 63.3313 3.54198 1.15649 0
M  V30 578 H 63.4443 4.78391 -0.26052 0
M  V30 579 H 61.8083 2.54666 -0.0417783 0
M  V30 580 H 62.5913 3.01208 -1.64708 0
M  V30 581 N 65.0364 0.313813 1.54444 0
M  V30 582 C 66.2764 -0.292389 2.02298 0
M  V30 583 C 66.6404 -1.50105 1.19719 0
M  V30 584 O 67.8414 -2.17947 1.5733 0
M  V30 585 C 66.1124 -0.627682 3.51845 0
M  V30 586 S 67.6714 -1.21493 4.21646 0
M  V30 587 H 64.4894 -0.0890247 0.705405 0
M  V30 588 H 67.0914 0.444668 1.90376 0
M  V30 589 H 65.7954 0.260265 4.09574 0
M  V30 590 H 65.3264 -1.39519 3.67829 0
M  V30 591 H 67.3414 -2.5022 4.28491 0
M  V30 592 N 66.5145 -1.57545 0.0417849 0
M  V30 593 C 67.7625 -1.91937 -0.632829 0
M  V30 594 C 68.0835 -0.919978 -1.71934 0
M  V30 595 O 67.3535 0.0366064 -1.95866 0
M  V30 596 H 65.9335 -0.708493 -0.236742 0
M  V30 597 H 68.5955 -1.9468 0.0925745 0
M  V30 598 H 67.6915 -2.92912 -1.07746 0
M  V30 599 N 67.9926 0.231505 -1.5589 0
M  V30 600 C 69.4036 0.799327 -1.68724 0
M  V30 601 C 69.7546 1.85398 -0.642022 0
M  V30 602 O 68.8796 2.1539 0.208784 0
M  V30 603 C 69.4746 1.45664 -3.05888 0
M  V30 604 C 68.0336 1.97197 -3.20609 0
M  V30 605 C 67.1806 0.828552 -2.64632 0
M  V30 606 H 70.1316 0.00702616 -1.58698 0
M  V30 607 H 70.1526 2.32517 -3.01191 0
M  V30 608 H 69.6646 0.688808 -3.81939 0
M  V30 609 H 67.7656 2.76813 -2.4941 0
M  V30 610 H 67.8786 2.15878 -4.27707 0
M  V30 611 H 66.2426 1.23321 -2.22854 0
M  V30 612 H 67.0256 0.0735544 -3.43221 0
M  V30 613 N 69.4707 1.49531 0.497807 0
M  V30 614 C 70.4187 1.66926 1.61983 0
M  V30 615 C 71.4127 0.535167 1.60724 0
M  V30 616 O 72.6187 0.714896 1.65195 0
M  V30 617 H 68.9937 0.526415 0.537021 0
M  V30 618 H 70.9647 2.61098 1.44465 0
M  V30 619 C 69.7137 1.75602 3.00099 0
M  V30 620 H 69.0367 2.62244 3.01775 0
M  V30 621 H 70.4767 1.91807 3.78135 0
M  V30 622 C 68.9357 0.501543 3.33146 0
M  V30 623 O 69.4657 -0.371342 3.9998 0
M  V30 624 N 67.6717 0.363531 2.88317 0
M  V30 625 H 67.2187 1.07485 2.34104 0
M  V30 626 H 67.1767 -0.474728 3.10795 0
M  V30 627 N 70.9488 -0.749086 1.3866 0
M  V30 628 C 72.3648 -1.05276 1.19955 0
M  V30 629 C 72.5648 -2.01435 0.05134 0
M  V30 630 O 71.6208 -2.45232 -0.60147 0
M  V30 631 C 72.9338 -1.62853 2.52783 0
M  V30 632 C 74.4818 -1.75002 2.59506 0
M  V30 633 C 74.9568 -2.35991 3.92521 0
M  V30 634 N 76.4478 -2.43416 3.94085 0
M  V30 635 C 77.1828 -2.91511 4.9377 0
M  V30 636 N 76.6788 -3.39608 6.03853 0
M  V30 637 N 78.4718 -2.90592 4.81157 0
M  V30 638 H 70.6228 -0.111066 2.12109 0
M  V30 639 H 72.8858 -0.111901 0.941373 0
M  V30 640 H 72.5918 -0.99664 3.37283 0
M  V30 641 H 72.4658 -2.61854 2.715 0
M  V30 642 H 74.8528 -2.37317 1.75398 0
M  V30 643 H 74.9338 -0.74693 2.44652 0
M  V30 644 H 74.5778 -1.74308 4.77053 0
M  V30 645 H 74.5078 -3.3695 4.04688 0
M  V30 646 H 76.9988 -2.09405 3.14576 0
M  V30 647 H 77.3118 -3.74775 6.75843 0
M  V30 648 H 75.6568 -3.37653 6.07466 0
M  V30 649 H 78.8478 -2.52332 3.94267 0
M  V30 650 H 79.0208 -3.27762 5.58996 0
M  V30 651 N 72.4269 -1.23603 -0.977757 0
M  V30 652 C 73.6549 -1.09646 -1.75458 0
M  V30 653 C 74.0699 0.351859 -1.85492 0
M  V30 654 O 73.4269 1.24327 -1.336 0
M  V30 655 C 73.4779 -1.71895 -3.18016 0
M  V30 656 O 73.1989 -3.11063 -3.08498 0
M  V30 657 C 74.6999 -1.63415 -4.12081 0
M  V30 658 H 71.9199 -0.38359 -0.550545 0
M  V30 659 H 74.4639 -1.63507 -1.22824 0
M  V30 660 H 72.6189 -1.22061 -3.67668 0
M  V30 661 H 73.0329 -3.41305 -3.9826 0
M  V30 662 H 74.5069 -2.11669 -5.09804 0
M  V30 663 H 74.9839 -0.593462 -4.35172 0
M  V30 664 H 75.5899 -2.12628 -3.68334 0
M  V30 665 N 73.905 1.17692 -1.04816 0
M  V30 666 C 75.182 1.83768 -0.669963 0
M  V30 667 C 75.562 1.93232 0.849986 0
M  V30 668 O 74.91 1.46397 1.75443 0
M  V30 669 C 75.12 3.21641 -1.35455 0
M  V30 670 C 76.468 3.97592 -1.49017 0
M  V30 671 O 77.492 3.31107 -1.31326 0
M  V30 672 O 76.351 5.16729 -1.77914 0
M  V30 673 H 73.445 0.792799 -0.235368 0
M  V30 674 H 75.991 1.25021 -1.14751 0
M  V30 675 H 74.763 3.097 -2.39168 0
M  V30 676 H 74.386 3.88052 -0.866107 0
M  V30 677 N 75.3831 0.828654 1.34056 0
M  V30 678 C 76.3131 0.269443 2.3194 0
M  V30 679 C 77.2941 -0.617247 1.58506 0
M  V30 680 O 78.4791 -0.542931 1.86456 0
M  V30 681 C 75.6091 -0.564793 3.42677 0
M  V30 682 C 74.5631 0.225241 4.27407 0
M  V30 683 C 73.8891 -0.7321 5.29664 0
M  V30 684 C 75.1891 1.43663 5.02154 0
M  V30 685 H 76.8831 1.08728 2.7896 0
M  V30 686 H 74.4291 0.524283 1.34117 0
M  V30 687 H 76.3821 -0.966233 4.10173 0
M  V30 688 H 75.1061 -1.41574 2.9432 0
M  V30 689 H 73.7651 0.608117 3.61521 0
M  V30 690 H 73.4131 -1.57916 4.77568 0
M  V30 691 H 73.1131 -0.20767 5.87233 0
M  V30 692 H 74.6371 -1.13128 6.00029 0
M  V30 693 H 76.0511 1.1089 5.62473 0
M  V30 694 H 74.4481 1.89711 5.69324 0
M  V30 695 H 75.5181 2.21181 4.31517 0
M  V30 696 N 76.8612 -1.46375 0.584142 0
M  V30 697 C 78.1092 -2.01978 0.0701287 0
M  V30 698 C 78.4302 -1.4579 -1.295 0
M  V30 699 O 77.7002 -0.64314 -1.85042 0
M  V30 700 H 76.2802 -0.746648 0.0229345 0
M  V30 701 H 78.9422 -1.79461 0.760245 0
M  V30 702 H 78.0382 -3.121 0.0022064 0
M  V30 703 N 78.3393 -0.321999 -1.54275 0
M  V30 704 C 79.5873 0.280489 -2.00144 0
M  V30 705 C 79.9083 1.52777 -1.21178 0
M  V30 706 O 79.1783 1.9338 -0.313187 0
M  V30 707 H 77.7583 0.106632 -0.73935 0
M  V30 708 H 80.4203 -0.438184 -1.8991 0
M  V30 709 H 79.5163 0.537972 -3.07428 0
M  V30 710 N 79.8174 1.5752 -0.0501392 0
M  V30 711 C 81.2334 1.56631 0.306402 0
M  V30 712 C 81.4334 1.0577 1.71508 0
M  V30 713 O 80.4894 0.713837 2.422 0
M  V30 714 C 81.8024 3.00393 0.135811 0
M  V30 715 C 83.3504 3.12315 0.206993 0
M  V30 716 C 83.8254 4.57954 0.064944 0
M  V30 717 N 85.3164 4.63041 0.121254 0
M  V30 718 C 86.0514 5.73389 0.0354381 0
M  V30 719 N 85.5474 6.92724 -0.102666 0
M  V30 720 N 87.3404 5.62026 0.090946 0
M  V30 721 H 79.4914 1.88903 -0.971046 0
M  V30 722 H 81.7544 0.869876 -0.376855 0
M  V30 723 H 81.4604 3.41635 -0.835384 0
M  V30 724 H 81.3344 3.66373 0.897275 0
M  V30 725 H 83.7214 2.70973 1.16866 0
M  V30 726 H 83.8024 2.49016 -0.585208 0
M  V30 727 H 83.4464 4.99981 -0.893394 0
M  V30 728 H 83.3764 5.19258 0.876277 0
M  V30 729 H 85.8674 3.77216 0.227284 0
M  V30 730 H 86.1804 7.72633 -0.160882 0
M  V30 731 H 84.5254 6.94864 -0.137737 0
M  V30 732 H 87.7164 4.67684 0.197388 0
M  V30 733 H 87.8894 6.47997 0.0206089 0
M  V30 734 N 81.2955 -0.223234 1.56011 0
M  V30 735 C 82.5725 -0.972108 1.69733 0
M  V30 736 C 82.9525 -2.02485 0.59691 0
M  V30 737 O 82.3005 -2.25037 -0.396324 0
M  V30 738 C 82.5105 -1.58407 3.10979 0
M  V30 739 C 83.8585 -2.07696 3.70334 0
M  V30 740 O 84.8825 -1.68304 3.1393 0
M  V30 741 O 83.7415 -2.80096 4.69264 0
M  V30 742 H 80.8355 -0.453993 0.691245 0
M  V30 743 H 83.3815 -0.215149 1.68331 0
M  V30 744 H 82.1535 -0.823831 3.82529 0
M  V30 745 H 81.7765 -2.40661 3.16493 0
M  V30 746 N 82.7736 -1.49793 -0.48987 0
M  V30 747 C 83.9986 -1.63836 -1.27172 0
M  V30 748 C 84.4236 -0.31402 -1.8546 0
M  V30 749 O 83.7816 0.719803 -1.66399 0
M  V30 750 C 83.8296 -2.71797 -2.36978 0
M  V30 751 O 82.9336 -2.31744 -3.41128 0
M  V30 752 H 82.2746 -0.547997 -0.37496 0
M  V30 753 H 84.8046 -1.96053 -0.585191 0
M  V30 754 H 84.8146 -2.94305 -2.82575 0
M  V30 755 H 83.4896 -3.67923 -1.93921 0
M  V30 756 H 82.0666 -2.1961 -3.01373 0
M  V30 757 N 84.2517 0.741722 -1.39055 0
M  V30 758 C 85.1817 1.869 -1.39966 0
M  V30 759 C 86.1627 1.6804 -0.26392 0
M  V30 760 O 87.3477 1.88458 -0.468755 0
M  V30 761 C 84.4777 3.24572 -1.23574 0
M  V30 762 C 83.4317 3.58056 -2.34477 0
M  V30 763 C 82.7577 4.94593 -2.0318 0
M  V30 764 C 84.0577 3.61716 -3.76774 0
M  V30 765 H 85.7517 1.86395 -2.34302 0
M  V30 766 H 83.2977 0.895361 -1.1278 0
M  V30 767 H 85.2507 4.031 -1.22834 0
M  V30 768 H 83.9747 3.25587 -0.257045 0
M  V30 769 H 82.6337 2.81854 -2.34423 0
M  V30 770 H 82.2817 4.92181 -1.03765 0
M  V30 771 H 81.9817 5.17964 -2.77465 0
M  V30 772 H 83.5057 5.75486 -2.04079 0
M  V30 773 H 84.9197 4.30335 -3.78794 0
M  V30 774 H 83.3167 3.96603 -4.50362 0
M  V30 775 H 84.3867 2.61672 -4.08235 0
M  V30 776 N 85.7298 1.2412 0.971189 0
M  V30 777 C 86.9698 1.09066 1.7287 0
M  V30 778 C 87.3338 -0.364794 1.88503 0
M  V30 779 O 88.5348 -0.636748 2.61149 0
M  V30 780 C 86.8058 1.80629 3.08396 0
M  V30 781 S 88.3648 1.81263 3.99611 0
M  V30 782 H 85.1828 0.390145 0.594397 0
M  V30 783 H 87.7848 1.57397 1.15959 0
M  V30 784 H 86.4888 2.85647 2.94676 0
M  V30 785 H 86.0198 1.32617 3.70373 0
M  V30 786 H 88.0348 0.877804 4.88374 0
M  V30 787 N 87.2079 -1.17134 1.05439 0
M  V30 788 C 88.6189 -1.69084 0.791676 0
M  V30 789 C 88.9699 -1.83822 -0.685839 0
M  V30 790 O 88.0949 -1.52757 -1.53278 0
M  V30 791 C 88.6899 -3.07119 1.4305 0
M  V30 792 C 87.2489 -3.56225 1.21577 0
M  V30 793 C 86.3959 -2.32421 1.51247 0
M  V30 794 H 89.3469 -1.01617 1.219 0
M  V30 795 H 89.3679 -3.71087 0.84112 0
M  V30 796 H 88.8799 -2.9636 2.50584 0
M  V30 797 H 86.9809 -3.72257 0.159787 0
M  V30 798 H 87.0939 -4.38837 1.92246 0
M  V30 799 H 85.4579 -2.3701 0.932653 0
M  V30 800 H 86.2409 -2.24268 2.5992 0
M  V30 801 N 88.686 -0.835752 -1.33615 0
M  V30 802 C 90.097 -0.487099 -1.80234 0
M  V30 803 C 90.448 0.993627 -1.69179 0
M  V30 804 O 89.573 1.77403 -1.23924 0
M  V30 805 C 90.168 -0.877385 -3.27242 0
M  V30 806 C 88.727 -0.580915 -3.7189 0
M  V30 807 C 87.874 -1.0874 -2.5509 0
M  V30 808 H 90.825 -1.02474 -1.2118 0
M  V30 809 H 90.846 -0.186195 -3.80044 0
M  V30 810 H 90.358 -1.95512 -3.35256 0
M  V30 811 H 88.459 0.486881 -3.69405 0
M  V30 812 H 88.572 -1.13396 -4.65487 0
M  V30 813 H 86.936 -0.508392 -2.49575 0
M  V30 814 H 87.719 -2.17184 -2.65868 0
M  V30 815 N 90.1641 1.46063 -0.591896 0
M  V30 816 C 91.3921 2.06717 -0.0868936 0
M  V30 817 C 91.8071 1.43916 1.22203 0
M  V30 818 O 91.1641 0.547698 1.74088 0
M  V30 819 C 91.2151 3.6142 0.0758725 0
M  V30 820 O 90.9361 4.21874 -1.18126 0
M  V30 821 C 92.4371 4.39025 0.61416 0
M  V30 822 H 89.6571 0.668162 -0.0616518 0
M  V30 823 H 92.2011 1.8755 -0.815175 0
M  V30 824 H 90.3561 3.79983 0.754413 0
M  V30 825 H 90.7701 5.14861 -1.00092 0
M  V30 826 H 92.2441 5.4783 0.677193 0
M  V30 827 H 92.7211 4.07708 1.63312 0
M  V30 828 H 93.3271 4.2529 -0.0298142 0
M  V30 829 N 91.6422 0.330177 1.54103 0
M  V30 830 C 92.8902 -0.269871 2.0029 0
M  V30 831 C 93.2112 -1.52133 1.21986 0
M  V30 832 O 92.4812 -1.93212 0.323438 0
M  V30 833 H 91.0612 -0.10271 0.739905 0
M  V30 834 H 93.7232 0.448249 1.89675 0
M  V30 835 H 92.8192 -0.52166 3.07709 0
M  V30 836 N 93.1203 -1.57491 0.0584922 0
M  V30 837 C 94.3453 -1.97711 -0.62652 0
M  V30 838 C 94.7703 -0.936132 -1.63151 0
M  V30 839 O 94.1283 0.099811 -1.81025 0
M  V30 840 C 94.1763 -3.36989 -1.28338 0
M  V30 841 O 93.2803 -3.35433 -2.39913 0
M  V30 842 H 92.6213 -0.643868 -0.162266 0
M  V30 843 H 95.1513 -2.04193 0.129064 0
M  V30 844 H 95.1613 -3.73879 -1.63335 0
M  V30 845 H 93.8363 -4.12289 -0.546889 0
M  V30 846 H 92.4133 -3.10298 -2.06809 0
M  V30 847 N 94.5984 0.214957 -1.56127 0
M  V30 848 C 96.0094 0.781386 -1.69562 0
M  V30 849 C 96.3604 1.84707 -0.66165 0
M  V30 850 O 95.4854 2.156 0.185927 0
M  V30 851 C 96.0804 1.42411 -3.07416 0
M  V30 852 C 94.6394 1.93786 -3.22683 0
M  V30 853 C 93.7864 0.800438 -2.65496 0
M  V30 854 H 96.7374 -0.00980633 -1.58697 0
M  V30 855 H 96.7584 2.29309 -3.0364 0
M  V30 856 H 96.2704 0.64826 -3.82648 0
M  V30 857 H 94.3714 2.74152 -2.52332 0
M  V30 858 H 94.4844 2.1133 -4.29973 0
M  V30 859 H 92.8484 1.2095 -2.2415 0
M  V30 860 H 93.6314 0.0371471 -3.4328 0
M  V30 861 N 96.0765 1.50051 0.48192 0
M  V30 862 C 97.3015 1.64508 1.26301 0
M  V30 863 C 97.7265 0.323851 1.85291 0
M  V30 864 O 97.0845 -0.710969 1.66778 0
M  V30 865 C 97.1325 2.7305 2.35533 0
M  V30 866 O 96.2365 2.3355 3.39895 0
M  V30 867 H 95.5775 0.549978 0.372048 0
M  V30 868 H 98.1075 1.9636 0.574786 0
M  V30 869 H 98.1175 2.95799 2.8101 0
M  V30 870 H 96.7925 3.68946 1.91967 0
M  V30 871 H 95.3695 2.21205 3.00204 0
M  V30 872 N 97.5546 -0.734337 1.39446 0
M  V30 873 C 98.4876 -1.85715 1.32609 0
M  V30 874 C 99.4656 -1.6137 0.199636 0
M  V30 875 O 100.65 -1.84626 0.380195 0
M  V30 876 C 97.7766 -3.21709 1.05929 0
M  V30 877 C 96.8226 -3.64913 2.20773 0
M  V30 878 S 97.6556 -3.74203 3.83056 0
M  V30 879 C 98.8116 -5.12986 3.58603 0
M  V30 880 H 99.0446 -1.91232 2.27635 0
M  V30 881 H 96.5776 -0.899263 1.25509 0
M  V30 882 H 98.5356 -4.00236 0.912203 0
M  V30 883 H 97.1966 -3.13848 0.125883 0
M  V30 884 H 96.3896 -4.63606 1.97699 0
M  V30 885 H 95.9916 -2.93593 2.31688 0
M  V30 886 H 98.2836 -5.99339 3.15909 0
M  V30 887 H 99.2266 -5.41088 4.5676 0
M  V30 888 H 99.6346 -4.82694 2.9269 0
M  V30 889 N 99.0327 -1.24633 -0.964593 0
M  V30 890 C 100.282 -1.08188 -1.7023 0
M  V30 891 C 100.595 0.37873 -1.91898 0
M  V30 892 O 101.801 0.663427 -2.6327 0
M  V30 893 C 100.257 -1.88773 -3.06419 0
M  V30 894 C 99.8647 -3.39263 -2.92582 0
M  V30 895 C 101.609 -1.80867 -3.84041 0
M  V30 896 C 99.5157 -4.1218 -4.24101 0
M  V30 897 H 98.4457 -0.401245 -0.638372 0
M  V30 898 H 101.097 -1.48742 -1.07462 0
M  V30 899 H 99.4787 -1.41035 -3.70034 0
M  V30 900 H 100.653 -3.94603 -2.37961 0
M  V30 901 H 98.9677 -3.48154 -2.28424 0
M  V30 902 H 101.565 -2.32646 -4.81435 0
M  V30 903 H 101.908 -0.774543 -4.09031 0
M  V30 904 H 102.441 -2.26301 -3.27159 0
M  V30 905 H 99.1797 -5.15965 -4.04303 0
M  V30 906 H 98.6997 -3.61626 -4.78526 0
M  V30 907 H 100.379 -4.19349 -4.92702 0
M  V30 908 N 100.511 1.16574 -1.06058 0
M  V30 909 C 101.739 1.90952 -0.796552 0
M  V30 910 C 102.154 1.77302 0.648808 0
M  V30 911 O 101.511 1.11605 1.44397 0
M  V30 912 C 101.562 3.41736 -1.17894 0
M  V30 913 O 101.283 3.54975 -2.56758 0
M  V30 914 C 102.784 4.33169 -0.942308 0
M  V30 915 H 100.004 0.605594 -0.288959 0
M  V30 916 H 102.548 1.47777 -1.41358 0
M  V30 917 H 100.703 3.82623 -0.606491 0
M  V30 918 H 101.117 4.4846 -2.72 0
M  V30 919 H 102.591 5.37439 -1.25952 0
M  V30 920 H 103.068 4.3903 0.122078 0
M  V30 921 H 103.674 3.98007 -1.49902 0
M  V30 922 N 101.989 0.842826 1.3317 0
M  V30 923 C 102.952 0.284065 2.27433 0
M  V30 924 C 103.952 -0.54948 1.5112 0
M  V30 925 O 105.142 -0.362699 1.70382 0
M  V30 926 C 102.274 -0.599384 3.35589 0
M  V30 927 H 103.467 1.11589 2.78366 0
M  V30 928 H 101.02 0.616221 1.4364 0
M  V30 929 H 101.755 -1.45349 2.89904 0
M  V30 930 H 101.54 -0.00291266 3.921 0
M  V30 931 H 103.03 -0.983488 4.05854 0
M  V30 932 N 103.467 -1.45747 0.599634 0
M  V30 933 C 104.716 -2.01502 0.0893511 0
M  V30 934 C 105.029 -1.4748 -1.28488 0
M  V30 935 O 106.235 -1.95161 -1.88745 0
M  V30 936 C 104.691 -3.59735 0.109082 0
M  V30 937 C 104.299 -4.22754 1.48267 0
M  V30 938 C 106.043 -4.23085 -0.346374 0
M  V30 939 C 103.95 -5.73115 1.45921 0
M  V30 940 H 102.88 -0.753417 0.0296347 0
M  V30 941 H 105.531 -1.67303 0.753788 0
M  V30 942 H 103.913 -3.91087 -0.621854 0
M  V30 943 H 105.087 -4.02987 2.23468 0
M  V30 944 H 103.402 -3.71567 1.87955 0
M  V30 945 H 105.999 -5.33327 -0.38298 0
M  V30 946 H 106.342 -3.93201 -1.36743 0
M  V30 947 H 106.875 -3.9642 0.331038 0
M  V30 948 H 103.614 -6.07685 2.45762 0
M  V30 949 H 103.134 -5.95097 0.749665 0
M  V30 950 H 104.813 -6.3616 1.17941 0
M  V30 951 N 104.945 -0.338344 -1.53925 0
M  V30 952 C 106.173 0.261298 -2.05243 0
M  V30 953 C 106.588 1.44625 -1.21363 0
M  V30 954 O 105.945 1.80811 -0.247736 0
M  V30 955 C 105.996 0.681412 -3.5502 0
M  V30 956 O 105.717 -0.456414 -4.35716 0
M  V30 957 C 107.218 1.34232 -4.22489 0
M  V30 958 H 104.438 0.0513685 -0.669031 0
M  V30 959 H 106.982 -0.488822 -1.98572 0
M  V30 960 H 105.137 1.38148 -3.61931 0
M  V30 961 H 105.551 -0.122564 -5.24357 0
M  V30 962 H 107.025 1.58708 -5.28693 0
M  V30 963 H 107.502 2.29426 -3.74514 0
M  V30 964 H 108.108 0.684424 -4.19757 0
M  V30 965 N 106.423 1.57458 -0.0668435 0
M  V30 966 C 107.672 1.92477 0.602947 0
M  V30 967 C 107.985 0.948419 1.71068 0
M  V30 968 O 109.191 1.19124 2.43971 0
M  V30 969 C 107.647 3.41903 1.12383 0
M  V30 970 C 107.255 4.47975 0.04737 0
M  V30 971 C 108.999 3.85931 1.76797 0
M  V30 972 C 106.906 5.88529 0.582022 0
M  V30 973 H 105.836 0.718387 0.22899 0
M  V30 974 H 108.487 1.82978 -0.138276 0
M  V30 975 H 106.869 3.46459 1.91787 0
M  V30 976 H 108.043 4.55029 -0.726978 0
M  V30 977 H 106.358 4.13384 -0.500243 0
M  V30 978 H 108.955 4.88322 2.17821 0
M  V30 979 H 109.298 3.23029 2.62599 0
M  V30 980 H 109.831 3.83958 1.04024 0
M  V30 981 H 106.57 6.55065 -0.238721 0
M  V30 982 H 106.09 5.85004 1.324 0
M  V30 983 H 107.769 6.38258 1.05999 0
M  V30 984 N 107.901 -0.206675 1.56239 0
M  V30 985 C 108.834 -1.28383 1.88661 0
M  V30 986 C 109.812 -1.44504 0.745481 0
M  V30 987 O 110.996 -1.60079 0.995336 0
M  V30 988 C 108.123 -2.65211 2.10667 0
M  V30 989 C 107.169 -2.66025 3.33366 0
M  V30 990 S 108.002 -2.18609 4.88846 0
M  V30 991 C 109.158 -3.57283 5.13906 0
M  V30 992 H 109.391 -1.00691 2.7973 0
M  V30 993 H 106.924 -0.409627 1.48867 0
M  V30 994 H 108.882 -3.43979 2.24029 0
M  V30 995 H 107.543 -2.90121 1.20369 0
M  V30 996 H 106.736 -3.66607 3.45855 0
M  V30 997 H 106.338 -1.95331 3.18938 0
M  V30 998 H 108.63 -4.53074 5.03717 0
M  V30 999 H 109.573 -3.49699 6.15724 0
M  V30 1000 H 109.981 -3.51659 4.41583 0
M  V30 1001 N 109.379 -1.50304 -0.473955 0
M  V30 1002 C 110.342 -1.6841 -1.55469 0
M  V30 1003 C 111.342 -0.554905 -1.50922 0
M  V30 1004 O 112.532 -0.821882 -1.53593 0
M  V30 1005 C 109.664 -1.70667 -2.95102 0
M  V30 1006 H 110.857 -2.64828 -1.40733 0
M  V30 1007 H 108.41 -1.39742 -0.700132 0
M  V30 1008 H 109.145 -0.75932 -3.15285 0
M  V30 1009 H 108.93 -2.52698 -2.9981 0
M  V30 1010 H 110.42 -1.8664 -3.73571 0
M  V30 1011 N 110.857 0.726932 -1.39834 0
M  V30 1012 C 111.787 1.85405 -1.41941 0
M  V30 1013 C 112.768 1.67751 -0.281728 0
M  V30 1014 O 113.953 1.8795 -0.488717 0
M  V30 1015 C 111.083 3.23243 -1.2701 0
M  V30 1016 C 110.037 3.55549 -2.38262 0
M  V30 1017 C 109.363 4.9241 -2.08415 0
M  V30 1018 C 110.663 3.577 -3.80589 0
M  V30 1019 H 112.357 1.83899 -2.36266 0
M  V30 1020 H 109.903 0.883349 -1.13723 0
M  V30 1021 H 111.856 4.01775 -1.27103 0
M  V30 1022 H 110.58 3.25296 -0.291564 0
M  V30 1023 H 109.239 2.79351 -2.37399 0
M  V30 1024 H 108.887 4.91052 -1.0898 0
M  V30 1025 H 108.587 5.14992 -2.82943 0
M  V30 1026 H 110.111 5.73289 -2.10171 0
M  V30 1027 H 111.525 4.26293 -3.83337 0
M  V30 1028 H 109.922 3.91804 -4.54543 0
M  V30 1029 H 110.992 2.57328 -4.10987 0
M  V30 1030 N 112.336 1.25143 0.95797 0
M  V30 1031 C 113.566 1.12261 1.73439 0
M  V30 1032 C 113.974 -0.326715 1.86358 0
M  V30 1033 O 113.317 -1.2367 1.35836 0
M  V30 1034 C 113.379 1.69966 3.16784 0
M  V30 1035 C 113.043 3.18936 3.27305 0
M  V30 1036 C 114.04 4.15968 3.11877 0
M  V30 1037 C 111.725 3.59083 3.51234 0
M  V30 1038 C 113.719 5.51126 3.20217 0
M  V30 1039 C 111.406 4.9438 3.5921 0
M  V30 1040 C 112.404 5.90211 3.43716 0
M  V30 1041 O 112.092 7.23046 3.51368 0
M  V30 1042 H 111.824 0.392476 0.550399 0
M  V30 1043 H 114.378 1.65927 1.21068 0
M  V30 1044 H 112.608 1.10744 3.70503 0
M  V30 1045 H 114.297 1.52232 3.76272 0
M  V30 1046 H 115.063 3.86292 2.93264 0
M  V30 1047 H 110.942 2.84989 3.62356 0
M  V30 1048 H 114.486 6.25905 3.0804 0
M  V30 1049 H 110.383 5.23723 3.77339 0
M  V30 1050 H 111.151 7.31097 3.6802 0
M  V30 1051 N 113.814 -1.1601 1.06675 0
M  V30 1052 C 115.039 -1.91068 0.806706 0
M  V30 1053 C 115.464 -1.77112 -0.633485 0
M  V30 1054 O 114.822 -1.09908 -1.44187 0
M  V30 1055 C 114.87 -3.39655 1.21106 0
M  V30 1056 O 113.974 -4.10893 0.352189 0
M  V30 1057 H 113.315 -0.595125 0.294486 0
M  V30 1058 H 115.845 -1.46955 1.42356 0
M  V30 1059 H 115.855 -3.90434 1.18428 0
M  V30 1060 H 114.53 -3.49132 2.26008 0
M  V30 1061 H 113.107 -3.70285 0.440868 0
M  V30 1062 N 115.292 -0.849877 -1.32721 0
M  V30 1063 C 116.541 -0.447175 -1.96681 0
M  V30 1064 C 116.854 1.00135 -1.68025 0
M  V30 1065 O 118.06 1.50926 -2.25685 0
M  V30 1066 C 116.516 -0.7487 -3.52026 0
M  V30 1067 C 116.124 -2.21264 -3.89546 0
M  V30 1068 C 117.868 -0.413487 -4.22481 0
M  V30 1069 C 115.775 -2.45763 -5.37917 0
M  V30 1070 H 114.705 -0.163486 -0.736063 0
M  V30 1071 H 117.356 -1.03999 -1.51183 0
M  V30 1072 H 115.738 -0.0853727 -3.95908 0
M  V30 1073 H 116.912 -2.91736 -3.56689 0
M  V30 1074 H 115.227 -2.5119 -3.32103 0
M  V30 1075 H 117.824 -0.574017 -5.3161 0
M  V30 1076 H 118.167 0.644492 -4.11281 0
M  V30 1077 H 118.7 -1.03251 -3.84167 0
M  V30 1078 H 115.439 -3.50168 -5.54132 0
M  V30 1079 H 114.959 -1.79864 -5.72197 0
M  V30 1080 H 116.638 -2.29471 -6.0494 0
M  V30 1081 N 116.77 1.45427 -0.607355 0
M  V30 1082 C 118.016 2.0254 -0.102607 0
M  V30 1083 C 118.349 1.47478 1.26348 0
M  V30 1084 O 117.624 0.64939 1.83339 0
M  V30 1085 C 117.907 3.60044 -0.0634347 0
M  V30 1086 C 117.76 4.2544 -1.46017 0
M  V30 1087 C 119.079 4.35646 0.624514 0
M  V30 1088 H 116.198 0.73598 -0.0387607 0
M  V30 1089 H 118.84 1.73284 -0.779282 0
M  V30 1090 H 116.99 3.85101 0.512808 0
M  V30 1091 H 118.662 4.11569 -2.08347 0
M  V30 1092 H 116.905 3.83849 -2.02094 0
M  V30 1093 H 117.576 5.34342 -1.385 0
M  V30 1094 H 120.052 4.15882 0.134723 0
M  V30 1095 H 118.928 5.45376 0.621028 0
M  V30 1096 H 119.189 4.08501 1.69055 0
M  V30 1097 N 118.248 0.346503 1.53744 0
M  V30 1098 C 119.488 -0.249413 2.02873 0
M  V30 1099 C 119.852 -1.47532 1.22876 0
M  V30 1100 O 121.053 -2.1456 1.61918 0
M  V30 1101 C 119.324 -0.552909 3.53097 0
M  V30 1102 S 120.883 -1.12521 4.24128 0
M  V30 1103 H 117.701 -0.074042 0.707134 0
M  V30 1104 H 120.303 0.48495 1.8939 0
M  V30 1105 H 119.007 0.347083 4.0893 0
M  V30 1106 H 118.538 -1.31686 3.70705 0
M  V30 1107 H 120.553 -2.41075 4.33702 0
M  V30 1108 N 119.726 -1.57421 0.075193 0
M  V30 1109 C 120.972 -1.93905 -0.594025 0
M  V30 1110 C 121.305 -0.955701 -1.69056 0
M  V30 1111 O 120.58 0.0145373 -1.94495 0
M  V30 1112 C 120.863 -3.40638 -1.1678 0
M  V30 1113 C 120.716 -4.49733 -0.0776792 0
M  V30 1114 C 122.035 -3.88259 -2.07228 0
M  V30 1115 H 119.154 -0.705105 -0.214466 0
M  V30 1116 H 121.796 -1.8947 0.141854 0
M  V30 1117 H 119.946 -3.44549 -1.79494 0
M  V30 1118 H 121.618 -4.57942 0.555573 0
M  V30 1119 H 119.861 -4.29751 0.591286 0
M  V30 1120 H 120.532 -5.49549 -0.519603 0
M  V30 1121 H 123.008 -3.86376 -1.54445 0
M  V30 1122 H 121.884 -4.91533 -2.44308 0
M  V30 1123 H 122.145 -3.26396 -2.98191 0
M  V30 1124 N 121.204 0.198386 -1.56346 0
M  V30 1125 C 122.45 0.920648 -1.80698 0
M  V30 1126 C 122.783 1.83045 -0.648697 0
M  V30 1127 O 122.058 1.91308 0.350925 0
M  V30 1128 C 122.341 1.73971 -3.15287 0
M  V30 1129 C 122.194 0.85485 -4.41602 0
M  V30 1130 C 123.513 2.71296 -3.46535 0
M  V30 1131 H 120.632 0.333261 -0.657348 0
M  V30 1132 H 123.274 0.188198 -1.89066 0
M  V30 1133 H 121.424 2.36416 -3.08285 0
M  V30 1134 H 123.096 0.245362 -4.60647 0
M  V30 1135 H 121.339 0.161398 -4.335 0
M  V30 1136 H 122.01 1.46286 -5.32264 0
M  V30 1137 H 124.486 2.18983 -3.53816 0
M  V30 1138 H 123.362 3.2569 -4.41834 0
M  V30 1139 H 123.623 3.5018 -2.69864 0
M  V30 1140 N 122.682 1.50554 0.465978 0
M  V30 1141 C 123.93 1.61479 1.21528 0
M  V30 1142 C 124.251 0.319596 1.92363 0
M  V30 1143 O 123.521 -0.663194 1.84333 0
M  V30 1144 H 122.101 0.595055 0.451573 0
M  V30 1145 H 124.763 1.87355 0.53704 0
M  V30 1146 H 123.859 2.42846 1.96042 0
M  V30 1147 N 124.16 -0.719506 1.40217 0
M  V30 1148 C 125.09 -1.8465 1.42922 0
M  V30 1149 C 126.071 -1.67599 0.29062 0
M  V30 1150 O 127.256 -1.87688 0.498677 0
M  V30 1151 C 124.386 -3.22565 1.28722 0
M  V30 1152 C 123.34 -3.54281 2.40144 0
M  V30 1153 C 122.666 -4.91298 2.11023 0
M  V30 1154 C 123.966 -3.55676 3.82481 0
M  V30 1155 H 125.66 -1.82644 2.37237 0
M  V30 1156 H 123.206 -0.877305 1.1419 0
M  V30 1157 H 125.159 -4.01095 1.29232 0
M  V30 1158 H 123.883 -3.25137 0.308811 0
M  V30 1159 H 122.542 -2.78088 2.38877 0
M  V30 1160 H 122.19 -4.90468 1.11582 0
M  V30 1161 H 121.89 -5.13485 2.8567 0
M  V30 1162 H 123.414 -5.72166 2.13209 0
M  V30 1163 H 124.828 -4.24254 3.85592 0
M  V30 1164 H 123.225 -3.89388 4.56614 0
M  V30 1165 H 124.295 -2.55144 4.12346 0
M  V30 1166 N 125.638 -1.25649 -0.95132 0
M  V30 1167 C 126.885 -1.10594 -1.69633 0
M  V30 1168 C 127.213 0.352515 -1.91279 0
M  V30 1169 O 126.468 1.27601 -1.4838 0
M  V30 1170 C 126.767 -1.80909 -3.08231 0
M  V30 1171 C 126.433 -3.30825 -3.06375 0
M  V30 1172 C 125.095 -3.71722 -3.05576 0
M  V30 1173 C 127.447 -4.26589 -2.99452 0
M  V30 1174 C 124.775 -5.06788 -2.95606 0
M  V30 1175 C 127.127 -5.61683 -2.91024 0
M  V30 1176 C 125.791 -6.01904 -2.88562 0
M  V30 1177 H 125.061 -0.404691 -0.620731 0
M  V30 1178 H 127.708 -1.55964 -1.11119 0
M  V30 1179 H 126.013 -1.27979 -3.70309 0
M  V30 1180 H 127.71 -1.6671 -3.64704 0
M  V30 1181 H 124.3 -2.98287 -3.07771 0
M  V30 1182 H 128.484 -3.95982 -2.99185 0
M  V30 1183 H 123.74 -5.37126 -2.92071 0
M  V30 1184 H 127.914 -6.35578 -2.84629 0
M  V30 1185 H 125.541 -7.06521 -2.80593 0
M  V30 1186 N 127.117 1.15442 -1.07289 0
M  V30 1187 C 128.365 1.85845 -0.794096 0
M  V30 1188 C 128.686 1.82692 0.681809 0
M  V30 1189 O 127.956 1.26741 1.49377 0
M  V30 1190 H 126.536 0.688089 -0.290763 0
M  V30 1191 H 129.198 1.39947 -1.3565 0
M  V30 1192 H 128.294 2.91001 -1.12804 0
M  V30 1193 N 128.595 0.856903 1.32268 0
M  V30 1194 C 129.543 0.291987 2.3076 0
M  V30 1195 C 130.537 -0.585857 1.58947 0
M  V30 1196 O 131.743 -0.47341 1.73663 0
M  V30 1197 H 128.118 0.075721 0.748178 0
M  V30 1198 H 130.089 1.13687 2.75895 0
M  V30 1199 C 128.838 -0.502869 3.44044 0
M  V30 1200 H 128.161 0.163328 3.99466 0
M  V30 1201 H 129.601 -0.863691 4.1511 0
M  V30 1202 C 128.06 -1.68898 2.91505 0
M  V30 1203 O 128.59 -2.78811 2.89184 0
M  V30 1204 N 126.796 -1.51679 2.47875 0
M  V30 1205 H 126.343 -0.622666 2.49961 0
M  V30 1206 H 126.301 -2.31184 2.13076 0
M  V30 1207 N 130.073 -1.45103 0.615059 0
M  V30 1208 C 131.32 -2.02183 0.113179 0
M  V30 1209 C 131.648 -1.48249 -1.25906 0
M  V30 1210 O 130.903 -0.650265 -1.84581 0
M  V30 1211 C 131.202 -3.57386 0.0318797 0
M  V30 1212 C 130.868 -4.30505 1.34077 0
M  V30 1213 C 129.53 -4.50197 1.69929 0
M  V30 1214 C 131.882 -4.72238 2.20546 0
M  V30 1215 C 129.21 -5.08881 2.91988 0
M  V30 1216 C 131.562 -5.32272 3.41861 0
M  V30 1217 C 130.226 -5.50187 3.77956 0
M  V30 1218 H 129.496 -0.739842 0.0414151 0
M  V30 1219 H 132.143 -1.74073 0.798168 0
M  V30 1220 H 130.448 -3.84817 -0.736409 0
M  V30 1221 H 132.145 -3.99264 -0.372712 0
M  V30 1222 H 128.735 -4.15496 1.05173 0
M  V30 1223 H 132.919 -4.56751 1.94146 0
M  V30 1224 H 128.175 -5.20939 3.2005 0
M  V30 1225 H 132.349 -5.63563 4.09109 0
M  V30 1226 H 129.976 -5.95427 4.72622 0
M  V30 1227 N 131.551 -0.354651 -1.53558 0
M  V30 1228 C 132.481 0.489091 -2.2832 0
M  V30 1229 C 133.462 1.09324 -1.30316 0
M  V30 1230 O 134.647 1.11255 -1.59173 0
M  V30 1231 C 131.777 1.63456 -3.0643 0
M  V30 1232 C 130.731 1.1582 -4.12031 0
M  V30 1233 C 130.057 2.39305 -4.7816 0
M  V30 1234 C 131.357 0.250731 -5.21698 0
M  V30 1235 H 133.051 -0.134614 -2.99097 0
M  V30 1236 H 130.597 -0.0661826 -1.43848 0
M  V30 1237 H 132.55 2.23136 -3.57475 0
M  V30 1238 H 131.274 2.28533 -2.33325 0
M  V30 1239 H 129.933 0.584146 -3.61916 0
M  V30 1240 H 129.581 3.02814 -4.01637 0
M  V30 1241 H 129.281 2.08109 -5.49513 0
M  V30 1242 H 130.805 2.99691 -5.31994 0
M  V30 1243 H 132.219 0.754695 -5.68311 0
M  V30 1244 H 130.616 0.0301468 -6.00092 0
M  V30 1245 H 131.686 -0.710125 -4.79672 0
M  V30 1246 N 133.029 1.57378 -0.0835403 0
M  V30 1247 C 134.275 1.94217 0.583733 0
M  V30 1248 C 134.608 0.964653 1.68547 0
M  V30 1249 O 133.883 -0.00422258 1.945 0
M  V30 1250 C 134.166 3.41253 1.14972 0
M  V30 1251 C 134.019 4.49768 0.0538277 0
M  V30 1252 C 135.338 3.89352 2.05166 0
M  V30 1253 H 132.457 0.706233 0.210724 0
M  V30 1254 H 135.099 1.89392 -0.1519 0
M  V30 1255 H 133.249 3.45496 1.77665 0
M  V30 1256 H 134.921 4.57641 -0.579851 0
M  V30 1257 H 133.164 4.29432 -0.614068 0
M  V30 1258 H 133.835 5.49817 0.490452 0
M  V30 1259 H 136.311 3.87189 1.52393 0
M  V30 1260 H 135.187 4.92822 2.41698 0
M  V30 1261 H 135.448 3.27973 2.96456 0
M  V30 1262 N 134.507 -0.190092 1.56449 0
M  V30 1263 C 135.44 -1.26375 1.90012 0
M  V30 1264 C 136.418 -1.43705 0.760765 0
M  V30 1265 O 137.602 -1.59014 1.01226 0
M  V30 1266 C 134.729 -2.62962 2.13468 0
M  V30 1267 C 133.775 -2.62474 3.36169 0
M  V30 1268 S 134.608 -2.13412 4.91137 0
M  V30 1269 C 135.764 -3.51812 5.17667 0
M  V30 1270 H 135.997 -0.977181 2.80782 0
M  V30 1271 H 133.53 -0.393814 1.49293 0
M  V30 1272 H 135.488 -3.41583 2.27664 0
M  V30 1273 H 134.149 -2.88828 1.23439 0
M  V30 1274 H 133.342 -3.62918 3.49723 0
M  V30 1275 H 132.944 -1.91937 3.20992 0
M  V30 1276 H 135.236 -4.47706 5.08494 0
M  V30 1277 H 136.179 -3.43148 6.19399 0
M  V30 1278 H 136.587 -3.46956 4.45288 0
M  V30 1279 N 135.985 -1.50799 -0.457987 0
M  V30 1280 C 137.215 -1.65977 -1.23025 0
M  V30 1281 C 137.623 -0.347918 -1.85974 0
M  V30 1282 O 136.966 0.68148 -1.70592 0
M  V30 1283 C 137.028 -2.70309 -2.3701 0
M  V30 1284 C 136.692 -4.135 -1.94594 0
M  V30 1285 C 137.689 -4.98949 -1.46101 0
M  V30 1286 C 135.374 -4.5949 -2.02915 0
M  V30 1287 C 137.368 -6.28442 -1.06489 0
M  V30 1288 C 135.055 -5.88984 -1.62914 0
M  V30 1289 C 136.053 -6.73286 -1.1478 0
M  V30 1290 O 135.741 -8.00362 -0.75339 0
M  V30 1291 H 135.473 -0.56064 -0.377702 0
M  V30 1292 H 138.027 -1.97857 -0.551537 0
M  V30 1293 H 136.257 -2.337 -3.08093 0
M  V30 1294 H 137.946 -2.74574 -2.98938 0
M  V30 1295 H 138.712 -4.6463 -1.39084 0
M  V30 1296 H 134.591 -3.94009 -2.39328 0
M  V30 1297 H 138.135 -6.94194 -0.688488 0
M  V30 1298 H 134.032 -6.22822 -1.69595 0
M  V30 1299 H 134.8 -8.13744 -0.88108 0
M  V30 1300 N 137.463 0.71206 -1.40597 0
M  V30 1301 C 138.709 1.47416 -1.39271 0
M  V30 1302 C 139.042 1.942 0.00388791 0
M  V30 1303 O 138.317 1.68403 0.973179 0
M  V30 1304 C 138.6 2.69774 -2.38525 0
M  V30 1305 C 138.453 2.28861 -3.87224 0
M  V30 1306 C 139.772 3.71939 -2.35264 0
M  V30 1307 H 136.891 0.534713 -0.5072 0
M  V30 1308 H 139.533 0.812375 -1.71757 0
M  V30 1309 H 137.683 3.26238 -2.10953 0
M  V30 1310 H 139.355 1.77852 -4.25636 0
M  V30 1311 H 137.598 1.60824 -4.02887 0
M  V30 1312 H 138.269 3.16584 -4.52193 0
M  V30 1313 H 140.745 3.25113 -2.59694 0
M  V30 1314 H 139.621 4.55186 -3.06753 0
M  V30 1315 H 139.882 4.20484 -1.36549 0
M  V30 1316 N 138.941 1.26152 0.944643 0
M  V30 1317 C 140.19 1.10883 1.68487 0
M  V30 1318 C 140.503 -0.348153 1.92477 0
M  V30 1319 O 141.709 -0.621459 2.64292 0
M  V30 1320 C 140.165 1.93624 3.03377 0
M  V30 1321 C 139.773 3.43875 2.87148 0
M  V30 1322 C 141.517 1.86954 3.81115 0
M  V30 1323 C 139.424 4.18875 4.1749 0
M  V30 1324 H 138.354 0.41135 0.631907 0
M  V30 1325 H 141.005 1.50433 1.05082 0
M  V30 1326 H 139.387 1.46904 3.67743 0
M  V30 1327 H 140.561 3.98338 2.31653 0
M  V30 1328 H 138.876 3.51744 2.22856 0
M  V30 1329 H 141.473 2.40275 4.77673 0
M  V30 1330 H 141.816 0.839518 4.07747 0
M  V30 1331 H 142.349 2.31477 3.23517 0
M  V30 1332 H 139.088 5.22332 3.96043 0
M  V30 1333 H 138.608 3.69193 4.72712 0
M  V30 1334 H 140.287 4.27134 4.85968 0
M  V30 1335 N 140.419 -1.14872 1.07899 0
M  V30 1336 C 141.665 -1.86064 0.806725 0
M  V30 1337 C 141.998 -1.82434 -0.665706 0
M  V30 1338 O 141.273 -1.25138 -1.48899 0
M  V30 1339 C 141.556 -3.34929 1.32267 0
M  V30 1340 C 141.409 -3.47161 2.86006 0
M  V30 1341 C 142.728 -4.29863 0.943717 0
M  V30 1342 H 139.847 -0.675591 0.294526 0
M  V30 1343 H 142.489 -1.34925 1.33773 0
M  V30 1344 H 140.639 -3.78611 0.870974 0
M  V30 1345 H 142.311 -3.12302 3.39507 0
M  V30 1346 H 140.554 -2.88539 3.23925 0
M  V30 1347 H 141.225 -4.51777 3.17177 0
M  V30 1348 H 143.701 -3.9417 1.33302 0
M  V30 1349 H 142.577 -5.32494 1.33198 0
M  V30 1350 H 142.838 -4.41846 -0.149796 0
M  V30 1351 N 141.898 -0.863906 -1.31812 0
M  V30 1352 C 143.314 -0.555004 -1.49639 0
M  V30 1353 C 143.514 0.912266 -1.79666 0
M  V30 1354 O 142.57 1.69479 -1.87171 0
M  V30 1355 C 143.883 -1.44998 -2.63431 0
M  V30 1356 C 145.431 -1.45138 -2.77316 0
M  V30 1357 C 145.906 -2.33179 -3.94197 0
M  V30 1358 N 147.397 -2.31025 -4.01474 0
M  V30 1359 C 148.132 -2.95871 -4.9117 0
M  V30 1360 N 147.628 -3.69863 -5.8581 0
M  V30 1361 N 149.421 -2.85211 -4.84367 0
M  V30 1362 H 141.572 -1.81339 -1.10589 0
M  V30 1363 H 143.835 -0.77505 -0.545895 0
M  V30 1364 H 143.541 -2.49377 -2.48 0
M  V30 1365 H 143.415 -1.14409 -3.59431 0
M  V30 1366 H 145.802 -0.415201 -2.92164 0
M  V30 1367 H 145.883 -1.79747 -1.82001 0
M  V30 1368 H 145.527 -3.3687 -3.80107 0
M  V30 1369 H 145.457 -1.95897 -4.88807 0
M  V30 1370 H 147.948 -1.77238 -3.33759 0
M  V30 1371 H 148.261 -4.16486 -6.50968 0
M  V30 1372 H 146.606 -3.73971 -5.85808 0
M  V30 1373 H 149.797 -2.26948 -4.09405 0
M  V30 1374 H 149.97 -3.36027 -5.54066 0
M  V30 1375 N 143.376 1.44774 -0.622745 0
M  V30 1376 C 144.606 2.06187 -0.130532 0
M  V30 1377 C 145.014 1.46547 1.19669 0
M  V30 1378 O 144.357 0.579636 1.74316 0
M  V30 1379 C 144.419 3.59437 0.0674983 0
M  V30 1380 C 144.083 4.41496 -1.18026 0
M  V30 1381 C 145.08 4.75512 -2.102 0
M  V30 1382 C 142.765 4.82007 -1.41333 0
M  V30 1383 C 144.759 5.48912 -3.23998 0
M  V30 1384 C 142.446 5.55157 -2.55429 0
M  V30 1385 C 143.444 5.88528 -3.46589 0
M  V30 1386 O 143.132 6.60191 -4.58697 0
M  V30 1387 H 142.864 0.672045 -0.0730162 0
M  V30 1388 H 145.418 1.86768 -0.854802 0
M  V30 1389 H 143.648 3.77314 0.846825 0
M  V30 1390 H 145.337 4.02642 0.513209 0
M  V30 1391 H 146.103 4.4476 -1.93425 0
M  V30 1392 H 141.982 4.55457 -0.712709 0
M  V30 1393 H 145.526 5.74877 -3.95174 0
M  V30 1394 H 141.423 5.85324 -2.72151 0
M  V30 1395 H 142.191 6.78654 -4.57571 0
M  V30 1396 N 144.854 0.36279 1.53368 0
M  V30 1397 C 146.082 -0.228613 2.05633 0
M  V30 1398 C 146.497 -1.42676 1.23649 0
M  V30 1399 O 145.854 -1.80394 0.27647 0
M  V30 1400 C 145.905 -0.624845 3.56059 0
M  V30 1401 O 145.626 0.525675 4.34935 0
M  V30 1402 C 147.127 -1.27493 4.24571 0
M  V30 1403 H 144.347 -0.0407183 0.669763 0
M  V30 1404 H 146.891 0.520352 1.97769 0
M  V30 1405 H 145.046 -1.32373 3.64083 0
M  V30 1406 H 145.46 0.205969 5.24095 0
M  V30 1407 H 146.934 -1.50277 5.31151 0
M  V30 1408 H 147.411 -2.23439 3.78116 0
M  V30 1409 H 148.017 -0.617558 4.20792 0
M  V30 1410 N 146.332 -1.57332 0.0918853 0
M  V30 1411 C 147.279 -2.13847 -0.868211 0
M  V30 1412 C 148.249 -1.05618 -1.28196 0
M  V30 1413 O 149.434 -1.33387 -1.36427 0
M  V30 1414 C 146.574 -2.72062 -2.12312 0
M  V30 1415 C 145.687 -3.94514 -1.7602 0
M  V30 1416 C 144.822 -4.40903 -2.96273 0
M  V30 1417 C 143.861 -5.55953 -2.56092 0
M  V30 1418 N 142.998 -5.97209 -3.69169 0
M  V30 1419 H 147.838 -2.95575 -0.379406 0
M  V30 1420 H 145.375 -1.46048 -0.175606 0
M  V30 1421 H 147.333 -3.03931 -2.858 0
M  V30 1422 H 145.963 -1.93068 -2.58698 0
M  V30 1423 H 145.015 -3.68979 -0.925135 0
M  V30 1424 H 146.327 -4.7802 -1.42472 0
M  V30 1425 H 145.481 -4.74539 -3.78018 0
M  V30 1426 H 144.22 -3.56291 -3.33029 0
M  V30 1427 H 143.225 -5.21948 -1.72773 0
M  V30 1428 H 144.45 -6.42311 -2.20484 0
M  V30 1429 H 142.396 -5.15543 -4.05649 0
M  V30 1430 H 142.313 -6.75504 -3.39456 0
M  V30 1431 H 143.581 -6.35475 -4.51434 0
M  V30 1432 N 147.81 0.181792 -1.56548 0
M  V30 1433 C 148.743 1.25366 -1.90679 0
M  V30 1434 C 149.721 1.43299 -0.768376 0
M  V30 1435 O 150.905 1.58475 -1.02068 0
M  V30 1436 C 148.032 2.61826 -2.1486 0
M  V30 1437 C 147.078 2.60688 -3.37556 0
M  V30 1438 S 147.911 2.10804 -4.92262 0
M  V30 1439 C 149.067 3.49062 -5.19525 0
M  V30 1440 H 149.3 0.962277 -2.81296 0
M  V30 1441 H 146.833 0.385892 -1.495 0
M  V30 1442 H 148.791 3.40371 -2.29473 0
M  V30 1443 H 147.452 2.88169 -1.24969 0
M  V30 1444 H 146.645 3.61058 -3.51643 0
M  V30 1445 H 146.247 1.90232 -3.22006 0
M  V30 1446 H 148.539 4.45003 -5.10861 0
M  V30 1447 H 149.482 3.39859 -6.2121 0
M  V30 1448 H 149.89 3.4459 -4.47122 0
M  V30 1449 N 149.288 1.51039 0.449983 0
M  V30 1450 C 150.235 1.71439 1.54523 0
M  V30 1451 C 151.205 0.555871 1.56522 0
M  V30 1452 O 152.39 0.788871 1.73728 0
M  V30 1453 C 149.53 1.83384 2.92343 0
M  V30 1454 C 148.643 3.10873 2.9997 0
M  V30 1455 C 147.778 3.13488 4.28834 0
M  V30 1456 C 146.817 4.35343 4.30282 0
M  V30 1457 N 145.954 4.35579 5.5065 0
M  V30 1458 H 150.794 2.64934 1.36433 0
M  V30 1459 H 148.331 1.31312 0.662982 0
M  V30 1460 H 150.289 1.88291 3.72293 0
M  V30 1461 H 148.919 0.933086 3.0902 0
M  V30 1462 H 147.971 3.15336 2.12761 0
M  V30 1463 H 149.283 4.00814 2.96901 0
M  V30 1464 H 148.437 3.17241 5.17149 0
M  V30 1465 H 147.176 2.21414 4.34543 0
M  V30 1466 H 146.181 4.3178 3.40362 0
M  V30 1467 H 147.406 5.28668 4.26248 0
M  V30 1468 H 145.352 3.46369 5.57104 0
M  V30 1469 H 145.269 5.19313 5.49409 0
M  V30 1470 H 146.537 4.43507 6.41032 0
M  V30 1471 N 150.766 -0.704594 1.40972 0
M  V30 1472 C 151.994 -1.49354 1.43182 0
M  V30 1473 C 152.409 -1.88768 0.0345508 0
M  V30 1474 O 151.766 -1.56184 -0.944081 0
M  V30 1475 C 151.817 -2.76187 2.33244 0
M  V30 1476 O 151.538 -2.38436 3.67532 0
M  V30 1477 C 153.039 -3.7 2.44162 0
M  V30 1478 H 150.259 -0.460559 0.487982 0
M  V30 1479 H 152.803 -0.868261 1.85153 0
M  V30 1480 H 150.958 -3.34974 1.94606 0
M  V30 1481 H 151.372 -3.20126 4.15475 0
M  V30 1482 H 152.846 -4.55803 3.11364 0
M  V30 1483 H 153.323 -4.13867 1.47006 0
M  V30 1484 H 153.929 -3.17121 2.83398 0
M  V30 1485 N 152.244 -1.26651 -0.937939 0
M  V30 1486 C 153.207 -1.08546 -2.01867 0
M  V30 1487 C 154.207 -0.0327327 -1.60767 0
M  V30 1488 O 155.397 -0.276427 -1.71993 0
M  V30 1489 C 152.529 -0.651711 -3.34613 0
M  V30 1490 H 153.722 -2.04502 -2.1936 0
M  V30 1491 H 151.275 -1.09294 -1.11734 0
M  V30 1492 H 152.01 0.309696 -3.22818 0
M  V30 1493 H 151.795 -1.41189 -3.65798 0
M  V30 1494 H 153.285 -0.546973 -4.14002 0
M  V30 1495 N 153.722 1.14298 -1.08507 0
M  V30 1496 C 154.95 1.89219 -0.836876 0
M  V30 1497 C 155.365 1.78638 0.611054 0
M  V30 1498 O 154.722 1.14643 1.41998 0
M  V30 1499 C 154.773 3.39158 -1.25116 0
M  V30 1500 O 154.494 3.49449 -2.64229 0
M  V30 1501 C 155.995 4.31073 -1.03398 0
M  V30 1502 H 153.215 0.599328 -0.301739 0
M  V30 1503 H 155.759 1.44746 -1.44461 0
M  V30 1504 H 153.914 3.81251 -0.687514 0
M  V30 1505 H 154.328 4.42589 -2.81452 0
M  V30 1506 H 155.802 5.34646 -1.37323 0
M  V30 1507 H 156.279 4.3919 0.0289259 0
M  V30 1508 H 156.885 3.94738 -1.58311 0
M  V30 1509 N 155.201 0.870884 1.31352 0
M  V30 1510 C 156.149 0.316445 2.30437 0
M  V30 1511 C 157.143 -0.568965 1.59559 0
M  V30 1512 O 158.349 -0.454964 1.74155 0
M  V30 1513 H 154.724 0.0836521 0.747333 0
M  V30 1514 H 156.695 1.16606 2.74673 0
M  V30 1515 C 155.444 -0.46635 3.44558 0
M  V30 1516 H 154.767 0.205687 3.99271 0
M  V30 1517 H 156.207 -0.819614 4.16003 0
M  V30 1518 C 154.666 -1.65797 2.9328 0
M  V30 1519 O 155.196 -2.75728 2.92125 0
M  V30 1520 N 153.402 -1.49041 2.4947 0
M  V30 1521 H 152.949 -0.59612 2.50608 0
M  V30 1522 H 152.907 -2.28911 2.15516 0
M  V30 1523 N 156.679 -1.44442 0.630414 0
M  V30 1524 C 157.928 -2.01267 0.132073 0
M  V30 1525 C 158.241 -1.50172 -1.25331 0
M  V30 1526 O 159.447 -1.9912 -1.84562 0
M  V30 1527 C 157.903 -3.59422 0.185362 0
M  V30 1528 C 157.511 -4.19514 1.57201 0
M  V30 1529 C 159.255 -4.23724 -0.256553 0
M  V30 1530 C 157.162 -5.69891 1.58045 0
M  V30 1531 H 156.092 -0.752619 0.0456092 0
M  V30 1532 H 158.743 -1.65666 0.789106 0
M  V30 1533 H 157.125 -3.92318 -0.538759 0
M  V30 1534 H 158.299 -3.98156 2.31966 0
M  V30 1535 H 156.614 -3.67496 1.95795 0
M  V30 1536 H 159.211 -5.34019 -0.269767 0
M  V30 1537 H 159.554 -3.96013 -1.28372 0
M  V30 1538 H 160.087 -3.95629 0.41505 0
M  V30 1539 H 156.826 -6.02336 2.58597 0
M  V30 1540 H 156.346 -5.93373 0.875725 0
M  V30 1541 H 158.025 -6.33515 1.31408 0
M  V30 1542 N 158.157 -0.370918 -1.53173 0
M  V30 1543 C 159.387 0.217389 -2.05453 0
M  V30 1544 C 159.795 1.42568 -1.24382 0
M  V30 1545 O 159.138 1.81571 -0.278839 0
M  V30 1546 C 159.2 0.669827 -3.53205 0
M  V30 1547 C 158.864 -0.4225 -4.55043 0
M  V30 1548 C 159.861 -1.27407 -5.04047 0
M  V30 1549 C 157.546 -0.58427 -4.9889 0
M  V30 1550 C 159.54 -2.27271 -5.95505 0
M  V30 1551 C 157.227 -1.58627 -5.90153 0
M  V30 1552 C 158.225 -2.42892 -6.38351 0
M  V30 1553 O 157.913 -3.41382 -7.27814 0
M  V30 1554 H 157.645 0.0408171 -0.674767 0
M  V30 1555 H 160.199 -0.5292 -1.98466 0
M  V30 1556 H 158.429 1.4681 -3.57748 0
M  V30 1557 H 160.118 1.18173 -3.88317 0
M  V30 1558 H 160.884 -1.16031 -4.70916 0
M  V30 1559 H 156.763 0.061851 -4.60959 0
M  V30 1560 H 160.307 -2.93079 -6.33049 0
M  V30 1561 H 156.204 -1.70048 -6.22699 0
M  V30 1562 H 156.972 -3.37173 -7.45826 0
M  V30 1563 N 159.635 1.57281 -0.100228 0
M  V30 1564 C 160.884 1.93713 0.561984 0
M  V30 1565 C 161.197 0.984492 1.69018 0
M  V30 1566 O 162.403 1.24273 2.41389 0
M  V30 1567 C 160.859 3.4421 1.05106 0
M  V30 1568 C 160.467 4.47975 -0.0476628 0
M  V30 1569 C 162.211 3.89595 1.68571 0
M  V30 1570 C 160.118 5.89631 0.457055 0
M  V30 1571 H 159.048 0.723082 0.2137 0
M  V30 1572 H 161.699 1.82644 -0.177057 0
M  V30 1573 H 160.081 3.50449 1.84395 0
M  V30 1574 H 161.255 4.53385 -0.823333 0
M  V30 1575 H 159.57 4.1223 -0.587816 0
M  V30 1576 H 162.167 4.92832 2.07414 0
M  V30 1577 H 162.51 3.28526 2.55688 0
M  V30 1578 H 163.043 3.86078 0.958562 0
M  V30 1579 H 159.782 6.54411 -0.377616 0
M  V30 1580 H 159.302 5.87681 1.19962 0
M  V30 1581 H 160.981 6.40363 0.92437 0
M  V30 1582 N 161.113 -0.173488 1.56642 0
M  V30 1583 C 162.36 -0.890465 1.81871 0
M  V30 1584 C 162.688 -1.82339 0.67696 0
M  V30 1585 O 161.943 -1.92795 -0.335926 0
M  V30 1586 C 162.242 -1.72069 3.13252 0
M  V30 1587 C 161.908 -0.936878 4.41059 0
M  V30 1588 C 160.57 -0.720545 4.75775 0
M  V30 1589 C 162.922 -0.386919 5.19762 0
M  V30 1590 C 160.25 0.0568829 5.86672 0
M  V30 1591 C 162.602 0.37741 6.31473 0
M  V30 1592 C 161.266 0.604563 6.64757 0
M  V30 1593 H 160.536 -0.325844 0.665512 0
M  V30 1594 H 163.183 -0.155527 1.90867 0
M  V30 1595 H 161.488 -2.52496 2.99588 0
M  V30 1596 H 163.185 -2.27844 3.29982 0
M  V30 1597 H 159.775 -1.11553 4.13828 0
M  V30 1598 H 163.959 -0.541398 4.93338 0
M  V30 1599 H 159.215 0.242635 6.10918 0
M  V30 1600 H 163.389 0.810825 6.91664 0
M  V30 1601 H 161.016 1.20885 7.50527 0
M  V30 1602 N 162.591 -1.51276 -0.441967 0
M  V30 1603 C 163.539 -1.72823 -1.55676 0
M  V30 1604 C 164.533 -0.59445 -1.58627 0
M  V30 1605 O 165.739 -0.775715 -1.62427 0
M  V30 1606 H 162.114 -0.545983 -0.517113 0
M  V30 1607 H 164.085 -2.6628 -1.34675 0
M  V30 1608 C 162.834 -1.86619 -2.93375 0
M  V30 1609 H 162.157 -2.73264 -2.91834 0
M  V30 1610 H 163.597 -2.05709 -3.70756 0
M  V30 1611 C 162.056 -0.624842 -3.31055 0
M  V30 1612 O 162.586 0.222636 -4.01083 0
M  V30 1613 N 160.792 -0.470288 -2.86769 0
M  V30 1614 H 160.339 -1.161 -2.29953 0
M  V30 1615 H 160.297 0.359051 -3.12343 0
M  V30 1616 N 164.069 0.697108 -1.41344 0
M  V30 1617 C 164.999 1.82353 -1.45841 0
M  V30 1618 C 165.98 1.67115 -0.317247 0
M  V30 1619 O 167.165 1.86871 -0.528474 0
M  V30 1620 C 164.295 3.20476 -1.33838 0
M  V30 1621 C 163.249 3.50415 -2.4575 0
M  V30 1622 C 162.575 4.87878 -2.18813 0
M  V30 1623 C 163.875 3.49546 -3.88091 0
M  V30 1624 H 165.569 1.78846 -2.40113 0
M  V30 1625 H 163.115 0.859028 -1.15571 0
M  V30 1626 H 165.068 3.98988 -1.35596 0
M  V30 1627 H 163.792 3.24604 -0.360498 0
M  V30 1628 H 162.451 2.74253 -2.43271 0
M  V30 1629 H 162.099 4.8863 -1.19371 0
M  V30 1630 H 161.799 5.08875 -2.93803 0
M  V30 1631 H 163.323 5.68702 -2.22284 0
M  V30 1632 H 164.737 4.18066 -3.92293 0
M  V30 1633 H 163.134 3.82075 -4.62751 0
M  V30 1634 H 164.204 2.48552 -4.16353 0
M  V30 1635 N 165.547 1.27147 0.931209 0
M  V30 1636 C 166.51 1.09615 2.01289 0
M  V30 1637 C 167.51 0.0412581 1.60747 0
M  V30 1638 O 168.7 0.285545 1.71844 0
M  V30 1639 C 165.832 0.669447 3.34262 0
M  V30 1640 H 167.025 2.05662 2.18273 0
M  V30 1641 H 164.578 1.09885 1.11153 0
M  V30 1642 H 165.313 -0.292572 3.22978 0
M  V30 1643 H 165.098 1.43127 3.65044 0
M  V30 1644 H 166.588 0.568921 4.13706 0
M  V30 1645 N 167.025 -1.13721 1.09112 0
M  V30 1646 C 167.955 -2.21148 0.749385 0
M  V30 1647 C 168.936 -1.6792 -0.271475 0
M  V30 1648 O 170.121 -1.93693 -0.140251 0
M  V30 1649 C 167.251 -3.46905 0.165659 0
M  V30 1650 C 166.205 -4.13203 1.11567 0
M  V30 1651 C 165.531 -5.33248 0.393809 0
M  V30 1652 C 166.831 -4.60912 2.45678 0
M  V30 1653 H 168.525 -2.4999 1.64758 0
M  V30 1654 H 166.071 -1.20156 0.793626 0
M  V30 1655 H 168.024 -4.21313 -0.085466 0
M  V30 1656 H 166.748 -3.17449 -0.767714 0
M  V30 1657 H 165.407 -3.40758 1.35202 0
M  V30 1658 H 165.055 -5.00054 -0.543599 0
M  V30 1659 H 164.755 -5.78552 1.02721 0
M  V30 1660 H 166.279 -6.10413 0.150908 0
M  V30 1661 H 167.693 -5.26759 2.26269 0
M  V30 1662 H 166.09 -5.16944 3.04776 0
M  V30 1663 H 167.16 -3.75603 3.06677 0
M  V30 1664 N 168.503 -0.877838 -1.30888 0
M  V30 1665 C 169.466 -0.344265 -2.266 0
M  V30 1666 C 170.466 0.50922 -1.52524 0
M  V30 1667 O 171.656 0.317398 -1.71284 0
M  V30 1668 C 168.788 0.510198 -3.37061 0
M  V30 1669 H 169.981 -1.1893 -2.7531 0
M  V30 1670 H 167.534 -0.654088 -1.41956 0
M  V30 1671 H 168.269 1.37612 -2.93655 0
M  V30 1672 H 168.054 -0.101047 -3.9197 0
M  V30 1673 H 169.544 0.875537 -4.08319 0
M  V30 1674 N 169.982 1.44106 -0.638065 0
M  V30 1675 C 171.259 1.95453 -0.0759321 0
M  V30 1676 C 171.639 1.57984 1.40015 0
M  V30 1677 O 170.987 0.857361 2.11806 0
M  V30 1678 C 171.197 3.47655 -0.306132 0
M  V30 1679 C 172.545 4.24114 -0.203008 0
M  V30 1680 O 173.569 3.55405 -0.237871 0
M  V30 1681 O 172.428 5.46381 -0.113827 0
M  V30 1682 H 169.522 0.826797 0.0183332 0
M  V30 1683 H 172.068 1.54122 -0.710251 0
M  V30 1684 H 170.84 3.68 -1.3301 0
M  V30 1685 H 170.463 3.95949 0.361991 0
M  V30 1686 N 171.46 0.379036 1.52974 0
M  V30 1687 C 172.423 -0.448865 2.24762 0
M  V30 1688 C 173.423 -0.998689 1.26027 0
M  V30 1689 O 174.613 -0.882313 1.50203 0
M  V30 1690 C 171.745 -1.62872 2.99476 0
M  V30 1691 H 172.938 0.179491 2.99362 0
M  V30 1692 H 170.491 0.13096 1.5575 0
M  V30 1693 H 171.226 -2.29479 2.29151 0
M  V30 1694 H 171.011 -1.24128 3.71934 0
M  V30 1695 H 172.501 -2.2151 3.5401 0
M  V30 1696 N 172.938 -1.57226 0.108567 0
M  V30 1697 C 173.868 -2.17778 -0.84232 0
M  V30 1698 C 174.849 -1.11487 -1.2847 0
M  V30 1699 O 176.034 -1.39681 -1.34918 0
M  V30 1700 C 173.164 -2.76888 -2.09644 0
M  V30 1701 C 172.118 -3.88669 -1.79221 0
M  V30 1702 C 171.444 -4.34541 -3.11574 0
M  V30 1703 C 172.744 -5.11251 -1.06864 0
M  V30 1704 H 174.438 -2.97489 -0.337774 0
M  V30 1705 H 171.984 -1.43097 -0.161025 0
M  V30 1706 H 173.937 -3.17904 -2.76614 0
M  V30 1707 H 172.661 -1.94451 -2.62405 0
M  V30 1708 H 171.32 -3.48213 -1.14644 0
M  V30 1709 H 170.968 -3.48977 -3.62249 0
M  V30 1710 H 170.668 -5.09914 -2.91996 0
M  V30 1711 H 172.192 -4.782 -3.7968 0
M  V30 1712 H 173.606 -5.49352 -1.63968 0
M  V30 1713 H 172.003 -5.9214 -0.974178 0
M  V30 1714 H 173.073 -4.8487 -0.0536168 0
M  V30 1715 N 174.416 0.165178 -1.56732 0
M  V30 1716 C 175.379 1.18822 -1.95995 0
M  V30 1717 C 176.379 1.3685 -0.84431 0
M  V30 1718 O 177.569 1.34152 -1.11126 0
M  V30 1719 C 174.701 2.5521 -2.26011 0
M  V30 1720 H 175.894 0.851825 -2.87548 0
M  V30 1721 H 173.447 0.407857 -1.50885 0
M  V30 1722 H 174.182 2.93852 -1.37191 0
M  V30 1723 H 173.967 2.43489 -3.07336 0
M  V30 1724 H 175.457 3.28927 -2.57288 0
M  V30 1725 N 175.894 1.51508 0.433938 0
M  V30 1726 C 177.122 1.68157 1.20543 0
M  V30 1727 C 177.537 0.380362 1.84929 0
M  V30 1728 O 176.894 -0.641446 1.70856 0
M  V30 1729 C 176.945 2.79965 2.28696 0
M  V30 1730 O 176.666 4.05045 1.66943 0
M  V30 1731 C 178.167 3.07912 3.18912 0
M  V30 1732 H 175.387 0.56421 0.363191 0
M  V30 1733 H 177.931 1.97941 0.513754 0
M  V30 1734 H 176.086 2.5277 2.93574 0
M  V30 1735 H 176.5 4.67165 2.38448 0
M  V30 1736 H 177.974 3.89719 3.90926 0
M  V30 1737 H 178.451 2.20456 3.79863 0
M  V30 1738 H 179.057 3.36779 2.59731 0
M  V30 1739 N 177.372 -0.689602 1.41712 0
M  V30 1740 C 178.597 -1.48329 1.44959 0
M  V30 1741 C 179.022 -1.8801 0.0581283 0
M  V30 1742 O 178.38 -1.55026 -0.940035 0
M  V30 1743 C 178.428 -2.71835 2.36935 0
M  V30 1744 O 177.532 -3.69549 1.8305 0
M  V30 1745 H 176.873 -0.446199 0.491734 0
M  V30 1746 H 179.403 -0.847127 1.86239 0
M  V30 1747 H 179.413 -3.20076 2.53013 0
M  V30 1748 H 178.088 -2.42291 3.38035 0
M  V30 1749 H 176.665 -3.2851 1.76452 0
M  V30 1750 N 178.85 -1.27639 -0.924453 0
M  V30 1751 C 180.078 -1.16989 -1.70649 0
M  V30 1752 C 180.493 0.272869 -1.86818 0
M  V30 1753 O 179.85 1.18549 -1.38753 0
M  V30 1754 C 179.901 -1.85229 -3.10439 0
M  V30 1755 O 179.622 -3.23868 -2.95028 0
M  V30 1756 C 181.123 -1.80746 -4.04779 0
M  V30 1757 H 178.343 -0.406595 -0.53378 0
M  V30 1758 H 180.887 -1.68569 -1.15778 0
M  V30 1759 H 179.042 -1.37545 -3.6216 0
M  V30 1760 H 179.456 -3.57889 -3.83426 0
M  V30 1761 H 180.93 -2.33101 -5.00368 0
M  V30 1762 H 181.407 -0.777499 -4.32263 0
M  V30 1763 H 182.013 -2.28059 -3.58984 0
M  V30 1764 N 180.328 1.1314 -1.09713 0
M  V30 1765 C 181.258 2.20748 -0.761102 0
M  V30 1766 C 182.239 1.68061 0.262566 0
M  V30 1767 O 183.424 1.93765 0.129977 0
M  V30 1768 C 180.554 3.46812 -0.184054 0
M  V30 1769 C 179.508 4.12606 -1.13757 0
M  V30 1770 C 178.834 5.33031 -0.422083 0
M  V30 1771 C 180.134 4.59603 -2.48118 0
M  V30 1772 H 181.828 2.49113 -1.66082 0
M  V30 1773 H 179.374 1.19734 -0.799987 0
M  V30 1774 H 181.327 4.21353 0.0631215 0
M  V30 1775 H 180.051 3.17851 0.750868 0
M  V30 1776 H 178.71 3.40036 -1.37007 0
M  V30 1777 H 178.358 5.00335 0.517072 0
M  V30 1778 H 178.058 5.77999 -1.05788 0
M  V30 1779 H 179.582 6.10325 -0.183277 0
M  V30 1780 H 180.996 5.25552 -2.29059 0
M  V30 1781 H 179.393 5.15321 -3.07514 0
M  V30 1782 H 180.463 3.73971 -3.08665 0
M  V30 1783 N 181.806 0.884767 1.30421 0
M  V30 1784 C 183.217 0.553656 1.78302 0
M  V30 1785 C 183.568 -0.930153 1.7275 0
M  V30 1786 O 182.693 -1.72681 1.30423 0
M  V30 1787 C 183.288 0.998234 3.2376 0
M  V30 1788 C 181.847 0.71854 3.69478 0
M  V30 1789 C 180.994 1.18132 2.50879 0
M  V30 1790 H 183.945 1.06901 1.17294 0
M  V30 1791 H 183.966 0.327118 3.79091 0
M  V30 1792 H 183.478 2.0782 3.27769 0
M  V30 1793 H 181.579 -0.349444 3.70958 0
M  V30 1794 H 181.692 1.30595 4.60958 0
M  V30 1795 H 180.056 0.600669 2.47516 0
M  V30 1796 H 180.839 2.26902 2.57624 0
M  V30 1797 N 183.284 -1.43765 0.645699 0
M  V30 1798 C 184.531 -2.01898 0.15604 0
M  V30 1799 C 184.859 -1.50887 -1.22733 0
M  V30 1800 O 184.114 -0.689271 -1.8316 0
M  V30 1801 C 184.413 -3.57238 0.107679 0
M  V30 1802 C 184.079 -4.27564 1.43178 0
M  V30 1803 C 182.741 -4.46492 1.7944 0
M  V30 1804 C 185.093 -4.67454 2.30513 0
M  V30 1805 C 182.421 -5.02573 3.02716 0
M  V30 1806 C 184.773 -5.24901 3.53074 0
M  V30 1807 C 183.437 -5.42046 3.89541 0
M  V30 1808 H 182.707 -0.738797 0.057099 0
M  V30 1809 H 185.354 -1.72341 0.834912 0
M  V30 1810 H 183.659 -3.86293 -0.654618 0
M  V30 1811 H 185.356 -3.99965 -0.287938 0
M  V30 1812 H 181.946 -4.13171 1.13963 0
M  V30 1813 H 186.13 -4.5253 2.0379 0
M  V30 1814 H 181.386 -5.14033 3.31028 0
M  V30 1815 H 185.56 -5.54758 4.20971 0
M  V30 1816 H 183.187 -5.85268 4.85145 0
M  V30 1817 N 184.763 -0.387143 -1.52771 0
M  V30 1818 C 185.695 0.484089 -2.2403 0
M  V30 1819 C 186.708 1.02849 -1.26198 0
M  V30 1820 O 187.897 0.931186 -1.52286 0
M  V30 1821 C 184.997 1.68337 -2.94136 0
M  V30 1822 C 184.17 1.26672 -4.18656 0
M  V30 1823 C 183.229 2.33045 -4.7178 0
M  V30 1824 O 182.255 1.94541 -5.34923 0
M  V30 1825 N 183.457 3.64929 -4.5145 0
M  V30 1826 H 186.222 -0.126404 -2.99433 0
M  V30 1827 H 183.783 -0.213392 -1.60488 0
M  V30 1828 H 185.775 2.39019 -3.26577 0
M  V30 1829 H 184.345 2.20025 -2.22053 0
M  V30 1830 H 183.565 0.388878 -3.92277 0
M  V30 1831 H 184.853 0.964964 -4.99566 0
M  V30 1832 H 184.251 3.98974 -4.01044 0
M  V30 1833 H 182.808 4.31651 -4.88386 0
M  V30 1834 N 186.241 1.57166 -0.116904 0
M  V30 1835 C 187.466 1.999 0.55271 0
M  V30 1836 C 187.891 0.996039 1.59564 0
M  V30 1837 O 187.249 -0.032556 1.81271 0
M  V30 1838 C 187.297 3.4152 1.15742 0
M  V30 1839 O 186.401 3.44106 2.27299 0
M  V30 1840 H 185.742 0.649447 0.138258 0
M  V30 1841 H 188.272 2.03573 -0.204759 0
M  V30 1842 H 188.282 3.79684 1.49346 0
M  V30 1843 H 186.957 4.14034 0.393493 0
M  V30 1844 H 185.534 3.17759 1.9515 0
M  V30 1845 N 187.719 -0.156864 1.56817 0
M  V30 1846 C 188.965 -0.872416 1.83076 0
M  V30 1847 C 189.298 -1.81261 0.697001 0
M  V30 1848 O 188.573 -1.92171 -0.30008 0
M  V30 1849 C 188.856 -1.65551 3.19789 0
M  V30 1850 C 188.709 -0.737467 4.43713 0
M  V30 1851 C 190.028 -2.62012 3.53606 0
M  V30 1852 H 187.147 -0.315715 0.665953 0
M  V30 1853 H 189.789 -0.138004 1.89498 0
M  V30 1854 H 187.939 -2.28159 3.14445 0
M  V30 1855 H 189.611 -0.123143 4.61136 0
M  V30 1856 H 187.854 -0.0464067 4.33775 0
M  V30 1857 H 188.525 -1.32122 5.35955 0
M  V30 1858 H 191.001 -2.09525 3.59497 0
M  V30 1859 H 189.877 -3.13861 4.50314 0
M  V30 1860 H 190.138 -3.42902 2.79053 0
M  V30 1861 N 189.197 -1.51736 -0.425897 0
M  V30 1862 C 190.145 -1.74464 -1.53834 0
M  V30 1863 C 191.139 -0.611241 -1.57988 0
M  V30 1864 O 192.345 -0.792899 -1.61596 0
M  V30 1865 H 188.72 -0.551437 -0.511293 0
M  V30 1866 H 190.691 -2.67694 -1.31843 0
M  V30 1867 C 189.44 -1.8972 -2.91379 0
M  V30 1868 H 188.763 -2.76344 -2.88919 0
M  V30 1869 H 190.203 -2.09629 -3.68553 0
M  V30 1870 C 188.662 -0.65992 -3.30374 0
M  V30 1871 O 189.192 0.180083 -4.01296 0
M  V30 1872 N 187.398 -0.500677 -2.86254 0
M  V30 1873 H 186.945 -1.18532 -2.28709 0
M  V30 1874 H 186.903 0.325903 -3.12706 0
M  V30 1875 N 190.675 0.682077 -1.42076 0
M  V30 1876 C 191.905 1.46844 -1.45329 0
M  V30 1877 C 192.313 1.89102 -0.0609328 0
M  V30 1878 O 191.656 1.58238 0.933082 0
M  V30 1879 C 191.718 2.75375 -2.31104 0
M  V30 1880 C 191.382 2.55238 -3.79081 0
M  V30 1881 C 192.379 2.20309 -4.70914 0
M  V30 1882 C 190.064 2.70459 -4.2327 0
M  V30 1883 C 192.058 2.00859 -6.04925 0
M  V30 1884 C 189.745 2.50624 -5.57343 0
M  V30 1885 C 190.743 2.15876 -6.47986 0
M  V30 1886 O 190.431 1.96227 -7.79583 0
M  V30 1887 H 190.163 0.4586 -0.496651 0
M  V30 1888 H 192.717 0.846131 -1.87162 0
M  V30 1889 H 190.947 3.40061 -1.84107 0
M  V30 1890 H 192.636 3.37231 -2.25898 0
M  V30 1891 H 193.402 2.08153 -4.38061 0
M  V30 1892 H 189.281 2.96485 -3.53012 0
M  V30 1893 H 192.825 1.7366 -6.75639 0
M  V30 1894 H 188.722 2.62375 -5.89771 0
M  V30 1895 H 189.49 2.10883 -7.90867 0
M  V30 1896 N 192.153 1.28127 0.917671 0
M  V30 1897 C 193.083 1.14248 2.03641 0
M  V30 1898 C 194.064 0.0412748 1.7005 0
M  V30 1899 O 195.249 0.217566 1.92977 0
M  V30 1900 C 192.379 0.799431 3.37974 0
M  V30 1901 C 191.333 1.85497 3.85713 0
M  V30 1902 C 190.659 1.36565 5.16966 0
M  V30 1903 C 191.959 3.26085 4.08002 0
M  V30 1904 H 193.653 2.07835 2.15511 0
M  V30 1905 H 191.199 1.00064 1.03553 0
M  V30 1906 H 193.152 0.689114 4.15727 0
M  V30 1907 H 191.876 -0.172145 3.26146 0
M  V30 1908 H 190.535 1.95437 3.10161 0
M  V30 1909 H 190.183 0.383253 5.01538 0
M  V30 1910 H 189.883 2.07143 5.49878 0
M  V30 1911 H 191.407 1.26848 5.97279 0
M  V30 1912 H 192.821 3.19089 4.76293 0
M  V30 1913 H 191.218 3.94462 4.52238 0
M  V30 1914 H 192.288 3.70394 3.12948 0
M  V30 1915 N 193.631 -1.12557 1.10312 0
M  V30 1916 C 194.564 -2.1737 0.694674 0
M  V30 1917 C 195.542 -1.59745 -0.303373 0
M  V30 1918 O 196.726 -1.87408 -0.202578 0
M  V30 1919 C 193.853 -3.38691 0.0248052 0
M  V30 1920 C 192.899 -4.14943 0.986121 0
M  V30 1921 S 193.732 -4.73413 2.50281 0
M  V30 1922 C 194.888 -5.9807 1.84562 0
M  V30 1923 H 195.121 -2.5168 1.58255 0
M  V30 1924 H 192.654 -1.23998 0.919992 0
M  V30 1925 H 194.612 -4.08959 -0.355361 0
M  V30 1926 H 193.273 -3.02664 -0.839851 0
M  V30 1927 H 192.466 -5.01854 0.464651 0
M  V30 1928 H 192.068 -3.50377 1.30813 0
M  V30 1929 H 194.36 -6.67232 1.17507 0
M  V30 1930 H 195.303 -6.54841 2.69423 0
M  V30 1931 H 195.711 -5.49073 1.31069 0
M  V30 1932 N 195.109 -0.891671 -1.2995 0
M  V30 1933 C 196.357 -0.512486 -1.95494 0
M  V30 1934 C 196.678 0.942776 -1.70695 0
M  V30 1935 O 195.948 1.66374 -1.03424 0
M  V30 1936 H 194.528 -0.186533 -0.723336 0
M  V30 1937 H 197.19 -1.13621 -1.58355 0
M  V30 1938 H 196.286 -0.688342 -3.04415 0
M  V30 1939 N 196.587 1.43421 -0.653314 0
M  V30 1940 C 197.815 2.06163 -0.174491 0
M  V30 1941 C 198.23 1.48969 1.1599 0
M  V30 1942 O 197.587 0.621042 1.71608 0
M  V30 1943 C 197.638 3.61417 -0.0774865 0
M  V30 1944 O 197.359 4.16485 -1.35912 0
M  V30 1945 C 198.86 4.41235 0.427402 0
M  V30 1946 H 196.08 0.664946 -0.0899353 0
M  V30 1947 H 198.624 1.83924 -0.893988 0
M  V30 1948 H 196.779 3.82841 0.59257 0
M  V30 1949 H 197.193 5.10153 -1.21839 0
M  V30 1950 H 198.667 5.5021 0.44423 0
M  V30 1951 H 199.144 4.14268 1.45873 0
M  V30 1952 H 199.75 4.2478 -0.210167 0
M  V30 1953 N 198.065 0.39524 1.52563 0
M  V30 1954 C 199.311 -0.177763 2.02622 0
M  V30 1955 C 199.666 -1.43974 1.27629 0
M  V30 1956 O 198.959 -1.87995 0.36992 0
M  V30 1957 C 199.153 -0.493444 3.53977 0
M  V30 1958 C 198.982 0.736392 4.4363 0
M  V30 1959 C 197.752 1.25744 4.89404 0
M  V30 1960 C 199.95 1.61046 4.88435 0
M  V30 1961 N 197.932 2.44421 5.63145 0
M  V30 1962 C 199.303 2.64359 5.60816 0
M  V30 1963 C 201.358 1.62985 4.70468 0
M  V30 1964 C 200.061 3.69505 6.17137 0
M  V30 1965 C 202.087 2.67042 5.27677 0
M  V30 1966 C 201.449 3.69077 5.99968 0
M  V30 1967 H 197.548 -0.0269794 0.781534 0
M  V30 1968 H 200.132 0.546466 1.86874 0
M  V30 1969 H 198.303 -1.18672 3.69826 0
M  V30 1970 H 200.035 -1.05412 3.90731 0
M  V30 1971 H 196.79 0.817546 4.6649 0
M  V30 1972 H 197.214 3.04485 6.04663 0
M  V30 1973 H 201.856 0.854442 4.14076 0
M  V30 1974 H 199.574 4.4791 6.72608 0
M  V30 1975 H 203.16 2.69433 5.15652 0
M  V30 1976 H 202.04 4.48273 6.43444 0
M  V30 1977 N 199.544 -1.57102 0.125237 0
M  V30 1978 C 200.955 -1.82384 -0.399142 0
M  V30 1979 C 201.306 -1.04276 -1.66195 0
M  V30 1980 O 200.431 -0.281269 -2.14564 0
M  V30 1981 C 201.026 -3.30821 -0.730932 0
M  V30 1982 C 199.585 -3.56762 -1.19992 0
M  V30 1983 C 198.732 -2.7649 -0.211792 0
M  V30 1984 H 201.683 -1.54786 0.350277 0
M  V30 1985 H 201.704 -3.4579 -1.58775 0
M  V30 1986 H 201.216 -3.87643 0.188345 0
M  V30 1987 H 199.317 -3.05305 -2.13588 0
M  V30 1988 H 199.43 -4.65317 -1.14093 0
M  V30 1989 H 197.794 -2.4489 -0.700085 0
M  V30 1990 H 198.577 -3.36073 0.700691 0
M  V30 1991 N 201.022 0.148545 -1.56898 0
M  V30 1992 C 202.269 0.861418 -1.83264 0
M  V30 1993 C 202.597 1.81239 -0.705883 0
M  V30 1994 O 201.852 1.93305 0.305212 0
M  V30 1995 C 202.151 1.67064 -3.1595 0
M  V30 1996 C 201.817 0.866591 -4.42494 0
M  V30 1997 C 200.479 0.644762 -4.76861 0
M  V30 1998 C 202.831 0.30418 -5.20312 0
M  V30 1999 C 200.159 -0.15021 -5.86508 0
M  V30 2000 C 202.511 -0.477824 -6.30793 0
M  V30 2001 C 201.175 -0.710244 -6.63711 0
M  V30 2002 H 200.445 0.315215 -0.670612 0
M  V30 2003 H 203.092 0.125142 -1.91091 0
M  V30 2004 H 201.397 2.47698 -3.03567 0
M  V30 2005 H 203.094 2.22566 -3.33565 0
M  V30 2006 H 199.684 1.04955 -4.15551 0
M  V30 2007 H 203.868 0.462844 -4.94137 0
M  V30 2008 H 199.124 -0.339796 -6.10455 0
M  V30 2009 H 203.298 -0.92076 -6.90286 0
M  V30 2010 H 200.925 -1.3281 -7.48509 0
M  V30 2011 N 202.5 1.5196 0.417844 0
M  V30 2012 C 203.748 1.65263 1.16329 0
M  V30 2013 C 204.069 0.380634 1.91249 0
M  V30 2014 O 203.339 -0.604214 1.86349 0
M  V30 2015 H 201.919 0.60912 0.432414 0
M  V30 2016 H 204.581 1.88969 0.477162 0
M  V30 2017 H 203.677 2.4896 1.88217 0
M  V30 2018 N 203.978 -0.674533 1.42435 0
M  V30 2019 C 205.206 -1.46283 1.46317 0
M  V30 2020 C 205.621 -1.88653 0.0745836 0
M  V30 2021 O 204.978 -1.58151 -0.91074 0
M  V30 2022 C 205.029 -2.71178 2.3905 0
M  V30 2023 O 204.75 -2.30586 3.72507 0
M  V30 2024 C 206.251 -3.64738 2.51955 0
M  V30 2025 H 203.471 -0.450104 0.497642 0
M  V30 2026 H 206.015 -0.828792 1.86953 0
M  V30 2027 H 204.17 -3.3077 2.01667 0
M  V30 2028 H 204.584 -3.11241 4.22172 0
M  V30 2029 H 206.058 -4.49096 3.20962 0
M  V30 2030 H 206.535 -4.10656 1.55752 0
M  V30 2031 H 207.141 -3.11038 2.90061 0
M  V30 2032 N 205.456 -1.28612 -0.910864 0
M  V30 2033 C 206.705 -1.15311 -1.65488 0
M  V30 2034 C 207.018 0.296999 -1.93332 0
M  V30 2035 O 208.224 0.551168 -2.65847 0
M  V30 2036 C 206.68 -2.01599 -2.98137 0
M  V30 2037 C 206.288 -3.51367 -2.7793 0
M  V30 2038 C 208.032 -1.96993 -3.76024 0
M  V30 2039 C 205.939 -4.29797 -4.06237 0
M  V30 2040 H 204.869 -0.42796 -0.620779 0
M  V30 2041 H 207.52 -1.53166 -1.01057 0
M  V30 2042 H 205.902 -1.56603 -3.63719 0
M  V30 2043 H 207.076 -4.0434 -2.21011 0
M  V30 2044 H 205.391 -3.57529 -2.13452 0
M  V30 2045 H 207.988 -2.52856 -4.71135 0
M  V30 2046 H 208.331 -0.94733 -4.05378 0
M  V30 2047 H 208.864 -2.39973 -3.17266 0
M  V30 2048 H 205.603 -5.32648 -3.82055 0
M  V30 2049 H 205.123 -3.81596 -4.62757 0
M  V30 2050 H 206.802 -4.39869 -4.74473 0
M  V30 2051 N 206.934 1.1197 -1.10907 0
M  V30 2052 C 207.864 2.19928 -0.784473 0
M  V30 2053 C 208.845 1.6833 0.244726 0
M  V30 2054 O 210.03 1.93892 0.109418 0
M  V30 2055 C 207.16 3.46597 -0.220827 0
M  V30 2056 C 206.114 4.11376 -1.18127 0
M  V30 2057 C 205.44 5.32554 -0.478594 0
M  V30 2058 C 206.74 4.56945 -2.52979 0
M  V30 2059 H 208.434 2.47337 -1.68715 0
M  V30 2060 H 205.98 1.18879 -0.812642 0
M  V30 2061 H 207.933 4.21396 0.0184278 0
M  V30 2062 H 206.657 3.1863 0.717113 0
M  V30 2063 H 205.316 3.38564 -1.40606 0
M  V30 2064 H 204.964 5.00856 0.463976 0
M  V30 2065 H 204.664 5.76844 -1.11912 0
M  V30 2066 H 206.188 6.10096 -0.248 0
M  V30 2067 H 207.602 5.23093 -2.3462 0
M  V30 2068 H 205.999 5.1203 -3.12962 0
M  V30 2069 H 207.069 3.70676 -3.12614 0
M  V30 2070 N 208.412 0.89855 1.29475 0
M  V30 2071 C 209.652 0.530771 1.97388 0
M  V30 2072 C 210.016 -0.905832 1.69289 0
M  V30 2073 O 211.217 -1.38042 2.30646 0
M  V30 2074 C 209.488 0.81369 3.48014 0
M  V30 2075 S 211.047 0.550048 4.35339 0
M  V30 2076 H 207.865 0.196956 0.683176 0
M  V30 2077 H 210.467 1.16074 1.57312 0
M  V30 2078 H 209.171 1.85749 3.65958 0
M  V30 2079 H 208.702 0.171795 3.93025 0
M  V30 2080 H 210.717 -0.605423 4.92493 0
M  V30 2081 N 209.89 -1.43072 0.660911 0
M  V30 2082 C 210.837 -2.30785 -0.0259884 0
M  V30 2083 C 211.807 -1.45184 -0.806888 0
M  V30 2084 O 212.992 -1.74041 -0.781943 0
M  V30 2085 C 210.132 -3.30861 -0.981067 0
M  V30 2086 C 209.245 -4.31558 -0.195458 0
M  V30 2087 C 208.38 -5.18712 -1.14503 0
M  V30 2088 C 207.419 -6.11097 -0.350299 0
M  V30 2089 N 206.556 -6.90849 -1.25186 0
M  V30 2090 H 211.396 -2.88975 0.727846 0
M  V30 2091 H 208.933 -1.42353 0.370682 0
M  V30 2092 H 210.891 -3.87399 -1.54849 0
M  V30 2093 H 209.521 -2.74304 -1.70169 0
M  V30 2094 H 208.573 -3.77252 0.488374 0
M  V30 2095 H 209.885 -4.9701 0.422176 0
M  V30 2096 H 209.039 -5.79914 -1.78284 0
M  V30 2097 H 207.778 -4.53404 -1.79656 0
M  V30 2098 H 206.783 -5.48976 0.300808 0
M  V30 2099 H 208.008 -6.7845 0.296941 0
M  V30 2100 H 205.954 -6.28182 -1.89005 0
M  V30 2101 H 205.871 -7.52854 -0.688971 0
M  V30 2102 H 207.139 -7.5655 -1.87757 0
M  V30 2103 N 211.368 -0.403325 -1.52352 0
M  V30 2104 C 212.617 0.175668 -2.00934 0
M  V30 2105 C 212.93 1.46718 -1.29356 0
M  V30 2106 O 214.136 2.12708 -1.68724 0
M  V30 2107 C 212.592 0.363612 -3.58058 0
M  V30 2108 C 212.2 -0.915472 -4.38547 0
M  V30 2109 C 213.944 0.89821 -4.14888 0
M  V30 2110 C 211.851 -0.695035 -5.87302 0
M  V30 2111 H 210.781 0.0694234 -0.750797 0
M  V30 2112 H 213.432 -0.527879 -1.75743 0
M  V30 2113 H 211.814 1.12935 -3.79555 0
M  V30 2114 H 212.988 -1.68691 -4.28812 0
M  V30 2115 H 211.303 -1.37606 -3.93006 0
M  V30 2116 H 213.9 1.07907 -5.23699 0
M  V30 2117 H 214.243 1.87126 -3.71873 0
M  V30 2118 H 214.776 0.191681 -3.97338 0
M  V30 2119 H 211.515 -1.63948 -6.34666 0
M  V30 2120 H 211.035 0.0372116 -5.99788 0
M  V30 2121 H 212.714 -0.33497 -6.46132 0
M  V30 2122 N 212.846 1.57033 -0.133567 0
M  V30 2123 C 214.092 1.95976 0.521649 0
M  V30 2124 C 214.425 1.01779 1.65393 0
M  V30 2125 O 213.7 0.0576581 1.94415 0
M  V30 2126 C 213.983 3.44738 1.04057 0
M  V30 2127 C 213.836 4.49711 -0.0892897 0
M  V30 2128 C 215.155 3.95682 1.92675 0
M  V30 2129 H 212.274 0.712579 0.188149 0
M  V30 2130 H 214.916 1.88813 -0.212076 0
M  V30 2131 H 213.066 3.50973 1.66583 0
M  V30 2132 H 214.738 4.55565 -0.725152 0
M  V30 2133 H 212.981 4.27261 -0.750378 0
M  V30 2134 H 213.652 5.51099 0.315284 0
M  V30 2135 H 216.128 3.91841 1.39998 0
M  V30 2136 H 215.004 5.00262 2.25897 0
M  V30 2137 H 215.265 3.37239 2.85872 0
M  V30 2138 N 214.325 -0.140222 1.56975 0
M  V30 2139 C 215.574 -0.850152 1.82908 0
M  V30 2140 C 215.887 -1.82028 0.715892 0
M  V30 2141 O 217.093 -2.57485 0.861016 0
M  V30 2142 C 215.549 -1.5625 3.24213 0
M  V30 2143 C 215.157 -0.63443 4.43485 0
M  V30 2144 C 216.901 -2.25881 3.59413 0
M  V30 2145 C 214.808 -1.34879 5.75814 0
M  V30 2146 H 213.738 -0.321221 0.682153 0
M  V30 2147 H 216.389 -0.102874 1.83211 0
M  V30 2148 H 214.771 -2.35565 3.18316 0
M  V30 2149 H 215.945 0.12398 4.60633 0
M  V30 2150 H 214.26 -0.0461836 4.16374 0
M  V30 2151 H 216.857 -2.79978 4.5554 0
M  V30 2152 H 217.2 -3.02693 2.85802 0
M  V30 2153 H 217.733 -1.53477 3.67001 0
M  V30 2154 H 214.472 -0.622385 6.52539 0
M  V30 2155 H 213.992 -2.07974 5.6259 0
M  V30 2156 H 215.671 -1.88784 6.18845 0
M  V30 2157 N 215.803 -1.52179 -0.40978 0
M  V30 2158 C 217.028 -1.70347 -1.18308 0
M  V30 2159 C 217.453 -0.411887 -1.83535 0
M  V30 2160 O 216.811 0.630587 -1.6998 0
M  V30 2161 C 216.859 -2.83977 -2.22238 0
M  V30 2162 O 215.963 -2.495 -3.28365 0
M  V30 2163 H 215.304 -0.567103 -0.345384 0
M  V30 2164 H 217.834 -1.98879 -0.480445 0
M  V30 2165 H 217.844 -3.0887 -2.66577 0
M  V30 2166 H 216.519 -3.77685 -1.74146 0
M  V30 2167 H 215.096 -2.35277 -2.89308 0
M  V30 2168 N 217.281 0.66697 -1.42791 0
M  V30 2169 C 218.53 1.42278 -1.42968 0
M  V30 2170 C 218.843 1.9553 -0.0524489 0
M  V30 2171 O 220.049 2.71414 0.068363 0
M  V30 2172 C 218.505 2.57418 -2.51524 0
M  V30 2173 C 218.113 2.10832 -3.9529 0
M  V30 2174 C 219.857 3.34878 -2.60877 0
M  V30 2175 C 217.764 3.23101 -4.95338 0
M  V30 2176 H 216.694 0.534533 -0.531781 0
M  V30 2177 H 219.345 0.721302 -1.68729 0
M  V30 2178 H 217.727 3.29971 -2.18941 0
M  V30 2179 H 218.901 1.4538 -4.37266 0
M  V30 2180 H 217.216 1.46289 -3.89857 0
M  V30 2181 H 219.813 4.18505 -3.32802 0
M  V30 2182 H 220.156 3.81993 -1.6549 0
M  V30 2183 H 220.689 2.69398 -2.92693 0
M  V30 2184 H 217.428 2.80969 -5.9223 0
M  V30 2185 H 216.948 3.87309 -4.57987 0
M  V30 2186 H 218.627 3.88447 -5.17415 0
M  V30 2187 N 218.759 1.29093 0.90403 0
M  V30 2188 C 220.036 1.075 1.63411 0
M  V30 2189 C 220.416 -0.382346 2.07609 0
M  V30 2190 O 219.764 -1.37031 1.82851 0
M  V30 2191 C 219.974 2.05858 2.81822 0
M  V30 2192 C 221.322 2.36539 3.52611 0
M  V30 2193 O 222.346 2.04019 2.91984 0
M  V30 2194 O 221.205 2.92085 4.61897 0
M  V30 2195 H 218.299 0.411547 0.717327 0
M  V30 2196 H 220.845 1.40449 0.952479 0
M  V30 2197 H 219.617 3.04037 2.46327 0
M  V30 2198 H 219.24 1.73613 3.57693 0
M  V30 2199 N 220.237 -1.11381 1.11499 0
M  V30 2200 C 221.467 -1.86663 0.885464 0
M  V30 2201 C 221.875 -1.80464 -0.568281 0
M  V30 2202 O 221.218 -1.18445 -1.40415 0
M  V30 2203 C 221.28 -3.36337 1.26956 0
M  V30 2204 C 220.944 -3.66304 2.73259 0
M  V30 2205 C 221.941 -3.63733 3.71476 0
M  V30 2206 C 219.626 -3.9529 3.09921 0
M  V30 2207 C 221.62 -3.89725 5.04374 0
M  V30 2208 C 219.307 -4.20941 4.43004 0
M  V30 2209 C 220.305 -4.18147 5.40039 0
M  V30 2210 O 219.993 -4.43153 6.70724 0
M  V30 2211 H 219.725 -0.597114 0.316908 0
M  V30 2212 H 222.279 -1.41782 1.48617 0
M  V30 2213 H 220.509 -3.81826 0.611999 0
M  V30 2214 H 222.198 -3.92986 1.01573 0
M  V30 2215 H 222.964 -3.41389 3.44498 0
M  V30 2216 H 218.843 -3.966 2.35009 0
M  V30 2217 H 222.387 -3.8746 5.80104 0
M  V30 2218 H 218.284 -4.42761 4.69716 0
M  V30 2219 H 219.052 -4.60717 6.76522 0
M  V30 2220 N 221.715 -0.905404 -1.28997 0
M  V30 2221 C 222.945 -0.549049 -1.99171 0
M  V30 2222 C 223.353 0.87203 -1.67906 0
M  V30 2223 O 222.696 1.58796 -0.923561 0
M  V30 2224 C 222.758 -0.668306 -3.53234 0
M  V30 2225 C 222.422 -2.0574 -4.08069 0
M  V30 2226 C 223.419 -3.0292 -4.22534 0
M  V30 2227 C 221.104 -2.36833 -4.42962 0
M  V30 2228 C 223.098 -4.29314 -4.71135 0
M  V30 2229 C 220.785 -3.63467 -4.91258 0
M  V30 2230 C 221.783 -4.59522 -5.053 0
M  V30 2231 O 221.471 -5.83907 -5.52546 0
M  V30 2232 H 221.203 -0.208784 -0.64295 0
M  V30 2233 H 223.757 -1.21836 -1.65363 0
M  V30 2234 H 221.987 0.0580547 -3.86656 0
M  V30 2235 H 223.676 -0.320273 -4.04634 0
M  V30 2236 H 224.442 -2.80216 -3.95859 0
M  V30 2237 H 220.321 -1.62824 -4.31288 0
M  V30 2238 H 223.865 -5.04293 -4.8201 0
M  V30 2239 H 219.762 -3.86 -5.17372 0
M  V30 2240 H 220.53 -5.86578 -5.70849 0
M  V30 2241 N 223.193 1.4272 -0.668489 0
M  V30 2242 C 224.141 2.32586 0.0254857 0
M  V30 2243 C 225.135 1.49471 0.797176 0
M  V30 2244 O 226.341 1.65583 0.705853 0
M  V30 2245 H 222.716 0.751514 0.0270339 0
M  V30 2246 H 224.687 2.88823 -0.749936 0
M  V30 2247 C 223.436 3.3397 0.967427 0
M  V30 2248 H 222.759 3.97961 0.383048 0
M  V30 2249 H 224.199 3.9945 1.42181 0
M  V30 2250 C 222.658 2.65744 2.0708 0
M  V30 2251 O 223.188 2.48454 3.15648 0
M  V30 2252 N 221.394 2.2487 1.8407 0
M  V30 2253 H 220.941 2.39132 0.95778 0
M  V30 2254 H 220.899 1.79552 2.58086 0
M  V30 2255 N 224.671 0.411399 1.52136 0
M  V30 2256 C 225.604 -0.457614 2.23565 0
M  V30 2257 C 226.582 -1.04613 1.24478 0
M  V30 2258 O 227.766 -1.09356 1.53536 0
M  V30 2259 C 224.893 -1.6354 2.96602 0
M  V30 2260 C 223.939 -1.17005 4.10137 0
M  V30 2261 S 224.772 -0.13333 5.35334 0
M  V30 2262 C 225.928 -1.31638 6.119 0
M  V30 2263 H 226.161 0.148883 2.96927 0
M  V30 2264 H 223.694 0.195713 1.53155 0
M  V30 2265 H 225.652 -2.31074 3.39286 0
M  V30 2266 H 224.313 -2.21324 2.22878 0
M  V30 2267 H 223.506 -2.05005 4.60422 0
M  V30 2268 H 223.108 -0.573319 3.6958 0
M  V30 2269 H 225.4 -2.23957 6.39413 0
M  V30 2270 H 226.343 -0.854014 7.02931 0
M  V30 2271 H 226.751 -1.54321 5.42997 0
M  V30 2272 N 226.149 -1.5696 0.141893 0
M  V30 2273 C 227.396 -1.9596 -0.510492 0
M  V30 2274 C 227.724 -1.02648 -1.65208 0
M  V30 2275 O 226.979 -0.0546947 -1.95624 0
M  V30 2276 C 227.278 -3.41242 -1.06249 0
M  V30 2277 C 226.944 -4.50882 -0.0398791 0
M  V30 2278 C 225.606 -4.80595 0.241247 0
M  V30 2279 C 227.958 -5.17058 0.65578 0
M  V30 2280 C 225.286 -5.73792 1.22393 0
M  V30 2281 C 227.638 -6.11313 1.62724 0
M  V30 2282 C 226.302 -6.39407 1.91612 0
M  V30 2283 H 225.572 -0.717068 -0.186802 0
M  V30 2284 H 228.219 -1.90142 0.227643 0
M  V30 2285 H 226.524 -3.43866 -1.87785 0
M  V30 2286 H 228.221 -3.68742 -1.57576 0
M  V30 2287 H 224.811 -4.27754 -0.269174 0
M  V30 2288 H 228.995 -4.94239 0.451779 0
M  V30 2289 H 224.251 -5.93853 1.45424 0
M  V30 2290 H 228.425 -6.61668 2.17183 0
M  V30 2291 H 226.052 -7.11427 2.6791 0
M  V30 2292 N 227.627 0.131896 -1.57047 0
M  V30 2293 C 228.855 0.856461 -1.88341 0
M  V30 2294 C 229.27 1.74042 -0.731757 0
M  V30 2295 O 228.627 1.80051 0.297945 0
M  V30 2296 C 228.678 1.70064 -3.18999 0
M  V30 2297 O 228.399 0.852278 -4.2973 0
M  V30 2298 C 229.9 2.53148 -3.63911 0
M  V30 2299 H 227.12 0.246885 -0.62393 0
M  V30 2300 H 229.664 0.120152 -2.04147 0
M  V30 2301 H 227.819 2.38984 -3.04902 0
M  V30 2302 H 228.233 1.43329 -5.04537 0
M  V30 2303 H 229.707 3.07931 -4.58129 0
M  V30 2304 H 230.184 3.29901 -2.89935 0
M  V30 2305 H 230.79 1.89492 -3.80753 0
M  V30 2306 N 229.106 1.52395 0.401703 0
M  V30 2307 C 230.331 1.70972 1.17403 0
M  V30 2308 C 230.756 0.421615 1.83314 0
M  V30 2309 O 230.114 -0.621564 1.70312 0
M  V30 2310 C 230.162 2.85151 2.20728 0
M  V30 2311 O 229.266 2.51238 3.27037 0
M  V30 2312 H 228.607 0.568927 0.342372 0
M  V30 2313 H 231.137 1.99131 0.469891 0
M  V30 2314 H 231.147 3.10279 2.64936 0
M  V30 2315 H 229.822 3.78603 1.7214 0
M  V30 2316 H 228.399 2.36808 2.88057 0
M  V30 2317 N 230.584 -0.659388 1.43143 0
M  V30 2318 C 231.833 -1.41518 1.43721 0
M  V30 2319 C 232.146 -1.95499 0.0628176 0
M  V30 2320 O 233.352 -2.71446 -0.0539683 0
M  V30 2321 C 231.808 -2.5608 2.52885 0
M  V30 2322 C 231.416 -2.08733 3.96402 0
M  V30 2323 C 233.16 -3.3349 2.62649 0
M  V30 2324 C 231.067 -3.20469 4.97045 0
M  V30 2325 H 229.997 -0.531705 0.534608 0
M  V30 2326 H 232.648 -0.712343 1.69109 0
M  V30 2327 H 231.03 -3.28805 2.20688 0
M  V30 2328 H 232.204 -1.43059 4.3803 0
M  V30 2329 H 230.519 -1.44219 3.90627 0
M  V30 2330 H 233.116 -4.16734 3.35017 0
M  V30 2331 H 233.459 -3.8111 1.67513 0
M  V30 2332 H 233.992 -2.67842 2.94118 0
M  V30 2333 H 230.731 -2.77824 5.93712 0
M  V30 2334 H 230.251 -3.84874 4.60034 0
M  V30 2335 H 231.93 -3.85698 5.19467 0
M  V30 2336 N 232.062 -1.29571 -0.897171 0
M  V30 2337 C 233.309 -1.17689 -1.6479 0
M  V30 2338 C 233.637 0.27107 -1.92602 0
M  V30 2339 O 232.892 1.21193 -1.53658 0
M  V30 2340 C 233.191 -1.9382 -3.00281 0
M  V30 2341 C 232.857 -3.43522 -2.92068 0
M  V30 2342 C 231.519 -3.84348 -2.89535 0
M  V30 2343 C 233.871 -4.38906 -2.81089 0
M  V30 2344 C 231.199 -5.18869 -2.73846 0
M  V30 2345 C 233.551 -5.73521 -2.66939 0
M  V30 2346 C 232.215 -6.13601 -2.62774 0
M  V30 2347 H 231.485 -0.430654 -0.603008 0
M  V30 2348 H 234.132 -1.60536 -1.04404 0
M  V30 2349 H 232.437 -1.4357 -3.64547 0
M  V30 2350 H 234.134 -1.82028 -3.57305 0
M  V30 2351 H 230.724 -3.11072 -2.94842 0
M  V30 2352 H 234.908 -4.08315 -2.82121 0
M  V30 2353 H 230.164 -5.4903 -2.69027 0
M  V30 2354 H 234.338 -6.47078 -2.57416 0
M  V30 2355 H 231.965 -7.17786 -2.50375 0
M  V30 2356 N 233.54 1.10788 -1.12088 0
M  V30 2357 C 234.768 1.86461 -0.896651 0
M  V30 2358 C 235.183 1.80492 0.553912 0
M  V30 2359 O 234.54 1.19102 1.38278 0
M  V30 2360 C 234.591 3.35006 -1.35843 0
M  V30 2361 O 234.312 3.40866 -2.75213 0
M  V30 2362 C 235.813 4.27565 -1.1706 0
M  V30 2363 H 233.033 0.589425 -0.320654 0
M  V30 2364 H 235.577 1.40076 -1.48993 0
M  V30 2365 H 233.732 3.7887 -0.808458 0
M  V30 2366 H 234.146 4.33411 -2.9539 0
M  V30 2367 H 235.62 5.30007 -1.54263 0
M  V30 2368 H 236.097 4.3906 -0.110814 0
M  V30 2369 H 236.703 3.89501 -1.70789 0
M  V30 2370 N 235.018 0.912232 1.28515 0
M  V30 2371 C 235.948 0.416403 2.29757 0
M  V30 2372 C 236.929 -0.515194 1.6211 0
M  V30 2373 O 238.114 -0.423253 1.89532 0
M  V30 2374 C 235.244 -0.34572 3.45575 0
M  V30 2375 C 234.198 0.496599 4.25109 0
M  V30 2376 C 233.524 -0.393771 5.33248 0
M  V30 2377 C 234.824 1.75307 4.92001 0
M  V30 2378 H 236.518 1.26249 2.7148 0
M  V30 2379 H 234.064 0.608515 1.30511 0
M  V30 2380 H 236.017 -0.703422 4.15488 0
M  V30 2381 H 234.741 -1.2257 3.02728 0
M  V30 2382 H 233.4 0.8368 3.56922 0
M  V30 2383 H 233.048 -1.27225 4.86644 0
M  V30 2384 H 232.748 0.166209 5.87365 0
M  V30 2385 H 234.272 -0.747389 6.06009 0
M  V30 2386 H 235.686 1.46437 5.54283 0
M  V30 2387 H 234.083 2.25534 5.56106 0
M  V30 2388 H 235.153 2.48176 4.16577 0
M  V30 2389 N 236.496 -1.42363 0.676048 0
M  V30 2390 C 237.736 -2.03392 0.20273 0
M  V30 2391 C 238.1 -1.52306 -1.16906 0
M  V30 2392 O 239.301 -2.05129 -1.73711 0
M  V30 2393 C 237.572 -3.56614 0.236947 0
M  V30 2394 S 239.131 -4.38489 -0.165186 0
M  V30 2395 H 235.949 -0.70611 0.0832418 0
M  V30 2396 H 238.551 -1.74093 0.88948 0
M  V30 2397 H 237.255 -3.91293 1.23767 0
M  V30 2398 H 236.786 -3.90587 -0.469596 0
M  V30 2399 H 238.801 -4.76093 -1.39822 0
M  V30 2400 N 237.974 -0.419461 -1.51915 0
M  V30 2401 C 239.202 0.152136 -2.0634 0
M  V30 2402 C 239.617 1.37988 -1.28859 0
M  V30 2403 O 238.974 1.79243 -0.343232 0
M  V30 2404 C 239.025 0.492266 -3.58133 0
M  V30 2405 O 238.746 -0.686736 -4.32684 0
M  V30 2406 C 240.247 1.11648 -4.2901 0
M  V30 2407 H 237.467 0.0158325 -0.670813 0
M  V30 2408 H 240.011 -0.593394 -1.95702 0
M  V30 2409 H 238.166 1.18769 -3.68745 0
M  V30 2410 H 238.58 -0.400341 -5.2297 0
M  V30 2411 H 240.054 1.3046 -5.36362 0
M  V30 2412 H 240.531 2.09251 -3.86148 0
M  V30 2413 H 241.137 0.460958 -4.22795 0
M  V30 2414 N 239.452 1.56882 -0.150215 0
M  V30 2415 C 240.385 2.12712 0.826358 0
M  V30 2416 C 241.363 1.05154 1.24022 0
M  V30 2417 O 242.547 1.33004 1.33575 0
M  V30 2418 C 239.674 2.64945 2.11002 0
M  V30 2419 C 238.72 3.8468 1.84183 0
M  V30 2420 S 239.553 5.25502 1.02995 0
M  V30 2421 C 240.709 5.81125 2.32474 0
M  V30 2422 H 240.942 2.95214 0.351598 0
M  V30 2423 H 238.475 1.54267 0.0641211 0
M  V30 2424 H 240.433 2.95689 2.84742 0
M  V30 2425 H 239.094 1.82568 2.55593 0
M  V30 2426 H 238.287 4.19482 2.79375 0
M  V30 2427 H 237.889 3.54714 1.1855 0
M  V30 2428 H 240.181 5.92753 3.281 0
M  V30 2429 H 241.124 6.78625 2.02171 0
M  V30 2430 H 241.532 5.09392 2.43269 0
M  V30 2431 N 240.93 -0.123565 1.57115 0
M  V30 2432 C 242.155 -0.850398 1.89164 0
M  V30 2433 C 242.58 -1.7286 0.741688 0
M  V30 2434 O 241.938 -1.78665 -0.307958 0
M  V30 2435 C 241.986 -1.66353 3.19936 0
M  V30 2436 O 241.09 -2.77004 3.0552 0
M  V30 2437 H 240.431 -0.235454 0.620852 0
M  V30 2438 H 242.961 -0.107335 2.04318 0
M  V30 2439 H 242.971 -2.05372 3.52543 0
M  V30 2440 H 241.646 -1.01881 4.03228 0
M  V30 2441 H 240.223 -2.41221 2.84371 0
M  V30 2442 N 242.408 -1.52605 -0.393616 0
M  V30 2443 C 243.654 -1.67672 -1.14079 0
M  V30 2444 C 243.987 -0.413121 -1.89755 0
M  V30 2445 O 243.262 0.588952 -1.85369 0
M  V30 2446 C 243.545 -2.9088 -2.12276 0
M  V30 2447 C 243.398 -4.27329 -1.40394 0
M  V30 2448 C 244.717 -3.09628 -3.12759 0
M  V30 2449 H 241.836 -0.610168 -0.413356 0
M  V30 2450 H 244.478 -1.85193 -0.424696 0
M  V30 2451 H 242.628 -2.76073 -2.73342 0
M  V30 2452 H 244.3 -4.53894 -0.82327 0
M  V30 2453 H 242.543 -4.2802 -0.705801 0
M  V30 2454 H 243.214 -5.09615 -2.12123 0
M  V30 2455 H 245.69 -3.23436 -2.61779 0
M  V30 2456 H 244.566 -3.97322 -3.78717 0
M  V30 2457 H 244.827 -2.23637 -3.81365 0
M  V30 2458 N 243.887 0.651787 -1.4349 0
M  V30 2459 C 245.164 1.40909 -1.35661 0
M  V30 2460 C 245.544 2.11099 -0.00511733 0
M  V30 2461 O 244.892 2.04892 1.0115 0
M  V30 2462 C 245.102 2.3926 -2.54078 0
M  V30 2463 C 246.45 3.03217 -2.97228 0
M  V30 2464 O 247.474 2.49588 -2.54135 0
M  V30 2465 O 246.333 4.00455 -3.71885 0
M  V30 2466 H 243.427 0.629625 -0.536191 0
M  V30 2467 H 245.973 0.678575 -1.55542 0
M  V30 2468 H 244.745 1.86352 -3.44076 0
M  V30 2469 H 244.368 3.1976 -2.36303 0
M  V30 2470 N 245.365 1.30045 0.890287 0
M  V30 2471 C 246.781 1.08261 1.17268 0
M  V30 2472 C 246.981 -0.160063 2.00863 0
M  V30 2473 O 246.037 -0.855181 2.37577 0
M  V30 2474 C 247.35 2.34323 1.8845 0
M  V30 2475 C 248.898 2.39735 2.01237 0
M  V30 2476 C 249.373 3.65625 2.7583 0
M  V30 2477 N 250.864 3.66402 2.83379 0
M  V30 2478 C 251.599 4.60498 3.41657 0
M  V30 2479 N 251.095 5.64933 4.01026 0
M  V30 2480 N 252.888 4.48051 3.39421 0
M  V30 2481 H 245.039 2.09777 0.332762 0
M  V30 2482 H 247.302 0.92446 0.209948 0
M  V30 2483 H 247.008 3.2498 1.34465 0
M  V30 2484 H 246.882 2.4256 2.88867 0
M  V30 2485 H 249.269 1.4956 2.54393 0
M  V30 2486 H 249.35 2.35476 0.999232 0
M  V30 2487 H 248.994 4.56156 2.23347 0
M  V30 2488 H 248.924 3.67144 3.77509 0
M  V30 2489 H 251.415 2.90896 2.41222 0
M  V30 2490 H 251.728 6.32841 4.43545 0
M  V30 2491 H 250.073 5.68732 3.99461 0
M  V30 2492 H 253.264 3.65649 2.92264 0
M  V30 2493 H 253.437 5.21565 3.84544 0
M  V30 2494 N 246.843 -1.10192 1.12674 0
M  V30 2495 C 248.073 -1.85713 0.905213 0
M  V30 2496 C 248.481 -1.81056 -0.549108 0
M  V30 2497 O 247.824 -1.19927 -1.39151 0
M  V30 2498 C 247.886 -3.34972 1.30516 0
M  V30 2499 C 247.55 -3.63385 2.77129 0
M  V30 2500 C 248.547 -3.59772 3.75313 0
M  V30 2501 C 246.232 -3.91981 3.14096 0
M  V30 2502 C 248.226 -3.84354 5.08479 0
M  V30 2503 C 245.913 -4.16218 4.47443 0
M  V30 2504 C 246.911 -4.12395 5.44444 0
M  V30 2505 O 246.599 -4.36014 6.75387 0
M  V30 2506 H 246.331 -0.593719 0.323223 0
M  V30 2507 H 248.885 -1.40198 1.50112 0
M  V30 2508 H 247.115 -3.81156 0.652463 0
M  V30 2509 H 248.804 -3.91886 1.05736 0
M  V30 2510 H 249.57 -3.37716 3.48099 0
M  V30 2511 H 245.449 -3.94085 2.39202 0
M  V30 2512 H 248.993 -3.81285 5.84181 0
M  V30 2513 H 244.89 -4.37754 4.74386 0
M  V30 2514 H 245.658 -4.53516 6.8137 0
M  V30 2515 N 248.321 -0.919034 -1.28029 0
M  V30 2516 C 249.57 -0.550802 -1.94034 0
M  V30 2517 C 249.883 0.910877 -1.73096 0
M  V30 2518 O 251.089 1.3875 -2.33368 0
M  V30 2519 C 249.545 -0.934249 -3.47563 0
M  V30 2520 C 249.153 -2.41602 -3.7727 0
M  V30 2521 C 250.897 -0.636854 -4.19696 0
M  V30 2522 C 248.804 -2.73932 -5.24133 0
M  V30 2523 H 247.734 -0.202273 -0.726362 0
M  V30 2524 H 250.385 -1.11867 -1.45458 0
M  V30 2525 H 248.767 -0.295115 -3.94899 0
M  V30 2526 H 249.941 -3.10233 -3.40723 0
M  V30 2527 H 248.256 -2.68441 -3.18321 0
M  V30 2528 H 250.853 -0.855005 -5.2782 0
M  V30 2529 H 251.196 0.425575 -4.14119 0
M  V30 2530 H 251.729 -1.23469 -3.78154 0
M  V30 2531 H 248.468 -3.79049 -5.34792 0
M  V30 2532 H 247.988 -2.09942 -5.61858 0
M  V30 2533 H 249.667 -2.61215 -5.91925 0
M  V30 2534 N 249.799 1.42003 -0.683588 0
M  V30 2535 C 250.762 2.29191 -0.0198243 0
M  V30 2536 C 251.762 1.43773 0.72013 0
M  V30 2537 O 252.952 1.65061 0.556815 0
M  V30 2538 C 250.084 3.26435 0.982487 0
M  V30 2539 H 251.277 2.8938 -0.787345 0
M  V30 2540 H 248.83 1.49789 -0.446418 0
M  V30 2541 H 249.565 2.71203 1.77819 0
M  V30 2542 H 249.35 3.89449 0.455182 0
M  V30 2543 H 250.84 3.918 1.44508 0
M  V30 2544 N 251.277 0.427512 1.51691 0
M  V30 2545 C 252.523 -0.142439 2.02299 0
M  V30 2546 C 252.856 -1.43214 1.31162 0
M  V30 2547 O 252.131 -1.89833 0.423511 0
M  V30 2548 C 252.414 -0.371301 3.58181 0
M  V30 2549 C 252.267 0.936358 4.39946 0
M  V30 2550 C 253.586 -1.14542 4.24933 0
M  V30 2551 H 250.705 -0.0502937 0.735282 0
M  V30 2552 H 253.347 0.564584 1.81418 0
M  V30 2553 H 251.497 -0.973559 3.76104 0
M  V30 2554 H 253.169 1.57184 4.33694 0
M  V30 2555 H 251.412 1.5432 4.05423 0
M  V30 2556 H 252.083 0.730388 5.47147 0
M  V30 2557 H 254.559 -0.635362 4.11221 0
M  V30 2558 H 253.435 -1.27431 5.33903 0
M  V30 2559 H 253.696 -2.17093 3.85127 0
M  V30 2560 N 252.755 -1.56801 0.158532 0
M  V30 2561 C 253.995 -1.98383 -0.49229 0
M  V30 2562 C 254.359 -1.04184 -1.61275 0
M  V30 2563 O 255.56 -1.34856 -2.32524 0
M  V30 2564 C 253.831 -3.4385 -0.974766 0
M  V30 2565 S 255.39 -4.07459 -1.62857 0
M  V30 2566 H 252.208 -0.693041 -0.158794 0
M  V30 2567 H 254.81 -1.93856 0.252974 0
M  V30 2568 H 253.514 -4.10131 -0.148688 0
M  V30 2569 H 253.045 -3.52115 -1.75438 0
M  V30 2570 H 255.06 -4.01458 -2.91627 0
M  V30 2571 N 254.233 0.115231 -1.57178 0
M  V30 2572 C 255.183 1.14707 -1.97044 0
M  V30 2573 C 256.167 1.36866 -0.845957 0
M  V30 2574 O 257.359 1.37895 -1.10968 0
M  V30 2575 C 254.488 2.47266 -2.38148 0
M  V30 2576 C 253.574 2.28566 -3.57237 0
M  V30 2577 N 253.965 1.79685 -4.72807 0
M  V30 2578 C 252.263 2.59208 -3.62943 0
M  V30 2579 C 252.964 1.74781 -5.54821 0
M  V30 2580 N 251.94 2.19264 -4.97417 0
M  V30 2581 H 255.742 0.761754 -2.83857 0
M  V30 2582 H 253.256 0.322928 -1.59157 0
M  V30 2583 H 255.253 3.219 -2.64927 0
M  V30 2584 H 253.913 2.86552 -1.52702 0
M  V30 2585 H 254.924 1.49177 -4.9595 0
M  V30 2586 H 251.601 3.02154 -2.88113 0
M  V30 2587 H 252.991 1.38212 -6.57531 0
M  V30 2588 N 255.711 1.52812 0.385517 0
M  V30 2589 C 257.122 1.5993 0.963293 0
M  V30 2590 C 257.473 0.454302 1.90868 0
M  V30 2591 O 256.598 -0.422132 2.12243 0
M  V30 2592 C 257.193 2.89871 1.75387 0
M  V30 2593 C 255.752 2.99389 2.28129 0
M  V30 2594 C 254.899 2.55071 1.08783 0
M  V30 2595 H 257.85 1.5784 0.164948 0
M  V30 2596 H 257.871 2.76553 2.61341 0
M  V30 2597 H 257.383 3.73186 1.06554 0
M  V30 2598 H 255.484 2.20619 3.00263 0
M  V30 2599 H 255.597 4.04096 2.57377 0
M  V30 2600 H 253.961 2.09473 1.4489 0
M  V30 2601 H 254.744 3.40785 0.414807 0
M  V30 2602 N 257.189 -0.644168 1.43834 0
M  V30 2603 C 258.435 -1.40603 1.46146 0
M  V30 2604 C 258.768 -1.93997 0.0887717 0
M  V30 2605 O 258.043 -1.72854 -0.891724 0
M  V30 2606 C 258.326 -2.58086 2.51124 0
M  V30 2607 C 258.179 -2.10126 3.97702 0
M  V30 2608 C 259.498 -3.60291 2.52742 0
M  V30 2609 H 256.617 -0.509905 0.532134 0
M  V30 2610 H 259.259 -0.729502 1.75437 0
M  V30 2611 H 257.409 -3.15801 2.26278 0
M  V30 2612 H 259.081 -1.57342 4.33637 0
M  V30 2613 H 257.324 -1.41419 4.10101 0
M  V30 2614 H 257.995 -2.94649 4.66783 0
M  V30 2615 H 260.471 -3.12352 2.7491 0
M  V30 2616 H 259.347 -4.40032 3.28121 0
M  V30 2617 H 259.608 -4.1349 1.56455 0
M  V30 2618 N 258.668 -1.30515 -0.883378 0
M  V30 2619 C 259.615 -1.17032 -1.98927 0
M  V30 2620 C 260.585 -0.0594241 -1.65994 0
M  V30 2621 O 261.77 -0.229895 -1.8941 0
M  V30 2622 C 258.91 -0.869777 -3.33959 0
M  V30 2623 C 258.023 -2.06271 -3.79574 0
M  V30 2624 C 257.158 -1.70011 -5.03259 0
M  V30 2625 C 256.197 -2.8579 -5.41286 0
M  V30 2626 N 255.334 -2.49816 -6.56153 0
M  V30 2627 H 260.174 -2.1164 -2.09792 0
M  V30 2628 H 257.711 -1.05296 -1.02719 0
M  V30 2629 H 259.669 -0.676138 -4.11685 0
M  V30 2630 H 258.299 0.0394332 -3.22776 0
M  V30 2631 H 257.351 -2.36755 -2.97744 0
M  V30 2632 H 258.663 -2.92971 -4.03694 0
M  V30 2633 H 257.817 -1.47032 -5.88614 0
M  V30 2634 H 256.556 -0.804829 -4.81013 0
M  V30 2635 H 255.561 -3.09434 -4.54456 0
M  V30 2636 H 256.786 -3.76008 -5.65504 0
M  V30 2637 H 254.732 -1.62795 -6.35479 0
M  V30 2638 H 254.649 -3.30048 -6.8015 0
M  V30 2639 H 255.917 -2.30197 -7.44735 0
M  V30 2640 N 260.146 1.09593 -1.13257 0
M  V30 2641 C 261.109 2.14359 -0.811358 0
M  V30 2642 C 262.109 1.59808 0.178377 0
M  V30 2643 O 263.299 1.74132 -0.0484911 0
M  V30 2644 C 260.431 3.40269 -0.207276 0
M  V30 2645 H 261.624 2.44284 -1.73969 0
M  V30 2646 H 259.177 1.25102 -0.936973 0
M  V30 2647 H 259.912 3.15969 0.73036 0
M  V30 2648 H 259.697 3.81154 -0.919992 0
M  V30 2649 H 261.187 4.176 0.000667944 0
M  V30 2650 N 261.624 0.925811 1.2754 0
M  V30 2651 C 262.554 0.440748 2.29303 0
M  V30 2652 C 263.535 -0.497971 1.62648 0
M  V30 2653 O 264.72 -0.403126 1.8997 0
M  V30 2654 C 261.85 -0.309048 3.45922 0
M  V30 2655 C 260.804 0.54166 4.24559 0
M  V30 2656 C 260.13 -0.337191 5.33636 0
M  V30 2657 C 261.43 1.80516 4.90114 0
M  V30 2658 H 263.124 1.29121 2.70126 0
M  V30 2659 H 260.67 0.622323 1.29858 0
M  V30 2660 H 262.623 -0.659315 4.1621 0
M  V30 2661 H 261.347 -1.19352 3.04011 0
M  V30 2662 H 260.006 0.874609 3.56014 0
M  V30 2663 H 259.654 -1.22056 4.87966 0
M  V30 2664 H 259.354 0.228497 5.87156 0
M  V30 2665 H 260.878 -0.683072 6.06767 0
M  V30 2666 H 262.292 1.52307 5.52698 0
M  V30 2667 H 260.689 2.3142 5.53683 0
M  V30 2668 H 261.759 2.52581 4.13921 0
M  V30 2669 N 263.102 -1.41638 0.69111 0
M  V30 2670 C 264.379 -1.95036 0.148421 0
M  V30 2671 C 264.759 -1.63072 -1.34055 0
M  V30 2672 O 264.107 -0.93538 -2.08478 0
M  V30 2673 C 264.317 -3.46279 0.434951 0
M  V30 2674 C 265.665 -4.23069 0.360275 0
M  V30 2675 O 266.689 -3.54277 0.369613 0
M  V30 2676 O 265.548 -5.45583 0.316534 0
M  V30 2677 H 262.642 -0.826908 0.0123654 0
M  V30 2678 H 265.188 -1.5138 0.766963 0
M  V30 2679 H 263.96 -3.6281 1.46576 0
M  V30 2680 H 263.583 -3.97019 -0.214787 0
M  V30 2681 N 264.58 -0.43555 -1.51462 0
M  V30 2682 C 265.827 0.131514 -2.02072 0
M  V30 2683 C 266.155 1.42868 -1.31981 0
M  V30 2684 O 265.41 1.91076 -0.422883 0
M  V30 2685 C 265.709 0.39942 -3.55161 0
M  V30 2686 C 265.375 -0.81172 -4.43533 0
M  V30 2687 C 264.037 -1.14387 -4.67407 0
M  V30 2688 C 266.389 -1.61976 -4.95392 0
M  V30 2689 C 263.717 -2.28477 -5.40384 0
M  V30 2690 C 266.069 -2.75164 -5.6962 0
M  V30 2691 C 264.733 -3.08835 -5.91758 0
M  V30 2692 H 264.003 0.0481244 -0.739436 0
M  V30 2693 H 266.65 -0.58238 -1.8243 0
M  V30 2694 H 264.955 1.19519 -3.73125 0
M  V30 2695 H 266.652 0.85157 -3.91854 0
M  V30 2696 H 263.242 -0.542898 -4.25148 0
M  V30 2697 H 267.426 -1.37637 -4.76833 0
M  V30 2698 H 262.682 -2.5488 -5.55739 0
M  V30 2699 H 266.856 -3.38147 -6.08793 0
M  V30 2700 H 264.483 -3.97353 -6.48086 0
M  V30 2701 N 266.058 1.56714 -0.166846 0
M  V30 2702 C 267.474 1.58473 0.189372 0
M  V30 2703 C 267.674 1.18201 1.63189 0
M  V30 2704 O 266.73 0.891528 2.36237 0
M  V30 2705 C 268.043 3.00573 -0.0873872 0
M  V30 2706 C 269.591 3.1299 -0.0252443 0
M  V30 2707 C 270.066 4.57174 -0.274934 0
M  V30 2708 N 271.557 4.62665 -0.222553 0
M  V30 2709 C 272.292 5.72072 -0.389985 0
M  V30 2710 N 271.788 6.90054 -0.616229 0
M  V30 2711 N 273.581 5.61153 -0.326202 0
M  V30 2712 H 265.732 1.8118 -1.10849 0
M  V30 2713 H 267.995 0.839525 -0.440342 0
M  V30 2714 H 267.701 3.34497 -1.0865 0
M  V30 2715 H 267.575 3.72019 0.623037 0
M  V30 2716 H 269.962 2.78895 0.96444 0
M  V30 2717 H 270.043 2.43989 -0.768309 0
M  V30 2718 H 269.687 4.91976 -1.26181 0
M  V30 2719 H 269.617 5.24328 0.48869 0
M  V30 2720 H 272.108 3.77863 -0.0531512 0
M  V30 2721 H 272.421 7.69311 -0.733559 0
M  V30 2722 H 270.766 6.91927 -0.652791 0
M  V30 2723 H 273.957 4.67859 -0.150072 0
M  V30 2724 H 274.13 6.46364 -0.460116 0
M  V30 2725 N 267.536 -0.106894 1.57237 0
M  V30 2726 C 268.764 -0.826389 1.8968 0
M  V30 2727 C 269.179 -1.72856 0.759353 0
M  V30 2728 O 268.536 -1.80503 -0.269263 0
M  V30 2729 C 268.587 -1.64967 3.21665 0
M  V30 2730 O 268.308 -0.783804 4.31031 0
M  V30 2731 C 269.809 -2.47326 3.67892 0
M  V30 2732 H 267.029 -0.236927 0.627779 0
M  V30 2733 H 269.573 -0.0876593 2.04312 0
M  V30 2734 H 267.728 -2.34103 3.08666 0
M  V30 2735 H 268.142 -1.35284 5.06753 0
M  V30 2736 H 269.616 -3.00604 4.6297 0
M  V30 2737 H 270.093 -3.25247 2.95146 0
M  V30 2738 H 270.699 -1.83411 3.83719 0
M  V30 2739 N 269.014 -1.53014 -0.377408 0
M  V30 2740 C 270.425 -1.60438 -0.954798 0
M  V30 2741 C 270.776 -0.464418 -1.90624 0
M  V30 2742 O 269.901 0.41087 -2.12464 0
M  V30 2743 C 270.496 -2.90797 -1.73847 0
M  V30 2744 C 269.055 -3.00595 -2.26538 0
M  V30 2745 C 268.202 -2.55645 -1.07429 0
M  V30 2746 H 271.153 -1.57926 -0.156575 0
M  V30 2747 H 271.174 -2.77935 -2.5987 0
M  V30 2748 H 270.686 -3.73746 -1.04574 0
M  V30 2749 H 268.787 -2.22208 -2.99089 0
M  V30 2750 H 268.9 -4.05456 -2.5523 0
M  V30 2751 H 267.264 -2.10239 -1.43777 0
M  V30 2752 H 268.047 -3.41 -0.396728 0
M  V30 2753 N 270.492 0.636531 -1.44174 0
M  V30 2754 C 271.908 0.954104 -1.27941 0
M  V30 2755 C 272.108 2.0039 -0.211248 0
M  V30 2756 O 271.164 2.49236 0.404695 0
M  V30 2757 C 272.477 1.4225 -2.64925 0
M  V30 2758 C 274.025 1.53827 -2.72592 0
M  V30 2759 C 274.5 2.04053 -4.10032 0
M  V30 2760 N 275.991 2.11331 -4.12182 0
M  V30 2761 C 276.726 2.51352 -5.15374 0
M  V30 2762 N 276.222 2.90549 -6.2893 0
M  V30 2763 N 278.015 2.51438 -5.02728 0
M  V30 2764 H 270.166 -0.0578386 -2.12321 0
M  V30 2765 H 272.429 0.0367406 -0.947288 0
M  V30 2766 H 272.135 0.725466 -3.44136 0
M  V30 2767 H 272.009 2.39451 -2.9145 0
M  V30 2768 H 274.396 2.22628 -1.93702 0
M  V30 2769 H 274.477 0.550154 -2.49814 0
M  V30 2770 H 274.121 1.35848 -4.89395 0
M  V30 2771 H 274.051 3.03726 -4.30184 0
M  V30 2772 H 276.542 1.83745 -3.30222 0
M  V30 2773 H 276.855 3.19884 -7.03487 0
M  V30 2774 H 275.2 2.88313 -6.32377 0
M  V30 2775 H 278.391 2.20203 -4.13072 0
M  V30 2776 H 278.564 2.82304 -5.83274 0
M  V30 2777 N 271.97 1.30982 0.876444 0
M  V30 2778 C 272.918 1.18006 2.00443 0
M  V30 2779 C 273.912 0.0898871 1.69161 0
M  V30 2780 O 275.118 0.251333 1.78237 0
M  V30 2781 H 271.493 0.365196 0.65737 0
M  V30 2782 H 273.464 2.13453 2.0852 0
M  V30 2783 C 272.213 0.897521 3.35916 0
M  V30 2784 H 271.536 1.7285 3.60504 0
M  V30 2785 H 272.976 0.846874 4.15456 0
M  V30 2786 C 271.435 -0.399674 3.34521 0
M  V30 2787 O 271.965 -1.41852 3.7582 0
M  V30 2788 N 270.171 -0.413893 2.87637 0
M  V30 2789 H 269.718 0.41571 2.54224 0
M  V30 2790 H 269.676 -1.28175 2.87086 0
M  V30 2791 N 273.449 -1.08991 1.13837 0
M  V30 2792 C 274.412 -2.13925 0.822715 0
M  V30 2793 C 275.412 -1.599 -0.1699 0
M  V30 2794 O 276.602 -1.74104 0.0577251 0
M  V30 2795 C 273.734 -3.40155 0.225318 0
M  V30 2796 H 274.927 -2.43358 1.75262 0
M  V30 2797 H 272.48 -1.24603 0.943594 0
M  V30 2798 H 273.215 -3.16352 -0.713594 0
M  V30 2799 H 273 -3.80661 0.940193 0
M  V30 2800 H 274.49 -4.17594 0.0214784 0
M  V30 2801 N 274.927 -0.932562 -1.27047 0
M  V30 2802 C 275.874 -0.434072 -2.26681 0
M  V30 2803 C 276.844 0.501639 -1.58344 0
M  V30 2804 O 278.029 0.419734 -1.86126 0
M  V30 2805 C 275.169 0.30261 -3.43771 0
M  V30 2806 C 274.282 -0.667774 -4.26808 0
M  V30 2807 C 273.417 0.0892393 -5.31125 0
M  V30 2808 C 272.456 -0.873532 -6.05835 0
M  V30 2809 N 271.593 -0.148832 -7.01942 0
M  V30 2810 H 276.433 -1.28868 -2.68695 0
M  V30 2811 H 273.97 -0.646713 -1.32121 0
M  V30 2812 H 275.928 0.746092 -4.10474 0
M  V30 2813 H 274.558 1.12142 -3.02695 0
M  V30 2814 H 273.61 -1.22978 -3.59973 0
M  V30 2815 H 274.922 -1.40337 -4.78651 0
M  V30 2816 H 274.076 0.592409 -6.03801 0
M  V30 2817 H 272.815 0.85777 -4.80097 0
M  V30 2818 H 271.82 -1.38791 -5.31994 0
M  V30 2819 H 273.045 -1.64193 -6.58952 0
M  V30 2820 H 270.991 0.601365 -6.53238 0
M  V30 2821 H 270.908 -0.82391 -7.51497 0
M  V30 2822 H 272.176 0.333527 -7.78786 0
M  V30 2823 N 276.405 1.4127 -0.698611 0
M  V30 2824 C 277.654 2.00408 -0.227949 0
M  V30 2825 C 277.967 1.55981 1.18023 0
M  V30 2826 O 279.173 2.07699 1.74852 0
M  V30 2827 C 277.629 3.58129 -0.356636 0
M  V30 2828 C 277.237 4.11536 -1.77037 0
M  V30 2829 C 278.981 4.24466 0.0540969 0
M  V30 2830 C 276.888 5.61701 -1.85055 0
M  V30 2831 H 275.818 0.749586 -0.0814657 0
M  V30 2832 H 278.469 1.61713 -0.867249 0
M  V30 2833 H 276.851 3.94442 0.350965 0
M  V30 2834 H 278.025 3.86636 -2.50698 0
M  V30 2835 H 276.34 3.57736 -2.13105 0
M  V30 2836 H 278.937 5.34698 0.0146723 0
M  V30 2837 H 279.28 4.01687 1.09332 0
M  V30 2838 H 279.813 3.93198 -0.603337 0
M  V30 2839 H 276.552 5.89312 -2.8704 0
M  V30 2840 H 276.072 5.88519 -1.15783 0
M  V30 2841 H 277.751 6.26524 -1.61484 0
M  V30 2842 N 277.883 0.443576 1.51229 0
M  V30 2843 C 279.132 -0.122332 2.01329 0
M  V30 2844 C 279.445 -1.43237 1.33201 0
M  V30 2845 O 280.651 -2.0816 1.74304 0
M  V30 2846 C 279.107 -0.268551 3.58897 0
M  V30 2847 C 278.715 1.03142 4.35965 0
M  V30 2848 C 280.459 -0.787894 4.17124 0
M  V30 2849 C 278.366 0.850504 5.85252 0
M  V30 2850 H 277.296 -0.0494929 0.752374 0
M  V30 2851 H 279.947 0.574289 1.74282 0
M  V30 2852 H 278.329 -1.02832 3.82415 0
M  V30 2853 H 279.503 1.80001 4.24189 0
M  V30 2854 H 277.818 1.47977 3.89219 0
M  V30 2855 H 280.415 -0.939841 5.26375 0
M  V30 2856 H 280.758 -1.77201 3.76703 0
M  V30 2857 H 281.291 -0.0862669 3.97706 0
M  V30 2858 H 278.03 1.80718 6.30096 0
M  V30 2859 H 277.55 0.121825 5.99676 0
M  V30 2860 H 279.229 0.506163 6.45017 0
M  V30 2861 N 279.361 -1.56624 0.175154 0
M  V30 2862 C 280.309 -2.19468 -0.770495 0
M  V30 2863 C 281.303 -1.15985 -1.23466 0
M  V30 2864 O 282.509 -1.34176 -1.19987 0
M  V30 2865 H 278.884 -0.703095 -0.266761 0
M  V30 2866 H 280.855 -2.97613 -0.216542 0
M  V30 2867 C 279.604 -2.85264 -1.98796 0
M  V30 2868 H 278.927 -3.64623 -1.63983 0
M  V30 2869 H 280.367 -3.327 -2.62843 0
M  V30 2870 C 278.826 -1.85239 -2.81404 0
M  V30 2871 O 279.356 -1.34024 -3.78682 0
M  V30 2872 N 277.562 -1.53911 -2.46495 0
M  V30 2873 H 277.109 -1.95751 -1.67449 0
M  V30 2874 H 277.067 -0.872382 -3.02054 0
M  V30 2875 N 280.839 0.0985539 -1.57292 0
M  V30 2876 C 282.085 0.803867 -1.86188 0
M  V30 2877 C 282.418 1.78549 -0.763794 0
M  V30 2878 O 281.693 1.93153 0.22855 0
M  V30 2879 C 281.976 1.53568 -3.25713 0
M  V30 2880 C 281.829 0.572277 -4.46145 0
M  V30 2881 C 283.148 2.48708 -3.63087 0
M  V30 2882 H 280.267 0.290781 -0.677211 0
M  V30 2883 H 282.909 0.0675783 -1.8988 0
M  V30 2884 H 281.059 2.16332 -3.22696 0
M  V30 2885 H 282.731 -0.0480894 -4.61275 0
M  V30 2886 H 280.974 -0.114618 -4.33649 0
M  V30 2887 H 281.645 1.12139 -5.40489 0
M  V30 2888 H 284.121 1.96039 -3.67026 0
M  V30 2889 H 282.997 2.96932 -4.61652 0
M  V30 2890 H 283.258 3.32309 -2.91588 0
M  V30 2891 N 282.317 1.53212 0.369288 0
M  V30 2892 C 283.557 1.70915 1.12105 0
M  V30 2893 C 283.921 0.449444 1.86665 0
M  V30 2894 O 285.122 0.503105 2.6405 0
M  V30 2895 C 283.393 2.9222 2.05772 0
M  V30 2896 S 284.952 3.30609 2.88519 0
M  V30 2897 H 281.77 0.601445 0.379189 0
M  V30 2898 H 284.372 1.91306 0.402794 0
M  V30 2899 H 283.076 3.82103 1.49752 0
M  V30 2900 H 282.607 2.7422 2.82076 0
M  V30 2901 H 284.622 2.82333 4.08047 0
M  V30 2902 N 283.795 -0.628877 1.44509 0
M  V30 2903 C 284.743 -1.76193 1.51852 0
M  V30 2904 C 285.737 -1.64849 0.390042 0
M  V30 2905 O 286.943 -1.709 0.565082 0
M  V30 2906 H 283.318 -0.581728 0.476547 0
M  V30 2907 H 285.289 -1.67123 2.47209 0
M  V30 2908 C 284.038 -3.14533 1.48204 0
M  V30 2909 H 283.361 -3.23911 2.34354 0
M  V30 2910 H 284.801 -3.93701 1.57402 0
M  V30 2911 C 283.26 -3.36287 0.203142 0
M  V30 2912 O 283.79 -3.9509 -0.725745 0
M  V30 2913 N 281.996 -2.90408 0.105563 0
M  V30 2914 H 281.543 -2.42739 0.862301 0
M  V30 2915 H 281.501 -3.05339 -0.749371 0
M  V30 2916 N 285.273 -1.31445 -0.869486 0
M  V30 2917 C 286.519 -1.22347 -1.62489 0
M  V30 2918 C 286.874 0.216204 -1.91181 0
M  V30 2919 O 286.167 1.14977 -1.53268 0
M  V30 2920 C 286.361 -2.00145 -2.96102 0
M  V30 2921 C 286.19 -3.51531 -2.80456 0
M  V30 2922 C 284.96 -4.20882 -2.79618 0
M  V30 2923 C 287.158 -4.46471 -2.5528 0
M  V30 2924 N 285.14 -5.58421 -2.55027 0
M  V30 2925 C 286.511 -5.71682 -2.39957 0
M  V30 2926 C 288.566 -4.35892 -2.40629 0
M  V30 2927 C 287.269 -6.87511 -2.11472 0
M  V30 2928 C 289.295 -5.51505 -2.13532 0
M  V30 2929 C 288.657 -6.75707 -1.98998 0
M  V30 2930 H 284.756 -0.502815 -0.598917 0
M  V30 2931 H 287.34 -1.65639 -1.02332 0
M  V30 2932 H 285.511 -1.59221 -3.54264 0
M  V30 2933 H 287.243 -1.83063 -3.60929 0
M  V30 2934 H 283.998 -3.72857 -2.92018 0
M  V30 2935 H 284.422 -6.30841 -2.45701 0
M  V30 2936 H 289.064 -3.40533 -2.50593 0
M  V30 2937 H 286.782 -7.82897 -2.00245 0
M  V30 2938 H 290.368 -5.45238 -2.02995 0
M  V30 2939 H 289.248 -7.63655 -1.78326 0
M  V30 2940 N 286.751 1.08385 -1.14413 0
M  V30 2941 C 288 1.80153 -0.907076 0
M  V30 2942 C 288.313 1.87176 0.567851 0
M  V30 2943 O 289.519 2.55359 0.922172 0
M  V30 2944 C 287.975 3.23687 -1.57336 0
M  V30 2945 C 287.583 3.24897 -3.08457 0
M  V30 2946 C 289.327 4.00136 -1.41744 0
M  V30 2947 C 287.234 4.6302 -3.67921 0
M  V30 2948 H 286.164 0.675139 -0.335714 0
M  V30 2949 H 288.815 1.21733 -1.37307 0
M  V30 2950 H 287.197 3.82234 -1.03505 0
M  V30 2951 H 288.371 2.76055 -3.68958 0
M  V30 2952 H 286.686 2.61943 -3.2369 0
M  V30 2953 H 289.283 5.02201 -1.83572 0
M  V30 2954 H 289.626 4.14709 -0.363576 0
M  V30 2955 H 290.159 3.48058 -1.92614 0
M  V30 2956 H 286.898 4.5365 -4.73161 0
M  V30 2957 H 286.418 5.12143 -3.12201 0
M  V30 2958 H 288.097 5.31994 -3.68227 0
M  V30 2959 N 288.23 0.939286 1.26551 0
M  V30 2960 C 289.16 0.465044 2.28822 0
M  V30 2961 C 290.141 -0.480692 1.63167 0
M  V30 2962 O 291.326 -0.382955 1.90387 0
M  V30 2963 C 288.456 -0.27234 3.46231 0
M  V30 2964 C 287.41 0.58666 4.2396 0
M  V30 2965 C 286.736 -0.280573 5.33963 0
M  V30 2966 C 288.036 1.85704 4.88171 0
M  V30 2967 H 289.73 1.31979 2.68741 0
M  V30 2968 H 287.276 0.636061 1.29191 0
M  V30 2969 H 289.229 -0.615133 4.16886 0
M  V30 2970 H 287.953 -1.16121 3.0526 0
M  V30 2971 H 286.612 0.91232 3.55067 0
M  V30 2972 H 286.26 -1.16874 4.89234 0
M  V30 2973 H 285.96 0.29076 5.8688 0
M  V30 2974 H 287.484 -0.618678 6.07458 0
M  V30 2975 H 288.898 1.58161 5.51052 0
M  V30 2976 H 287.295 2.37279 5.51197 0
M  V30 2977 H 288.365 2.56957 4.11219 0
M  V30 2978 N 289.708 -1.40897 0.706093 0
M  V30 2979 C 290.933 -2.05895 0.249435 0
M  V30 2980 C 291.358 -1.52823 -1.09666 0
M  V30 2981 O 290.716 -0.659589 -1.68876 0
M  V30 2982 C 290.764 -3.59872 0.22904 0
M  V30 2983 O 289.868 -4.04708 -0.792784 0
M  V30 2984 H 289.209 -0.653206 0.119241 0
M  V30 2985 H 291.739 -1.80471 0.96391 0
M  V30 2986 H 291.749 -4.07951 0.0634791 0
M  V30 2987 H 290.424 -3.97866 1.21141 0
M  V30 2988 H 289.001 -3.68111 -0.59572 0
M  V30 2989 N 291.186 -0.45159 -1.50991 0
M  V30 2990 C 292.411 0.110667 -2.07105 0
M  V30 2991 C 292.836 1.3446 -1.31538 0
M  V30 2992 O 292.194 1.77743 -0.357365 0
M  V30 2993 C 292.242 0.397238 -3.58405 0
M  V30 2994 O 291.346 1.48124 -3.84881 0
M  V30 2995 H 290.687 -0.00439271 -0.663985 0
M  V30 2996 H 293.217 -0.637026 -1.9443 0
M  V30 2997 H 293.227 0.64351 -4.02893 0
M  V30 2998 H 291.902 -0.504553 -4.12828 0
M  V30 2999 H 290.479 1.22381 -3.52246 0
M  V30 3000 N 292.664 1.56529 -0.183458 0
M  V30 3001 C 293.627 2.17324 0.728223 0
M  V30 3002 C 294.627 1.12453 1.14939 0
M  V30 3003 O 295.817 1.37902 1.06437 0
M  V30 3004 C 292.949 2.76591 1.99274 0
M  V30 3005 H 294.142 2.99241 0.198772 0
M  V30 3006 H 291.695 1.5616 0.0661391 0
M  V30 3007 H 292.43 1.98441 2.56499 0
M  V30 3008 H 292.215 3.5335 1.69959 0
M  V30 3009 H 293.705 3.23311 2.6431 0
M  V30 3010 N 294.142 -0.090211 1.57342 0
M  V30 3011 C 295.391 -0.791531 1.8552 0
M  V30 3012 C 295.704 -1.79659 0.773441 0
M  V30 3013 O 296.91 -2.54616 0.942497 0
M  V30 3014 C 295.366 -1.45856 3.2902 0
M  V30 3015 C 294.974 -0.493017 4.45279 0
M  V30 3016 C 296.718 -2.14332 3.66418 0
M  V30 3017 C 294.625 -1.16491 5.79814 0
M  V30 3018 H 293.555 -0.299356 0.692027 0
M  V30 3019 H 296.206 -0.0445343 1.83446 0
M  V30 3020 H 294.588 -2.25318 3.2565 0
M  V30 3021 H 295.762 0.270464 4.60006 0
M  V30 3022 H 294.077 0.0863061 4.16311 0
M  V30 3023 H 296.674 -2.65344 4.64216 0
M  V30 3024 H 297.017 -2.93447 2.95287 0
M  V30 3025 H 297.55 -1.41724 3.71698 0
M  V30 3026 H 294.289 -0.41447 6.54188 0
M  V30 3027 H 293.809 -1.8997 5.68921 0
M  V30 3028 H 295.488 -1.69001 6.24538 0
M  V30 3029 N 295.62 -1.53406 -0.361157 0
M  V30 3030 C 296.868 -1.69467 -1.10115 0
M  V30 3031 C 297.189 -0.451352 -1.89705 0
M  V30 3032 O 296.459 0.534636 -1.88463 0
M  V30 3033 H 295.039 -0.624749 -0.409508 0
M  V30 3034 H 297.701 -1.90609 -0.406699 0
M  V30 3035 H 296.797 -2.55774 -1.78847 0
M  V30 3036 N 297.098 0.621204 -1.44841 0
M  V30 3037 C 298.028 1.74366 -1.55303 0
M  V30 3038 C 299.009 1.65199 -0.405385 0
M  V30 3039 O 300.194 1.83807 -0.626787 0
M  V30 3040 C 297.324 3.12931 -1.50637 0
M  V30 3041 C 296.278 3.36896 -2.63979 0
M  V30 3042 C 295.604 4.75594 -2.44366 0
M  V30 3043 C 296.904 3.28483 -4.06074 0
M  V30 3044 H 298.598 1.65867 -2.49256 0
M  V30 3045 H 296.144 0.796558 -1.19962 0
M  V30 3046 H 298.097 3.9124 -1.56555 0
M  V30 3047 H 296.821 3.22237 -0.532057 0
M  V30 3048 H 295.48 2.60972 -2.57467 0
M  V30 3049 H 295.128 4.81616 -1.45105 0
M  V30 3050 H 294.828 4.92586 -3.20364 0
M  V30 3051 H 296.352 5.5612 -2.52117 0
M  V30 3052 H 297.766 3.96684 -4.13902 0
M  V30 3053 H 296.163 3.57008 -4.82354 0
M  V30 3054 H 297.233 2.26133 -4.28943 0
M  V30 3055 N 298.576 1.31904 0.862503 0
M  V30 3056 C 299.987 1.19803 1.43193 0
M  V30 3057 C 300.338 -0.192567 1.95253 0
M  V30 3058 O 299.463 -1.09081 1.86896 0
M  V30 3059 C 300.058 2.16883 2.60283 0
M  V30 3060 C 298.617 2.08692 3.13248 0
M  V30 3061 C 297.764 2.05691 1.85975 0
M  V30 3062 H 300.715 1.43846 0.670365 0
M  V30 3063 H 300.736 1.76278 3.37204 0
M  V30 3064 H 300.248 3.18083 2.22363 0
M  V30 3065 H 298.349 1.10713 3.55771 0
M  V30 3066 H 298.462 2.9815 3.75025 0
M  V30 3067 H 296.826 1.50814 2.05249 0
M  V30 3068 H 297.609 3.08659 1.50282 0
M  V30 3069 N 300.054 -1.07777 1.14986 0
M  V30 3070 C 301.3 -1.80557 0.923422 0
M  V30 3071 C 301.633 -1.86298 -0.548337 0
M  V30 3072 O 300.908 -1.34354 -1.40639 0
M  V30 3073 C 301.191 -3.25839 1.53299 0
M  V30 3074 C 301.044 -3.28269 3.07505 0
M  V30 3075 C 302.363 -4.22991 1.21518 0
M  V30 3076 H 299.482 -0.655493 0.336894 0
M  V30 3077 H 302.124 -1.26144 1.42083 0
M  V30 3078 H 300.274 -3.72306 1.10999 0
M  V30 3079 H 301.946 -2.90079 3.58681 0
M  V30 3080 H 300.189 -2.67355 3.4162 0
M  V30 3081 H 300.86 -4.30691 3.45266 0
M  V30 3082 H 303.336 -3.84894 1.581 0
M  V30 3083 H 302.212 -5.22945 1.66793 0
M  V30 3084 H 302.473 -4.41904 0.131505 0
M  V30 3085 N 301.532 -0.945985 -1.26051 0
M  V30 3086 C 302.465 -0.403619 -2.24602 0
M  V30 3087 C 303.443 0.510241 -1.54387 0
M  V30 3088 O 304.627 0.446593 -1.83133 0
M  V30 3089 C 301.754 0.419564 -3.36091 0
M  V30 3090 C 300.8 -0.433454 -4.24292 0
M  V30 3091 S 301.633 -1.86037 -5.02146 0
M  V30 3092 C 302.789 -1.04538 -6.17108 0
M  V30 3093 H 303.022 -1.23883 -2.7026 0
M  V30 3094 H 300.555 -0.749438 -1.34992 0
M  V30 3095 H 302.513 0.888595 -4.00767 0
M  V30 3096 H 301.174 1.22951 -2.89036 0
M  V30 3097 H 300.367 0.197486 -5.03613 0
M  V30 3098 H 299.969 -0.837357 -3.64506 0
M  V30 3099 H 302.261 -0.289923 -6.76879 0
M  V30 3100 H 303.204 -1.81222 -6.84518 0
M  V30 3101 H 303.612 -0.579319 -5.61519 0
M  V30 3102 N 303.011 1.40521 -0.713556 0
M  V30 3103 C 304.258 2.00923 -0.25219 0
M  V30 3104 C 304.586 1.56571 1.15395 0
M  V30 3105 O 303.841 0.775874 1.79663 0
M  V30 3106 C 304.14 3.56317 -0.278 0
M  V30 3107 C 303.806 4.20246 -1.63415 0
M  V30 3108 C 302.468 4.37422 -2.00538 0
M  V30 3109 C 304.82 4.55923 -2.52554 0
M  V30 3110 C 302.148 4.87558 -3.2635 0
M  V30 3111 C 304.5 5.07458 -3.77716 0
M  V30 3112 C 303.164 5.22843 -4.14959 0
M  V30 3113 H 302.434 0.735231 -0.0922829 0
M  V30 3114 H 305.081 1.68161 -0.916188 0
M  V30 3115 H 303.386 3.88976 0.469567 0
M  V30 3116 H 305.083 4.00883 0.0967819 0
M  V30 3117 H 301.673 4.07263 -1.33546 0
M  V30 3118 H 305.857 4.42291 -2.25149 0
M  V30 3119 H 301.113 4.97654 -3.55176 0
M  V30 3120 H 305.287 5.34041 -4.4696 0
M  V30 3121 H 302.914 5.61454 -5.12516 0
M  V30 3122 N 304.489 0.459591 1.5075 0
M  V30 3123 C 305.422 -0.386257 2.24907 0
M  V30 3124 C 306.4 -1.006 1.27744 0
M  V30 3125 O 307.584 -1.04416 1.56938 0
M  V30 3126 C 304.711 -1.54021 3.01654 0
M  V30 3127 C 303.757 -1.03898 4.13651 0
M  V30 3128 S 304.59 0.0370501 5.35487 0
M  V30 3129 C 305.746 -1.12105 6.15779 0
M  V30 3130 H 305.979 0.243272 2.96303 0
M  V30 3131 H 303.512 0.244339 1.52454 0
M  V30 3132 H 305.47 -2.20163 3.46466 0
M  V30 3133 H 304.131 -2.14121 2.29806 0
M  V30 3134 H 303.324 -1.90254 4.66711 0
M  V30 3135 H 302.926 -0.45545 3.71216 0
M  V30 3136 H 305.218 -2.03501 6.46215 0
M  V30 3137 H 306.161 -0.62995 7.05292 0
M  V30 3138 H 306.569 -1.36967 5.47631 0
M  V30 3139 N 305.967 -1.56429 0.191757 0
M  V30 3140 C 306.93 -2.17707 -0.716688 0
M  V30 3141 C 307.93 -1.13061 -1.14341 0
M  V30 3142 O 309.12 -1.38464 -1.05704 0
M  V30 3143 C 306.252 -2.77644 -1.97804 0
M  V30 3144 H 307.445 -2.99342 -0.1829 0
M  V30 3145 H 304.998 -1.56193 -0.0578566 0
M  V30 3146 H 305.733 -1.99799 -2.55443 0
M  V30 3147 H 305.518 -3.54246 -1.68083 0
M  V30 3148 H 307.008 -3.24708 -2.62592 0
M  V30 3149 N 307.445 0.0818655 -1.57387 0
M  V30 3150 C 308.673 0.796108 -1.9097 0
M  V30 3151 C 309.088 1.71626 -0.786757 0
M  V30 3152 O 308.445 1.80908 0.240513 0
M  V30 3153 C 308.496 1.59829 -3.24248 0
M  V30 3154 O 308.217 0.715131 -4.32224 0
M  V30 3155 C 309.718 2.41442 -3.7178 0
M  V30 3156 H 306.938 0.22691 -0.631469 0
M  V30 3157 H 309.482 0.0551439 -2.04426 0
M  V30 3158 H 307.637 2.29163 -3.12351 0
M  V30 3159 H 308.051 1.27205 -5.08841 0
M  V30 3160 H 309.525 2.932 -4.67694 0
M  V30 3161 H 310.002 3.2051 -3.00283 0
M  V30 3162 H 310.608 1.77283 -3.86589 0
M  V30 3163 N 308.923 1.53595 0.353017 0
M  V30 3164 C 310.151 1.74311 1.1146 0
M  V30 3165 C 310.566 0.477854 1.82653 0
M  V30 3166 O 309.923 -0.549977 1.74016 0
M  V30 3167 C 309.974 2.91694 2.13534 0
M  V30 3168 O 309.695 4.13325 1.45238 0
M  V30 3169 C 311.196 3.24384 3.02142 0
M  V30 3170 H 308.416 0.582669 0.332773 0
M  V30 3171 H 310.96 2.00386 0.408107 0
M  V30 3172 H 309.115 2.67977 2.79763 0
M  V30 3173 H 309.529 4.79148 2.13349 0
M  V30 3174 H 311.003 4.09893 3.69718 0
M  V30 3175 H 311.48 2.40282 3.67643 0
M  V30 3176 H 312.086 3.50073 2.41514 0
M  V30 3177 N 310.401 -0.613514 1.45168 0
M  V30 3178 C 311.348 -1.72456 1.53387 0
M  V30 3179 C 312.318 -1.6169 0.380191 0
M  V30 3180 O 313.503 -1.81356 0.592836 0
M  V30 3181 C 310.643 -3.10753 1.50088 0
M  V30 3182 C 309.756 -3.32368 2.75963 0
M  V30 3183 C 308.891 -4.60737 2.64376 0
M  V30 3184 C 307.93 -4.7559 3.85332 0
M  V30 3185 N 307.067 -5.95253 3.72315 0
M  V30 3186 H 311.907 -1.64768 2.48305 0
M  V30 3187 H 309.444 -0.803503 1.23216 0
M  V30 3188 H 311.402 -3.90758 1.46164 0
M  V30 3189 H 310.032 -3.17413 0.587243 0
M  V30 3190 H 309.084 -2.4618 2.89999 0
M  V30 3191 H 310.396 -3.39218 3.65695 0
M  V30 3192 H 309.55 -5.48928 2.58385 0
M  V30 3193 H 308.289 -4.56275 1.72233 0
M  V30 3194 H 307.294 -3.85824 3.91688 0
M  V30 3195 H 308.519 -4.81854 4.78533 0
M  V30 3196 H 306.465 -5.91847 2.82937 0
M  V30 3197 H 306.382 -6.03236 4.55677 0
M  V30 3198 H 307.65 -6.85958 3.70246 0
M  V30 3199 N 311.879 -1.3236 -0.855495 0
M  V30 3200 C 313.109 -1.25688 -1.6397 0
M  V30 3201 C 313.517 0.177592 -1.88365 0
M  V30 3202 O 312.86 1.12485 -1.45234 0
M  V30 3203 C 312.922 -1.94602 -3.02275 0
M  V30 3204 C 312.586 -3.43937 -3.00926 0
M  V30 3205 C 313.583 -4.39435 -2.77835 0
M  V30 3206 C 311.268 -3.85858 -3.21588 0
M  V30 3207 C 313.262 -5.74829 -2.75409 0
M  V30 3208 C 310.949 -5.21361 -3.18789 0
M  V30 3209 C 311.947 -6.15658 -2.95727 0
M  V30 3210 O 311.635 -7.48681 -2.928 0
M  V30 3211 H 311.367 -0.434972 -0.51747 0
M  V30 3212 H 313.921 -1.75023 -1.075 0
M  V30 3213 H 312.151 -1.39836 -3.60531 0
M  V30 3214 H 313.84 -1.81651 -3.62985 0
M  V30 3215 H 314.606 -4.08374 -2.6164 0
M  V30 3216 H 310.485 -3.12883 -3.38564 0
M  V30 3217 H 314.029 -6.48404 -2.57328 0
M  V30 3218 H 309.926 -5.52052 -3.34528 0
M  V30 3219 H 310.694 -7.5803 -3.0876 0
M  V30 3220 N 313.357 1.07166 -1.15556 0
M  V30 3221 C 314.773 1.31899 -0.898603 0
M  V30 3222 C 314.973 1.96333 0.453383 0
M  V30 3223 O 314.029 2.22438 1.19489 0
M  V30 3224 C 315.342 2.20826 -2.04099 0
M  V30 3225 C 316.89 2.34269 -2.07574 0
M  V30 3226 C 317.365 3.26546 -3.21141 0
M  V30 3227 N 318.856 3.34127 -3.20801 0
M  V30 3228 C 319.591 4.05595 -4.05315 0
M  V30 3229 N 319.087 4.79661 -4.99897 0
M  V30 3230 N 320.88 4.01555 -3.93332 0
M  V30 3231 H 313.031 0.637302 -2.02613 0
M  V30 3232 H 315.294 0.343468 -0.883591 0
M  V30 3233 H 315 1.80744 -3.01703 0
M  V30 3234 H 314.874 3.21364 -1.97496 0
M  V30 3235 H 317.261 2.73603 -1.10568 0
M  V30 3236 H 317.342 1.33429 -2.18244 0
M  V30 3237 H 316.986 2.87931 -4.184 0
M  V30 3238 H 316.916 4.27345 -3.07708 0
M  V30 3239 H 319.407 2.81336 -2.52306 0
M  V30 3240 H 319.72 5.31694 -5.60822 0
M  V30 3241 H 318.065 4.78671 -5.03884 0
M  V30 3242 H 321.256 3.42806 -3.18751 0
M  V30 3243 H 321.429 4.56987 -4.5942 0
M  V30 3244 N 314.835 0.952656 1.25548 0
M  V30 3245 C 315.767 0.428609 2.25157 0
M  V30 3246 C 316.78 -0.454428 1.56329 0
M  V30 3247 O 317.969 -0.263023 1.76552 0
M  V30 3248 C 315.069 -0.401972 3.36508 0
M  V30 3249 C 314.242 0.467601 4.34893 0
M  V30 3250 C 313.301 -0.30445 5.25319 0
M  V30 3251 O 312.327 0.296473 5.68427 0
M  V30 3252 N 313.529 -1.59805 5.5807 0
M  V30 3253 H 316.294 1.28497 2.70756 0
M  V30 3254 H 313.855 0.822798 1.39433 0
M  V30 3255 H 315.847 -0.926134 3.9396 0
M  V30 3256 H 314.417 -1.15918 2.90313 0
M  V30 3257 H 313.637 1.17288 3.76347 0
M  V30 3258 H 314.925 1.06119 4.97611 0
M  V30 3259 H 314.323 -2.10823 5.24948 0
M  V30 3260 H 312.88 -2.06822 6.18116 0
M  V30 3261 N 316.313 -1.40141 0.720998 0
M  V30 3262 C 317.561 -2.0039 0.262323 0
M  V30 3263 C 317.882 -1.57469 -1.15015 0
M  V30 3264 O 317.152 -0.816582 -1.78069 0
M  V30 3265 H 315.732 -0.741063 0.093996 0
M  V30 3266 H 318.394 -1.71398 0.927835 0
M  V30 3267 H 317.49 -3.10658 0.299671 0
M  V30 3268 N 317.792 -0.46758 -1.50504 0
M  V30 3269 C 319.017 0.0886943 -2.0721 0
M  V30 3270 C 319.442 1.33057 -1.32956 0
M  V30 3271 O 318.8 1.77354 -0.376197 0
M  V30 3272 C 318.848 0.359202 -3.58806 0
M  V30 3273 O 317.952 1.44034 -3.8643 0
M  V30 3274 H 317.293 -0.0114349 -0.663902 0
M  V30 3275 H 319.823 -0.657613 -1.93744 0
M  V30 3276 H 319.833 0.600742 -4.03553 0
M  V30 3277 H 318.508 -0.548311 -4.1227 0
M  V30 3278 H 317.085 1.18638 -3.53524 0
M  V30 3279 N 319.27 1.56325 -0.20005 0
M  V30 3280 C 320.519 1.96895 0.437652 0
M  V30 3281 C 320.832 1.08999 1.62415 0
M  V30 3282 O 322.038 1.39372 2.32997 0
M  V30 3283 C 320.494 3.50198 0.830025 0
M  V30 3284 C 320.102 4.46765 -0.332461 0
M  V30 3285 C 321.846 3.99526 1.43453 0
M  V30 3286 C 319.753 5.91344 0.0811468 0
M  V30 3287 H 318.683 0.735209 0.167282 0
M  V30 3288 H 321.334 1.81148 -0.292853 0
M  V30 3289 H 319.716 3.61467 1.61734 0
M  V30 3290 H 320.89 4.47231 -1.11 0
M  V30 3291 H 319.205 4.07657 -0.848789 0
M  V30 3292 H 321.802 5.05025 1.75652 0
M  V30 3293 H 322.145 3.44122 2.34277 0
M  V30 3294 H 322.678 3.91393 0.71109 0
M  V30 3295 H 319.417 6.50685 -0.793033 0
M  V30 3296 H 318.937 5.94121 0.823445 0
M  V30 3297 H 320.616 6.44945 0.515252 0
M  V30 3298 N 320.748 -0.0735177 1.57428 0
M  V30 3299 C 322.025 -0.805903 1.78226 0
M  V30 3300 C 322.405 -1.95874 0.787189 0
M  V30 3301 O 321.753 -2.2779 -0.180029 0
M  V30 3302 C 321.963 -1.28045 3.24662 0
M  V30 3303 C 323.311 -1.71453 3.88444 0
M  V30 3304 O 324.335 -1.37616 3.28543 0
M  V30 3305 O 323.194 -2.34093 4.93825 0
M  V30 3306 H 320.288 -0.386041 0.73137 0
M  V30 3307 H 322.834 -0.0537269 1.69615 0
M  V30 3308 H 321.606 -0.455476 3.8864 0
M  V30 3309 H 321.229 -2.094 3.37991 0
M  V30 3310 N 322.226 -1.5378 -0.344866 0
M  V30 3311 C 323.466 -1.72677 -1.09371 0
M  V30 3312 C 323.83 -0.479084 -1.85927 0
M  V30 3313 O 325.031 -0.54505 -2.63216 0
M  V30 3314 C 323.302 -2.95457 -2.01097 0
M  V30 3315 S 324.861 -3.35158 -2.83222 0
M  V30 3316 H 321.679 -0.607402 -0.369573 0
M  V30 3317 H 324.281 -1.91922 -0.372307 0
M  V30 3318 H 322.985 -3.84437 -1.43655 0
M  V30 3319 H 322.516 -2.78673 -2.77678 0
M  V30 3320 H 324.531 -2.88789 -4.03504 0
M  V30 3321 N 323.704 0.605807 -1.45491 0
M  V30 3322 C 324.932 1.39136 -1.5313 0
M  V30 3323 C 325.347 1.88082 -0.164507 0
M  V30 3324 O 324.704 1.62316 0.834247 0
M  V30 3325 C 324.755 2.59463 -2.51716 0
M  V30 3326 O 324.476 2.12551 -3.83084 0
M  V30 3327 C 325.977 3.52301 -2.6907 0
M  V30 3328 H 323.197 0.425849 -0.51855 0
M  V30 3329 H 325.741 0.73865 -1.90694 0
M  V30 3330 H 323.896 3.20772 -2.17219 0
M  V30 3331 H 324.31 2.90744 -4.36541 0
M  V30 3332 H 325.784 4.33271 -3.42024 0
M  V30 3333 H 326.261 4.02757 -1.75167 0
M  V30 3334 H 326.867 2.96845 -3.04571 0
M  V30 3335 N 325.182 1.32811 0.848464 0
M  V30 3336 C 326.112 1.24882 1.97299 0
M  V30 3337 C 327.093 0.131357 1.69592 0
M  V30 3338 O 328.278 0.319553 1.91553 0
M  V30 3339 C 325.408 0.97746 3.33261 0
M  V30 3340 C 324.362 2.05682 3.75338 0
M  V30 3341 C 323.688 1.63777 5.09 0
M  V30 3342 C 324.988 3.47254 3.90144 0
M  V30 3343 H 326.682 2.18966 2.04191 0
M  V30 3344 H 324.228 1.05413 0.981029 0
M  V30 3345 H 326.181 0.908513 4.1149 0
M  V30 3346 H 324.905 0.000980011 3.266 0
M  V30 3347 H 323.564 2.11603 2.99366 0
M  V30 3348 H 323.212 0.648569 4.98801 0
M  V30 3349 H 322.912 2.36 5.38124 0
M  V30 3350 H 324.436 1.5833 5.89715 0
M  V30 3351 H 325.85 3.43888 4.58709 0
M  V30 3352 H 324.247 4.1788 4.30693 0
M  V30 3353 H 325.317 3.86462 2.92874 0
M  V30 3354 N 326.66 -1.06551 1.16123 0
M  V30 3355 C 327.888 -1.83005 0.965237 0
M  V30 3356 C 328.303 -1.82423 -0.486542 0
M  V30 3357 O 327.66 -1.24152 -1.33763 0
M  V30 3358 C 327.711 -3.29733 1.48183 0
M  V30 3359 O 327.432 -3.30416 2.87674 0
M  V30 3360 C 328.933 -4.22926 1.32848 0
M  V30 3361 H 326.153 -0.577118 0.342309 0
M  V30 3362 H 328.697 -1.3445 1.54089 0
M  V30 3363 H 326.852 -3.75609 0.948517 0
M  V30 3364 H 327.266 -4.22149 3.11272 0
M  V30 3365 H 328.74 -5.23916 1.73827 0
M  V30 3366 H 329.217 -4.38346 0.273692 0
M  V30 3367 H 329.823 -3.82894 1.85127 0
M  V30 3368 N 328.138 -0.959301 -1.25041 0
M  V30 3369 C 329.385 -0.616611 -1.92884 0
M  V30 3370 C 329.713 0.847036 -1.75087 0
M  V30 3371 O 328.968 1.62374 -1.09239 0
M  V30 3372 C 329.267 -0.927136 -3.45165 0
M  V30 3373 C 328.933 -2.37757 -3.83122 0
M  V30 3374 C 327.595 -2.77402 -3.93194 0
M  V30 3375 C 329.947 -3.31929 -4.01836 0
M  V30 3376 C 327.275 -4.10277 -4.19392 0
M  V30 3377 C 329.627 -4.64423 -4.29528 0
M  V30 3378 C 328.291 -5.03857 -4.37818 0
M  V30 3379 H 327.561 -0.225634 -0.705812 0
M  V30 3380 H 330.208 -1.20921 -1.48493 0
M  V30 3381 H 328.513 -0.252195 -3.90987 0
M  V30 3382 H 330.21 -0.6405 -3.95852 0
M  V30 3383 H 326.8 -2.06013 -3.75841 0
M  V30 3384 H 330.984 -3.02488 -3.93465 0
M  V30 3385 H 326.24 -4.40467 -4.24027 0
M  V30 3386 H 330.414 -5.37369 -4.42953 0
M  V30 3387 H 328.041 -6.06843 -4.57871 0
M  V30 3388 N 329.616 1.39756 -0.72842 0
M  V30 3389 C 330.841 2.05472 -0.282159 0
M  V30 3390 C 331.266 1.54549 1.07221 0
M  V30 3391 O 330.624 0.686372 1.67805 0
M  V30 3392 C 330.672 3.59462 -0.286264 0
M  V30 3393 O 329.776 4.05918 0.728298 0
M  V30 3394 H 329.117 0.651226 -0.129618 0
M  V30 3395 H 331.647 1.78915 -0.992499 0
M  V30 3396 H 331.657 4.07798 -0.128373 0
M  V30 3397 H 330.332 3.95889 -1.27456 0
M  V30 3398 H 328.909 3.69012 0.537081 0
M  V30 3399 N 331.094 0.475555 1.50254 0
M  V30 3400 C 332.044 -0.335025 2.25525 0
M  V30 3401 C 333.028 -0.957625 1.29299 0
M  V30 3402 O 334.22 -0.869436 1.54175 0
M  V30 3403 C 331.349 -1.41385 3.12834 0
M  V30 3404 C 330.435 -0.798762 4.1651 0
M  V30 3405 N 330.826 0.0835815 5.05731 0
M  V30 3406 C 329.124 -1.06221 4.33166 0
M  V30 3407 C 329.825 0.433113 5.80085 0
M  V30 3408 N 328.801 -0.1928 5.43258 0
M  V30 3409 H 332.603 0.344612 2.91873 0
M  V30 3410 H 330.117 0.289986 1.5979 0
M  V30 3411 H 332.114 -2.00777 3.65368 0
M  V30 3412 H 330.774 -2.09543 2.48036 0
M  V30 3413 H 331.785 0.452715 5.15918 0
M  V30 3414 H 328.462 -1.73844 3.79585 0
M  V30 3415 H 329.852 1.15346 6.61925 0
M  V30 3416 N 332.573 -1.56217 0.208337 0
M  V30 3417 C 333.984 -1.84243 -0.301904 0
M  V30 3418 C 334.335 -1.12939 -1.60434 0
M  V30 3419 O 333.46 -0.39461 -2.12772 0
M  V30 3420 C 334.055 -3.34231 -0.554543 0
M  V30 3421 C 332.614 -3.62621 -1.00912 0
M  V30 3422 C 331.761 -2.77224 -0.064933 0
M  V30 3423 H 334.712 -1.52712 0.431833 0
M  V30 3424 H 334.733 -3.5372 -1.40223 0
M  V30 3425 H 334.245 -3.86099 0.393561 0
M  V30 3426 H 332.346 -3.16197 -1.97104 0
M  V30 3427 H 332.459 -4.7071 -0.892674 0
M  V30 3428 H 330.823 -2.48256 -0.56929 0
M  V30 3429 H 331.606 -3.31887 0.877851 0
M  V30 3430 N 334.051 0.0651679 -1.57465 0
M  V30 3431 C 335.279 0.775808 -1.91804 0
M  V30 3432 C 335.694 1.70782 -0.804916 0
M  V30 3433 O 335.051 1.81153 0.221311 0
M  V30 3434 C 335.102 1.56381 -3.25925 0
M  V30 3435 O 334.823 0.669248 -4.32958 0
M  V30 3436 C 336.324 2.37485 -3.7432 0
M  V30 3437 H 333.544 0.2202 -0.63384 0
M  V30 3438 H 336.088 0.0334587 -2.04473 0
M  V30 3439 H 334.243 2.25837 -3.14764 0
M  V30 3440 H 334.657 1.21801 -5.10162 0
M  V30 3441 H 336.131 2.88223 -4.70778 0
M  V30 3442 H 336.608 3.17307 -3.03666 0
M  V30 3443 H 337.214 1.73173 -3.88447 0
M  V30 3444 N 335.529 1.53961 0.336706 0
M  V30 3445 C 336.775 1.7273 1.07406 0
M  V30 3446 C 337.13 0.488095 1.86106 0
M  V30 3447 O 336.423 -0.519379 1.84426 0
M  V30 3448 C 336.617 2.93493 2.03953 0
M  V30 3449 C 336.446 4.29039 1.34744 0
M  V30 3450 C 335.216 4.93416 1.08942 0
M  V30 3451 C 337.414 5.08501 0.770115 0
M  V30 3452 N 335.396 6.12821 0.363864 0
M  V30 3453 C 336.767 6.19752 0.175472 0
M  V30 3454 C 338.822 4.93349 0.671633 0
M  V30 3455 C 337.525 7.17503 -0.508081 0
M  V30 3456 C 339.551 5.914 0.0018076 0
M  V30 3457 C 338.913 7.01993 -0.581835 0
M  V30 3458 H 335.012 0.685026 0.377177 0
M  V30 3459 H 337.596 1.91403 0.356815 0
M  V30 3460 H 335.767 2.76308 2.72962 0
M  V30 3461 H 337.499 3.00949 2.70577 0
M  V30 3462 H 334.254 4.53099 1.37833 0
M  V30 3463 H 334.678 6.76998 0.0156092 0
M  V30 3464 H 339.32 4.08007 1.1086 0
M  V30 3465 H 337.038 8.02414 -0.956918 0
M  V30 3466 H 340.624 5.81753 -0.0738538 0
M  V30 3467 H 339.504 7.76561 -1.09192 0
M  V30 3468 N 337.007 -0.598083 1.45811 0
M  V30 3469 C 338.237 -1.38121 1.53643 0
M  V30 3470 C 338.645 -1.88425 0.171081 0
M  V30 3471 O 337.988 -1.63409 -0.839237 0
M  V30 3472 C 338.05 -2.61432 2.46766 0
M  V30 3473 C 337.714 -2.32702 3.93318 0
M  V30 3474 C 338.711 -1.92479 4.82957 0
M  V30 3475 C 336.396 -2.45321 4.38318 0
M  V30 3476 C 338.39 -1.65248 6.15607 0
M  V30 3477 C 336.077 -2.17703 5.71007 0
M  V30 3478 C 337.075 -1.7773 6.5947 0
M  V30 3479 O 336.763 -1.50441 7.89698 0
M  V30 3480 H 336.495 -0.428863 0.522544 0
M  V30 3481 H 339.049 -0.73557 1.91777 0
M  V30 3482 H 337.279 -3.28749 2.0362 0
M  V30 3483 H 338.968 -3.23487 2.45175 0
M  V30 3484 H 339.734 -1.82258 4.49452 0
M  V30 3485 H 335.613 -2.75399 3.69697 0
M  V30 3486 H 339.157 -1.33973 6.84614 0
M  V30 3487 H 335.054 -2.27544 6.04065 0
M  V30 3488 H 335.822 -1.64415 8.01817 0
M  V30 3489 N 338.485 -1.33259 -0.841409 0
M  V30 3490 C 339.731 -1.25766 -1.59857 0
M  V30 3491 C 340.086 0.175602 -1.91597 0
M  V30 3492 O 339.379 1.117 -1.55672 0
M  V30 3493 C 339.573 -2.06381 -2.9179 0
M  V30 3494 C 339.402 -3.57401 -2.72937 0
M  V30 3495 C 338.172 -4.26718 -2.70628 0
M  V30 3496 C 340.37 -4.51786 -2.45753 0
M  V30 3497 N 338.352 -5.63705 -2.43125 0
M  V30 3498 C 339.723 -5.76643 -2.27777 0
M  V30 3499 C 341.778 -4.40898 -2.31329 0
M  V30 3500 C 340.481 -6.91842 -1.96841 0
M  V30 3501 C 342.507 -5.55911 -2.01786 0
M  V30 3502 C 341.869 -6.79776 -1.8462 0
M  V30 3503 H 337.968 -0.515406 -0.588117 0
M  V30 3504 H 340.552 -1.67772 -0.987955 0
M  V30 3505 H 338.723 -1.667 -3.50807 0
M  V30 3506 H 340.455 -1.90678 -3.56965 0
M  V30 3507 H 337.21 -3.78968 -2.84043 0
M  V30 3508 H 337.634 -6.35911 -2.32265 0
M  V30 3509 H 342.276 -3.45772 -2.43314 0
M  V30 3510 H 339.994 -7.86968 -1.83594 0
M  V30 3511 H 343.58 -5.49421 -1.91384 0
M  V30 3512 H 342.46 -7.67266 -1.62088 0
M  V30 3513 N 339.963 1.05934 -1.16686 0
M  V30 3514 C 340.873 2.17014 -0.891183 0
M  V30 3515 C 341.889 1.73453 0.137907 0
M  V30 3516 O 343.065 2.01361 -0.039592 0
M  V30 3517 C 340.13 3.44384 -0.400099 0
M  V30 3518 C 339.191 4.02433 -1.49486 0
M  V30 3519 C 338.424 5.23723 -1.02711 0
M  V30 3520 O 338.647 5.7027 0.121716 0
M  V30 3521 O 337.581 5.7382 -1.81699 0
M  V30 3522 H 341.407 2.43113 -1.82015 0
M  V30 3523 H 338.992 1.15541 -0.947132 0
M  V30 3524 H 340.874 4.21189 -0.133392 0
M  V30 3525 H 339.549 3.19802 0.500817 0
M  V30 3526 H 338.456 3.27102 -1.81535 0
M  V30 3527 H 339.789 4.31317 -2.37121 0
M  V30 3528 N 341.441 0.965919 1.2453 0
M  V30 3529 C 342.389 0.486506 2.27455 0
M  V30 3530 C 343.383 -0.449041 1.6334 0
M  V30 3531 O 344.589 -0.324527 1.7705 0
M  V30 3532 H 340.964 0.138857 0.739069 0
M  V30 3533 H 342.935 1.3666 2.65267 0
M  V30 3534 C 341.684 -0.209481 3.47068 0
M  V30 3535 H 341.007 0.50129 3.96645 0
M  V30 3536 H 342.447 -0.508775 4.20936 0
M  V30 3537 C 340.906 -1.43586 3.0477 0
M  V30 3538 O 341.436 -2.53299 3.11773 0
M  V30 3539 N 339.642 -1.30126 2.59838 0
M  V30 3540 H 339.189 -0.408583 2.54339 0
M  V30 3541 H 339.147 -2.12294 2.31902 0
M  V30 3542 N 342.919 -1.39368 0.735821 0
M  V30 3543 C 343.849 -2.33234 0.111506 0
M  V30 3544 C 344.83 -1.53954 -0.723334 0
M  V30 3545 O 346.015 -1.82344 -0.668147 0
M  V30 3546 C 343.145 -3.38057 -0.795917 0
M  V30 3547 C 342.099 -4.2795 -0.065172 0
M  V30 3548 C 341.425 -5.23479 -1.08967 0
M  V30 3549 C 342.725 -5.10741 1.09273 0
M  V30 3550 H 344.419 -2.85692 0.895571 0
M  V30 3551 H 341.965 -1.37364 0.432109 0
M  V30 3552 H 343.918 -4.02675 -1.24221 0
M  V30 3553 H 342.642 -2.8404 -1.61211 0
M  V30 3554 H 341.301 -3.64813 0.361511 0
M  V30 3555 H 340.949 -4.65758 -1.89944 0
M  V30 3556 H 340.649 -5.84472 -0.605489 0
M  V30 3557 H 342.173 -5.90974 -1.53565 0
M  V30 3558 H 343.587 -5.68699 0.724841 0
M  V30 3559 H 341.984 -5.8088 1.50659 0
M  V30 3560 H 343.054 -4.45525 1.91404 0
M  V30 3561 N 344.397 -0.483516 -1.5 0
M  V30 3562 C 345.327 0.293829 -2.31644 0
M  V30 3563 C 346.308 0.978864 -1.39112 0
M  V30 3564 O 347.493 0.973644 -1.68029 0
M  V30 3565 C 344.623 1.36897 -3.19181 0
M  V30 3566 C 343.577 0.804833 -4.20365 0
M  V30 3567 C 342.903 1.9792 -4.96721 0
M  V30 3568 C 344.203 -0.192313 -5.21946 0
M  V30 3569 H 345.897 -0.387616 -2.9688 0
M  V30 3570 H 343.443 -0.187856 -1.42769 0
M  V30 3571 H 345.396 1.92037 -3.751 0
M  V30 3572 H 344.12 2.07936 -2.51853 0
M  V30 3573 H 342.779 0.275319 -3.65565 0
M  V30 3574 H 342.427 2.67686 -4.25856 0
M  V30 3575 H 342.127 1.60789 -5.65173 0
M  V30 3576 H 343.651 2.53526 -5.55479 0
M  V30 3577 H 345.065 0.270333 -5.72662 0
M  V30 3578 H 343.462 -0.478543 -5.98189 0
M  V30 3579 H 344.532 -1.11409 -4.71928 0
M  V30 3580 N 345.875 1.56104 -0.216619 0
M  V30 3581 C 346.822 2.2007 0.695531 0
M  V30 3582 C 347.792 1.15471 1.19397 0
M  V30 3583 O 348.977 1.43807 1.25396 0
M  V30 3584 C 346.117 2.88073 1.90021 0
M  V30 3585 C 345.23 4.07253 1.44113 0
M  V30 3586 C 344.365 4.63052 2.603 0
M  V30 3587 C 343.404 5.74545 2.11103 0
M  V30 3588 N 342.541 6.24656 3.20545 0
M  V30 3589 H 347.381 2.97655 0.143327 0
M  V30 3590 H 344.918 1.46982 0.0589934 0
M  V30 3591 H 346.876 3.25681 2.60745 0
M  V30 3592 H 345.506 2.13015 2.42538 0
M  V30 3593 H 344.558 3.75164 0.628999 0
M  V30 3594 H 345.87 4.8783 1.04036 0
M  V30 3595 H 345.024 5.03078 3.39113 0
M  V30 3596 H 343.763 3.81628 3.03663 0
M  V30 3597 H 342.768 5.34027 1.3075 0
M  V30 3598 H 343.993 6.57801 1.68746 0
M  V30 3599 H 341.939 5.46148 3.63399 0
M  V30 3600 H 341.856 7.00343 2.84704 0
M  V30 3601 H 343.124 6.69338 3.99508 0
M  V30 3602 N 347.353 -0.0568162 1.57498 0
M  V30 3603 C 348.602 -0.752001 1.87157 0
M  V30 3604 C 348.915 -1.77978 0.811375 0
M  V30 3605 O 350.121 -2.52559 0.996293 0
M  V30 3606 C 348.577 -1.38844 3.3204 0
M  V30 3607 C 348.185 -0.398456 4.46225 0
M  V30 3608 C 349.929 -2.06512 3.70882 0
M  V30 3609 C 347.836 -1.04166 5.82154 0
M  V30 3610 H 346.766 -0.28461 0.698222 0
M  V30 3611 H 349.417 -0.00561272 1.83499 0
M  V30 3612 H 347.799 -2.1836 3.30356 0
M  V30 3613 H 348.973 0.367977 4.59328 0
M  V30 3614 H 347.288 0.174592 4.16034 0
M  V30 3615 H 349.885 -2.55437 4.6974 0
M  V30 3616 H 350.228 -2.87117 3.01445 0
M  V30 3617 H 350.761 -1.33808 3.7462 0
M  V30 3618 H 347.5 -0.275614 6.5492 0
M  V30 3619 H 347.02 -1.7786 5.72823 0
M  V30 3620 H 348.699 -1.55715 6.27982 0
M  V30 3621 N 348.832 -1.54138 -0.328536 0
M  V30 3622 C 350.072 -1.73827 -1.07534 0
M  V30 3623 C 350.436 -0.498777 -1.85408 0
M  V30 3624 O 351.637 -0.572937 -2.62623 0
M  V30 3625 C 349.908 -2.97573 -1.97952 0
M  V30 3626 S 351.467 -3.38143 -2.79652 0
M  V30 3627 H 348.285 -0.611287 -0.36311 0
M  V30 3628 H 350.887 -1.92306 -0.351931 0
M  V30 3629 H 349.591 -3.85939 -1.39569 0
M  V30 3630 H 349.122 -2.81603 -2.74706 0
M  V30 3631 H 351.137 -2.93052 -4.00418 0
M  V30 3632 N 350.31 0.590341 -1.46126 0
M  V30 3633 C 351.556 1.35082 -1.51264 0
M  V30 3634 C 351.889 1.93534 -0.160711 0
M  V30 3635 O 351.164 1.76045 0.826956 0
M  V30 3636 C 351.447 2.48588 -2.6053 0
M  V30 3637 C 351.3 1.95221 -4.05227 0
M  V30 3638 C 352.619 3.50662 -2.6594 0
M  V30 3639 H 349.738 0.489803 -0.550692 0
M  V30 3640 H 352.38 0.663887 -1.78024 0
M  V30 3641 H 350.53 3.07186 -2.37843 0
M  V30 3642 H 352.202 1.41139 -4.39178 0
M  V30 3643 H 350.445 1.26101 -4.15068 0
M  V30 3644 H 351.116 2.77121 -4.77397 0
M  V30 3645 H 353.592 3.01934 -2.86313 0
M  V30 3646 H 352.468 4.27551 -3.44226 0
M  V30 3647 H 352.729 4.07399 -1.71694 0
M  V30 3648 N 351.788 1.33704 0.83433 0
M  V30 3649 C 353.035 1.25417 1.58987 0
M  V30 3650 C 353.363 -0.178869 1.93676 0
M  V30 3651 O 352.618 -1.13723 1.59265 0
M  V30 3652 C 352.917 2.07926 2.90692 0
M  V30 3653 C 352.583 3.57066 2.75345 0
M  V30 3654 C 351.245 3.97724 2.70867 0
M  V30 3655 C 353.597 4.51817 2.59828 0
M  V30 3656 C 350.925 5.31344 2.48778 0
M  V30 3657 C 353.277 5.85604 2.39272 0
M  V30 3658 C 351.941 6.25439 2.33199 0
M  V30 3659 H 351.211 0.458934 0.581774 0
M  V30 3660 H 353.858 1.65335 0.966261 0
M  V30 3661 H 352.163 1.608 3.57282 0
M  V30 3662 H 353.86 1.98868 3.48213 0
M  V30 3663 H 350.45 3.24785 2.79665 0
M  V30 3664 H 354.634 4.21311 2.62319 0
M  V30 3665 H 349.89 5.61241 2.42526 0
M  V30 3666 H 354.064 6.58623 2.2625 0
M  V30 3667 H 351.691 7.28914 2.15843 0
M  V30 3668 N 353.266 -1.05314 1.17247 0
M  V30 3669 C 354.515 -1.77685 0.954521 0
M  V30 3670 C 354.828 -1.88616 -0.518025 0
M  V30 3671 O 356.034 -2.57714 -0.854144 0
M  V30 3672 C 354.49 -3.19402 1.65863 0
M  V30 3673 C 354.098 -3.16605 3.16963 0
M  V30 3674 C 355.842 -3.96237 1.52303 0
M  V30 3675 C 353.749 -4.53103 3.80068 0
M  V30 3676 H 352.679 -0.666 0.353496 0
M  V30 3677 H 355.33 -1.1805 1.40486 0
M  V30 3678 H 353.712 -3.79355 1.13602 0
M  V30 3679 H 354.886 -2.66176 3.76148 0
M  V30 3680 H 353.201 -2.53268 3.30521 0
M  V30 3681 H 355.798 -4.97157 1.96822 0
M  V30 3682 H 356.141 -4.136 0.473401 0
M  V30 3683 H 356.674 -3.42829 2.01775 0
M  V30 3684 H 353.413 -4.40946 4.85023 0
M  V30 3685 H 352.933 -5.03686 3.2567 0
M  V30 3686 H 354.612 -5.22045 3.82202 0
M  V30 3687 N 354.744 -0.972509 -1.24016 0
M  V30 3688 C 355.991 -0.637034 -1.92219 0
M  V30 3689 C 356.319 0.828418 -1.75976 0
M  V30 3690 O 355.574 1.61206 -1.10955 0
M  V30 3691 C 355.873 -0.963694 -3.44162 0
M  V30 3692 C 355.539 -2.41807 -3.80579 0
M  V30 3693 C 354.201 -2.81556 -3.9023 0
M  V30 3694 C 356.553 -3.36172 -3.98293 0
M  V30 3695 C 353.881 -4.14702 -4.15017 0
M  V30 3696 C 356.233 -4.68952 -4.24578 0
M  V30 3697 C 354.897 -5.08472 -4.32449 0
M  V30 3698 H 354.167 -0.233107 -0.703379 0
M  V30 3699 H 356.814 -1.2249 -1.47202 0
M  V30 3700 H 355.119 -0.29365 -3.90698 0
M  V30 3701 H 356.816 -0.682449 -3.9515 0
M  V30 3702 H 353.406 -2.09988 -3.73635 0
M  V30 3703 H 357.59 -3.06644 -3.90234 0
M  V30 3704 H 352.846 -4.4494 -4.19331 0
M  V30 3705 H 357.02 -5.42037 -4.37229 0
M  V30 3706 H 354.647 -6.11665 -4.51409 0
M  V30 3707 N 356.222 1.38976 -0.743202 0
M  V30 3708 C 357.185 2.28901 -0.117014 0
M  V30 3709 C 358.185 1.46698 0.658503 0
M  V30 3710 O 359.375 1.67274 0.486305 0
M  V30 3711 C 356.507 3.30309 0.84315 0
M  V30 3712 H 357.7 2.8578 -0.909373 0
M  V30 3713 H 355.253 1.47761 -0.509547 0
M  V30 3714 H 355.988 2.785 1.66157 0
M  V30 3715 H 355.773 3.91029 0.289594 0
M  V30 3716 H 357.263 3.97577 1.2776 0
M  V30 3717 N 357.7 0.491464 1.49741 0
M  V30 3718 C 358.947 -0.0564256 2.02421 0
M  V30 3719 C 359.275 -1.37872 1.37192 0
M  V30 3720 O 358.53 -1.89375 0.493508 0
M  V30 3721 C 358.829 -0.267329 3.56399 0
M  V30 3722 C 358.495 0.975775 4.40215 0
M  V30 3723 C 357.157 1.31655 4.62839 0
M  V30 3724 C 359.509 1.80251 4.89039 0
M  V30 3725 C 356.837 2.48375 5.31532 0
M  V30 3726 C 359.189 2.96116 5.59015 0
M  V30 3727 C 357.853 3.30585 5.79888 0
M  V30 3728 H 357.123 -0.0206476 0.740712 0
M  V30 3729 H 359.77 0.649686 1.80143 0
M  V30 3730 H 358.075 -1.05588 3.77304 0
M  V30 3731 H 359.772 -0.705549 3.94744 0
M  V30 3732 H 356.362 0.700315 4.2284 0
M  V30 3733 H 360.546 1.55239 4.71396 0
M  V30 3734 H 355.802 2.7533 5.45897 0
M  V30 3735 H 359.976 3.60509 5.95824 0
M  V30 3736 H 357.603 4.21132 6.32892 0
M  V30 3737 N 359.178 -1.55987 0.224894 0
M  V30 3738 C 360.427 -1.97566 -0.406273 0
M  V30 3739 C 360.74 -1.11569 -1.6066 0
M  V30 3740 O 361.946 -1.43062 -2.3075 0
M  V30 3741 C 360.402 -3.51474 -0.774207 0
M  V30 3742 C 360.01 -4.46179 0.403496 0
M  V30 3743 C 361.754 -4.01758 -1.37079 0
M  V30 3744 C 359.661 -5.91399 0.0129412 0
M  V30 3745 H 358.591 -0.737777 -0.155565 0
M  V30 3746 H 361.242 -1.80659 0.321635 0
M  V30 3747 H 359.624 -3.63994 -1.55963 0
M  V30 3748 H 360.798 -4.45409 1.18101 0
M  V30 3749 H 359.113 -4.06255 0.913536 0
M  V30 3750 H 361.71 -5.07756 -1.67596 0
M  V30 3751 H 362.053 -3.47805 -2.28773 0
M  V30 3752 H 362.586 -3.92475 -0.648733 0
M  V30 3753 H 359.325 -6.49341 0.896451 0
M  V30 3754 H 358.845 -5.95356 -0.728821 0
M  V30 3755 H 360.524 -6.45683 -0.412582 0
M  V30 3756 N 360.656 0.0484629 -1.57525 0
M  V30 3757 C 361.589 1.08755 -2.00618 0
M  V30 3758 C 362.567 1.36272 -0.887058 0
M  V30 3759 O 363.751 1.49255 -1.15131 0
M  V30 3760 C 360.878 2.42675 -2.36277 0
M  V30 3761 C 359.924 2.31142 -3.58435 0
M  V30 3762 S 360.757 1.68326 -5.08357 0
M  V30 3763 C 361.913 3.03776 -5.47239 0
M  V30 3764 H 362.146 0.720415 -2.88439 0
M  V30 3765 H 359.679 0.257801 -1.52233 0
M  V30 3766 H 361.637 3.19699 -2.57494 0
M  V30 3767 H 360.298 2.76541 -1.48942 0
M  V30 3768 H 359.491 3.29957 -3.80978 0
M  V30 3769 H 359.093 1.62258 -3.36969 0
M  V30 3770 H 361.385 4.00106 -5.46737 0
M  V30 3771 H 362.328 2.85988 -6.47778 0
M  V30 3772 H 362.736 3.05456 -4.74718 0
M  V30 3773 N 362.134 1.5431 0.320358 0
M  V30 3774 C 363.545 1.63872 0.894594 0
M  V30 3775 C 363.896 0.534847 1.88769 0
M  V30 3776 O 363.021 -0.331732 2.13842 0
M  V30 3777 C 363.616 2.97049 1.62934 0
M  V30 3778 C 362.175 3.08796 2.15226 0
M  V30 3779 C 361.322 2.59456 0.978671 0
M  V30 3780 H 364.273 1.58398 0.0978544 0
M  V30 3781 H 364.294 2.87388 2.49376 0
M  V30 3782 H 363.806 3.7737 0.906302 0
M  V30 3783 H 361.907 2.33156 2.90636 0
M  V30 3784 H 362.02 4.14649 2.40006 0
M  V30 3785 H 360.384 2.1543 1.35875 0
M  V30 3786 H 361.167 3.42237 0.269895 0
M  V30 3787 N 363.613 -0.582584 1.46437 0
M  V30 3788 C 364.859 -1.34278 1.51978 0
M  V30 3789 C 365.192 -1.93446 0.170973 0
M  V30 3790 O 364.467 -1.76481 -0.817608 0
M  V30 3791 C 364.75 -2.47203 2.61845 0
M  V30 3792 C 364.603 -1.93069 4.06257 0
M  V30 3793 C 365.922 -3.49247 2.67795 0
M  V30 3794 H 363.041 -0.486876 0.553282 0
M  V30 3795 H 365.683 -0.654437 1.78374 0
M  V30 3796 H 363.833 -3.0592 2.39469 0
M  V30 3797 H 365.505 -1.38808 4.3992 0
M  V30 3798 H 363.748 -1.23898 4.1573 0
M  V30 3799 H 364.419 -2.74586 4.7886 0
M  V30 3800 H 366.895 -3.00411 2.8791 0
M  V30 3801 H 365.771 -4.25719 3.46489 0
M  V30 3802 H 366.032 -4.06482 1.73852 0
M  V30 3803 N 365.091 -1.34144 -0.827227 0
M  V30 3804 C 366.021 -1.28005 -1.95287 0
M  V30 3805 C 367.002 -0.158321 -1.69362 0
M  V30 3806 O 368.187 -0.349987 -1.9102 0
M  V30 3807 C 365.317 -1.03036 -3.31664 0
M  V30 3808 C 364.271 -2.11628 -3.72019 0
M  V30 3809 C 363.597 -1.71854 -5.0633 0
M  V30 3810 C 364.897 -3.53417 -3.8457 0
M  V30 3811 H 366.591 -2.22187 -2.00682 0
M  V30 3812 H 364.137 -1.0696 -0.964135 0
M  V30 3813 H 366.09 -0.973863 -4.09993 0
M  V30 3814 H 364.814 -0.0529391 -3.26557 0
M  V30 3815 H 363.473 -2.16339 -2.95961 0
M  V30 3816 H 363.121 -0.727841 -4.97706 0
M  V30 3817 H 362.821 -2.44531 -5.34302 0
M  V30 3818 H 364.345 -1.67692 -5.87122 0
M  V30 3819 H 365.759 -3.51142 -4.5318 0
M  V30 3820 H 364.156 -4.24679 -4.2399 0
M  V30 3821 H 365.226 -3.91072 -2.86689 0
M  V30 3822 N 366.569 1.04691 -1.17803 0
M  V30 3823 C 367.818 1.77176 -0.963931 0
M  V30 3824 C 368.131 1.88888 0.508015 0
M  V30 3825 O 369.337 2.58164 0.840465 0
M  V30 3826 C 367.793 3.18518 -1.67555 0
M  V30 3827 C 367.401 3.14919 -3.18637 0
M  V30 3828 C 369.145 3.95424 -1.54402 0
M  V30 3829 C 367.052 4.51081 -3.82466 0
M  V30 3830 H 365.982 0.664116 -0.357023 0
M  V30 3831 H 368.633 1.17303 -1.4111 0
M  V30 3832 H 367.015 3.78748 -1.15613 0
M  V30 3833 H 368.189 2.64178 -3.77554 0
M  V30 3834 H 366.504 2.51512 -3.31859 0
M  V30 3835 H 369.101 4.96106 -1.99456 0
M  V30 3836 H 369.444 4.13343 -0.495329 0
M  V30 3837 H 369.977 3.41754 -2.0359 0
M  V30 3838 H 366.716 4.38368 -4.87354 0
M  V30 3839 H 366.236 5.01951 -3.28337 0
M  V30 3840 H 367.915 5.2001 -3.84965 0
M  V30 3841 N 368.047 0.979072 1.23499 0
M  V30 3842 C 369.296 0.642751 1.91185 0
M  V30 3843 C 369.609 -0.827253 1.77245 0
M  V30 3844 O 370.815 -1.27458 2.39722 0
M  V30 3845 C 369.271 1.09901 3.42709 0
M  V30 3846 C 368.879 2.59327 3.65313 0
M  V30 3847 C 370.623 0.836371 4.16179 0
M  V30 3848 C 368.53 2.98627 5.10467 0
M  V30 3849 H 367.46 0.236698 0.715884 0
M  V30 3850 H 370.111 1.1868 1.39955 0
M  V30 3851 H 368.493 0.48319 3.93041 0
M  V30 3852 H 369.667 3.26136 3.25533 0
M  V30 3853 H 367.982 2.83323 3.05151 0
M  V30 3854 H 370.579 1.10586 5.23139 0
M  V30 3855 H 370.922 -0.227509 4.15678 0
M  V30 3856 H 371.455 1.41371 3.71832 0
M  V30 3857 H 368.194 4.04133 5.16098 0
M  V30 3858 H 367.714 2.3651 5.51201 0
M  V30 3859 H 369.393 2.89159 5.78788 0
M  V30 3860 N 369.525 -1.3858 0.750561 0
M  V30 3861 C 370.753 -2.04471 0.316098 0
M  V30 3862 C 371.168 -1.56606 -1.05452 0
M  V30 3863 O 370.525 -0.737784 -1.66922 0
M  V30 3864 C 370.576 -3.60025 0.326275 0
M  V30 3865 O 370.297 -4.06133 1.6428 0
M  V30 3866 C 371.798 -4.43131 -0.122429 0
M  V30 3867 H 369.018 -0.65717 0.135528 0
M  V30 3868 H 371.562 -1.77329 1.01857 0
M  V30 3869 H 369.717 -3.86014 -0.327431 0
M  V30 3870 H 370.131 -5.00547 1.56693 0
M  V30 3871 H 371.605 -5.51963 -0.0641473 0
M  V30 3872 H 372.082 -4.23333 -1.16988 0
M  V30 3873 H 372.688 -4.22323 0.50229 0
M  V30 3874 N 371.003 -0.499398 -1.49478 0
M  V30 3875 C 372.249 0.0457576 -2.02748 0
M  V30 3876 C 372.582 1.36793 -1.37846 0
M  V30 3877 O 371.857 1.87596 -0.513601 0
M  V30 3878 C 372.14 0.199986 -3.59544 0
M  V30 3879 C 371.993 -1.1452 -4.34977 0
M  V30 3880 C 373.312 0.94137 -4.29914 0
M  V30 3881 H 370.431 0.0151552 -0.736844 0
M  V30 3882 H 373.073 -0.650498 -1.78518 0
M  V30 3883 H 371.223 0.793007 -3.8032 0
M  V30 3884 H 372.895 -1.77697 -4.25701 0
M  V30 3885 H 371.138 -1.73488 -3.97598 0
M  V30 3886 H 371.809 -0.990607 -5.43039 0
M  V30 3887 H 374.285 0.43844 -4.13784 0
M  V30 3888 H 373.161 1.01812 -5.39375 0
M  V30 3889 H 373.422 1.98471 -3.95046 0
M  V30 3890 N 372.481 1.55866 -0.233164 0
M  V30 3891 C 373.721 2.00506 0.397078 0
M  V30 3892 C 374.085 1.1176 1.56121 0
M  V30 3893 O 375.286 1.45796 2.25825 0
M  V30 3894 C 373.557 3.4811 0.809601 0
M  V30 3895 S 375.116 4.14765 1.43231 0
M  V30 3896 H 371.934 0.699828 0.125547 0
M  V30 3897 H 374.536 1.92429 -0.345177 0
M  V30 3898 H 373.24 4.10373 -0.0471601 0
M  V30 3899 H 372.771 3.60085 1.58438 0
M  V30 3900 H 374.786 4.14914 2.7214 0
M  V30 3901 N 373.959 -0.0401083 1.57549 0
M  V30 3902 C 375.189 -0.744115 1.92734 0
M  V30 3903 C 375.597 -1.70005 0.830348 0
M  V30 3904 O 374.94 -1.82576 -0.20286 0
M  V30 3905 C 375.002 -1.56516 3.2364 0
M  V30 3906 C 374.666 -0.7752 4.50377 0
M  V30 3907 C 375.663 -0.0803326 5.19838 0
M  V30 3908 C 373.348 -0.733002 4.96923 0
M  V30 3909 C 375.342 0.646154 6.34116 0
M  V30 3910 C 373.029 -0.00276321 6.111 0
M  V30 3911 C 374.027 0.685585 6.7955 0
M  V30 3912 O 373.715 1.40399 7.91545 0
M  V30 3913 H 373.447 -0.214861 0.640945 0
M  V30 3914 H 376.001 -0.00503675 2.05399 0
M  V30 3915 H 374.231 -2.3478 3.07271 0
M  V30 3916 H 375.92 -2.15076 3.44234 0
M  V30 3917 H 376.686 -0.104035 4.84888 0
M  V30 3918 H 372.565 -1.25827 4.43496 0
M  V30 3919 H 376.109 1.18398 6.87479 0
M  V30 3920 H 372.006 0.0229012 6.45496 0
M  V30 3921 H 372.774 1.31653 8.07843 0
M  V30 3922 N 375.437 -1.54477 -0.31217 0
M  V30 3923 C 376.685 -1.72884 -1.04668 0
M  V30 3924 C 377.006 -0.511477 -1.88173 0
M  V30 3925 O 376.276 0.474407 -1.90069 0
M  V30 3926 H 374.856 -0.637461 -0.389425 0
M  V30 3927 H 377.518 -1.91807 -0.345852 0
M  V30 3928 H 376.614 -2.61334 -1.70619 0
M  V30 3929 N 376.915 0.57481 -1.46744 0
M  V30 3930 C 377.845 1.69337 -1.60771 0
M  V30 3931 C 378.826 1.63825 -0.457736 0
M  V30 3932 O 380.011 1.8172 -0.684947 0
M  V30 3933 C 377.141 3.0798 -1.60517 0
M  V30 3934 C 376.095 3.28327 -2.74564 0
M  V30 3935 C 375.421 4.67578 -2.59373 0
M  V30 3936 C 376.721 3.15398 -4.16319 0
M  V30 3937 H 378.415 1.57853 -2.54407 0
M  V30 3938 H 375.961 0.75799 -1.22436 0
M  V30 3939 H 377.914 3.86061 -1.68923 0
M  V30 3940 H 376.638 3.20381 -0.634305 0
M  V30 3941 H 375.297 2.52649 -2.65639 0
M  V30 3942 H 374.945 4.76755 -1.60353 0
M  V30 3943 H 374.645 4.82144 -3.35873 0
M  V30 3944 H 376.169 5.47817 -2.69682 0
M  V30 3945 H 377.583 3.83315 -4.26313 0
M  V30 3946 H 375.98 3.41482 -4.93468 0
M  V30 3947 H 377.05 2.12372 -4.3592 0
M  V30 3948 N 378.394 1.34581 0.820102 0
M  V30 3949 C 379.327 1.20735 1.93644 0
M  V30 3950 C 380.305 0.0983343 1.62302 0
M  V30 3951 O 381.489 0.263997 1.86642 0
M  V30 3952 C 378.616 0.856037 3.27704 0
M  V30 3953 C 377.662 1.97521 3.78005 0
M  V30 3954 S 378.495 3.58906 3.97425 0
M  V30 3955 C 379.651 3.25822 5.34407 0
M  V30 3956 H 379.884 2.15231 2.05093 0
M  V30 3957 H 377.417 1.1964 0.97599 0
M  V30 3958 H 379.375 0.660133 4.05157 0
M  V30 3959 H 378.036 -0.0706253 3.14021 0
M  V30 3960 H 377.229 1.68321 4.75062 0
M  V30 3961 H 376.831 2.12875 3.07507 0
M  V30 3962 H 379.123 2.77812 6.17922 0
M  V30 3963 H 380.066 4.22029 5.68592 0
M  V30 3964 H 380.474 2.61932 5.00052 0
M  V30 3965 N 379.872 -1.04064 1.18357 0
M  V30 3966 C 381.121 -1.76662 0.973313 0
M  V30 3967 C 381.434 -1.89154 -0.497991 0
M  V30 3968 O 382.64 -2.58606 -0.826762 0
M  V30 3969 C 381.096 -3.17624 1.69242 0
M  V30 3970 C 380.704 -3.13225 3.20303 0
M  V30 3971 C 382.448 -3.946 1.56497 0
M  V30 3972 C 380.355 -4.49046 3.84853 0
M  V30 3973 H 379.285 -0.662214 0.36054 0
M  V30 3974 H 381.936 -1.16553 1.41731 0
M  V30 3975 H 380.318 -3.78129 1.1762 0
M  V30 3976 H 381.492 -2.62172 3.78949 0
M  V30 3977 H 379.807 -2.49749 3.33189 0
M  V30 3978 H 382.404 -4.95042 2.02084 0
M  V30 3979 H 382.747 -4.13074 0.517243 0
M  V30 3980 H 383.28 -3.4067 2.05399 0
M  V30 3981 H 380.019 -4.35777 4.89672 0
M  V30 3982 H 379.539 -5.00203 3.30994 0
M  V30 3983 H 381.218 -5.17961 3.87718 0
M  V30 3984 N 381.35 -0.985608 -1.22978 0
M  V30 3985 C 382.28 -0.549649 -2.26939 0
M  V30 3986 C 383.261 0.419803 -1.64838 0
M  V30 3987 O 384.446 0.31203 -1.91677 0
M  V30 3988 C 381.576 0.143652 -3.47003 0
M  V30 3989 C 380.53 -0.743606 -4.21491 0
M  V30 3990 C 379.856 0.0822027 -5.34637 0
M  V30 3991 C 381.156 -2.03694 -4.80943 0
M  V30 3992 H 382.85 -1.41862 -2.63658 0
M  V30 3993 H 380.396 -0.683571 -1.26741 0
M  V30 3994 H 382.349 0.459985 -4.18882 0
M  V30 3995 H 381.073 1.04711 -3.09359 0
M  V30 3996 H 379.732 -1.04347 -3.51436 0
M  V30 3997 H 379.38 0.986359 -4.93234 0
M  V30 3998 H 379.08 -0.508377 -5.85397 0
M  V30 3999 H 380.604 0.392797 -6.09335 0
M  V30 4000 H 382.018 -1.78504 -5.44802 0
M  V30 4001 H 380.415 -2.57573 -5.42011 0
M  V30 4002 H 381.485 -2.72042 -4.01399 0
M  V30 4003 N 382.828 1.3818 -0.7579 0
M  V30 4004 C 384.244 1.5353 -0.435972 0
M  V30 4005 C 384.444 1.71961 1.05032 0
M  V30 4006 O 383.5 1.73307 1.83633 0
M  V30 4007 C 384.813 2.73989 -1.23898 0
M  V30 4008 C 386.361 2.87841 -1.22949 0
M  V30 4009 C 386.836 4.11266 -2.01554 0
M  V30 4010 N 388.327 4.18352 -1.98837 0
M  V30 4011 C 389.062 5.12856 -2.5645 0
M  V30 4012 N 388.558 6.13005 -3.22794 0
M  V30 4013 N 390.351 5.05238 -2.46356 0
M  V30 4014 H 382.502 1.24467 -1.7211 0
M  V30 4015 H 384.765 0.604982 -0.729864 0
M  V30 4016 H 384.471 2.66789 -2.29165 0
M  V30 4017 H 384.345 3.67294 -0.858764 0
M  V30 4018 H 386.732 2.9452 -0.184854 0
M  V30 4019 H 386.813 1.95534 -1.64924 0
M  V30 4020 H 386.457 4.05349 -3.06031 0
M  V30 4021 H 386.387 5.02661 -1.5697 0
M  V30 4022 H 388.878 3.46628 -1.50524 0
M  V30 4023 H 389.191 6.81619 -3.64165 0
M  V30 4024 H 387.536 6.13325 -3.2689 0
M  V30 4025 H 390.727 4.25938 -1.9415 0
M  V30 4026 H 390.9 5.78707 -2.91552 0
M  V30 4027 N 384.306 0.507319 1.49211 0
M  V30 4028 C 385.236 -0.256939 2.32082 0
M  V30 4029 C 386.217 -0.956609 1.40652 0
M  V30 4030 O 387.402 -0.946788 1.69557 0
M  V30 4031 C 384.532 -1.31802 3.21318 0
M  V30 4032 C 383.486 -0.737855 4.21592 0
M  V30 4033 C 382.812 -1.89992 4.99807 0
M  V30 4034 C 384.112 0.275325 5.21574 0
M  V30 4035 H 385.806 0.434798 2.96226 0
M  V30 4036 H 383.352 0.210546 1.42452 0
M  V30 4037 H 385.305 -1.86045 3.78107 0
M  V30 4038 H 384.029 -2.03903 2.5513 0
M  V30 4039 H 382.688 -0.217126 3.65956 0
M  V30 4040 H 382.336 -2.60877 4.30061 0
M  V30 4041 H 382.036 -1.51777 5.6766 0
M  V30 4042 H 383.56 -2.44657 5.59442 0
M  V30 4043 H 384.974 -0.179193 5.7302 0
M  V30 4044 H 383.371 0.573649 5.97352 0
M  V30 4045 H 384.441 1.18903 4.70096 0
M  V30 4046 N 385.784 -1.5574 0.241426 0
M  V30 4047 C 386.731 -2.21149 -0.660432 0
M  V30 4048 C 387.701 -1.17356 -1.17545 0
M  V30 4049 O 388.886 -1.45784 -1.23093 0
M  V30 4050 C 386.026 -2.91059 -1.85414 0
M  V30 4051 C 385.139 -4.09495 -1.37616 0
M  V30 4052 C 384.274 -4.67135 -2.529 0
M  V30 4053 C 383.313 -5.77831 -2.01936 0
M  V30 4054 N 382.45 -6.29677 -3.10566 0
M  V30 4055 H 387.29 -2.97845 -0.095955 0
M  V30 4056 H 384.827 -1.47057 -0.0356024 0
M  V30 4057 H 386.785 -3.29788 -2.5553 0
M  V30 4058 H 385.415 -2.16846 -2.39118 0
M  V30 4059 H 384.467 -3.76117 -0.569235 0
M  V30 4060 H 385.779 -4.89423 -0.962618 0
M  V30 4061 H 384.933 -5.08409 -3.31067 0
M  V30 4062 H 383.672 -3.86411 -2.97553 0
M  V30 4063 H 382.677 -5.36039 -1.22238 0
M  V30 4064 H 383.902 -6.60402 -1.58259 0
M  V30 4065 H 381.848 -5.5186 -3.54664 0
M  V30 4066 H 381.765 -7.04783 -2.73526 0
M  V30 4067 H 383.033 -6.75609 -3.88809 0
M  V30 4068 N 387.262 0.0317525 -1.57568 0
M  V30 4069 C 388.487 0.738664 -1.938 0
M  V30 4070 C 388.912 1.68242 -0.841208 0
M  V30 4071 O 388.27 1.80157 0.203267 0
M  V30 4072 C 388.318 1.47417 -3.29091 0
M  V30 4073 O 387.422 2.5872 -3.2115 0
M  V30 4074 H 386.763 0.198856 -0.633524 0
M  V30 4075 H 389.293 -0.0119713 -2.04596 0
M  V30 4076 H 389.303 1.84468 -3.63917 0
M  V30 4077 H 387.978 0.781988 -4.08482 0
M  V30 4078 H 386.555 2.24231 -2.97951 0
M  V30 4079 N 388.74 1.54641 0.303973 0
M  V30 4080 C 389.986 1.74038 1.04109 0
M  V30 4081 C 390.319 0.523051 1.87024 0
M  V30 4082 O 389.594 -0.479874 1.88487 0
M  V30 4083 C 389.877 3.02761 1.94955 0
M  V30 4084 C 389.73 4.34787 1.1524 0
M  V30 4085 C 391.049 3.27336 2.94175 0
M  V30 4086 H 388.168 0.63323 0.377079 0
M  V30 4087 H 390.81 1.87354 0.316001 0
M  V30 4088 H 388.96 2.9154 2.56782 0
M  V30 4089 H 390.632 4.57922 0.557236 0
M  V30 4090 H 388.875 4.31407 0.455053 0
M  V30 4091 H 389.546 5.21116 1.8205 0
M  V30 4092 H 392.022 3.38148 2.42477 0
M  V30 4093 H 390.898 4.18726 3.54908 0
M  V30 4094 H 391.159 2.45491 3.67677 0
M  V30 4095 N 390.218 -0.567019 1.47046 0
M  V30 4096 C 391.634 -0.891975 1.32348 0
M  V30 4097 C 391.834 -1.99154 0.306616 0
M  V30 4098 O 390.89 -2.50883 -0.28532 0
M  V30 4099 C 392.203 -1.29449 2.7141 0
M  V30 4100 C 393.751 -1.40646 2.79621 0
M  V30 4101 C 394.226 -1.84257 4.19301 0
M  V30 4102 N 395.717 -1.91424 4.21795 0
M  V30 4103 C 396.452 -2.26476 5.26779 0
M  V30 4104 N 395.948 -2.60211 6.42077 0
M  V30 4105 N 397.741 -2.27166 5.14152 0
M  V30 4106 H 389.892 0.159074 2.11803 0
M  V30 4107 H 392.155 0.00849752 0.947962 0
M  V30 4108 H 391.861 -0.560448 3.47206 0
M  V30 4109 H 391.735 -2.25273 3.02542 0
M  V30 4110 H 394.122 -2.13133 2.04104 0
M  V30 4111 H 394.203 -0.430339 2.52154 0
M  V30 4112 H 393.847 -1.12343 4.95319 0
M  V30 4113 H 393.777 -2.82855 4.44185 0
M  V30 4114 H 396.268 -1.6778 3.38612 0
M  V30 4115 H 396.581 -2.85956 7.17948 0
M  V30 4116 H 394.926 -2.57813 6.45413 0
M  V30 4117 H 398.117 -2.00244 4.23107 0
M  V30 4118 H 398.29 -2.54154 5.96079 0
M  V30 4119 N 391.696 -1.35014 -0.812953 0
M  V30 4120 C 392.629 -1.21761 -1.93001 0
M  V30 4121 C 393.607 -0.10694 -1.62248 0
M  V30 4122 O 394.791 -0.273891 -1.865 0
M  V30 4123 C 391.918 -0.873404 -3.27245 0
M  V30 4124 C 390.964 -1.99523 -3.76952 0
M  V30 4125 S 391.797 -3.61009 -3.95516 0
M  V30 4126 C 392.953 -3.28651 -5.32672 0
M  V30 4127 H 393.186 -2.16315 -2.03948 0
M  V30 4128 H 390.719 -1.20156 -0.969631 0
M  V30 4129 H 392.677 -0.68161 -4.04802 0
M  V30 4130 H 391.338 0.053971 -3.14054 0
M  V30 4131 H 390.531 -1.70838 -4.74163 0
M  V30 4132 H 390.133 -2.14503 -3.06373 0
M  V30 4133 H 392.425 -2.81085 -6.1644 0
M  V30 4134 H 393.368 -4.25039 -5.66346 0
M  V30 4135 H 393.776 -2.6458 -4.98656 0
M  V30 4136 N 393.175 1.03435 -1.18907 0
M  V30 4137 C 394.105 2.13503 -0.945448 0
M  V30 4138 C 395.086 1.69682 0.119189 0
M  V30 4139 O 396.271 1.94169 -0.034707 0
M  V30 4140 C 393.401 3.44004 -0.477316 0
M  V30 4141 C 392.355 4.0148 -1.48316 0
M  V30 4142 C 391.681 5.27537 -0.872311 0
M  V30 4143 C 392.981 4.36921 -2.86177 0
M  V30 4144 H 394.675 2.34141 -1.86597 0
M  V30 4145 H 392.221 1.12523 -0.898584 0
M  V30 4146 H 394.174 4.20372 -0.294204 0
M  V30 4147 H 392.898 3.23072 0.478786 0
M  V30 4148 H 391.557 3.27201 -1.65332 0
M  V30 4149 H 391.205 5.02917 0.0911752 0
M  V30 4150 H 390.905 5.66954 -1.54393 0
M  V30 4151 H 392.429 6.06576 -0.699871 0
M  V30 4152 H 393.843 5.04248 -2.72776 0
M  V30 4153 H 392.24 4.87405 -3.50081 0
M  V30 4154 H 393.31 3.46466 -3.39248 0
M  V30 4155 N 394.653 0.992116 1.22453 0
M  V30 4156 C 395.878 0.685644 1.95739 0
M  V30 4157 C 396.303 -0.743 1.72804 0
M  V30 4158 O 395.661 -1.50778 1.00676 0
M  V30 4159 C 395.709 0.996293 3.46564 0
M  V30 4160 O 394.813 0.0945512 4.12292 0
M  V30 4161 H 394.154 0.256694 0.612376 0
M  V30 4162 H 396.684 1.32888 1.5557 0
M  V30 4163 H 396.694 0.93781 3.97076 0
M  V30 4164 H 395.369 2.03733 3.62582 0
M  V30 4165 H 393.946 0.208451 3.72317 0
M  V30 4166 N 396.131 -1.37776 0.765217 0
M  V30 4167 C 397.379 -1.99454 0.325943 0
M  V30 4168 C 397.7 -1.61049 -1.09947 0
M  V30 4169 O 396.97 -0.872821 -1.75381 0
M  V30 4170 H 395.55 -0.737697 0.117525 0
M  V30 4171 H 398.212 -1.68359 0.981895 0
M  V30 4172 H 397.308 -3.09547 0.398353 0
M  V30 4173 N 397.609 -0.515225 -1.4894 0
M  V30 4174 C 398.834 0.022727 -2.07388 0
M  V30 4175 C 399.259 1.2876 -1.37122 0
M  V30 4176 O 398.617 1.76067 -0.432431 0
M  V30 4177 C 398.665 0.244869 -3.59768 0
M  V30 4178 O 397.769 1.31667 -3.90817 0
M  V30 4179 H 397.11 -0.0325506 -0.663202 0
M  V30 4180 H 399.64 -0.718918 -1.91553 0
M  V30 4181 H 399.65 0.47205 -4.0526 0
M  V30 4182 H 398.325 -0.679194 -4.10317 0
M  V30 4183 H 396.902 1.07331 -3.5712 0
M  V30 4184 N 399.087 1.5561 -0.249682 0
M  V30 4185 C 400.034 2.21496 0.648694 0
M  V30 4186 C 401.004 1.17977 1.16921 0
M  V30 4187 O 402.189 1.46434 1.22318 0
M  V30 4188 C 399.329 2.92039 1.83868 0
M  V30 4189 C 398.442 4.10219 1.35442 0
M  V30 4190 C 397.577 4.6847 2.50419 0
M  V30 4191 C 396.616 5.78893 1.98869 0
M  V30 4192 N 395.753 6.31315 3.07223 0
M  V30 4193 H 400.593 2.97892 0.0801582 0
M  V30 4194 H 398.13 1.47074 0.0278031 0
M  V30 4195 H 400.088 3.31138 2.53778 0
M  V30 4196 H 398.718 2.18111 2.37965 0
M  V30 4197 H 397.77 3.76413 0.54928 0
M  V30 4198 H 399.082 4.89927 0.936649 0
M  V30 4199 H 398.236 5.10158 3.28366 0
M  V30 4200 H 396.975 3.87984 2.95499 0
M  V30 4201 H 395.98 5.3668 1.19393 0
M  V30 4202 H 397.205 6.61232 1.54755 0
M  V30 4203 H 395.151 5.53733 3.51732 0
M  V30 4204 H 395.068 7.06224 2.69784 0
M  V30 4205 H 396.336 6.77662 3.8522 0
M  V30 4206 N 400.565 -0.0233959 1.57583 0
M  V30 4207 C 401.475 -1.03907 2.10334 0
M  V30 4208 C 402.491 -1.39257 1.04323 0
M  V30 4209 O 403.667 -1.48462 1.36091 0
M  V30 4210 C 400.732 -2.31938 2.57693 0
M  V30 4211 C 399.793 -2.03117 3.78209 0
M  V30 4212 C 399.026 -3.25043 4.233 0
M  V30 4213 O 399.249 -4.35916 3.67876 0
M  V30 4214 O 398.183 -3.10411 5.15683 0
M  V30 4215 H 402.009 -0.620748 2.97288 0
M  V30 4216 H 399.594 -0.240743 1.47448 0
M  V30 4217 H 401.476 -3.07196 2.88458 0
M  V30 4218 H 400.151 -2.73055 1.73847 0
M  V30 4219 H 399.058 -1.25408 3.52454 0
M  V30 4220 H 400.391 -1.66852 4.63056 0
M  V30 4221 N 402.043 -1.548 -0.295768 0
M  V30 4222 C 402.99 -1.86113 -1.36494 0
M  V30 4223 C 403.96 -0.7105 -1.50137 0
M  V30 4224 O 405.145 -0.959626 -1.64912 0
M  V30 4225 C 402.285 -2.11861 -2.72413 0
M  V30 4226 C 401.398 -3.39471 -2.67177 0
M  V30 4227 C 400.533 -3.55035 -3.95125 0
M  V30 4228 C 399.572 -4.76418 -3.84308 0
M  V30 4229 N 398.709 -4.8876 -5.04042 0
M  V30 4230 H 403.549 -2.77314 -1.09091 0
M  V30 4231 H 401.086 -1.37315 -0.52753 0
M  V30 4232 H 403.044 -2.24786 -3.51464 0
M  V30 4233 H 401.674 -1.2392 -2.98066 0
M  V30 4234 H 400.726 -3.35139 -1.79962 0
M  V30 4235 H 402.038 -4.28646 -2.55076 0
M  V30 4236 H 401.192 -3.67653 -4.82614 0
M  V30 4237 H 399.931 -2.64002 -4.10066 0
M  V30 4238 H 398.936 -4.63827 -2.95202 0
M  V30 4239 H 400.161 -5.68863 -3.70906 0
M  V30 4240 H 398.107 -4.00652 -5.19436 0
M  V30 4241 H 398.024 -5.71945 -4.94384 0
M  V30 4242 H 399.292 -5.0574 -5.93167 0
M  V30 4243 N 403.521 0.559213 -1.47345 0
M  V30 4244 C 404.798 1.31997 -1.44348 0
M  V30 4245 C 405.178 2.1064 -0.139358 0
M  V30 4246 O 404.526 2.1091 0.879153 0
M  V30 4247 C 404.736 2.22618 -2.68779 0
M  V30 4248 C 406.084 2.83701 -3.1591 0
M  V30 4249 O 407.108 2.32921 -2.69493 0
M  V30 4250 O 405.967 3.75993 -3.966 0
M  V30 4251 H 403.061 0.594251 -0.575147 0
M  V30 4252 H 405.607 0.578282 -1.59543 0
M  V30 4253 H 404.379 1.64093 -3.55231 0
M  V30 4254 H 404.002 3.04085 -2.5616 0
M  V30 4255 N 404.999 1.35443 0.805782 0
M  V30 4256 C 406.415 1.15499 1.10146 0
M  V30 4257 C 406.615 -0.0319975 2.01475 0
M  V30 4258 O 405.671 -0.70236 2.42535 0
M  V30 4259 C 406.984 2.45833 1.73166 0
M  V30 4260 C 408.532 2.52047 1.85583 0
M  V30 4261 C 409.007 3.82427 2.52019 0
M  V30 4262 N 410.498 3.83682 2.59504 0
M  V30 4263 C 411.233 4.81294 3.11679 0
M  V30 4264 N 410.729 5.89294 3.64287 0
M  V30 4265 N 412.522 4.6873 3.1024 0
M  V30 4266 H 404.673 2.11469 0.198678 0
M  V30 4267 H 406.936 0.93594 0.150731 0
M  V30 4268 H 406.642 3.32874 1.13526 0
M  V30 4269 H 406.516 2.6044 2.72857 0
M  V30 4270 H 408.903 1.65435 2.44367 0
M  V30 4271 H 408.984 2.41354 0.847455 0
M  V30 4272 H 408.628 4.69437 1.93885 0
M  V30 4273 H 408.558 3.90409 3.53395 0
M  V30 4274 H 411.049 3.05648 2.22234 0
M  V30 4275 H 411.362 6.59768 4.02401 0
M  V30 4276 H 409.707 5.92985 3.62483 0
M  V30 4277 H 412.898 3.83496 2.68419 0
M  V30 4278 H 413.071 5.44965 3.50596 0
M  V30 4279 N 406.477 -1.02803 1.19454 0
M  V30 4280 C 407.425 -2.13213 0.929673 0
M  V30 4281 C 408.419 -1.69011 -0.114806 0
M  V30 4282 O 409.625 -1.79967 0.0345147 0
M  V30 4283 H 406 -0.69662 0.28324 0
M  V30 4284 H 407.971 -2.32744 1.86743 0
M  V30 4285 C 406.72 -3.4429 0.485797 0
M  V30 4286 H 406.043 -3.7872 1.28105 0
M  V30 4287 H 407.483 -4.22638 0.339582 0
M  V30 4288 C 405.942 -3.27258 -0.800244 0
M  V30 4289 O 406.472 -3.55967 -1.86146 0
M  V30 4290 N 404.678 -2.80545 -0.75781 0
M  V30 4291 H 404.225 -2.57382 0.106039 0
M  V30 4292 H 404.183 -2.6953 -1.61867 0
M  V30 4293 N 407.956 -0.998596 -1.21925 0
M  V30 4294 C 408.886 -0.573688 -2.26343 0
M  V30 4295 C 409.867 0.402296 -1.65274 0
M  V30 4296 O 411.052 0.291683 -1.91997 0
M  V30 4297 C 408.182 0.106839 -3.47136 0
M  V30 4298 C 407.136 -0.788269 -4.20678 0
M  V30 4299 C 406.462 0.0254927 -5.34694 0
M  V30 4300 C 407.762 -2.08784 -4.78755 0
M  V30 4301 H 409.456 -1.44651 -2.62138 0
M  V30 4302 H 407.002 -0.696975 -1.26009 0
M  V30 4303 H 408.955 0.415531 -4.19346 0
M  V30 4304 H 407.679 1.01424 -3.10452 0
M  V30 4305 H 406.338 -1.08069 -3.50309 0
M  V30 4306 H 405.986 0.933989 -4.94253 0
M  V30 4307 H 405.686 -0.570437 -5.84825 0
M  V30 4308 H 407.21 0.328147 -6.09718 0
M  V30 4309 H 408.624 -1.84272 -5.42878 0
M  V30 4310 H 407.021 -2.63307 -5.39249 0
M  V30 4311 H 408.091 -2.76284 -3.98491 0
M  V30 4312 N 409.434 1.37368 -0.772513 0
M  V30 4313 C 410.85 1.53059 -0.452231 0
M  V30 4314 C 411.05 1.73065 1.03203 0
M  V30 4315 O 410.106 1.75245 1.81784 0
M  V30 4316 C 411.419 2.72659 -1.26797 0
M  V30 4317 C 412.967 2.86521 -1.25995 0
M  V30 4318 C 413.442 4.09105 -2.05905 0
M  V30 4319 N 414.933 4.16219 -2.03263 0
M  V30 4320 C 415.668 5.10107 -2.61875 0
M  V30 4321 N 415.164 6.09547 -3.29278 0
M  V30 4322 N 416.957 5.02596 -2.51701 0
M  V30 4323 H 409.108 1.22634 -1.7342 0
M  V30 4324 H 411.371 0.597206 -0.736239 0
M  V30 4325 H 411.077 2.64343 -2.31982 0
M  V30 4326 H 410.951 3.66363 -0.897672 0
M  V30 4327 H 413.338 2.94308 -0.216081 0
M  V30 4328 H 413.419 1.93774 -1.66989 0
M  V30 4329 H 413.063 4.0208 -3.10313 0
M  V30 4330 H 412.993 5.00968 -1.62292 0
M  V30 4331 H 415.484 3.45012 -1.54192 0
M  V30 4332 H 415.797 6.77718 -3.71374 0
M  V30 4333 H 414.142 6.09824 -3.33377 0
M  V30 4334 H 417.333 4.23855 -1.98657 0
M  V30 4335 H 417.506 5.75582 -2.97673 0
M  V30 4336 N 410.912 0.523116 1.48665 0
M  V30 4337 C 412.328 0.180511 1.58576 0
M  V30 4338 C 412.528 -1.31597 1.52592 0
M  V30 4339 O 411.584 -2.0937 1.4114 0
M  V30 4340 C 412.897 0.776949 2.90489 0
M  V30 4341 C 414.445 0.745058 3.04003 0
M  V30 4342 C 414.92 1.31995 4.38567 0
M  V30 4343 N 416.411 1.28162 4.45117 0
M  V30 4344 C 417.146 1.6964 5.47731 0
M  V30 4345 N 416.642 2.18816 6.57337 0
M  V30 4346 N 418.435 1.6092 5.38573 0
M  V30 4347 H 410.586 1.4958 1.50797 0
M  V30 4348 H 412.849 0.621772 0.715614 0
M  V30 4349 H 412.555 1.82732 3.00503 0
M  V30 4350 H 412.429 0.25007 3.7637 0
M  V30 4351 H 414.816 -0.296532 2.93606 0
M  V30 4352 H 414.897 1.30933 2.1975 0
M  V30 4353 H 414.541 2.36043 4.49718 0
M  V30 4354 H 414.471 0.731418 5.21496 0
M  V30 4355 H 416.962 0.92155 3.66491 0
M  V30 4356 H 417.275 2.48478 7.31764 0
M  V30 4357 H 415.62 2.22805 6.58318 0
M  V30 4358 H 418.811 1.22304 4.5184 0
M  V30 4359 H 418.984 1.93567 6.18414 0
M  V30 4360 N 412.39 -1.55475 0.257931 0
M  V30 4361 C 413.639 -1.98383 -0.364275 0
M  V30 4362 C 413.952 -1.14952 -1.58258 0
M  V30 4363 O 415.158 -1.47924 -2.27664 0
M  V30 4364 C 413.614 -3.53037 -0.699479 0
M  V30 4365 C 413.222 -4.45223 0.498046 0
M  V30 4366 C 414.966 -4.04575 -1.28526 0
M  V30 4367 C 412.873 -5.91238 0.138383 0
M  V30 4368 H 411.803 -0.740911 -0.13988 0
M  V30 4369 H 414.454 -1.79936 0.359883 0
M  V30 4370 H 412.836 -3.6722 -1.48207 0
M  V30 4371 H 414.01 -4.42803 1.27522 0
M  V30 4372 H 412.325 -4.04226 0.999503 0
M  V30 4373 H 414.922 -5.11196 -1.56788 0
M  V30 4374 H 415.265 -3.5258 -2.21344 0
M  V30 4375 H 415.798 -3.93762 -0.565337 0
M  V30 4376 H 412.537 -6.47294 1.03398 0
M  V30 4377 H 412.057 -5.96768 -0.602374 0
M  V30 4378 H 413.736 -6.46413 -0.27553 0
M  V30 4379 N 413.868 0.0150385 -1.57593 0
M  V30 4380 C 415.096 0.714395 -1.94175 0
M  V30 4381 C 415.511 1.68135 -0.858841 0
M  V30 4382 O 414.868 1.81766 0.163567 0
M  V30 4383 C 414.919 1.45933 -3.30735 0
M  V30 4384 O 414.64 0.531167 -4.34868 0
M  V30 4385 C 416.141 2.25456 -3.81686 0
M  V30 4386 H 413.361 0.199923 -0.640525 0
M  V30 4387 H 415.905 -0.0316096 -2.04476 0
M  V30 4388 H 414.06 2.15709 -3.21789 0
M  V30 4389 H 414.474 1.05509 -5.13778 0
M  V30 4390 H 415.948 2.731 -4.79709 0
M  V30 4391 H 416.425 3.07485 -3.13607 0
M  V30 4392 H 417.031 1.60727 -3.9376 0
M  V30 4393 N 415.346 1.54954 0.287554 0
M  V30 4394 C 416.762 1.46469 0.633964 0
M  V30 4395 C 416.962 0.666865 1.90145 0
M  V30 4396 O 416.018 0.179906 2.51858 0
M  V30 4397 C 417.331 2.90556 0.774454 0
M  V30 4398 C 418.879 3.00681 0.869462 0
M  V30 4399 C 419.354 4.45993 1.04184 0
M  V30 4400 N 420.845 4.4976 1.10772 0
M  V30 4401 C 421.58 5.59393 1.25964 0
M  V30 4402 N 421.076 6.78923 1.37968 0
M  V30 4403 N 422.869 5.47107 1.28959 0
M  V30 4404 H 415.02 2.05288 -0.545041 0
M  V30 4405 H 417.283 0.930305 -0.182308 0
M  V30 4406 H 416.989 3.51594 -0.086207 0
M  V30 4407 H 416.863 3.38743 1.6593 0
M  V30 4408 H 419.25 2.39749 1.7206 0
M  V30 4409 H 419.331 2.55769 -0.0396831 0
M  V30 4410 H 418.975 5.07524 0.195422 0
M  V30 4411 H 418.905 4.88548 1.96542 0
M  V30 4412 H 421.396 3.63651 1.02794 0
M  V30 4413 H 421.709 7.58231 1.49353 0
M  V30 4414 H 420.054 6.81763 1.34999 0
M  V30 4415 H 423.245 4.52668 1.19202 0
M  V30 4416 H 423.418 6.32595 1.40455 0
M  V30 4417 N 416.824 -0.551391 1.4764 0
M  V30 4418 C 417.757 -1.6738 1.5511 0
M  V30 4419 C 418.735 -1.5753 0.402856 0
M  V30 4420 O 419.919 -1.78307 0.611475 0
M  V30 4421 C 417.046 -3.05661 1.45908 0
M  V30 4422 C 416.092 -3.33938 2.65307 0
M  V30 4423 S 416.925 -3.22553 4.27457 0
M  V30 4424 C 418.081 -4.63317 4.20818 0
M  V30 4425 H 418.314 -1.6079 2.50068 0
M  V30 4426 H 415.847 -0.732674 1.35909 0
M  V30 4427 H 417.805 -3.8542 1.41286 0
M  V30 4428 H 416.466 -3.09711 0.523248 0
M  V30 4429 H 415.659 -4.34761 2.54948 0
M  V30 4430 H 415.261 -2.61809 2.67081 0
M  V30 4431 H 417.553 -5.54391 3.89431 0
M  V30 4432 H 418.496 -4.78732 5.21748 0
M  V30 4433 H 418.904 -4.41636 3.51593 0
M  V30 4434 N 418.302 -1.35869 -0.798587 0
M  V30 4435 C 419.548 -1.2978 -1.55836 0
M  V30 4436 C 419.881 0.125322 -1.93795 0
M  V30 4437 O 419.156 1.07658 -1.61987 0
M  V30 4438 C 419.439 -2.21188 -2.84162 0
M  V30 4439 C 419.292 -3.72155 -2.52628 0
M  V30 4440 C 420.611 -2.11545 -3.85923 0
M  V30 4441 H 417.73 -0.472769 -0.565383 0
M  V30 4442 H 420.372 -1.66341 -0.918192 0
M  V30 4443 H 418.522 -1.90139 -3.38791 0
M  V30 4444 H 420.194 -4.13682 -2.04121 0
M  V30 4445 H 418.437 -3.92042 -1.85704 0
M  V30 4446 H 419.108 -4.31511 -3.44242 0
M  V30 4447 H 421.584 -2.38855 -3.40716 0
M  V30 4448 H 420.46 -2.77688 -4.73477 0
M  V30 4449 H 420.721 -1.09987 -4.282 0
M  V30 4450 N 419.78 1.02168 -1.19998 0
M  V30 4451 C 420.71 2.12488 -0.96804 0
M  V30 4452 C 421.691 1.69799 0.101185 0
M  V30 4453 O 422.876 1.94121 -0.0552993 0
M  V30 4454 C 420.006 3.43479 -0.513776 0
M  V30 4455 C 418.96 3.99884 -1.52566 0
M  V30 4456 C 418.286 5.26582 -0.928214 0
M  V30 4457 C 419.586 4.33861 -2.90795 0
M  V30 4458 H 421.28 2.32149 -1.89069 0
M  V30 4459 H 418.826 1.11564 -0.910468 0
M  V30 4460 H 420.779 4.20036 -0.338774 0
M  V30 4461 H 419.503 3.23561 0.444493 0
M  V30 4462 H 418.162 3.25429 -1.68794 0
M  V30 4463 H 417.81 5.02986 0.0378289 0
M  V30 4464 H 417.51 5.65284 -1.60397 0
M  V30 4465 H 419.034 6.05799 -0.764167 0
M  V30 4466 H 420.448 5.01327 -2.78109 0
M  V30 4467 H 418.845 4.83664 -3.55231 0
M  V30 4468 H 419.915 3.42848 -3.42904 0
M  V30 4469 N 421.258 1.00505 1.21394 0
M  V30 4470 C 422.504 0.688793 1.90745 0
M  V30 4471 C 422.837 -0.778486 1.77914 0
M  V30 4472 O 422.112 -1.56433 1.15581 0
M  V30 4473 C 422.395 1.11063 3.42545 0
M  V30 4474 C 422.248 2.63737 3.64367 0
M  V30 4475 C 423.567 0.673059 4.34923 0
M  V30 4476 H 420.686 0.251702 0.692687 0
M  V30 4477 H 423.328 1.25074 1.43026 0
M  V30 4478 H 421.478 0.632508 3.83317 0
M  V30 4479 H 423.15 3.19313 3.32922 0
M  V30 4480 H 421.393 3.05248 3.08231 0
M  V30 4481 H 422.064 2.88305 4.70727 0
M  V30 4482 H 424.54 1.08392 4.01734 0
M  V30 4483 H 423.416 0.996383 5.39781 0
M  V30 4484 H 423.677 -0.425808 4.40045 0
M  V30 4485 N 422.737 -1.36956 0.779787 0
M  V30 4486 C 423.983 -1.99787 0.348281 0
M  V30 4487 C 424.316 -1.61756 -1.07465 0
M  V30 4488 O 423.591 -0.867639 -1.74075 0
M  V30 4489 C 423.874 -3.56597 0.50104 0
M  V30 4490 C 423.727 -4.04513 1.96697 0
M  V30 4491 C 425.046 -4.40008 -0.0898097 0
M  V30 4492 H 422.165 -0.725796 0.128022 0
M  V30 4493 H 424.807 -1.62514 0.984331 0
M  V30 4494 H 422.957 -3.88479 -0.0404347 0
M  V30 4495 H 424.629 -3.83161 2.56876 0
M  V30 4496 H 422.872 -3.56408 2.47297 0
M  V30 4497 H 423.543 -5.1352 2.02486 0
M  V30 4498 H 426.019 -4.14431 0.372293 0
M  V30 4499 H 424.895 -5.4888 0.0471605 0
M  V30 4500 H 425.156 -4.26035 -1.18096 0
M  V30 4501 N 424.215 -0.530993 -1.48385 0
M  V30 4502 C 425.461 0.00274135 -2.028 0
M  V30 4503 C 425.794 1.33838 -1.40716 0
M  V30 4504 O 425.069 1.86465 -0.553277 0
M  V30 4505 C 425.352 0.123676 -3.59888 0
M  V30 4506 C 425.205 -1.2372 -4.3245 0
M  V30 4507 C 426.524 0.849967 -4.31814 0
M  V30 4508 H 423.643 -0.000477758 -0.737 0
M  V30 4509 H 426.285 -0.688217 -1.77098 0
M  V30 4510 H 424.435 0.712157 -3.81917 0
M  V30 4511 H 426.107 -1.86687 -4.21836 0
M  V30 4512 H 424.35 -1.81882 -3.93829 0
M  V30 4513 H 425.021 -1.10557 -5.40815 0
M  V30 4514 H 427.497 0.350572 -4.14621 0
M  V30 4515 H 426.373 0.903486 -5.41413 0
M  V30 4516 H 426.634 1.90047 -3.99167 0
M  V30 4517 N 425.693 1.55336 -0.266172 0
M  V30 4518 C 426.656 2.20878 0.612001 0
M  V30 4519 C 427.656 1.18388 1.08816 0
M  V30 4520 O 428.846 1.4335 0.989774 0
M  V30 4521 C 425.978 2.86765 1.84332 0
M  V30 4522 H 427.171 2.99873 0.0398718 0
M  V30 4523 H 424.724 1.56291 -0.0167309 0
M  V30 4524 H 425.459 2.11759 2.45619 0
M  V30 4525 H 425.244 3.61862 1.5099 0
M  V30 4526 H 426.734 3.36867 2.46801 0
M  V30 4527 N 427.171 -0.0066808 1.57599 0
M  V30 4528 C 428.417 -0.693947 1.90558 0
M  V30 4529 C 428.75 -1.73792 0.866594 0
M  V30 4530 O 428.025 -1.94156 -0.115548 0
M  V30 4531 C 428.308 -1.34317 3.34112 0
M  V30 4532 C 428.161 -0.311189 4.48722 0
M  V30 4533 C 429.48 -2.27116 3.7697 0
M  V30 4534 H 426.599 -0.250803 0.693013 0
M  V30 4535 H 429.241 0.043242 1.89951 0
M  V30 4536 H 427.391 -1.9715 3.3476 0
M  V30 4537 H 429.063 0.316944 4.6021 0
M  V30 4538 H 427.306 0.367253 4.32243 0
M  V30 4539 H 427.977 -0.804366 5.46108 0
M  V30 4540 H 430.453 -1.74306 3.77831 0
M  V30 4541 H 429.329 -2.69511 4.78179 0
M  V30 4542 H 429.59 -3.14743 3.10466 0
M  V30 4543 N 428.649 -1.55105 -0.279332 0
M  V30 4544 C 429.896 -1.75412 -1.01177 0
M  V30 4545 C 430.224 -0.551728 -1.86511 0
M  V30 4546 O 429.479 0.465919 -1.90073 0
M  V30 4547 C 429.778 -3.0086 -1.92919 0
M  V30 4548 C 429.444 -4.33689 -1.23387 0
M  V30 4549 C 428.106 -4.69792 -1.04159 0
M  V30 4550 C 430.458 -5.15941 -0.738562 0
M  V30 4551 C 427.786 -5.85707 -0.341166 0
M  V30 4552 C 430.138 -6.32579 -0.0517636 0
M  V30 4553 C 428.802 -6.67326 0.152292 0
M  V30 4554 H 428.072 -0.641879 -0.370233 0
M  V30 4555 H 430.719 -1.89373 -0.284627 0
M  V30 4556 H 429.024 -2.81773 -2.72234 0
M  V30 4557 H 430.721 -3.13768 -2.49701 0
M  V30 4558 H 427.311 -4.05309 -1.39364 0
M  V30 4559 H 431.495 -4.8853 -0.874764 0
M  V30 4560 H 426.751 -6.11157 -0.172287 0
M  V30 4561 H 430.925 -6.9557 0.339828 0
M  V30 4562 H 428.552 -7.56998 0.697014 0
M  V30 4563 N 430.127 0.543554 -1.4793 0
M  V30 4564 C 431.376 1.29649 -1.54512 0
M  V30 4565 C 431.689 1.94382 -0.217973 0
M  V30 4566 O 432.895 2.71017 -0.161908 0
M  V30 4567 C 431.351 2.35175 -2.72435 0
M  V30 4568 C 430.959 1.76572 -4.11736 0
M  V30 4569 C 432.703 3.11564 -2.8832 0
M  V30 4570 C 430.61 2.79958 -5.20939 0
M  V30 4571 H 429.54 0.487541 -0.57517 0
M  V30 4572 H 432.191 0.575708 -1.74235 0
M  V30 4573 H 430.573 3.10229 -2.46118 0
M  V30 4574 H 431.747 1.07799 -4.48013 0
M  V30 4575 H 430.062 1.12722 -4.00852 0
M  V30 4576 H 432.659 3.88794 -3.67074 0
M  V30 4577 H 433.002 3.66594 -1.97268 0
M  V30 4578 H 433.535 2.43623 -3.14472 0
M  V30 4579 H 430.274 2.29766 -6.13912 0
M  V30 4580 H 429.794 3.47101 -4.89164 0
M  V30 4581 H 431.473 3.43198 -5.48474 0
M  V30 4582 N 431.605 1.3629 0.791371 0
M  V30 4583 C 432.851 1.30605 1.55146 0
M  V30 4584 C 433.184 -0.115042 1.93859 0
M  V30 4585 O 432.459 -1.06798 1.62556 0
M  V30 4586 C 432.742 2.22692 2.82985 0
M  V30 4587 C 432.595 3.73489 2.50651 0
M  V30 4588 C 433.914 2.13588 3.84796 0
M  V30 4589 H 431.033 0.475761 0.562868 0
M  V30 4590 H 433.675 1.66825 0.909358 0
M  V30 4591 H 431.825 1.91933 3.37778 0
M  V30 4592 H 433.497 4.14758 2.01924 0
M  V30 4593 H 431.74 3.93021 1.83622 0
M  V30 4594 H 432.411 4.3333 3.41949 0
M  V30 4595 H 434.887 2.40659 3.39445 0
M  V30 4596 H 433.763 2.80195 4.71998 0
M  V30 4597 H 434.024 1.12256 4.27611 0
M  V30 4598 N 433.083 -1.0153 1.20538 0
M  V30 4599 C 434.323 -1.76689 1.02763 0
M  V30 4600 C 434.687 -1.87065 -0.432513 0
M  V30 4601 O 435.888 -2.58684 -0.730481 0
M  V30 4602 C 434.159 -3.14707 1.69393 0
M  V30 4603 S 435.718 -4.05886 1.66738 0
M  V30 4604 H 432.536 -0.608076 0.368463 0
M  V30 4605 H 435.138 -1.21558 1.53114 0
M  V30 4606 H 433.842 -3.04782 2.74838 0
M  V30 4607 H 433.373 -3.74913 1.19179 0
M  V30 4608 H 435.388 -4.91221 0.70117 0
M  V30 4609 N 434.561 -1.01147 -1.20859 0
M  V30 4610 C 435.807 -0.708598 -1.90658 0
M  V30 4611 C 436.162 0.753069 -1.7705 0
M  V30 4612 O 435.455 1.53952 -1.14059 0
M  V30 4613 C 435.649 -1.0727 -3.40922 0
M  V30 4614 C 435.478 -2.56821 -3.69152 0
M  V30 4615 C 434.248 -3.23524 -3.8815 0
M  V30 4616 C 436.446 -3.54997 -3.72131 0
M  V30 4617 N 434.428 -4.62359 -4.03853 0
M  V30 4618 C 435.799 -4.79371 -3.93196 0
M  V30 4619 C 437.854 -3.49042 -3.55069 0
M  V30 4620 C 436.557 -5.98512 -3.98969 0
M  V30 4621 C 438.583 -4.67579 -3.6211 0
M  V30 4622 C 437.945 -5.9076 -3.83643 0
M  V30 4623 H 434.044 -0.31088 -0.71755 0
M  V30 4624 H 436.628 -1.29526 -1.45366 0
M  V30 4625 H 434.799 -0.51443 -3.84978 0
M  V30 4626 H 436.531 -0.723891 -3.98173 0
M  V30 4627 H 433.286 -2.73958 -3.86321 0
M  V30 4628 H 433.71 -5.34427 -4.15592 0
M  V30 4629 H 438.352 -2.54808 -3.37391 0
M  V30 4630 H 436.07 -6.93132 -4.15444 0
M  V30 4631 H 439.656 -4.64581 -3.50222 0
M  V30 4632 H 438.536 -6.8095 -3.88944 0
M  V30 4633 N 436.039 1.36541 -0.78704 0
M  V30 4634 C 437.267 2.03561 -0.370199 0
M  V30 4635 C 437.682 1.59347 1.01263 0
M  V30 4636 O 437.039 0.781781 1.64907 0
M  V30 4637 C 437.09 3.59033 -0.421614 0
M  V30 4638 O 436.811 4.01634 -1.7499 0
M  V30 4639 C 438.312 4.433 0.00489763 0
M  V30 4640 H 435.532 0.653346 -0.152904 0
M  V30 4641 H 438.076 1.74566 -1.06522 0
M  V30 4642 H 436.231 3.86746 0.224971 0
M  V30 4643 H 436.645 4.96217 -1.69909 0
M  V30 4644 H 438.119 5.51939 -0.0822184 0
M  V30 4645 H 438.596 4.26285 1.05723 0
M  V30 4646 H 439.202 4.20843 -0.614085 0
M  V30 4647 N 437.518 0.538854 1.48102 0
M  V30 4648 C 438.929 0.100679 1.86428 0
M  V30 4649 C 439.28 -1.32447 1.44749 0
M  V30 4650 O 438.405 -1.99339 0.842199 0
M  V30 4651 C 439 0.175933 3.38343 0
M  V30 4652 C 437.559 -0.207098 3.7583 0
M  V30 4653 C 436.706 0.531741 2.72154 0
M  V30 4654 H 439.657 0.749614 1.3988 0
M  V30 4655 H 439.678 -0.610144 3.75576 0
M  V30 4656 H 439.19 1.21328 3.68648 0
M  V30 4657 H 437.291 -1.24626 3.5114 0
M  V30 4658 H 437.404 0.138687 4.78899 0
M  V30 4659 H 435.768 -0.0230462 2.5469 0
M  V30 4660 H 436.551 1.56989 3.05302 0
M  V30 4661 N 438.996 -1.55193 0.274407 0
M  V30 4662 C 440.245 -1.98758 -0.343213 0
M  V30 4663 C 440.558 -1.16624 -1.5703 0
M  V30 4664 O 441.764 -1.5033 -2.26082 0
M  V30 4665 C 440.22 -3.53759 -0.661996 0
M  V30 4666 C 439.828 -4.4467 0.54524 0
M  V30 4667 C 441.572 -4.05916 -1.24228 0
M  V30 4668 C 439.479 -5.91058 0.201084 0
M  V30 4669 H 438.409 -0.742353 -0.132014 0
M  V30 4670 H 441.06 -1.79545 0.378948 0
M  V30 4671 H 439.442 -3.68772 -1.44304 0
M  V30 4672 H 440.616 -4.41426 1.32212 0
M  V30 4673 H 438.931 -4.03143 1.04232 0
M  V30 4674 H 441.528 -5.12831 -1.51357 0
M  V30 4675 H 441.871 -3.54908 -2.17592 0
M  V30 4676 H 442.404 -3.9434 -0.523542 0
M  V30 4677 H 439.143 -6.46161 1.10258 0
M  V30 4678 H 438.663 -5.97373 -0.539045 0
M  V30 4679 H 440.342 -6.46669 -0.206954 0
M  V30 4680 N 440.474 -0.00167713 -1.576 0
M  V30 4681 C 441.424 0.997744 -2.0501 0
M  V30 4682 C 442.408 1.30214 -0.94515 0
M  V30 4683 O 443.6 1.29284 -1.20891 0
M  V30 4684 C 440.729 2.2892 -2.55833 0
M  V30 4685 C 439.815 2.01437 -3.73208 0
M  V30 4686 N 440.206 1.44119 -4.84833 0
M  V30 4687 C 438.504 2.31571 -3.8117 0
M  V30 4688 C 439.205 1.33145 -5.66257 0
M  V30 4689 N 438.181 1.81763 -5.12312 0
M  V30 4690 H 441.983 0.549098 -2.88725 0
M  V30 4691 H 439.497 0.20398 -1.61114 0
M  V30 4692 H 441.494 3.01361 -2.88075 0
M  V30 4693 H 440.154 2.74436 -1.73537 0
M  V30 4694 H 441.165 1.11978 -5.0565 0
M  V30 4695 H 437.842 2.7995 -3.09732 0
M  V30 4696 H 439.232 0.890567 -6.65972 0
M  V30 4697 N 441.952 1.55251 0.271103 0
M  V30 4698 C 443.201 1.75151 1.00025 0
M  V30 4699 C 443.514 0.561041 1.87381 0
M  V30 4700 O 444.72 0.642506 2.63788 0
M  V30 4701 C 443.176 3.09999 1.82835 0
M  V30 4702 C 442.784 4.3662 1.00336 0
M  V30 4703 C 444.528 3.39249 2.55168 0
M  V30 4704 C 442.435 5.62506 1.82595 0
M  V30 4705 H 441.365 0.652877 0.377183 0
M  V30 4706 H 444.016 1.81708 0.255843 0
M  V30 4707 H 442.398 2.97485 2.61378 0
M  V30 4708 H 443.572 4.60055 0.261959 0
M  V30 4709 H 441.887 4.14527 0.394486 0
M  V30 4710 H 444.484 4.3051 3.1712 0
M  V30 4711 H 444.827 2.59467 3.2555 0
M  V30 4712 H 445.36 3.52869 1.83653 0
M  V30 4713 H 442.099 6.45041 1.16631 0
M  V30 4714 H 441.619 5.43211 2.54327 0
M  V30 4715 H 443.298 6.00875 2.39913 0
M  V30 4716 N 443.43 -0.535701 1.48216 0
M  V30 4717 C 444.66 -1.3148 1.59363 0
M  V30 4718 C 445.068 -1.8753 0.250844 0
M  V30 4719 O 444.411 -1.66821 -0.769174 0
M  V30 4720 C 444.473 -2.50731 2.57632 0
M  V30 4721 C 444.137 -2.15811 4.02833 0
M  V30 4722 C 445.134 -1.71822 4.90686 0
M  V30 4723 C 442.819 -2.26509 4.48329 0
M  V30 4724 C 444.813 -1.3899 6.22062 0
M  V30 4725 C 442.5 -1.93289 5.79726 0
M  V30 4726 C 443.498 -1.49599 6.66415 0
M  V30 4727 O 443.186 -1.16812 7.95368 0
M  V30 4728 H 442.918 -0.406315 0.540263 0
M  V30 4729 H 445.472 -0.653569 1.94725 0
M  V30 4730 H 443.702 -3.19817 2.1738 0
M  V30 4731 H 445.391 -3.12797 2.58675 0
M  V30 4732 H 446.157 -1.63031 4.56778 0
M  V30 4733 H 442.036 -2.59471 3.81045 0
M  V30 4734 H 445.58 -1.04816 6.89681 0
M  V30 4735 H 441.477 -2.01718 6.13172 0
M  V30 4736 H 442.245 -1.30259 8.08069 0
M  V30 4737 N 444.908 -1.36708 -0.784132 0
M  V30 4738 C 446.154 -1.31426 -1.54451 0
M  V30 4739 C 446.487 0.10476 -1.93917 0
M  V30 4740 O 445.762 1.05934 -1.6312 0
M  V30 4741 C 446.045 -2.24189 -2.818 0
M  V30 4742 C 445.898 -3.74813 -2.48667 0
M  V30 4743 C 447.217 -2.15626 -3.83658 0
M  V30 4744 H 444.336 -0.478739 -0.560337 0
M  V30 4745 H 446.978 -1.67305 -0.900498 0
M  V30 4746 H 445.128 -1.93722 -3.36755 0
M  V30 4747 H 446.8 -4.15823 -1.99722 0
M  V30 4748 H 445.043 -3.93989 -1.81535 0
M  V30 4749 H 445.714 -4.35138 -3.39646 0
M  V30 4750 H 448.19 -2.42456 -3.38163 0
M  V30 4751 H 447.066 -2.82694 -4.70506 0
M  V30 4752 H 447.327 -1.14522 -4.27009 0
M  V30 4753 N 446.386 1.0089 -1.21074 0
M  V30 4754 C 447.635 1.74019 -1.01981 0
M  V30 4755 C 447.948 1.90408 0.447665 0
M  V30 4756 O 449.154 2.60707 0.757906 0
M  V30 4757 C 447.61 3.13026 -1.77603 0
M  V30 4758 C 447.218 3.04623 -3.28495 0
M  V30 4759 C 448.962 3.90312 -1.66904 0
M  V30 4760 C 446.869 4.38685 -3.96623 0
M  V30 4761 H 445.799 0.652422 -0.377971 0
M  V30 4762 H 448.45 1.12755 -1.44771 0
M  V30 4763 H 446.832 3.74878 -1.27604 0
M  V30 4764 H 448.006 2.52032 -3.85767 0
M  V30 4765 H 446.321 2.40827 -3.39693 0
M  V30 4766 H 448.918 4.8951 -2.15138 0
M  V30 4767 H 449.261 4.11558 -0.62658 0
M  V30 4768 H 449.794 3.35104 -2.14359 0
M  V30 4769 H 446.533 4.22641 -5.01054 0
M  V30 4770 H 446.053 4.91252 -3.4414 0
M  V30 4771 H 447.732 5.075 -4.01314 0
M  V30 4772 N 447.864 1.01787 1.20321 0
M  V30 4773 C 449.113 0.703249 1.89043 0
M  V30 4774 C 449.426 -0.770445 1.79787 0
M  V30 4775 O 450.632 -1.19767 2.43656 0
M  V30 4776 C 449.088 1.20749 3.3904 0
M  V30 4777 C 448.696 2.70817 3.56878 0
M  V30 4778 C 450.44 0.968352 4.13308 0
M  V30 4779 C 448.347 3.14716 5.00708 0
M  V30 4780 H 447.277 0.259354 0.707991 0
M  V30 4781 H 449.928 1.23072 1.36108 0
M  V30 4782 H 448.31 0.607989 3.91305 0
M  V30 4783 H 449.484 3.36327 3.14993 0
M  V30 4784 H 447.799 2.92888 2.95983 0
M  V30 4785 H 450.396 1.27173 5.19356 0
M  V30 4786 H 450.739 -0.095149 4.16191 0
M  V30 4787 H 451.272 1.53129 3.67146 0
M  V30 4788 H 448.011 4.20347 5.02979 0
M  V30 4789 H 447.531 2.53927 5.43398 0
M  V30 4790 H 449.21 3.07426 5.69296 0
M  V30 4791 N 449.342 -1.36122 0.79427 0
M  V30 4792 C 450.289 -2.29982 0.194101 0
M  V30 4793 C 451.259 -1.52214 -0.664833 0
M  V30 4794 O 452.444 -1.80702 -0.612498 0
M  V30 4795 C 449.584 -3.38706 -0.661244 0
M  V30 4796 C 448.697 -4.31456 0.216766 0
M  V30 4797 C 447.832 -5.27265 -0.645411 0
M  V30 4798 C 446.871 -6.11653 0.233756 0
M  V30 4799 N 446.008 -6.99636 -0.587682 0
M  V30 4800 H 450.848 -2.80722 0.999965 0
M  V30 4801 H 448.385 -1.38172 0.504677 0
M  V30 4802 H 450.343 -4.00394 -1.17219 0
M  V30 4803 H 448.973 -2.89274 -1.43249 0
M  V30 4804 H 448.025 -3.7088 0.845724 0
M  V30 4805 H 449.337 -4.90724 0.893973 0
M  V30 4806 H 448.491 -5.94266 -1.22198 0
M  V30 4807 H 447.23 -4.68463 -1.35623 0
M  V30 4808 H 446.235 -5.4361 0.82269 0
M  V30 4809 H 447.46 -6.72531 0.942247 0
M  V30 4810 H 445.406 -6.43337 -1.2827 0
M  V30 4811 H 445.323 -7.55993 0.0317402 0
M  V30 4812 H 446.591 -7.71001 -1.14792 0
M  V30 4813 N 450.82 -0.546701 -1.47814 0
M  V30 4814 C 451.783 0.196287 -2.28358 0
M  V30 4815 C 452.783 0.852437 -1.36346 0
M  V30 4816 O 453.973 0.709913 -1.59078 0
M  V30 4817 C 451.105 1.28579 -3.15722 0
M  V30 4818 H 452.298 -0.511086 -2.95513 0
M  V30 4819 H 449.851 -0.303248 -1.5333 0
M  V30 4820 H 450.586 2.0259 -2.53235 0
M  V30 4821 H 450.371 0.820229 -3.83425 0
M  V30 4822 H 451.861 1.80793 -3.76435 0
M  V30 4823 N 452.299 1.55045 -0.282633 0
M  V30 4824 C 453.229 2.2579 0.595066 0
M  V30 4825 C 454.21 1.25074 1.15284 0
M  V30 4826 O 455.395 1.5381 1.18559 0
M  V30 4827 C 452.525 2.98472 1.77572 0
M  V30 4828 C 451.479 4.0618 1.34914 0
M  V30 4829 C 450.805 4.66477 2.6135 0
M  V30 4830 C 452.105 5.1996 0.493821 0
M  V30 4831 H 453.799 2.994 0.00505653 0
M  V30 4832 H 451.345 1.44 0.000992001 0
M  V30 4833 H 453.298 3.46677 2.39568 0
M  V30 4834 H 452.022 2.2241 2.39168 0
M  V30 4835 H 450.681 3.58797 0.752338 0
M  V30 4836 H 450.329 3.87074 3.2122 0
M  V30 4837 H 450.029 5.39207 2.33516 0
M  V30 4838 H 451.553 5.17435 3.24181 0
M  V30 4839 H 452.967 5.64172 1.01898 0
M  V30 4840 H 451.364 5.99299 0.310047 0
M  V30 4841 H 452.434 4.82462 -0.485593 0
M  V30 4842 N 453.777 0.010035 1.57597 0
M  V30 4843 C 455.023 -0.673697 1.91283 0
M  V30 4844 C 455.356 -1.72863 0.884979 0
M  V30 4845 O 454.631 -1.94268 -0.0949487 0
M  V30 4846 C 454.914 -1.30766 3.35518 0
M  V30 4847 C 454.767 -0.263578 4.49027 0
M  V30 4848 C 456.086 -2.23105 3.79358 0
M  V30 4849 H 453.205 -0.243439 0.695634 0
M  V30 4850 H 455.847 0.0633864 1.89894 0
M  V30 4851 H 453.997 -1.93588 3.36832 0
M  V30 4852 H 455.669 0.365738 4.59848 0
M  V30 4853 H 453.912 0.413077 4.31829 0
M  V30 4854 H 454.583 -0.746398 5.4693 0
M  V30 4855 H 457.059 -1.70289 3.79659 0
M  V30 4856 H 455.935 -2.64424 4.81011 0
M  V30 4857 H 456.196 -3.11433 3.13787 0
M  V30 4858 N 455.255 -1.55392 -0.262866 0
M  V30 4859 C 456.483 -1.80513 -1.01108 0
M  V30 4860 C 456.898 -0.583533 -1.79556 0
M  V30 4861 O 456.255 0.447585 -1.76926 0
M  V30 4862 C 456.306 -3.03648 -1.96164 0
M  V30 4863 O 456.027 -4.2109 -1.20893 0
M  V30 4864 C 457.528 -3.41448 -2.82715 0
M  V30 4865 H 454.748 -0.601079 -0.298236 0
M  V30 4866 H 457.292 -2.02425 -0.290582 0
M  V30 4867 H 455.447 -2.83832 -2.63663 0
M  V30 4868 H 455.861 -4.90771 -1.85051 0
M  V30 4869 H 457.335 -4.30751 -3.45192 0
M  V30 4870 H 457.812 -2.61308 -3.53008 0
M  V30 4871 H 458.418 -3.63559 -2.20693 0
M  V30 4872 N 456.733 0.527833 -1.48498 0
M  V30 4873 C 457.982 1.28003 -1.55878 0
M  V30 4874 C 458.295 1.9414 -0.238577 0
M  V30 4875 O 459.501 2.7083 -0.190643 0
M  V30 4876 C 457.957 2.32272 -2.74914 0
M  V30 4877 C 457.565 1.72196 -4.13585 0
M  V30 4878 C 459.309 3.08488 -2.91608 0
M  V30 4879 C 457.216 2.74417 -5.23879 0
M  V30 4880 H 456.146 0.481413 -0.580308 0
M  V30 4881 H 458.797 0.557195 -1.74836 0
M  V30 4882 H 457.179 3.07601 -2.49395 0
M  V30 4883 H 458.353 1.03041 -4.49132 0
M  V30 4884 H 456.668 1.08464 -4.02025 0
M  V30 4885 H 459.265 3.84879 -3.71177 0
M  V30 4886 H 459.608 3.64481 -2.01145 0
M  V30 4887 H 460.141 2.40274 -3.17038 0
M  V30 4888 H 456.88 2.23242 -6.16314 0
M  V30 4889 H 456.4 3.41893 -4.92818 0
M  V30 4890 H 458.079 3.37362 -5.52083 0
M  V30 4891 N 458.211 1.37122 0.776871 0
M  V30 4892 C 459.622 1.28667 1.35284 0
M  V30 4893 C 459.973 -0.0680035 1.96082 0
M  V30 4894 O 459.098 -0.969743 1.93455 0
M  V30 4895 C 459.693 2.32997 2.45963 0
M  V30 4896 C 458.252 2.28191 2.99342 0
M  V30 4897 C 457.399 2.17101 1.72517 0
M  V30 4898 H 460.35 1.47819 0.577527 0
M  V30 4899 H 460.371 1.97366 3.2531 0
M  V30 4900 H 459.883 3.3158 2.01684 0
M  V30 4901 H 457.984 1.33115 3.4801 0
M  V30 4902 H 458.097 3.21397 3.55304 0
M  V30 4903 H 456.461 1.63562 1.95242 0
M  V30 4904 H 457.244 3.17591 1.30348 0
M  V30 4905 N 459.689 -1.00246 1.21608 0
M  V30 4906 C 460.599 -2.12515 0.993709 0
M  V30 4907 C 461.615 -1.73913 -0.0549939 0
M  V30 4908 O 462.791 -2.00943 0.135619 0
M  V30 4909 C 459.856 -3.42083 0.563953 0
M  V30 4910 C 458.917 -3.94843 1.68516 0
M  V30 4911 C 458.15 -5.18226 1.27582 0
M  V30 4912 O 458.373 -5.70201 0.150506 0
M  V30 4913 O 457.307 -5.64497 2.0887 0
M  V30 4914 H 461.133 -2.34152 1.93407 0
M  V30 4915 H 458.718 -1.10891 1.00118 0
M  V30 4916 H 460.6 -4.20073 0.334194 0
M  V30 4917 H 459.275 -3.21828 -0.347665 0
M  V30 4918 H 458.182 -3.18068 1.96935 0
M  V30 4919 H 459.515 -4.19512 2.5743 0
M  V30 4920 N 461.167 -1.02423 -1.1978 0
M  V30 4921 C 462.395 -0.737456 -1.93311 0
M  V30 4922 C 462.81 0.703023 -1.75223 0
M  V30 4923 O 462.167 1.47761 -1.07112 0
M  V30 4924 C 462.218 -1.0733 -3.45199 0
M  V30 4925 O 461.939 -2.4572 -3.62702 0
M  V30 4926 C 463.44 -0.80866 -4.35862 0
M  V30 4927 H 460.66 -0.2702 -0.614193 0
M  V30 4928 H 463.204 -1.36747 -1.52054 0
M  V30 4929 H 461.359 -0.488545 -3.84307 0
M  V30 4930 H 461.773 -2.58081 -4.56612 0
M  V30 4931 H 463.247 -1.09365 -5.41057 0
M  V30 4932 H 463.724 0.257025 -4.38447 0
M  V30 4933 H 464.33 -1.37592 -4.02428 0
M  V30 4934 N 462.645 1.35699 -0.801477 0
M  V30 4935 C 463.873 2.03157 -0.391768 0
M  V30 4936 C 464.288 1.60412 0.995668 0
M  V30 4937 O 463.645 0.799228 1.64069 0
M  V30 4938 C 463.696 3.58566 -0.459671 0
M  V30 4939 O 463.417 3.99756 -1.7924 0
M  V30 4940 C 464.918 4.4328 -0.0421205 0
M  V30 4941 H 462.138 0.651688 -0.159825 0
M  V30 4942 H 464.682 1.73426 -1.08368 0
M  V30 4943 H 462.837 3.86963 0.183939 0
M  V30 4944 H 463.251 4.94387 -1.75162 0
M  V30 4945 H 464.725 5.51821 -0.140754 0
M  V30 4946 H 465.202 4.27383 1.01196 0
M  V30 4947 H 465.808 4.20168 -0.658687 0
M  V30 4948 N 464.123 0.554532 1.47522 0
M  V30 4949 C 465.37 0.029479 2.02479 0
M  V30 4950 C 465.698 -1.31929 1.42916 0
M  V30 4951 O 464.953 -1.87112 0.573385 0
M  V30 4952 C 465.252 -0.115927 3.57212 0
M  V30 4953 C 464.918 1.16161 4.3568 0
M  V30 4954 C 463.58 1.51168 4.56839 0
M  V30 4955 C 465.932 2.0083 4.80954 0
M  V30 4956 C 463.26 2.70696 5.2052 0
M  V30 4957 C 465.612 3.19559 5.45953 0
M  V30 4958 C 464.276 3.54882 5.65345 0
M  V30 4959 H 463.546 0.0107871 0.740921 0
M  V30 4960 H 466.193 0.725506 1.77225 0
M  V30 4961 H 464.498 -0.894902 3.81443 0
M  V30 4962 H 466.195 -0.53749 3.97381 0
M  V30 4963 H 462.785 0.879026 4.19489 0
M  V30 4964 H 466.969 1.75093 4.64388 0
M  V30 4965 H 462.225 2.98236 5.33728 0
M  V30 4966 H 466.399 3.85456 5.79997 0
M  V30 4967 H 464.026 4.47596 6.1446 0
M  V30 4968 N 465.601 -1.54893 0.290851 0
M  V30 4969 C 466.533 -2.20564 -0.623236 0
M  V30 4970 C 467.546 -1.19519 -1.1054 0
M  V30 4971 O 468.735 -1.46165 -1.02459 0
M  V30 4972 C 465.835 -2.83033 -1.86401 0
M  V30 4973 C 465.008 -4.09916 -1.52604 0
M  V30 4974 C 464.067 -4.56284 -2.62091 0
M  V30 4975 O 463.093 -5.2171 -2.27612 0
M  V30 4976 N 464.295 -4.27746 -3.92446 0
M  V30 4977 H 467.06 -2.99638 -0.0610915 0
M  V30 4978 H 464.621 -1.61508 0.112615 0
M  V30 4979 H 466.613 -3.1099 -2.58973 0
M  V30 4980 H 465.183 -2.0786 -2.33481 0
M  V30 4981 H 464.403 -3.89078 -0.633424 0
M  V30 4982 H 465.691 -4.92554 -1.27547 0
M  V30 4983 H 465.089 -3.7531 -4.23272 0
M  V30 4984 H 463.646 -4.60437 -4.61347 0
M  V30 4985 N 467.08 -0.0183926 -1.57589 0
M  V30 4986 C 468.308 0.673046 -1.95647 0
M  V30 4987 C 468.723 1.66275 -0.894312 0
M  V30 4988 O 468.08 1.82072 0.124975 0
M  V30 4989 C 468.131 1.38884 -3.33756 0
M  V30 4990 O 467.852 0.438806 -4.35897 0
M  V30 4991 C 469.353 2.1731 -3.86383 0
M  V30 4992 H 466.573 0.186292 -0.644621 0
M  V30 4993 H 469.117 -0.0749748 -2.04363 0
M  V30 4994 H 467.272 2.08835 -3.26293 0
M  V30 4995 H 467.686 0.945869 -5.15901 0
M  V30 4996 H 469.16 2.62863 -4.85394 0
M  V30 4997 H 469.637 3.00764 -3.20059 0
M  V30 4998 H 470.243 1.52339 -3.97081 0
M  V30 4999 N 468.558 1.5553 0.254621 0
M  V30 5000 C 469.804 1.77262 0.985193 0
M  V30 5001 C 470.137 0.582286 1.85265 0
M  V30 5002 O 469.412 -0.419666 1.89919 0
M  V30 5003 C 469.695 3.0881 1.85225 0
M  V30 5004 C 469.548 4.38233 1.0135 0
M  V30 5005 C 470.867 3.3653 2.83612 0
M  V30 5006 H 467.986 0.644906 0.356742 0
M  V30 5007 H 470.628 1.88264 0.256236 0
M  V30 5008 H 468.778 2.99562 2.47376 0
M  V30 5009 H 470.45 4.59463 0.411269 0
M  V30 5010 H 468.693 4.32636 0.317574 0
M  V30 5011 H 469.364 5.26644 1.65379 0
M  V30 5012 H 471.84 3.45691 2.31596 0
M  V30 5013 H 470.716 4.29805 3.41407 0
M  V30 5014 H 470.977 2.57064 3.59681 0
M  V30 5015 N 470.036 -0.519951 1.48776 0
M  V30 5016 C 471.261 -1.30447 1.6124 0
M  V30 5017 C 471.686 -1.86055 0.276591 0
M  V30 5018 O 471.044 -1.64915 -0.753183 0
M  V30 5019 C 471.092 -2.42406 2.66967 0
M  V30 5020 O 470.196 -3.45728 2.24824 0
M  V30 5021 H 469.537 -0.385924 0.540332 0
M  V30 5022 H 472.067 -0.624572 1.94834 0
M  V30 5023 H 472.077 -2.88447 2.88552 0
M  V30 5024 H 470.752 -2.01294 3.63941 0
M  V30 5025 H 469.329 -3.05737 2.13494 0
M  V30 5026 N 471.514 -1.37532 -0.769588 0
M  V30 5027 C 472.76 -1.34063 -1.52966 0
M  V30 5028 C 473.115 0.0737942 -1.92258 0
M  V30 5029 O 472.408 1.03291 -1.61374 0
M  V30 5030 C 472.602 -2.21558 -2.8044 0
M  V30 5031 C 472.431 -3.71367 -2.53608 0
M  V30 5032 C 471.201 -4.40464 -2.47628 0
M  V30 5033 C 473.399 -4.64177 -2.21459 0
M  V30 5034 N 471.381 -5.758 -2.12902 0
M  V30 5035 C 472.752 -5.87907 -1.9689 0
M  V30 5036 C 474.807 -4.52541 -2.07633 0
M  V30 5037 C 473.51 -7.01304 -1.59892 0
M  V30 5038 C 475.536 -5.65825 -1.72034 0
M  V30 5039 C 474.898 -6.88606 -1.48327 0
M  V30 5040 H 470.997 -0.545856 -0.559969 0
M  V30 5041 H 473.581 -1.72773 -0.897634 0
M  V30 5042 H 471.752 -1.85061 -3.41478 0
M  V30 5043 H 473.484 -2.09332 -3.46356 0
M  V30 5044 H 470.239 -3.93491 -2.63556 0
M  V30 5045 H 470.663 -6.47328 -1.9823 0
M  V30 5046 H 475.305 -3.58183 -2.24643 0
M  V30 5047 H 473.023 -7.95594 -1.4162 0
M  V30 5048 H 476.609 -5.58793 -1.61991 0
M  V30 5049 H 475.489 -7.74779 -1.21189 0
M  V30 5050 N 472.992 0.995999 -1.22138 0
M  V30 5051 C 473.942 2.06988 -0.956042 0
M  V30 5052 C 474.926 1.60636 0.0921576 0
M  V30 5053 O 476.118 1.76607 -0.117958 0
M  V30 5054 C 473.247 3.39148 -0.532335 0
M  V30 5055 C 472.333 3.92142 -1.61509 0
M  V30 5056 N 472.724 4.18397 -2.84214 0
M  V30 5057 C 471.022 4.20514 -1.48606 0
M  V30 5058 C 471.723 4.61425 -3.54206 0
M  V30 5059 N 470.699 4.64934 -2.81669 0
M  V30 5060 H 474.501 2.25223 -1.88816 0
M  V30 5061 H 472.015 1.17748 -1.11845 0
M  V30 5062 H 474.012 4.15642 -0.323574 0
M  V30 5063 H 472.672 3.22314 0.392921 0
M  V30 5064 H 473.683 4.06682 -3.20671 0
M  V30 5065 H 470.36 4.12769 -0.626762 0
M  V30 5066 H 471.75 4.90387 -4.59315 0
M  V30 5067 N 474.47 1.03057 1.19235 0
M  V30 5068 C 475.717 0.728019 1.88961 0
M  V30 5069 C 476.045 -0.743515 1.79728 0
M  V30 5070 O 475.3 -1.55729 1.1852 0
M  V30 5071 C 475.599 1.1268 3.39172 0
M  V30 5072 C 475.265 2.5969 3.68608 0
M  V30 5073 C 473.927 2.99854 3.76352 0
M  V30 5074 C 476.279 3.54793 3.81801 0
M  V30 5075 C 473.607 4.34031 3.94758 0
M  V30 5076 C 475.959 4.88675 4.0172 0
M  V30 5077 C 474.623 5.28526 4.07697 0
M  V30 5078 H 473.893 0.266401 0.691456 0
M  V30 5079 H 476.54 1.29373 1.41191 0
M  V30 5080 H 474.845 0.479722 3.88852 0
M  V30 5081 H 476.542 0.870203 3.91444 0
M  V30 5082 H 473.132 2.27575 3.63191 0
M  V30 5083 H 477.316 3.24914 3.7516 0
M  V30 5084 H 472.572 4.6444 3.97625 0
M  V30 5085 H 476.746 5.6228 4.1087 0
M  V30 5086 H 474.373 6.32506 4.21712 0
M  V30 5087 N 475.948 -1.35272 0.808662 0
M  V30 5088 C 477.188 -2.00534 0.395668 0
M  V30 5089 C 477.552 -1.62755 -1.01857 0
M  V30 5090 O 478.753 -2.20752 -1.53368 0
M  V30 5091 C 477.024 -3.52732 0.575771 0
M  V30 5092 S 478.583 -4.38067 0.253507 0
M  V30 5093 H 475.401 -0.694962 0.150165 0
M  V30 5094 H 478.003 -1.64823 1.05137 0
M  V30 5095 H 476.707 -3.77714 1.60499 0
M  V30 5096 H 476.238 -3.93285 -0.0951739 0
M  V30 5097 H 478.253 -4.87252 -0.938068 0
M  V30 5098 N 477.426 -0.562348 -1.47226 0
M  V30 5099 C 478.675 -0.038041 -2.01664 0
M  V30 5100 C 478.988 1.32199 -1.44162 0
M  V30 5101 O 480.194 1.9365 -1.90294 0
M  V30 5102 C 478.65 -0.0174958 -3.59896 0
M  V30 5103 C 478.258 -1.3746 -4.2639 0
M  V30 5104 C 480.002 0.453934 -4.22066 0
M  V30 5105 C 477.909 -1.31289 -5.76643 0
M  V30 5106 H 476.839 -0.0104511 -0.753928 0
M  V30 5107 H 479.49 -0.710966 -1.69167 0
M  V30 5108 H 477.872 0.721182 -3.89378 0
M  V30 5109 H 479.046 -2.1314 -4.08544 0
M  V30 5110 H 477.361 -1.78438 -3.7623 0
M  V30 5111 H 479.958 0.518584 -5.32179 0
M  V30 5112 H 480.301 1.46706 -3.89594 0
M  V30 5113 H 480.834 -0.230044 -3.97134 0
M  V30 5114 H 477.573 -2.30217 -6.13743 0
M  V30 5115 H 477.093 -0.597973 -5.96812 0
M  V30 5116 H 478.772 -1.01713 -6.38955 0
M  V30 5117 N 478.904 1.54736 -0.299062 0
M  V30 5118 C 479.867 2.22127 0.565012 0
M  V30 5119 C 480.867 1.20669 1.06281 0
M  V30 5120 O 482.057 1.45417 0.959145 0
M  V30 5121 C 479.189 2.90611 1.78208 0
M  V30 5122 H 480.382 2.99891 -0.0237448 0
M  V30 5123 H 477.935 1.5622 -0.0498788 0
M  V30 5124 H 478.67 2.16921 2.41072 0
M  V30 5125 H 478.455 3.64984 1.43281 0
M  V30 5126 H 479.945 3.42026 2.396 0
M  V30 5127 N 480.382 0.0267497 1.57577 0
M  V30 5128 C 481.312 -0.954308 2.13108 0
M  V30 5129 C 482.293 -1.34088 1.04663 0
M  V30 5130 O 483.478 -1.41992 1.32484 0
M  V30 5131 C 480.608 -2.23744 2.65624 0
M  V30 5132 C 479.562 -1.99168 3.78835 0
M  V30 5133 C 478.888 -3.33726 4.17769 0
M  V30 5134 C 480.188 -1.33277 5.0501 0
M  V30 5135 H 481.882 -0.491848 2.95332 0
M  V30 5136 H 479.428 -0.23514 1.42067 0
M  V30 5137 H 481.381 -2.92754 3.03106 0
M  V30 5138 H 480.105 -2.72151 1.80558 0
M  V30 5139 H 478.764 -1.32577 3.41788 0
M  V30 5140 H 478.412 -3.79888 3.29688 0
M  V30 5141 H 478.112 -3.18089 4.94058 0
M  V30 5142 H 479.636 -4.04008 4.57832 0
M  V30 5143 H 481.05 -1.92283 5.40093 0
M  V30 5144 H 479.447 -1.28045 5.8628 0
M  V30 5145 H 480.517 -0.305411 4.83937 0
M  V30 5146 N 481.861 -1.55662 -0.24637 0
M  V30 5147 C 483.109 -1.77168 -0.972411 0
M  V30 5148 C 483.43 -0.590827 -1.85834 0
M  V30 5149 O 482.7 0.393365 -1.9191 0
M  V30 5150 H 481.28 -0.653405 -0.362038 0
M  V30 5151 H 483.942 -1.93101 -0.264189 0
M  V30 5152 H 483.038 -2.68335 -1.59382 0
M  V30 5153 N 483.339 0.512053 -1.4905 0
M  V30 5154 C 484.569 1.28928 -1.61434 0
M  V30 5155 C 484.977 1.87107 -0.280647 0
M  V30 5156 O 484.32 1.68024 0.742537 0
M  V30 5157 C 484.382 2.466 -2.61588 0
M  V30 5158 C 484.046 2.09375 -4.06216 0
M  V30 5159 C 485.043 1.63994 -4.93358 0
M  V30 5160 C 482.728 2.19348 -4.51876 0
M  V30 5161 C 484.722 1.29076 -6.24194 0
M  V30 5162 C 482.409 1.84041 -5.82728 0
M  V30 5163 C 483.407 1.38978 -6.68711 0
M  V30 5164 O 483.095 1.04144 -7.97126 0
M  V30 5165 H 482.827 0.397668 -0.546659 0
M  V30 5166 H 485.381 0.622507 -1.9574 0
M  V30 5167 H 483.611 3.16318 -2.22441 0
M  V30 5168 H 485.3 3.08642 -2.63619 0
M  V30 5169 H 486.066 1.55744 -4.59313 0
M  V30 5170 H 481.945 2.53376 -3.85125 0
M  V30 5171 H 485.489 0.938303 -6.91261 0
M  V30 5172 H 481.386 1.91938 -6.16304 0
M  V30 5173 H 482.154 1.17387 -8.10039 0
M  V30 5174 N 484.817 1.37938 0.762283 0
M  V30 5175 C 486.045 1.36883 1.55147 0
M  V30 5176 C 486.46 -0.0435348 1.8875 0
M  V30 5177 O 485.817 -1.00786 1.52146 0
M  V30 5178 C 485.868 2.21624 2.85596 0
M  V30 5179 O 485.589 3.57358 2.5343 0
M  V30 5180 C 487.09 2.28653 3.7978 0
M  V30 5181 H 484.31 0.468521 0.480343 0
M  V30 5182 H 486.854 1.81404 0.944079 0
M  V30 5183 H 485.009 1.80588 3.42734 0
M  V30 5184 H 485.423 4.01883 3.37032 0
M  V30 5185 H 486.897 2.9225 4.68288 0
M  V30 5186 H 487.374 1.29767 4.19592 0
M  V30 5187 H 487.98 2.70043 3.28568 0
M  V30 5188 N 486.295 -0.989507 1.22664 0
M  V30 5189 C 487.243 -2.10148 0.997035 0
M  V30 5190 C 488.237 -1.6929 -0.0609783 0
M  V30 5191 O 489.443 -1.79766 0.0917523 0
M  V30 5192 H 485.818 -0.687256 0.305259 0
M  V30 5193 H 487.789 -2.26685 1.94053 0
M  V30 5194 C 486.538 -3.4257 0.595085 0
M  V30 5195 H 485.861 -3.74453 1.40089 0
M  V30 5196 H 487.301 -4.21344 0.473869 0
M  V30 5197 C 485.76 -3.29638 -0.695725 0
M  V30 5198 O 486.29 -3.61709 -1.74727 0
M  V30 5199 N 484.496 -2.82814 -0.668173 0
M  V30 5200 H 484.043 -2.56914 0.18787 0
M  V30 5201 H 484.001 -2.74544 -1.5321 0
M  V30 5202 N 487.773 -1.03688 -1.18687 0
M  V30 5203 C 488.998 -0.757819 -1.93059 0
M  V30 5204 C 489.423 0.678353 -1.75442 0
M  V30 5205 O 488.781 1.46938 -1.06203 0
M  V30 5206 C 488.829 -1.12423 -3.42627 0
M  V30 5207 O 487.933 -0.247505 -4.11657 0
M  V30 5208 H 487.274 -0.279245 -0.602427 0
M  V30 5209 H 489.804 -1.3857 -1.5053 0
M  V30 5210 H 489.814 -1.08454 -3.93322 0
M  V30 5211 H 488.489 -2.17049 -3.54771 0
M  V30 5212 H 487.066 -0.34649 -3.71287 0
M  V30 5213 N 489.251 1.34841 -0.815825 0
M  V30 5214 C 490.491 2.00321 -0.406297 0
M  V30 5215 C 490.855 1.63293 1.00992 0
M  V30 5216 O 492.056 2.21563 1.52195 0
M  V30 5217 C 490.327 3.52421 -0.594469 0
M  V30 5218 S 491.886 4.37926 -0.276735 0
M  V30 5219 H 488.704 0.694155 -0.153848 0
M  V30 5220 H 491.306 1.64263 -1.06009 0
M  V30 5221 H 490.01 3.76858 -1.625 0
M  V30 5222 H 489.541 3.9333 0.0743157 0
M  V30 5223 H 491.556 4.87743 0.912215 0
M  V30 5224 N 490.729 0.570148 1.46925 0
M  V30 5225 C 491.659 -0.158274 2.32963 0
M  V30 5226 C 492.64 -0.896093 1.44583 0
M  V30 5227 O 493.825 -0.874022 1.7342 0
M  V30 5228 C 490.955 -1.18055 3.26619 0
M  V30 5229 C 489.909 -0.558379 4.24342 0
M  V30 5230 C 489.235 -1.68623 5.07415 0
M  V30 5231 C 490.535 0.496295 5.19937 0
M  V30 5232 H 492.229 0.560046 2.94115 0
M  V30 5233 H 489.775 0.270775 1.41431 0
M  V30 5234 H 491.728 -1.69841 3.85658 0
M  V30 5235 H 490.452 -1.92899 2.63548 0
M  V30 5236 H 489.111 -0.0617157 3.66548 0
M  V30 5237 H 488.759 -2.42402 4.40738 0
M  V30 5238 H 488.459 -1.27564 5.73586 0
M  V30 5239 H 489.983 -2.20709 5.69315 0
M  V30 5240 H 491.397 0.0640052 5.73264 0
M  V30 5241 H 489.794 0.82649 5.94381 0
M  V30 5242 H 490.864 1.38735 4.6463 0
M  V30 5243 N 492.207 -1.54576 0.307264 0
M  V30 5244 C 493.155 -2.25208 -0.581723 0
M  V30 5245 C 494.149 -1.26031 -1.13192 0
M  V30 5246 O 495.355 -1.43862 -1.08184 0
M  V30 5247 H 491.73 -0.723173 -0.206214 0
M  V30 5248 H 493.701 -2.98378 0.0364663 0
M  V30 5249 C 492.45 -3.01086 -1.73904 0
M  V30 5250 H 491.773 -3.77208 -1.32491 0
M  V30 5251 H 493.213 -3.5378 -2.33701 0
M  V30 5252 C 491.672 -2.08422 -2.64692 0
M  V30 5253 O 492.202 -1.65636 -3.65961 0
M  V30 5254 N 490.408 -1.74247 -2.32564 0
M  V30 5255 H 489.955 -2.09238 -1.50257 0
M  V30 5256 H 489.913 -1.12524 -2.93574 0
M  V30 5257 N 493.685 -0.035106 -1.57561 0
M  V30 5258 C 495.096 0.502885 -1.798 0
M  V30 5259 C 495.447 1.71892 -0.945921 0
M  V30 5260 O 494.572 2.15822 -0.157991 0
M  V30 5261 C 495.167 0.919097 -3.26095 0
M  V30 5262 C 493.726 1.40216 -3.49308 0
M  V30 5263 C 492.873 0.369709 -2.74824 0
M  V30 5264 H 495.824 -0.261102 -1.56537 0
M  V30 5265 H 495.845 1.78308 -3.36135 0
M  V30 5266 H 495.357 0.0338526 -3.88085 0
M  V30 5267 H 493.458 2.30714 -2.92578 0
M  V30 5268 H 493.571 1.40541 -4.58023 0
M  V30 5269 H 491.935 0.839113 -2.40481 0
M  V30 5270 H 492.718 -0.507173 -3.39533 0
M  V30 5271 N 495.163 1.55791 0.238111 0
M  V30 5272 C 496.409 1.78297 0.966337 0
M  V30 5273 C 496.742 0.601903 1.84637 0
M  V30 5274 O 496.017 -0.399499 1.90353 0
M  V30 5275 C 496.3 3.10758 1.81939 0
M  V30 5276 C 496.153 4.39283 0.966958 0
M  V30 5277 C 497.472 3.39519 2.80027 0
M  V30 5278 H 494.591 0.648654 0.349882 0
M  V30 5279 H 497.233 1.88525 0.236253 0
M  V30 5280 H 495.383 3.02168 2.44185 0
M  V30 5281 H 497.055 4.59873 0.362514 0
M  V30 5282 H 495.298 4.32948 0.271669 0
M  V30 5283 H 495.969 5.28368 1.59784 0
M  V30 5284 H 498.445 3.48128 2.27917 0
M  V30 5285 H 497.321 4.33402 3.36829 0
M  V30 5286 H 497.582 2.60864 3.56934 0
M  V30 5287 N 496.642 -0.504142 1.49319 0
M  V30 5288 C 497.572 -1.61473 1.68667 0
M  V30 5289 C 498.553 -1.61455 0.535378 0
M  V30 5290 O 499.738 -1.78245 0.770868 0
M  V30 5291 C 496.868 -2.99971 1.75028 0
M  V30 5292 C 495.822 -3.14854 2.89916 0
M  V30 5293 C 495.148 -4.54671 2.81387 0
M  V30 5294 C 496.448 -2.95176 4.30893 0
M  V30 5295 H 498.142 -1.45535 2.61648 0
M  V30 5296 H 495.688 -0.698711 1.25913 0
M  V30 5297 H 497.641 -3.77562 1.8715 0
M  V30 5298 H 496.365 -3.1699 0.786441 0
M  V30 5299 H 495.024 -2.39687 2.77391 0
M  V30 5300 H 494.672 -4.68562 1.82917 0
M  V30 5301 H 494.372 -4.6557 3.58494 0
M  V30 5302 H 495.896 -5.34327 2.95512 0
M  V30 5303 H 497.31 -3.62538 4.44116 0
M  V30 5304 H 495.707 -3.17549 5.09198 0
M  V30 5305 H 496.777 -1.91332 4.45556 0
M  V30 5306 N 498.12 -1.38341 -0.754957 0
M  V30 5307 C 499.35 -1.37504 -1.54195 0
M  V30 5308 C 499.758 0.0373787 -1.89163 0
M  V30 5309 O 499.101 1.01402 -1.53178 0
M  V30 5310 C 499.163 -2.16488 -2.87008 0
M  V30 5311 C 498.827 -3.65311 -2.74585 0
M  V30 5312 C 499.824 -4.58834 -2.44474 0
M  V30 5313 C 497.509 -4.08649 -2.9208 0
M  V30 5314 C 499.503 -5.93675 -2.32011 0
M  V30 5315 C 497.19 -5.43571 -2.79237 0
M  V30 5316 C 498.188 -6.35898 -2.49245 0
M  V30 5317 O 497.876 -7.68338 -2.36458 0
M  V30 5318 H 497.608 -0.472159 -0.483779 0
M  V30 5319 H 500.162 -1.82515 -0.94221 0
M  V30 5320 H 498.392 -1.66194 -3.49166 0
M  V30 5321 H 500.081 -2.08076 -3.4851 0
M  V30 5322 H 500.847 -4.26657 -2.30627 0
M  V30 5323 H 496.726 -3.37134 -3.14422 0
M  V30 5324 H 500.27 -6.65706 -2.08522 0
M  V30 5325 H 496.167 -5.75345 -2.92657 0
M  V30 5326 H 496.935 -7.78845 -2.5168 0
M  V30 5327 N 499.598 0.982988 -1.23187 0
M  V30 5328 C 500.561 2.05649 -1.01198 0
M  V30 5329 C 501.561 1.6078 0.0252464 0
M  V30 5330 O 502.751 1.72878 -0.214243 0
M  V30 5331 C 499.883 3.36744 -0.530656 0
M  V30 5332 H 501.076 2.2659 -1.96461 0
M  V30 5333 H 498.629 1.15602 -1.05195 0
M  V30 5334 H 499.364 3.21492 0.425873 0
M  V30 5335 H 499.149 3.7065 -1.2791 0
M  V30 5336 H 500.639 4.15705 -0.397366 0
M  V30 5337 N 501.076 1.04316 1.18135 0
M  V30 5338 C 502.323 0.74802 1.88178 0
M  V30 5339 C 502.651 -0.72441 1.80506 0
M  V30 5340 O 501.906 -1.54463 1.20165 0
M  V30 5341 C 502.205 1.16271 3.37958 0
M  V30 5342 C 501.871 2.63585 3.65833 0
M  V30 5343 C 500.533 3.03829 3.73151 0
M  V30 5344 C 502.885 3.58822 3.78016 0
M  V30 5345 C 500.213 4.38194 3.90132 0
M  V30 5346 C 502.565 4.92909 3.96514 0
M  V30 5347 C 501.229 5.3282 4.02068 0
M  V30 5348 H 500.499 0.27372 0.688592 0
M  V30 5349 H 503.146 1.30863 1.39811 0
M  V30 5350 H 501.451 0.520938 3.88321 0
M  V30 5351 H 503.148 0.911672 3.90499 0
M  V30 5352 H 499.738 2.31414 3.60757 0
M  V30 5353 H 503.922 3.28875 3.71692 0
M  V30 5354 H 499.178 4.68631 3.92677 0
M  V30 5355 H 503.352 5.66606 4.04883 0
M  V30 5356 H 500.979 6.36943 4.14979 0
M  V30 5357 N 502.554 -1.34406 0.822964 0
M  V30 5358 C 503.484 -2.32052 0.259608 0
M  V30 5359 C 504.465 -1.58243 -0.623961 0
M  V30 5360 O 505.65 -1.86224 -0.55083 0
M  V30 5361 C 502.78 -3.42434 -0.579314 0
M  V30 5362 C 501.734 -4.27499 0.20712 0
M  V30 5363 C 501.06 -5.29349 -0.754547 0
M  V30 5364 C 502.36 -5.02758 1.41533 0
M  V30 5365 H 504.054 -2.79418 1.07545 0
M  V30 5366 H 501.6 -1.34338 0.518593 0
M  V30 5367 H 503.553 -4.0976 -0.983612 0
M  V30 5368 H 502.277 -2.93717 -1.4282 0
M  V30 5369 H 500.936 -3.61776 0.592787 0
M  V30 5370 H 500.584 -4.76895 -1.59939 0
M  V30 5371 H 500.284 -5.8714 -0.232561 0
M  V30 5372 H 501.808 -5.99544 -1.1567 0
M  V30 5373 H 503.222 -5.62938 1.08504 0
M  V30 5374 H 501.619 -5.70123 1.87296 0
M  V30 5375 H 502.689 -4.32451 2.1935 0
M  V30 5376 N 504.032 -0.577932 -1.46621 0
M  V30 5377 C 505.309 0.00495287 -1.95599 0
M  V30 5378 C 505.689 1.46428 -1.5206 0
M  V30 5379 O 505.037 2.1517 -0.769046 0
M  V30 5380 C 505.247 -0.162114 -3.48623 0
M  V30 5381 C 506.595 -0.0274623 -4.24591 0
M  V30 5382 O 507.619 -0.0907067 -3.56084 0
M  V30 5383 O 506.478 0.1122 -5.46385 0
M  V30 5384 H 503.572 0.0525057 -0.825332 0
M  V30 5385 H 506.118 -0.645914 -1.56927 0
M  V30 5386 H 504.89 -1.17679 -3.73185 0
M  V30 5387 H 504.513 0.525407 -3.94113 0
M  V30 5388 N 505.51 1.54411 -0.315457 0
M  V30 5389 C 506.42 2.27737 0.56329 0
M  V30 5390 C 507.436 1.31787 1.13614 0
M  V30 5391 O 508.612 1.64791 1.15784 0
M  V30 5392 C 505.677 3.01478 1.71207 0
M  V30 5393 C 504.738 4.12997 1.17185 0
M  V30 5394 C 503.971 4.83212 2.26588 0
M  V30 5395 O 504.194 4.52884 3.46775 0
M  V30 5396 O 503.128 5.70299 1.92463 0
M  V30 5397 H 506.954 3.03683 -0.0319614 0
M  V30 5398 H 504.539 1.49178 -0.0814188 0
M  V30 5399 H 506.421 3.47683 2.38106 0
M  V30 5400 H 505.096 2.28414 2.29366 0
M  V30 5401 H 504.003 3.71159 0.468174 0
M  V30 5402 H 505.336 4.8808 0.635501 0
M  V30 5403 N 506.988 0.0434614 1.5754 0
M  V30 5404 C 507.936 -0.951465 2.1225 0
M  V30 5405 C 508.93 -1.3274 1.05245 0
M  V30 5406 O 510.136 -1.30795 1.23663 0
M  V30 5407 H 506.511 -0.324667 0.678303 0
M  V30 5408 H 508.482 -0.464855 2.94757 0
M  V30 5409 C 507.231 -2.21972 2.67626 0
M  V30 5410 H 506.554 -1.93923 3.4962 0
M  V30 5411 H 507.994 -2.89765 3.09536 0
M  V30 5412 C 506.453 -2.95919 1.61038 0
M  V30 5413 O 506.983 -3.8857 1.01862 0
M  V30 5414 N 505.189 -2.58511 1.32741 0
M  V30 5415 H 504.736 -1.83244 1.81051 0
M  V30 5416 H 504.694 -3.08296 0.616531 0
M  V30 5417 N 508.466 -1.55915 -0.229846 0
M  V30 5418 C 509.713 -1.78542 -0.955452 0
M  V30 5419 C 510.041 -0.610785 -1.84661 0
M  V30 5420 O 509.296 0.405213 -1.91459 0
M  V30 5421 C 509.595 -3.06845 -1.8325 0
M  V30 5422 C 509.261 -4.37395 -1.09528 0
M  V30 5423 C 507.923 -4.72868 -0.891598 0
M  V30 5424 C 510.275 -5.18029 -0.574046 0
M  V30 5425 C 507.603 -5.86496 -0.154655 0
M  V30 5426 C 509.955 -6.32423 0.149513 0
M  V30 5427 C 508.619 -6.66504 0.364519 0
M  V30 5428 H 507.889 -0.653333 -0.349625 0
M  V30 5429 H 510.536 -1.90183 -0.224235 0
M  V30 5430 H 508.841 -2.90291 -2.63132 0
M  V30 5431 H 510.538 -3.21553 -2.39592 0
M  V30 5432 H 507.128 -4.09538 -1.26399 0
M  V30 5433 H 511.312 -4.91066 -0.718899 0
M  V30 5434 H 506.568 -6.11396 0.0222356 0
M  V30 5435 H 510.742 -6.94137 0.560947 0
M  V30 5436 H 508.369 -7.54397 0.937495 0
M  V30 5437 N 509.944 0.496216 -1.49584 0
M  V30 5438 C 510.891 1.59722 -1.66606 0
M  V30 5439 C 511.861 1.58158 -0.507477 0
M  V30 5440 O 513.046 1.76072 -0.735076 0
M  V30 5441 C 510.186 2.97844 -1.74308 0
M  V30 5442 C 509.299 3.09388 -3.01502 0
M  V30 5443 C 508.434 4.38271 -3.00153 0
M  V30 5444 C 507.473 4.43466 -4.21906 0
M  V30 5445 N 506.61 5.63784 -4.1844 0
M  V30 5446 H 511.45 1.44515 -2.60613 0
M  V30 5447 H 508.987 0.703048 -1.29212 0
M  V30 5448 H 510.945 3.77907 -1.76754 0
M  V30 5449 H 509.575 3.11743 -0.837619 0
M  V30 5450 H 508.627 2.22357 -3.08645 0
M  V30 5451 H 509.939 3.09085 -3.91494 0
M  V30 5452 H 509.093 5.2666 -3.01188 0
M  V30 5453 H 507.832 4.41146 -2.07947 0
M  V30 5454 H 506.837 3.53478 -4.21109 0
M  V30 5455 H 508.062 4.42303 -5.1531 0
M  V30 5456 H 506.008 5.67491 -3.29074 0
M  V30 5457 H 505.925 5.65118 -5.02173 0
M  V30 5458 H 507.193 6.54367 -4.23585 0
M  V30 5459 N 511.423 1.38739 0.74761 0
M  V30 5460 C 512.839 1.20067 1.05148 0
M  V30 5461 C 513.039 0.0534835 2.01429 0
M  V30 5462 O 512.095 -0.59886 2.45296 0
M  V30 5463 C 513.408 2.52957 1.62584 0
M  V30 5464 C 514.956 2.59692 1.74726 0
M  V30 5465 C 515.431 3.92772 2.35573 0
M  V30 5466 N 516.922 3.94343 2.42997 0
M  V30 5467 C 517.657 4.9408 2.90985 0
M  V30 5468 N 517.153 6.04214 3.38965 0
M  V30 5469 N 518.946 4.81466 2.9008 0
M  V30 5470 H 511.097 2.12121 0.108808 0
M  V30 5471 H 513.36 0.941491 0.110899 0
M  V30 5472 H 513.066 3.37389 0.993051 0
M  V30 5473 H 512.94 2.71779 2.61565 0
M  V30 5474 H 515.327 1.75651 2.3713 0
M  V30 5475 H 515.408 2.44731 0.744326 0
M  V30 5476 H 515.052 4.77238 1.738 0
M  V30 5477 H 514.982 4.05046 3.36519 0
M  V30 5478 H 517.473 3.14799 2.0907 0
M  V30 5479 H 517.786 6.76241 3.74056 0
M  V30 5480 H 516.131 6.07825 3.37007 0
M  V30 5481 H 519.322 3.94535 2.51912 0
M  V30 5482 H 519.495 5.59344 3.27166 0
M  V30 5483 N 512.901 -0.976442 1.23707 0
M  V30 5484 C 514.141 -1.73331 1.08332 0
M  V30 5485 C 514.505 -1.88346 -0.372781 0
M  V30 5486 O 515.706 -2.60877 -0.647813 0
M  V30 5487 C 513.977 -3.09159 1.7932 0
M  V30 5488 S 515.536 -4.00376 1.79567 0
M  V30 5489 H 512.354 -0.596045 0.387622 0
M  V30 5490 H 514.956 -1.16625 1.56904 0
M  V30 5491 H 513.66 -2.95884 2.84395 0
M  V30 5492 H 513.191 -3.70932 1.31046 0
M  V30 5493 H 515.206 -4.88742 0.857094 0
M  V30 5494 N 514.379 -1.04941 -1.1758 0
M  V30 5495 C 515.626 -0.757989 -1.87779 0
M  V30 5496 C 515.954 0.714827 -1.80888 0
M  V30 5497 O 515.209 1.53824 -1.20982 0
M  V30 5498 C 515.508 -1.18062 -3.37337 0
M  V30 5499 C 515.174 -2.65521 -3.6443 0
M  V30 5500 C 513.836 -3.05804 -3.71534 0
M  V30 5501 C 516.188 -3.60822 -3.76108 0
M  V30 5502 C 513.516 -4.40256 -3.87803 0
M  V30 5503 C 515.868 -4.95005 -3.93895 0
M  V30 5504 C 514.532 -5.34945 -3.99237 0
M  V30 5505 H 513.802 -0.277368 -0.68713 0
M  V30 5506 H 516.449 -1.31603 -1.39115 0
M  V30 5507 H 514.754 -0.541525 -3.8804 0
M  V30 5508 H 516.451 -0.932368 -3.9001 0
M  V30 5509 H 513.041 -2.33324 -3.59524 0
M  V30 5510 H 517.225 -3.30841 -3.69943 0
M  V30 5511 H 512.481 -4.70707 -3.90186 0
M  V30 5512 H 516.655 -5.68746 -4.01872 0
M  V30 5513 H 514.282 -6.39135 -4.11596 0
M  V30 5514 N 515.857 1.33968 -0.830081 0
M  V30 5515 C 517.273 1.51003 -0.516742 0
M  V30 5516 C 517.473 1.77286 0.957694 0
M  V30 5517 O 516.529 1.82797 1.74188 0
M  V30 5518 C 517.842 2.67036 -1.38247 0
M  V30 5519 C 519.39 2.80919 -1.38034 0
M  V30 5520 C 519.865 4.00004 -2.23071 0
M  V30 5521 N 521.356 4.07224 -2.20733 0
M  V30 5522 C 522.091 4.98541 -2.83275 0
M  V30 5523 N 521.587 5.95033 -3.54835 0
M  V30 5524 N 523.38 4.91469 -2.72791 0
M  V30 5525 H 515.531 1.15168 -1.78466 0
M  V30 5526 H 517.794 0.565443 -0.760906 0
M  V30 5527 H 517.5 2.54266 -2.42985 0
M  V30 5528 H 517.374 3.62226 -1.05225 0
M  V30 5529 H 519.761 2.93127 -0.340713 0
M  V30 5530 H 519.842 1.86517 -1.75057 0
M  V30 5531 H 519.486 3.88557 -3.27087 0
M  V30 5532 H 519.416 4.93634 -1.83394 0
M  V30 5533 H 521.907 3.38162 -1.68687 0
M  V30 5534 H 522.22 6.61357 -3.99784 0
M  V30 5535 H 520.565 5.95135 -3.58942 0
M  V30 5536 H 523.756 4.15048 -2.16456 0
M  V30 5537 H 523.929 5.62439 -3.21818 0
M  V30 5538 N 517.335 0.585699 1.46312 0
M  V30 5539 C 518.245 -0.148236 2.34131 0
M  V30 5540 C 519.261 -0.882972 1.49932 0
M  V30 5541 O 520.437 -0.845484 1.82794 0
M  V30 5542 C 517.502 -1.14714 3.27172 0
M  V30 5543 C 516.563 -0.416746 4.27272 0
M  V30 5544 C 515.796 -1.36806 5.15868 0
M  V30 5545 O 516.019 -2.60475 5.07454 0
M  V30 5546 O 514.953 -0.877018 5.95476 0
M  V30 5547 H 518.779 0.572882 2.98248 0
M  V30 5548 H 516.364 0.346082 1.45336 0
M  V30 5549 H 518.246 -1.72303 3.84564 0
M  V30 5550 H 516.921 -1.84967 2.65648 0
M  V30 5551 H 515.828 0.201061 3.73559 0
M  V30 5552 H 517.161 0.244872 4.9159 0
M  V30 5553 N 518.813 -1.54241 0.323641 0
M  V30 5554 C 520.06 -2.0057 -0.27891 0
M  V30 5555 C 520.388 -1.21181 -1.52136 0
M  V30 5556 O 519.643 -0.282043 -1.93657 0
M  V30 5557 C 519.942 -3.5129 -0.658031 0
M  V30 5558 C 519.608 -4.48281 0.485252 0
M  V30 5559 C 518.27 -4.74519 0.799055 0
M  V30 5560 C 520.622 -5.05909 1.25322 0
M  V30 5561 C 517.95 -5.55643 1.88354 0
M  V30 5562 C 520.302 -5.88215 2.32779 0
M  V30 5563 C 518.966 -6.12755 2.64741 0
M  V30 5564 H 518.236 -0.733938 -0.10206 0
M  V30 5565 H 520.883 -1.862 0.447435 0
M  V30 5566 H 519.188 -3.63388 -1.4648 0
M  V30 5567 H 520.885 -3.84578 -1.1358 0
M  V30 5568 H 517.475 -4.27979 0.230593 0
M  V30 5569 H 521.659 -4.8562 1.02404 0
M  V30 5570 H 516.915 -5.72888 2.13564 0
M  V30 5571 H 521.089 -6.31888 2.92729 0
M  V30 5572 H 518.716 -6.75404 3.48904 0
M  V30 5573 N 520.291 -0.0518155 -1.57515 0
M  V30 5574 C 521.531 0.625712 -1.94587 0
M  V30 5575 C 521.895 1.6797 -0.930053 0
M  V30 5576 O 523.096 2.41135 -1.18774 0
M  V30 5577 C 521.367 1.20574 -3.36447 0
M  V30 5578 S 522.926 1.90118 -3.95475 0
M  V30 5579 H 519.744 0.205434 -0.680675 0
M  V30 5580 H 522.346 -0.120906 -1.95126 0
M  V30 5581 H 521.05 0.426521 -4.08178 0
M  V30 5582 H 520.581 1.98916 -3.39405 0
M  V30 5583 H 522.596 3.18184 -3.80753 0
M  V30 5584 N 521.769 1.56035 0.221574 0
M  V30 5585 C 523.018 1.78245 0.944016 0
M  V30 5586 C 523.331 0.620371 1.85501 0
M  V30 5587 O 524.537 0.726103 2.6161 0
M  V30 5588 C 522.993 3.15659 1.7288 0
M  V30 5589 C 522.601 4.39591 0.863942 0
M  V30 5590 C 524.345 3.47195 2.44246 0
M  V30 5591 C 522.252 5.6803 1.64607 0
M  V30 5592 H 521.182 0.664547 0.356222 0
M  V30 5593 H 523.833 1.8243 0.197904 0
M  V30 5594 H 522.215 3.0565 2.51781 0
M  V30 5595 H 523.389 4.60655 0.115464 0
M  V30 5596 H 521.704 4.15572 0.262407 0
M  V30 5597 H 524.301 4.40381 3.03263 0
M  V30 5598 H 524.644 2.69693 3.1713 0
M  V30 5599 H 525.177 3.58533 1.72334 0
M  V30 5600 H 521.916 6.48425 0.960507 0
M  V30 5601 H 521.436 5.51027 2.36917 0
M  V30 5602 H 523.115 6.08203 2.20675 0
M  V30 5603 N 523.247 -0.488276 1.49845 0
M  V30 5604 C 524.658 -1.06955 1.53028 0
M  V30 5605 C 525.009 -1.9351 0.323797 0
M  V30 5606 O 524.134 -2.08891 -0.565116 0
M  V30 5607 C 524.729 -1.94643 2.77307 0
M  V30 5608 C 523.288 -2.4791 2.83227 0
M  V30 5609 C 522.435 -1.25833 2.47106 0
M  V30 5610 H 525.386 -0.271626 1.56358 0
M  V30 5611 H 525.407 -2.79496 2.5819 0
M  V30 5612 H 524.919 -1.31621 3.65099 0
M  V30 5613 H 523.02 -3.14535 1.99745 0
M  V30 5614 H 523.133 -2.84193 3.85709 0
M  V30 5615 H 521.497 -1.58764 1.99163 0
M  V30 5616 H 522.28 -0.644993 3.37186 0
M  V30 5617 N 524.725 -1.39134 -0.740242 0
M  V30 5618 C 525.953 -1.39334 -1.5295 0
M  V30 5619 C 526.368 0.0135008 -1.88795 0
M  V30 5620 O 525.725 0.983524 -1.5373 0
M  V30 5621 C 525.776 -2.2614 -2.82034 0
M  V30 5622 O 525.497 -3.61345 -2.47712 0
M  V30 5623 C 526.998 -2.34666 -3.76094 0
M  V30 5624 H 524.218 -0.476103 -0.472828 0
M  V30 5625 H 526.762 -1.82883 -0.9151 0
M  V30 5626 H 524.917 -1.86018 -3.39818 0
M  V30 5627 H 525.331 -4.07194 -3.30595 0
M  V30 5628 H 526.805 -2.99663 -4.63579 0
M  V30 5629 H 527.282 -1.36426 -4.17474 0
M  V30 5630 H 527.888 -2.75236 -3.2423 0
M  V30 5631 N 526.204 0.969867 -1.24223 0
M  V30 5632 C 527.429 1.75289 -1.10853 0
M  V30 5633 C 527.854 1.85091 0.335079 0
M  V30 5634 O 527.212 1.32024 1.24255 0
M  V30 5635 C 527.26 3.15255 -1.75062 0
M  V30 5636 O 526.364 3.99589 -1.01992 0
M  V30 5637 H 525.705 0.538904 -0.387915 0
M  V30 5638 H 528.235 1.21675 -1.64488 0
M  V30 5639 H 528.245 3.65787 -1.80731 0
M  V30 5640 H 526.92 3.07436 -2.801 0
M  V30 5641 H 525.497 3.58077 -1.04094 0
M  V30 5642 N 527.682 1.05563 1.17022 0
M  V30 5643 C 528.907 0.788437 1.91829 0
M  V30 5644 C 529.332 -0.650356 1.76499 0
M  V30 5645 O 528.69 -1.45229 1.08527 0
M  V30 5646 C 528.738 1.1786 3.40795 0
M  V30 5647 O 527.842 0.312965 4.11211 0
M  V30 5648 H 527.183 0.288794 0.597908 0
M  V30 5649 H 529.713 1.40948 1.48307 0
M  V30 5650 H 529.723 1.14697 3.91546 0
M  V30 5651 H 528.398 2.22666 3.51273 0
M  V30 5652 H 526.975 0.405515 3.70689 0
M  V30 5653 N 529.16 -1.33526 0.837174 0
M  V30 5654 C 530.108 -2.31168 0.257698 0
M  V30 5655 C 531.102 -1.5806 -0.609388 0
M  V30 5656 O 532.308 -1.72941 -0.499139 0
M  V30 5657 H 528.683 -0.74922 0.0646058 0
M  V30 5658 H 530.654 -2.77552 1.09578 0
M  V30 5659 C 529.403 -3.4326 -0.553887 0
M  V30 5660 H 528.726 -3.99665 0.104008 0
M  V30 5661 H 530.166 -4.13782 -0.925219 0
M  V30 5662 C 528.625 -2.88965 -1.73207 0
M  V30 5663 O 529.155 -2.85013 -2.83073 0
M  V30 5664 N 527.361 -2.45596 -1.55342 0
M  V30 5665 H 526.908 -2.49009 -0.659705 0
M  V30 5666 H 526.866 -2.0962 -2.34322 0
M  V30 5667 N 530.638 -0.59345 -1.46 0
M  V30 5668 C 531.887 -0.0808084 -2.01538 0
M  V30 5669 C 532.2 1.29112 -1.46934 0
M  V30 5670 O 533.406 1.8957 -1.94359 0
M  V30 5671 C 531.862 -0.0938311 -3.59778 0
M  V30 5672 C 531.47 -1.46474 -4.23379 0
M  V30 5673 C 533.214 0.364306 -4.22934 0
M  V30 5674 C 531.121 -1.4349 -5.73729 0
M  V30 5675 H 530.051 -0.0264407 -0.753536 0
M  V30 5676 H 532.702 -0.746689 -1.67621 0
M  V30 5677 H 531.084 0.638427 -3.9082 0
M  V30 5678 H 532.258 -2.21758 -4.03931 0
M  V30 5679 H 530.573 -1.86379 -3.7236 0
M  V30 5680 H 533.17 0.405584 -5.3316 0
M  V30 5681 H 533.513 1.38409 -3.92618 0
M  V30 5682 H 534.046 -0.31423 -3.96557 0
M  V30 5683 H 530.785 -2.43184 -6.08722 0
M  V30 5684 H 530.305 -0.724431 -5.95409 0
M  V30 5685 H 531.984 -1.15243 -6.36654 0
M  V30 5686 N 532.116 1.54067 -0.331816 0
M  V30 5687 C 533.026 2.28322 0.539104 0
M  V30 5688 C 534.042 1.32985 1.1221 0
M  V30 5689 O 535.218 1.6601 1.1403 0
M  V30 5690 C 532.283 3.03277 1.68 0
M  V30 5691 C 531.344 4.14216 1.12798 0
M  V30 5692 C 530.577 4.85588 2.2145 0
M  V30 5693 O 530.8 4.56536 3.41952 0
M  V30 5694 O 529.734 5.72309 1.86404 0
M  V30 5695 H 533.56 3.03632 -0.0641692 0
M  V30 5696 H 531.145 1.49083 -0.0972365 0
M  V30 5697 H 533.027 3.50189 2.34405 0
M  V30 5698 H 531.702 2.30834 2.2693 0
M  V30 5699 H 530.609 3.71635 0.428782 0
M  V30 5700 H 531.942 4.88727 0.583698 0
M  V30 5701 N 533.594 0.0601682 1.57485 0
M  V30 5702 C 534.526 -0.94047 2.09016 0
M  V30 5703 C 535.539 -1.26897 1.01985 0
M  V30 5704 O 536.728 -1.22819 1.29529 0
M  V30 5705 C 533.828 -2.25955 2.52582 0
M  V30 5706 C 533.001 -2.11163 3.83052 0
M  V30 5707 C 532.06 -3.26273 4.12835 0
M  V30 5708 O 531.086 -3.01779 4.82616 0
M  V30 5709 N 532.288 -4.51022 3.65458 0
M  V30 5710 H 535.053 -0.500578 2.9549 0
M  V30 5711 H 532.614 -0.125852 1.6141 0
M  V30 5712 H 534.606 -3.01846 2.69575 0
M  V30 5713 H 533.176 -2.61481 1.71308 0
M  V30 5714 H 532.396 -1.19808 3.75552 0
M  V30 5715 H 533.684 -1.98517 4.68475 0
M  V30 5716 H 533.082 -4.73811 3.09062 0
M  V30 5717 H 531.639 -5.23978 3.87673 0
M  V30 5718 N 535.072 -1.5615 -0.213296 0
M  V30 5719 C 536.004 -1.89586 -1.28802 0
M  V30 5720 C 537.017 -0.784844 -1.42633 0
M  V30 5721 O 538.206 -1.06319 -1.43383 0
M  V30 5722 C 535.306 -2.09665 -2.66259 0
M  V30 5723 C 534.479 -3.40726 -2.7427 0
M  V30 5724 C 533.538 -3.50137 -3.92798 0
M  V30 5725 O 532.564 -4.23105 -3.8075 0
M  V30 5726 N 533.766 -2.81886 -5.07465 0
M  V30 5727 H 536.531 -2.82368 -1.00442 0
M  V30 5728 H 534.092 -1.56796 -0.403302 0
M  V30 5729 H 536.084 -2.13268 -3.43946 0
M  V30 5730 H 534.654 -1.23469 -2.87183 0
M  V30 5731 H 533.874 -3.4915 -1.82997 0
M  V30 5732 H 535.162 -4.27048 -2.76599 0
M  V30 5733 H 534.56 -2.22397 -5.2015 0
M  V30 5734 H 533.117 -2.91139 -5.83165 0
M  V30 5735 N 536.55 0.480323 -1.50102 0
M  V30 5736 C 537.498 1.60024 -1.68805 0
M  V30 5737 C 538.492 1.60089 -0.553888 0
M  V30 5738 O 539.698 1.64349 -0.734127 0
M  V30 5739 H 536.073 0.530841 -0.532646 0
M  V30 5740 H 538.044 1.41408 -2.62767 0
M  V30 5741 C 536.793 2.98029 -1.79092 0
M  V30 5742 H 536.116 2.98694 -2.65748 0
M  V30 5743 H 537.556 3.75871 -1.96206 0
M  V30 5744 C 536.015 3.32538 -0.540388 0
M  V30 5745 O 536.545 4.00386 0.324637 0
M  V30 5746 N 534.751 2.87873 -0.397154 0
M  V30 5747 H 534.298 2.32834 -1.1021 0
M  V30 5748 H 534.256 3.11328 0.438425 0
M  V30 5749 N 538.028 1.39524 0.732853 0
M  V30 5750 C 539.253 1.40329 1.52717 0
M  V30 5751 C 539.678 0.000286574 1.881 0
M  V30 5752 O 539.036 -0.987262 1.52062 0
M  V30 5753 C 539.084 2.28464 2.78992 0
M  V30 5754 O 538.188 1.716 3.75003 0
M  V30 5755 H 537.529 0.47778 0.461109 0
M  V30 5756 H 540.059 1.83546 0.903996 0
M  V30 5757 H 540.069 2.43051 3.27705 0
M  V30 5758 H 538.744 3.30425 2.52572 0
M  V30 5759 H 537.321 1.66267 3.33781 0
M  V30 5760 N 539.506 -0.963266 1.24736 0
M  V30 5761 C 540.734 -1.74166 1.11686 0
M  V30 5762 C 541.149 -1.8589 -0.330187 0
M  V30 5763 O 540.506 -1.35042 -1.2276 0
M  V30 5764 C 540.557 -3.15989 1.75595 0
M  V30 5765 O 540.278 -3.04847 3.14642 0
M  V30 5766 C 541.779 -4.10145 1.68213 0
M  V30 5767 H 538.999 -0.546031 0.389989 0
M  V30 5768 H 541.543 -1.20907 1.64929 0
M  V30 5769 H 539.698 -3.66219 1.26343 0
M  V30 5770 H 540.112 -3.9425 3.4593 0
M  V30 5771 H 541.586 -5.07299 2.17604 0
M  V30 5772 H 542.063 -4.3445 0.644208 0
M  V30 5773 H 542.669 -3.65827 2.16912 0
M  V30 5774 N 540.985 -1.06182 -1.16461 0
M  V30 5775 C 542.401 -0.785065 -1.38956 0
M  V30 5776 C 542.601 0.616103 -1.9185 0
M  V30 5777 O 541.657 1.37686 -2.11657 0
M  V30 5778 C 542.97 -1.84902 -2.37132 0
M  V30 5779 C 544.518 -1.8724 -2.50819 0
M  V30 5780 C 544.993 -2.92686 -3.52277 0
M  V30 5781 N 546.484 -2.91712 -3.59803 0
M  V30 5782 C 547.219 -3.69949 -4.38093 0
M  V30 5783 N 546.715 -4.58 -5.19815 0
M  V30 5784 N 548.508 -3.58346 -4.33064 0
M  V30 5785 H 540.659 -1.96569 -0.804634 0
M  V30 5786 H 542.922 -0.851747 -0.416211 0
M  V30 5787 H 542.628 -2.85518 -2.0536 0
M  V30 5788 H 542.502 -1.69908 -3.36766 0
M  V30 5789 H 544.889 -0.872827 -2.81897 0
M  V30 5790 H 544.97 -2.06311 -1.51226 0
M  V30 5791 H 544.614 -3.92835 -3.21937 0
M  V30 5792 H 544.544 -2.70864 -4.51598 0
M  V30 5793 H 547.035 -2.27876 -3.01464 0
M  V30 5794 H 547.348 -5.14357 -5.76764 0
M  V30 5795 H 545.693 -4.62056 -5.19162 0
M  V30 5796 H 548.884 -2.88943 -3.68279 0
M  V30 5797 H 549.057 -4.19563 -4.93833 0
M  V30 5798 N 542.463 1.3308 -0.844243 0
M  V30 5799 C 543.712 1.96868 -0.438833 0
M  V30 5800 C 544.025 1.67599 1.00846 0
M  V30 5801 O 545.231 2.25043 1.51881 0
M  V30 5802 C 543.687 3.5234 -0.73377 0
M  V30 5803 C 543.295 3.90481 -2.1961 0
M  V30 5804 C 545.039 4.22653 -0.395574 0
M  V30 5805 C 542.946 5.38954 -2.43481 0
M  V30 5806 H 541.876 0.736749 -0.160364 0
M  V30 5807 H 544.527 1.51623 -1.03358 0
M  V30 5808 H 542.909 3.95941 -0.068589 0
M  V30 5809 H 544.083 3.57922 -2.90221 0
M  V30 5810 H 542.398 3.33165 -2.4978 0
M  V30 5811 H 544.995 5.31848 -0.551477 0
M  V30 5812 H 545.338 4.11004 0.661921 0
M  V30 5813 H 545.871 3.84601 -1.01621 0
M  V30 5814 H 542.61 5.55612 -3.47816 0
M  V30 5815 H 542.13 5.72954 -1.77437 0
M  V30 5816 H 543.809 6.05907 -2.26905 0
M  V30 5817 N 543.941 0.601185 1.45683 0
M  V30 5818 C 545.357 0.264315 1.57396 0
M  V30 5819 C 545.557 -1.23324 1.59353 0
M  V30 5820 O 544.613 -2.01594 1.52039 0
M  V30 5821 C 545.926 0.929839 2.85962 0
M  V30 5822 C 547.474 0.905156 2.99626 0
M  V30 5823 C 547.949 1.55057 4.30954 0
M  V30 5824 N 549.44 1.51576 4.37697 0
M  V30 5825 C 550.175 1.98436 5.37969 0
M  V30 5826 N 549.671 2.53352 6.44813 0
M  V30 5827 N 551.464 1.89242 5.29286 0
M  V30 5828 H 543.615 1.57363 1.42656 0
M  V30 5829 H 545.878 0.658831 0.681649 0
M  V30 5830 H 545.584 1.98404 2.90394 0
M  V30 5831 H 545.458 0.449224 3.74515 0
M  V30 5832 H 547.845 -0.14048 2.94765 0
M  V30 5833 H 547.926 1.42397 2.12501 0
M  V30 5834 H 547.57 2.5955 4.36573 0
M  V30 5835 H 547.5 1.00682 5.16886 0
M  V30 5836 H 549.991 1.11452 3.61091 0
M  V30 5837 H 550.304 2.86918 7.17564 0
M  V30 5838 H 548.649 2.57388 6.45582 0
M  V30 5839 H 551.84 1.46083 4.44722 0
M  V30 5840 H 552.013 2.26075 6.07284 0
M  V30 5841 N 545.419 -1.53889 0.339982 0
M  V30 5842 C 546.351 -2.22435 -0.55275 0
M  V30 5843 C 547.364 -1.22975 -1.06681 0
M  V30 5844 O 548.553 -1.49351 -0.977575 0
M  V30 5845 C 545.653 -2.8882 -1.77302 0
M  V30 5846 C 544.826 -4.14563 -1.39486 0
M  V30 5847 C 543.885 -4.64391 -2.47442 0
M  V30 5848 O 542.911 -5.28687 -2.10899 0
M  V30 5849 N 544.113 -4.40015 -3.78639 0
M  V30 5850 H 546.878 -2.9968 0.0342669 0
M  V30 5851 H 544.439 -1.61068 0.16394 0
M  V30 5852 H 546.431 -3.19072 -2.48948 0
M  V30 5853 H 545.001 -2.15182 -2.26749 0
M  V30 5854 H 544.221 -3.90896 -0.509321 0
M  V30 5855 H 545.509 -4.96362 -1.11813 0
M  V30 5856 H 544.907 -3.88586 -4.11118 0
M  V30 5857 H 543.464 -4.74881 -4.46465 0
M  V30 5858 N 546.897 -0.0685191 -1.57451 0
M  V30 5859 C 547.845 0.917577 -2.13736 0
M  V30 5860 C 548.839 1.31049 -1.07344 0
M  V30 5861 O 550.045 1.28811 -1.25728 0
M  V30 5862 H 546.42 0.313835 -0.683382 0
M  V30 5863 H 548.391 0.417903 -2.95459 0
M  V30 5864 C 547.14 2.17686 -2.71123 0
M  V30 5865 H 546.463 1.88336 -3.52661 0
M  V30 5866 H 547.903 2.84803 -3.14107 0
M  V30 5867 C 546.362 2.9332 -1.65726 0
M  V30 5868 O 546.892 3.86901 -1.08031 0
M  V30 5869 N 545.098 2.56367 -1.36837 0
M  V30 5870 H 544.645 1.80341 -1.83943 0
M  V30 5871 H 544.603 3.07276 -0.665501 0
M  V30 5872 N 548.375 1.56261 0.205012 0
M  V30 5873 C 549.603 1.84141 0.943386 0
M  V30 5874 C 550.018 0.649772 1.77266 0
M  V30 5875 O 549.375 -0.381612 1.78466 0
M  V30 5876 C 549.426 3.10719 1.84759 0
M  V30 5877 O 549.147 4.25286 1.05181 0
M  V30 5878 C 550.648 3.51706 2.69848 0
M  V30 5879 H 547.868 0.611734 0.275721 0
M  V30 5880 H 550.412 2.03364 0.215253 0
M  V30 5881 H 548.567 2.93422 2.52947 0
M  V30 5882 H 548.981 4.97301 1.66709 0
M  V30 5883 H 550.455 4.43266 3.28967 0
M  V30 5884 H 550.932 2.7423 3.43067 0
M  V30 5885 H 551.538 3.71499 2.07047 0
M  V30 5886 N 549.853 -0.472356 1.50355 0
M  V30 5887 C 551.269 -0.806001 1.37753 0
M  V30 5888 C 551.469 -1.968 0.432649 0
M  V30 5889 O 550.525 -2.52189 -0.12519 0
M  V30 5890 C 551.838 -1.11926 2.79093 0
M  V30 5891 C 553.386 -1.22579 2.87999 0
M  V30 5892 C 553.861 -1.57218 4.3017 0
M  V30 5893 N 555.352 -1.64212 4.33115 0
M  V30 5894 C 556.087 -1.92517 5.40116 0
M  V30 5895 N 555.583 -2.1885 6.57325 0
M  V30 5896 N 557.376 -1.94008 5.27558 0
M  V30 5897 H 549.527 0.293451 2.10363 0
M  V30 5898 H 551.79 0.0687672 0.945503 0
M  V30 5899 H 551.496 -0.338504 3.50067 0
M  V30 5900 H 551.37 -2.05577 3.16256 0
M  V30 5901 H 553.757 -1.99722 2.17245 0
M  V30 5902 H 553.838 -0.269107 2.54381 0
M  V30 5903 H 553.482 -0.806154 5.01461 0
M  V30 5904 H 553.412 -2.54034 4.61275 0
M  V30 5905 H 555.903 -1.45906 3.48597 0
M  V30 5906 H 556.216 -2.39718 7.3468 0
M  V30 5907 H 554.561 -2.16245 6.60502 0
M  V30 5908 H 557.752 -1.72931 4.34986 0
M  V30 5909 H 557.925 -2.15731 6.11035 0
M  V30 5910 N 551.331 -1.39911 -0.725443 0
M  V30 5911 C 552.608 -1.28158 -1.47766 0
M  V30 5912 C 552.988 0.104545 -2.10841 0
M  V30 5913 O 552.336 1.11657 -1.99361 0
M  V30 5914 C 552.546 -2.41306 -2.52135 0
M  V30 5915 C 553.894 -2.81076 -3.18247 0
M  V30 5916 O 554.918 -2.40827 -2.62452 0
M  V30 5917 O 553.777 -3.50581 -4.19231 0
M  V30 5918 H 550.871 -0.502761 -0.656628 0
M  V30 5919 H 553.417 -1.51808 -0.758456 0
M  V30 5920 H 552.189 -3.33932 -2.03974 0
M  V30 5921 H 551.812 -2.19374 -3.31603 0
M  V30 5922 N 552.809 0.956637 -1.25245 0
M  V30 5923 C 553.759 2.03841 -1.02141 0
M  V30 5924 C 554.743 1.60848 0.0410058 0
M  V30 5925 O 555.935 1.76142 -0.174084 0
M  V30 5926 C 553.064 3.37282 -0.639963 0
M  V30 5927 C 552.15 3.86805 -1.73903 0
M  V30 5928 N 552.541 4.09143 -2.97381 0
M  V30 5929 C 550.839 4.15574 -1.61909 0
M  V30 5930 C 551.54 4.49923 -3.68707 0
M  V30 5931 N 550.516 4.55737 -2.96318 0
M  V30 5932 H 554.318 2.19102 -1.95886 0
M  V30 5933 H 551.832 1.1413 -1.15534 0
M  V30 5934 H 553.829 4.14403 -0.455643 0
M  V30 5935 H 552.489 3.23401 0.29018 0
M  V30 5936 H 553.5 3.96275 -3.33447 0
M  V30 5937 H 550.177 4.10566 -0.757764 0
M  V30 5938 H 551.567 4.75526 -4.74684 0
M  V30 5939 N 554.287 1.06798 1.15896 0
M  V30 5940 C 555.698 0.811355 1.68149 0
M  V30 5941 C 556.049 -0.664339 1.8461 0
M  V30 5942 O 555.174 -1.51485 1.54535 0
M  V30 5943 C 555.769 1.46624 3.05429 0
M  V30 5944 C 554.328 1.25726 3.54781 0
M  V30 5945 C 553.475 1.53949 2.3064 0
M  V30 5946 H 556.426 1.23078 1.00187 0
M  V30 5947 H 556.447 0.88437 3.7008 0
M  V30 5948 H 555.959 2.54025 2.93416 0
M  V30 5949 H 554.06 0.20322 3.72045 0
M  V30 5950 H 554.173 1.97354 4.36564 0
M  V30 5951 H 552.537 0.96025 2.35905 0
M  V30 5952 H 553.32 2.6252 2.2122 0
M  V30 5953 N 555.766 -1.3263 0.851289 0
M  V30 5954 C 556.991 -2.02097 0.466006 0
M  V30 5955 C 557.416 -1.63574 -0.928709 0
M  V30 5956 O 556.774 -0.834665 -1.60944 0
M  V30 5957 C 556.822 -3.55425 0.608737 0
M  V30 5958 O 555.926 -4.10827 -0.359878 0
M  V30 5959 H 555.267 -0.636911 0.187724 0
M  V30 5960 H 557.797 -1.69253 1.14955 0
M  V30 5961 H 557.807 -4.04986 0.495006 0
M  V30 5962 H 556.482 -3.82806 1.62581 0
M  V30 5963 H 555.059 -3.72349 -0.202666 0
M  V30 5964 N 557.244 -0.608902 -1.45362 0
M  V30 5965 C 558.472 -0.111013 -2.06602 0
M  V30 5966 C 558.887 1.20516 -1.45332 0
M  V30 5967 O 558.244 1.73437 -0.567978 0
M  V30 5968 C 558.295 0.033688 -3.61484 0
M  V30 5969 O 558.016 -1.23041 -4.20467 0
M  V30 5970 C 559.517 0.562882 -4.39712 0
M  V30 5971 H 556.737 -0.0694453 -0.667397 0
M  V30 5972 H 559.281 -0.837008 -1.86586 0
M  V30 5973 H 557.436 0.710016 -3.80838 0
M  V30 5974 H 557.85 -1.06094 -5.13658 0
M  V30 5975 H 559.324 0.613213 -5.48583 0
M  V30 5976 H 559.801 1.58543 -4.09586 0
M  V30 5977 H 560.407 -0.0794454 -4.25226 0
M  V30 5978 N 558.722 1.53707 -0.348139 0
M  V30 5979 C 559.685 2.23812 0.494058 0
M  V30 5980 C 560.685 1.23989 1.02388 0
M  V30 5981 O 561.875 1.48395 0.912396 0
M  V30 5982 C 559.007 2.96133 1.68872 0
M  V30 5983 H 560.2 2.99663 -0.119141 0
M  V30 5984 H 557.753 1.55983 -0.0995539 0
M  V30 5985 H 558.488 2.24481 2.34049 0
M  V30 5986 H 558.273 3.69357 1.31596 0
M  V30 5987 H 559.763 3.49475 2.28597 0
M  V30 5988 N 560.2 0.0768682 1.57412 0
M  V30 5989 C 561.148 -0.906229 2.1422 0
M  V30 5990 C 562.142 -1.30477 1.08037 0
M  V30 5991 O 563.348 -1.28143 1.2641 0
M  V30 5992 H 559.723 -0.310207 0.685037 0
M  V30 5993 H 561.694 -0.402228 2.95677 0
M  V30 5994 C 560.443 -2.16245 2.72274 0
M  V30 5995 H 559.766 -1.86463 3.53655 0
M  V30 5996 H 561.206 -2.83134 3.15613 0
M  V30 5997 C 559.665 -2.92437 1.67279 0
M  V30 5998 O 560.195 -3.86322 1.10081 0
M  V30 5999 N 558.401 -2.55637 1.38195 0
M  V30 6000 H 557.948 -1.79363 1.84897 0
M  V30 6001 H 557.906 -3.06919 0.681787 0
M  V30 6002 N 561.678 -1.56367 -0.196722 0
M  V30 6003 C 562.906 -1.84639 -0.933608 0
M  V30 6004 C 563.321 -0.659164 -1.76919 0
M  V30 6005 O 562.678 0.372142 -1.78665 0
M  V30 6006 C 562.729 -3.11694 -1.83109 0
M  V30 6007 O 562.45 -4.25838 -1.02924 0
M  V30 6008 C 563.951 -3.53132 -2.67979 0
M  V30 6009 H 561.171 -0.613188 -0.272473 0
M  V30 6010 H 563.715 -2.03475 -0.204465 0
M  V30 6011 H 561.87 -2.94759 -2.51387 0
M  V30 6012 H 562.284 -4.98178 -1.64069 0
M  V30 6013 H 563.758 -4.45005 -3.26611 0
M  V30 6014 H 564.235 -2.76045 -3.41608 0
M  V30 6015 H 564.841 -3.72592 -2.05074 0
M  V30 6016 N 563.156 0.464375 -1.50603 0
M  V30 6017 C 564.402 1.21776 -1.62168 0
M  V30 6018 C 564.735 1.91476 -0.324154 0
M  V30 6019 O 564.01 1.8242 0.674782 0
M  V30 6020 C 564.293 2.25614 -2.80661 0
M  V30 6021 C 564.146 1.60175 -4.20314 0
M  V30 6022 C 565.465 3.26862 -2.94702 0
M  V30 6023 H 562.584 0.44137 -0.590222 0
M  V30 6024 H 565.226 0.510623 -1.8301 0
M  V30 6025 H 563.376 2.85923 -2.63021 0
M  V30 6026 H 565.048 1.03411 -4.4956 0
M  V30 6027 H 563.291 0.904697 -4.24261 0
M  V30 6028 H 563.962 2.35665 -4.99165 0
M  V30 6029 H 566.438 2.76582 -3.10872 0
M  V30 6030 H 565.314 3.96839 -3.79223 0
M  V30 6031 H 565.575 3.91382 -2.05603 0
M  V30 6032 N 564.634 1.40294 0.718013 0
M  V30 6033 C 565.911 1.2894 1.47084 0
M  V30 6034 C 566.291 -0.0933625 2.10893 0
M  V30 6035 O 565.639 -1.10598 1.99951 0
M  V30 6036 C 565.849 2.4264 2.50852 0
M  V30 6037 C 567.197 2.8276 3.16752 0
M  V30 6038 O 568.221 2.42215 2.61171 0
M  V30 6039 O 567.08 3.528 4.17366 0
M  V30 6040 H 564.174 0.506236 0.653952 0
M  V30 6041 H 566.72 1.52208 0.750394 0
M  V30 6042 H 565.492 3.35009 2.022 0
M  V30 6043 H 565.115 2.21129 3.30435 0
M  V30 6044 N 566.112 -0.949982 1.2575 0
M  V30 6045 C 567.528 -1.22191 1.02672 0
M  V30 6046 C 567.728 -1.99898 -0.253588 0
M  V30 6047 O 566.784 -2.33329 -0.965076 0
M  V30 6048 C 568.097 -1.99175 2.25277 0
M  V30 6049 C 569.645 -2.12201 2.30087 0
M  V30 6050 C 570.12 -2.92586 3.5236 0
M  V30 6051 N 571.611 -3.00163 3.52784 0
M  V30 6052 C 572.346 -3.62766 4.44059 0
M  V30 6053 N 571.842 -4.26943 5.45611 0
M  V30 6054 N 573.635 -3.59953 4.3173 0
M  V30 6055 H 565.786 -0.430258 2.07996 0
M  V30 6056 H 568.049 -0.252844 0.91366 0
M  V30 6057 H 567.755 -1.49479 3.18354 0
M  V30 6058 H 567.629 -2.99868 2.28821 0
M  V30 6059 H 570.016 -2.61093 1.3753 0
M  V30 6060 H 570.097 -1.10799 2.30559 0
M  V30 6061 H 569.741 -2.44383 4.45241 0
M  V30 6062 H 569.671 -3.94224 3.49134 0
M  V30 6063 H 572.162 -2.54529 2.79327 0
M  V30 6064 H 572.475 -4.72583 6.11461 0
M  V30 6065 H 570.82 -4.25557 5.49478 0
M  V30 6066 H 574.011 -3.09003 3.51617 0
M  V30 6067 H 574.184 -4.08455 5.03059 0
M  V30 6068 N 567.59 -1.07411 -1.15328 0
M  V30 6069 C 568.818 -0.818782 -1.90009 0
M  V30 6070 C 569.233 0.628072 -1.78047 0
M  V30 6071 O 568.59 1.43085 -1.13282 0
M  V30 6072 C 568.641 -1.21874 -3.40337 0
M  V30 6073 O 568.362 -2.60883 -3.51954 0
M  V30 6074 C 569.863 -0.992796 -4.3204 0
M  V30 6075 H 567.083 -0.296007 -0.60218 0
M  V30 6076 H 569.627 -1.43073 -1.46117 0
M  V30 6077 H 567.782 -0.651103 -3.81889 0
M  V30 6078 H 568.196 -2.77216 -4.45255 0
M  V30 6079 H 569.67 -1.32215 -5.35932 0
M  V30 6080 H 570.147 0.0708331 -4.39143 0
M  V30 6081 H 570.753 -1.54537 -3.9623 0
M  V30 6082 N 569.068 1.32177 -0.85831 0
M  V30 6083 C 570.016 2.30729 -0.294442 0
M  V30 6084 C 571.01 1.59009 0.584165 0
M  V30 6085 O 572.216 1.73713 0.471562 0
M  V30 6086 H 568.591 0.748097 -0.0765171 0
M  V30 6087 H 570.562 2.75774 -1.1398 0
M  V30 6088 C 569.311 3.44098 0.499208 0
M  V30 6089 H 568.634 3.99449 -0.167579 0
M  V30 6090 H 570.074 4.15202 0.859273 0
M  V30 6091 C 568.533 2.91684 1.68588 0
M  V30 6092 O 569.063 2.89481 2.78503 0
M  V30 6093 N 567.269 2.48036 1.51415 0
M  V30 6094 H 566.816 2.50027 0.620006 0
M  V30 6095 H 566.774 2.13322 2.30957 0
M  V30 6096 N 570.547 0.616602 1.45037 0
M  V30 6097 C 571.497 -0.118543 2.27692 0
M  V30 6098 C 572.481 -0.830025 1.37838 0
M  V30 6099 O 573.673 -0.718528 1.6176 0
M  V30 6100 C 570.802 -1.10924 3.24886 0
M  V30 6101 C 569.888 -0.398134 4.22227 0
M  V30 6102 N 570.279 0.565233 5.02632 0
M  V30 6103 C 568.577 -0.644506 4.41319 0
M  V30 6104 C 569.278 0.984043 5.73316 0
M  V30 6105 N 568.254 0.325879 5.42622 0
M  V30 6106 H 572.056 0.621239 2.87259 0
M  V30 6107 H 569.57 0.440968 1.56299 0
M  V30 6108 H 571.567 -1.65038 3.82842 0
M  V30 6109 H 570.227 -1.84948 2.66879 0
M  V30 6110 H 571.238 0.942395 5.09254 0
M  V30 6111 H 567.915 -1.36873 3.94426 0
M  V30 6112 H 569.305 1.77911 6.47918 0
M  V30 6113 N 572.025 -1.5352 0.356285 0
M  V30 6114 C 572.957 -2.23009 -0.529127 0
M  V30 6115 C 573.97 -1.241 -1.05371 0
M  V30 6116 O 575.159 -1.50379 -0.961679 0
M  V30 6117 C 572.259 -2.90685 -1.74229 0
M  V30 6118 C 571.432 -4.16019 -1.35081 0
M  V30 6119 C 570.491 -4.66989 -2.42502 0
M  V30 6120 O 569.517 -5.30895 -2.05279 0
M  V30 6121 N 570.719 -4.44006 -3.7395 0
M  V30 6122 H 573.484 -2.99627 0.0660501 0
M  V30 6123 H 571.045 -1.60885 0.181014 0
M  V30 6124 H 573.037 -3.21695 -2.4555 0
M  V30 6125 H 571.607 -2.17575 -2.24454 0
M  V30 6126 H 570.827 -3.91414 -0.467833 0
M  V30 6127 H 572.115 -4.9752 -1.06542 0
M  V30 6128 H 571.513 -3.92924 -4.06973 0
M  V30 6129 H 570.07 -4.7959 -4.41403 0
M  V30 6130 N 573.503 -0.0852151 -1.57369 0
M  V30 6131 C 574.433 0.874556 -2.16503 0
M  V30 6132 C 575.414 1.30111 -1.09568 0
M  V30 6133 O 576.599 1.36977 -1.37662 0
M  V30 6134 C 573.729 2.13731 -2.73745 0
M  V30 6135 C 572.683 1.84971 -3.85966 0
M  V30 6136 C 572.009 3.17991 -4.29867 0
M  V30 6137 C 573.309 1.14442 -5.09608 0
M  V30 6138 H 575.003 0.381899 -2.96954 0
M  V30 6139 H 572.549 0.18225 -1.42842 0
M  V30 6140 H 574.502 2.81302 -3.13763 0
M  V30 6141 H 573.226 2.65263 -1.90534 0
M  V30 6142 H 571.885 1.19801 -3.46473 0
M  V30 6143 H 571.533 3.6739 -3.4356 0
M  V30 6144 H 571.233 2.99534 -5.05523 0
M  V30 6145 H 572.757 3.86737 -4.72511 0
M  V30 6146 H 574.171 1.72105 -5.46857 0
M  V30 6147 H 572.568 1.06197 -5.90629 0
M  V30 6148 H 573.638 0.12559 -4.84737 0
M  V30 6149 N 574.981 1.5647 0.188427 0
M  V30 6150 C 575.891 1.98285 1.2538 0
M  V30 6151 C 576.907 0.891535 1.49424 0
M  V30 6152 O 578.083 1.19782 1.61908 0
M  V30 6153 C 575.148 2.31965 2.57669 0
M  V30 6154 C 574.209 3.54838 2.41638 0
M  V30 6155 C 573.442 3.86901 3.67618 0
M  V30 6156 O 573.665 3.20163 4.72072 0
M  V30 6157 O 572.599 4.80309 3.62749 0
M  V30 6158 H 576.425 2.89145 0.928912 0
M  V30 6159 H 574.01 1.44112 0.393955 0
M  V30 6160 H 575.892 2.54673 3.35737 0
M  V30 6161 H 574.567 1.44271 2.89771 0
M  V30 6162 H 573.474 3.37369 1.61658 0
M  V30 6163 H 574.807 4.43019 2.14465 0
M  V30 6164 N 576.459 -0.456382 1.50847 0
M  V30 6165 C 577.407 -1.57318 1.71329 0
M  V30 6166 C 578.401 -1.59187 0.579287 0
M  V30 6167 O 579.607 -1.6316 0.76018 0
M  V30 6168 H 575.982 -0.5223 0.541024 0
M  V30 6169 H 577.953 -1.3721 2.64983 0
M  V30 6170 C 576.702 -2.95142 1.83811 0
M  V30 6171 H 576.025 -2.94428 2.70467 0
M  V30 6172 H 577.465 -3.72702 2.02161 0
M  V30 6173 C 575.924 -3.31636 0.593224 0
M  V30 6174 O 576.454 -4.00852 -0.260898 0
M  V30 6175 N 574.66 -2.87205 0.442902 0
M  V30 6176 H 574.207 -2.31051 1.13901 0
M  V30 6177 H 574.165 -3.11986 -0.38884 0
M  V30 6178 N 577.937 -1.40673 -0.710563 0
M  V30 6179 C 578.867 -1.44095 -1.83736 0
M  V30 6180 C 579.848 -0.301286 -1.67411 0
M  V30 6181 O 581.033 -0.510618 -1.87367 0
M  V30 6182 C 578.163 -1.30773 -3.21738 0
M  V30 6183 C 577.117 -2.42395 -3.52745 0
M  V30 6184 C 576.443 -2.14147 -4.89944 0
M  V30 6185 C 577.743 -3.84738 -3.53234 0
M  V30 6186 H 579.437 -2.38396 -1.81129 0
M  V30 6187 H 576.983 -1.14746 -0.870017 0
M  V30 6188 H 578.936 -1.31783 -4.00264 0
M  V30 6189 H 577.66 -0.329507 -3.24934 0
M  V30 6190 H 576.319 -2.40643 -2.76562 0
M  V30 6191 H 575.967 -1.14703 -4.89747 0
M  V30 6192 H 575.667 -2.88934 -5.11655 0
M  V30 6193 H 577.191 -2.16848 -5.70797 0
M  V30 6194 H 578.605 -3.88286 -4.2179 0
M  V30 6195 H 577.002 -4.59085 -3.86473 0
M  V30 6196 H 578.072 -4.13962 -2.52514 0
M  V30 6197 N 579.415 0.9433 -1.26252 0
M  V30 6198 C 580.325 2.07532 -1.09397 0
M  V30 6199 C 581.341 1.73977 -0.0280449 0
M  V30 6200 O 582.517 2.00067 -0.231337 0
M  V30 6201 C 579.582 3.39002 -0.726523 0
M  V30 6202 C 578.643 3.86353 -1.87163 0
M  V30 6203 C 577.876 5.11549 -1.52162 0
M  V30 6204 O 578.099 5.68834 -0.422385 0
M  V30 6205 O 577.033 5.53889 -2.35565 0
M  V30 6206 H 580.859 2.24658 -2.04359 0
M  V30 6207 H 578.444 1.05988 -1.05295 0
M  V30 6208 H 580.326 4.18 -0.534236 0
M  V30 6209 H 579.001 3.2312 0.193721 0
M  V30 6210 H 577.908 3.0831 -2.11886 0
M  V30 6211 H 579.241 4.06752 -2.77152 0
M  V30 6212 N 580.893 1.08022 1.14757 0
M  V30 6213 C 581.856 0.71048 2.1791 0
M  V30 6214 C 582.856 -0.252731 1.58801 0
M  V30 6215 O 584.046 -0.0327915 1.74169 0
M  V30 6216 C 581.178 0.0483203 3.40866 0
M  V30 6217 H 582.371 1.62384 2.52134 0
M  V30 6218 H 579.924 0.877595 1.29337 0
M  V30 6219 H 580.659 -0.876959 3.12218 0
M  V30 6220 H 580.444 0.741189 3.85031 0
M  V30 6221 H 581.934 -0.195471 4.17142 0
M  V30 6222 N 582.371 -1.3172 0.865308 0
M  V30 6223 C 583.281 -2.32394 0.320935 0
M  V30 6224 C 584.297 -1.64511 -0.566746 0
M  V30 6225 O 585.473 -1.95969 -0.464575 0
M  V30 6226 C 582.538 -3.43462 -0.472701 0
M  V30 6227 C 581.599 -4.27015 0.442385 0
M  V30 6228 C 580.832 -5.32779 -0.313469 0
M  V30 6229 O 581.055 -5.49158 -1.54214 0
M  V30 6230 O 579.989 -6.01015 0.326257 0
M  V30 6231 H 583.815 -2.80868 1.15528 0
M  V30 6232 H 581.4 -1.35535 0.628545 0
M  V30 6233 H 583.282 -4.11172 -0.922781 0
M  V30 6234 H 581.957 -2.97159 -1.28367 0
M  V30 6235 H 580.864 -3.62075 0.940866 0
M  V30 6236 H 582.197 -4.76871 1.21882 0
M  V30 6237 N 583.85 -0.624285 -1.44708 0
M  V30 6238 C 585.077 -0.132919 -2.06473 0
M  V30 6239 C 585.493 1.18967 -1.46602 0
M  V30 6240 O 584.85 1.72824 -0.586341 0
M  V30 6241 C 584.901 -0.00465418 -3.615 0
M  V30 6242 O 584.622 -1.27494 -4.19138 0
M  V30 6243 C 586.123 0.516213 -4.40284 0
M  V30 6244 H 583.343 -0.0765201 -0.666623 0
M  V30 6245 H 585.887 -0.856751 -1.85688 0
M  V30 6246 H 584.042 0.669583 -3.8157 0
M  V30 6247 H 584.456 -1.11536 -5.12504 0
M  V30 6248 H 585.93 0.554994 -5.49203 0
M  V30 6249 H 586.407 1.5419 -4.11245 0
M  V30 6250 H 587.013 -0.124542 -4.25118 0
M  V30 6251 N 585.328 1.53329 -0.364422 0
M  V30 6252 C 586.291 2.24323 0.470292 0
M  V30 6253 C 587.291 1.25068 1.01067 0
M  V30 6254 O 588.481 1.49354 0.896605 0
M  V30 6255 C 585.613 2.97908 1.65722 0
M  V30 6256 H 586.806 2.9952 -0.150917 0
M  V30 6257 H 584.359 1.55868 -0.116092 0
M  V30 6258 H 585.094 2.2695 2.31655 0
M  V30 6259 H 584.879 3.70732 1.27671 0
M  V30 6260 H 586.369 3.5188 2.24878 0
M  V30 6261 N 586.806 0.0935595 1.57322 0
M  V30 6262 C 588.217 -0.435807 1.81542 0
M  V30 6263 C 588.568 -1.68263 1.00907 0
M  V30 6264 O 587.693 -2.15087 0.237983 0
M  V30 6265 C 588.288 -0.797436 3.29282 0
M  V30 6266 C 586.847 -1.27155 3.54272 0
M  V30 6267 C 585.994 -0.267455 2.76007 0
M  V30 6268 H 588.945 0.31902 1.5546 0
M  V30 6269 H 588.966 -1.6571 3.42521 0
M  V30 6270 H 588.478 0.110206 3.87943 0
M  V30 6271 H 586.579 -2.19696 3.00939 0
M  V30 6272 H 586.692 -1.23445 4.62923 0
M  V30 6273 H 585.056 -0.749282 2.43429 0
M  V30 6274 H 585.839 0.632839 3.37417 0
M  V30 6275 N 588.284 -1.56567 -0.180126 0
M  V30 6276 C 589.214 -1.98753 -1.22553 0
M  V30 6277 C 590.195 -0.86175 -1.46656 0
M  V30 6278 O 591.38 -1.12719 -1.58139 0
M  V30 6279 C 588.51 -2.33988 -2.56645 0
M  V30 6280 C 587.464 -3.49445 -2.47128 0
M  V30 6281 C 586.79 -3.70397 -3.8563 0
M  V30 6282 C 588.09 -4.83171 -1.98352 0
M  V30 6283 H 589.784 -2.86332 -0.874896 0
M  V30 6284 H 587.33 -1.37757 -0.419414 0
M  V30 6285 H 589.283 -2.62097 -3.29974 0
M  V30 6286 H 588.007 -1.43309 -2.93479 0
M  V30 6287 H 586.666 -3.2145 -1.76254 0
M  V30 6288 H 586.314 -2.77023 -4.19842 0
M  V30 6289 H 586.014 -4.48077 -3.80132 0
M  V30 6290 H 587.538 -4.00897 -4.60558 0
M  V30 6291 H 588.952 -5.10213 -2.61449 0
M  V30 6292 H 587.349 -5.64425 -2.03823 0
M  V30 6293 H 588.419 -4.75753 -0.937402 0
M  V30 6294 N 589.762 0.448376 -1.51087 0
M  V30 6295 C 591.173 1.0286 -1.5581 0
M  V30 6296 C 591.524 1.92583 -0.374989 0
M  V30 6297 O 590.649 2.10316 0.509533 0
M  V30 6298 C 591.244 1.87223 -2.8237 0
M  V30 6299 C 589.803 2.40314 -2.897 0
M  V30 6300 C 588.95 1.19238 -2.50355 0
M  V30 6301 H 591.901 0.230075 -1.57023 0
M  V30 6302 H 591.922 2.72553 -2.6551 0
M  V30 6303 H 591.434 1.21894 -3.68461 0
M  V30 6304 H 589.535 3.09129 -2.08014 0
M  V30 6305 H 589.648 2.73866 -3.93108 0
M  V30 6306 H 588.012 1.53428 -2.03303 0
M  V30 6307 H 588.795 0.555367 -3.38778 0
M  V30 6308 O 591.279 1.50177 0.59407 0
M  V30 6309 H 591.97 1.48064 1.24887 0
M  V30 END ATOM
M  V30 BEGIN BOND
M  V30 END BOND
M  V30 END CTAB
M  END
$$$$
