3455
  -OEChem-10051720203D

 65 68  0     0  0  0  0  0  0999 V2000
   -8.6280   -3.4349   -0.6568 F   0  0  0  0  0  0  0  0  0  0  0  0
   -4.7717    5.1463   -0.7205 F   0  0  0  0  0  0  0  0  0  0  0  0
   -2.9040   -0.8194   -0.1676 O   0  0  0  0  0  0  0  0  0  0  0  0
    3.4715    0.2165    0.4889 N   0  0  0  0  0  0  0  0  0  0  0  0
    0.7258   -0.6883    0.4541 N   0  0  0  0  0  0  0  0  0  0  0  0
    2.3762    1.0864    0.9349 C   0  0  0  0  0  0  0  0  0  0  0  0
    3.1306   -1.1937    0.7139 C   0  0  0  0  0  0  0  0  0  0  0  0
    1.0667    0.7214    0.2271 C   0  0  0  0  0  0  0  0  0  0  0  0
    1.8206   -1.5583    0.0072 C   0  0  0  0  0  0  0  0  0  0  0  0
    4.7190    0.5636    1.1668 C   0  0  0  0  0  0  0  0  0  0  0  0
   -0.5225   -1.0358   -0.2219 C   0  0  0  0  0  0  0  0  0  0  0  0
    5.9184    0.1275    0.3269 C   0  0  0  0  0  0  0  0  0  0  0  0
   -1.7164   -0.4729    0.5325 C   0  0  0  0  0  0  0  0  0  0  0  0
    7.2357    0.5020    1.0112 C   0  0  0  0  0  0  0  0  0  0  0  0
   -4.0610   -0.3202    0.4893 C   0  0  0  0  0  0  0  0  0  0  0  0
    8.4290    0.0449    0.2119 C   0  0  0  0  0  0  0  0  0  0  0  0
   -5.2880   -1.1564    0.1811 C   0  0  0  0  0  0  0  0  0  0  0  0
   -4.2512    1.1470    0.1647 C   0  0  0  0  0  0  0  0  0  0  0  0
    8.9733   -1.2204    0.4329 C   0  0  0  0  0  0  0  0  0  0  0  0
    8.9889    0.8867   -0.7492 C   0  0  0  0  0  0  0  0  0  0  0  0
   -5.3926   -1.8164   -1.0433 C   0  0  0  0  0  0  0  0  0  0  0  0
   -3.8162    1.6524   -1.0605 C   0  0  0  0  0  0  0  0  0  0  0  0
   -6.3116   -1.2662    1.1223 C   0  0  0  0  0  0  0  0  0  0  0  0
   -4.8621    1.9926    1.0908 C   0  0  0  0  0  0  0  0  0  0  0  0
   10.0775   -1.6436   -0.3069 C   0  0  0  0  0  0  0  0  0  0  0  0
   10.0931    0.4634   -1.4890 C   0  0  0  0  0  0  0  0  0  0  0  0
   10.6373   -0.8019   -1.2678 C   0  0  0  0  0  0  0  0  0  0  0  0
   -6.5210   -2.5863   -1.3263 C   0  0  0  0  0  0  0  0  0  0  0  0
   -3.9922    3.0035   -1.3596 C   0  0  0  0  0  0  0  0  0  0  0  0
   -7.4398   -2.0359    0.8394 C   0  0  0  0  0  0  0  0  0  0  0  0
   -5.0379    3.3436    0.7917 C   0  0  0  0  0  0  0  0  0  0  0  0
   -7.5445   -2.6960   -0.3848 C   0  0  0  0  0  0  0  0  0  0  0  0
   -4.6031    3.8490   -0.4334 C   0  0  0  0  0  0  0  0  0  0  0  0
    2.6106    2.1315    0.6982 H   0  0  0  0  0  0  0  0  0  0  0  0
    2.2416    1.0185    2.0231 H   0  0  0  0  0  0  0  0  0  0  0  0
    3.0371   -1.4084    1.7873 H   0  0  0  0  0  0  0  0  0  0  0  0
    3.9126   -1.8512    0.3191 H   0  0  0  0  0  0  0  0  0  0  0  0
    1.1590    0.9347   -0.8467 H   0  0  0  0  0  0  0  0  0  0  0  0
    0.2937    1.3866    0.6244 H   0  0  0  0  0  0  0  0  0  0  0  0
    1.5852   -2.6034    0.2429 H   0  0  0  0  0  0  0  0  0  0  0  0
    1.9548   -1.4903   -1.0810 H   0  0  0  0  0  0  0  0  0  0  0  0
    4.7896    1.6533    1.2838 H   0  0  0  0  0  0  0  0  0  0  0  0
    4.7661    0.1399    2.1783 H   0  0  0  0  0  0  0  0  0  0  0  0
   -0.5329   -0.7057   -1.2691 H   0  0  0  0  0  0  0  0  0  0  0  0
   -0.6480   -2.1267   -0.2574 H   0  0  0  0  0  0  0  0  0  0  0  0
    5.9021   -0.9559    0.1600 H   0  0  0  0  0  0  0  0  0  0  0  0
    5.8694    0.5983   -0.6639 H   0  0  0  0  0  0  0  0  0  0  0  0
   -1.7463   -0.9042    1.5413 H   0  0  0  0  0  0  0  0  0  0  0  0
   -1.6535    0.6147    0.6242 H   0  0  0  0  0  0  0  0  0  0  0  0
    7.2890    1.5880    1.1604 H   0  0  0  0  0  0  0  0  0  0  0  0
    7.2791    0.0594    2.0148 H   0  0  0  0  0  0  0  0  0  0  0  0
   -3.8917   -0.4159    1.5723 H   0  0  0  0  0  0  0  0  0  0  0  0
    8.5447   -1.8860    1.1774 H   0  0  0  0  0  0  0  0  0  0  0  0
    8.5726    1.8738   -0.9319 H   0  0  0  0  0  0  0  0  0  0  0  0
   -4.6123   -1.7387   -1.7953 H   0  0  0  0  0  0  0  0  0  0  0  0
   -3.3484    1.0134   -1.8045 H   0  0  0  0  0  0  0  0  0  0  0  0
   -6.2435   -0.7615    2.0821 H   0  0  0  0  0  0  0  0  0  0  0  0
   -5.2021    1.6150    2.0512 H   0  0  0  0  0  0  0  0  0  0  0  0
   10.5010   -2.6289   -0.1352 H   0  0  0  0  0  0  0  0  0  0  0  0
   10.5288    1.1184   -2.2378 H   0  0  0  0  0  0  0  0  0  0  0  0
   11.4969   -1.1316   -1.8441 H   0  0  0  0  0  0  0  0  0  0  0  0
   -6.6041   -3.0987   -2.2802 H   0  0  0  0  0  0  0  0  0  0  0  0
   -3.6560    3.3971   -2.3143 H   0  0  0  0  0  0  0  0  0  0  0  0
   -8.2365   -2.1222    1.5723 H   0  0  0  0  0  0  0  0  0  0  0  0
   -5.5124    4.0025    1.5129 H   0  0  0  0  0  0  0  0  0  0  0  0
  1 32  1  0  0  0  0
  2 33  1  0  0  0  0
  3 13  1  0  0  0  0
  3 15  1  0  0  0  0
  4  6  1  0  0  0  0
  4  7  1  0  0  0  0
  4 10  1  0  0  0  0
  5  8  1  0  0  0  0
  5  9  1  0  0  0  0
  5 11  1  0  0  0  0
  6  8  1  0  0  0  0
  6 34  1  0  0  0  0
  6 35  1  0  0  0  0
  7  9  1  0  0  0  0
  7 36  1  0  0  0  0
  7 37  1  0  0  0  0
  8 38  1  0  0  0  0
  8 39  1  0  0  0  0
  9 40  1  0  0  0  0
  9 41  1  0  0  0  0
 10 12  1  0  0  0  0
 10 42  1  0  0  0  0
 10 43  1  0  0  0  0
 11 13  1  0  0  0  0
 11 44  1  0  0  0  0
 11 45  1  0  0  0  0
 12 14  1  0  0  0  0
 12 46  1  0  0  0  0
 12 47  1  0  0  0  0
 13 48  1  0  0  0  0
 13 49  1  0  0  0  0
 14 16  1  0  0  0  0
 14 50  1  0  0  0  0
 14 51  1  0  0  0  0
 15 17  1  0  0  0  0
 15 18  1  0  0  0  0
 15 52  1  0  0  0  0
 16 19  2  0  0  0  0
 16 20  1  0  0  0  0
 17 21  2  0  0  0  0
 17 23  1  0  0  0  0
 18 22  2  0  0  0  0
 18 24  1  0  0  0  0
 19 25  1  0  0  0  0
 19 53  1  0  0  0  0
 20 26  2  0  0  0  0
 20 54  1  0  0  0  0
 21 28  1  0  0  0  0
 21 55  1  0  0  0  0
 22 29  1  0  0  0  0
 22 56  1  0  0  0  0
 23 30  2  0  0  0  0
 23 57  1  0  0  0  0
 24 31  2  0  0  0  0
 24 58  1  0  0  0  0
 25 27  2  0  0  0  0
 25 59  1  0  0  0  0
 26 27  1  0  0  0  0
 26 60  1  0  0  0  0
 27 61  1  0  0  0  0
 28 32  2  0  0  0  0
 28 62  1  0  0  0  0
 29 33  2  0  0  0  0
 29 63  1  0  0  0  0
 30 32  1  0  0  0  0
 30 64  1  0  0  0  0
 31 33  1  0  0  0  0
 31 65  1  0  0  0  0
M  END
> <DATABASE_ID>
DB03701

> <DATABASE_NAME>
drugbank

> <ORIGINAL_SOURCE>
PUBCHEM

> <ORIGINAL_SOURCE_URL>
https://pubchem.ncbi.nlm.nih.gov/rest/pug/compound/inchikey/NAUWTFJOPJWYOT-UHFFFAOYSA-N/SDF?record_type=3d

> <SMILES>
FC1=CC=C(C=C1)C(OCCN1CCN(CCCC2=CC=CC=C2)CC1)C1=CC=C(F)C=C1

> <INCHI_IDENTIFIER>
InChI=1S/C28H32F2N2O/c29-26-12-8-24(9-13-26)28(25-10-14-27(30)15-11-25)33-22-21-32-19-17-31(18-20-32)16-4-7-23-5-2-1-3-6-23/h1-3,5-6,8-15,28H,4,7,16-22H2

> <INCHI_KEY>
NAUWTFJOPJWYOT-UHFFFAOYSA-N

> <FORMULA>
C28H32F2N2O

> <MOLECULAR_WEIGHT>
450.574

> <EXACT_MASS>
450.248269984

> <JCHEM_ACCEPTOR_COUNT>
3

> <JCHEM_ATOM_COUNT>
65

> <JCHEM_AVERAGE_POLARIZABILITY>
49.92944485795749

> <JCHEM_BIOAVAILABILITY>
1

> <JCHEM_DONOR_COUNT>
0

> <JCHEM_FORMAL_CHARGE>
0

> <JCHEM_GHOSE_FILTER>
0

> <JCHEM_IUPAC>
1-{2-[bis(4-fluorophenyl)methoxy]ethyl}-4-(3-phenylpropyl)piperazine

> <ALOGPS_LOGP>
4.90

> <JCHEM_LOGP>
6.242133701

> <ALOGPS_LOGS>
-5.51

> <JCHEM_MDDR_LIKE_RULE>
1

> <JCHEM_NUMBER_OF_RINGS>
4

> <JCHEM_PHYSIOLOGICAL_CHARGE>
1

> <JCHEM_PKA_STRONGEST_BASIC>
8.577007711216265

> <JCHEM_POLAR_SURFACE_AREA>
15.71

> <JCHEM_REFRACTIVITY>
130.3785

> <JCHEM_ROTATABLE_BOND_COUNT>
10

> <JCHEM_RULE_OF_FIVE>
0

> <ALOGPS_SOLUBILITY>
1.39e-03 g/l

> <JCHEM_TRADITIONAL_IUPAC>
vanoxerine

> <JCHEM_VEBER_RULE>
1

> <DRUGBANK_ID>
DB03701

> <SECONDARY_ACCESSION_NUMBERS>
EXPT03312

> <DRUG_GROUPS>
investigational

> <GENERIC_NAME>
Vanoxerine

> <SYNONYMS>
1-(2-(bis(p-fluorophenyl)methoxy)ethyl)-4-(3-phenylpropyl)piperazine; vanoxerina; Vanoxerine

> <SALTS>
Vanoxerine hydrochloride

$$$$