drugbank_target|Q46220 Iota toxin component Ia (DB02621)
 OpenBabel12092120233D

  0  0  0     0  0            999 V3000
M  V30 BEGIN CTAB
M  V30 COUNTS 7391 7467 0 0 0
M  V30 BEGIN ATOM
M  V30 1 H -0.908 1.98254 -0.117106 0
M  V30 2 N 0 1.576 0 0
M  V30 3 C 0.933 2.03868 1.02534 0
M  V30 4 C 1.911 0.928543 1.3348 0
M  V30 5 O 3.095 1.19667 1.45644 0
M  V30 6 C 0.222 2.43627 2.35294 0
M  V30 7 C -0.732 3.65373 2.2001 0
M  V30 8 S 0.101 5.13292 1.52614 0
M  V30 9 C 1.257 5.56322 2.86805 0
M  V30 10 H 1.49 2.90518 0.631377 0
M  V30 11 H -0.977 1.52953 0.210867 0
M  V30 12 H 0.981 2.67203 3.11629 0
M  V30 13 H -0.358 1.57376 2.7183 0
M  V30 14 H -1.165 3.90944 3.18086 0
M  V30 15 H -1.563 3.418 1.51819 0
M  V30 16 H 0.729 5.58782 3.83104 0
M  V30 17 H 1.672 6.56266 2.65933 0
M  V30 18 H 2.08 4.83886 2.90714 0
M  V30 19 N 1.4781 -0.272755 1.55222 0
M  V30 20 C 2.4251 -1.33716 1.88119 0
M  V30 21 C 3.3951 -1.49066 0.73271 0
M  V30 22 O 4.5801 -1.63469 0.984002 0
M  V30 23 C 1.7201 -2.69238 2.15882 0
M  V30 24 C 0.8331 -2.62108 3.43399 0
M  V30 25 C -0.0319 -3.89811 3.60861 0
M  V30 26 C -0.9929 -3.77193 4.8207 0
M  V30 27 N -1.8559 -4.9673 4.96189 0
M  V30 28 H 2.9841 -1.04962 2.78903 0
M  V30 29 H 0.5211 -0.507088 1.38083 0
M  V30 30 H 2.4791 -3.48089 2.29978 0
M  V30 31 H 1.1091 -2.96194 1.28331 0
M  V30 32 H 0.1611 -1.74967 3.37773 0
M  V30 33 H 1.4731 -2.48685 4.32386 0
M  V30 34 H 0.6271 -4.77103 3.74777 0
M  V30 35 H -0.6339 -4.06102 2.7006 0
M  V30 36 H -1.6289 -2.88284 4.68159 0
M  V30 37 H -0.4039 -3.62421 5.74307 0
M  V30 38 H -2.4579 -5.13431 4.08319 0
M  V30 39 H -2.5409 -4.85839 5.79221 0
M  V30 40 H -1.2729 -5.85594 5.1449 0
M  V30 41 N 2.9562 -1.48159 -0.537278 0
M  V30 42 C 3.9032 -1.62138 -1.64256 0
M  V30 43 C 4.8732 -0.463668 -1.59497 0
M  V30 44 O 6.0582 -0.686241 -1.78032 0
M  V30 45 C 3.1982 -1.66028 -3.02537 0
M  V30 46 C 2.3112 -2.92855 -3.17585 0
M  V30 47 C 1.4462 -2.87952 -4.46382 0
M  V30 48 C 0.4852 -4.09516 -4.54932 0
M  V30 49 N -0.3778 -4.02733 -5.75109 0
M  V30 50 H 4.4622 -2.56529 -1.51647 0
M  V30 51 H 1.9992 -1.27224 -0.738414 0
M  V30 52 H 3.9572 -1.66265 -3.82638 0
M  V30 53 H 2.5872 -0.751331 -3.13934 0
M  V30 54 H 1.6392 -3.02395 -2.30784 0
M  V30 55 H 2.9512 -3.82822 -3.19764 0
M  V30 56 H 2.1052 -2.8655 -5.34765 0
M  V30 57 H 0.8442 -1.95702 -4.46712 0
M  V30 58 H -0.1508 -4.11201 -3.64957 0
M  V30 59 H 1.0742 -5.02917 -4.56346 0
M  V30 60 H -0.9798 -3.13299 -5.76351 0
M  V30 61 H -1.0628 -4.86397 -5.78752 0
M  V30 62 H 0.2052 -4.05379 -6.65799 0
M  V30 63 N 4.4343 0.785586 -1.36625 0
M  V30 64 C 5.6803 1.54591 -1.31261 0
M  V30 65 C 6.0133 1.93906 0.106823 0
M  V30 66 O 5.2883 1.63007 1.06108 0
M  V30 67 C 5.5713 2.82038 -2.23889 0
M  V30 68 C 5.4243 2.49066 -3.74548 0
M  V30 69 C 6.7433 3.83887 -2.15217 0
M  V30 70 H 3.8623 0.560846 -0.478143 0
M  V30 71 H 6.5043 0.902278 -1.67209 0
M  V30 72 H 4.6543 3.36961 -1.93363 0
M  V30 73 H 6.3263 2.00164 -4.15611 0
M  V30 74 H 4.5693 1.81954 -3.93796 0
M  V30 75 H 5.2403 3.40109 -4.34776 0
M  V30 76 H 7.7163 3.38421 -2.42096 0
M  V30 77 H 6.5923 4.70806 -2.82193 0
M  V30 78 H 6.8533 4.27131 -1.14068 0
M  V30 79 N 5.9124 1.20967 1.01018 0
M  V30 80 C 6.8604 0.961223 2.1181 0
M  V30 81 C 7.8544 -0.0897034 1.69162 0
M  V30 82 O 9.0604 0.0612271 1.79896 0
M  V30 83 H 5.4354 0.29355 0.692338 0
M  V30 84 H 7.4064 1.90178 2.29946 0
M  V30 85 C 6.1554 0.536854 3.4353 0
M  V30 86 H 5.4784 1.33713 3.76777 0
M  V30 87 H 6.9184 0.402286 4.22087 0
M  V30 88 C 5.3774 -0.751574 3.2841 0
M  V30 89 O 5.9074 -1.80841 3.58691 0
M  V30 90 N 4.1134 -0.716079 2.81639 0
M  V30 91 H 3.6604 0.144236 2.57196 0
M  V30 92 H 3.6184 -1.57847 2.71904 0
M  V30 93 N 7.3905 -1.2043 1.01659 0
M  V30 94 C 8.3375 -2.23215 0.586822 0
M  V30 95 C 9.3075 -1.61382 -0.393085 0
M  V30 96 O 10.4925 -1.88544 -0.292525 0
M  V30 97 C 7.6325 -3.45032 -0.0687464 0
M  V30 98 C 6.7455 -4.21296 0.955724 0
M  V30 99 C 5.8805 -5.30507 0.271208 0
M  V30 100 C 4.9195 -5.98515 1.28244 0
M  V30 101 N 4.0565 -6.99316 0.62459 0
M  V30 102 H 8.8965 -2.59336 1.46796 0
M  V30 103 H 6.4335 -1.27431 0.734836 0
M  V30 104 H 8.3915 -4.1459 -0.465965 0
M  V30 105 H 7.0215 -3.09604 -0.913529 0
M  V30 106 H 6.0735 -3.50803 1.4711 0
M  V30 107 H 7.3855 -4.6803 1.72479 0
M  V30 108 H 6.5395 -6.06428 -0.18151 0
M  V30 109 H 5.2785 -4.8481 -0.530163 0
M  V30 110 H 4.2835 -5.21355 1.74554 0
M  V30 111 H 5.5085 -6.46298 2.08509 0
M  V30 112 H 3.4545 -6.55812 -0.156914 0
M  V30 113 H 3.3715 -7.44178 1.33172 0
M  V30 114 H 4.6395 -7.79255 0.195462 0
M  V30 115 N 8.8686 -0.792821 -1.36206 0
M  V30 116 C 10.0936 -0.377701 -2.03932 0
M  V30 117 C 10.5186 0.998947 -1.59382 0
M  V30 118 O 9.8766 1.64421 -0.763903 0
M  V30 119 C 9.9246 -0.453635 -3.57735 0
M  V30 120 O 9.0286 0.538151 -4.08874 0
M  V30 121 H 8.3696 -0.159855 -0.644471 0
M  V30 122 H 10.8996 -1.07488 -1.7409 0
M  V30 123 H 10.9096 -0.318464 -4.06755 0
M  V30 124 H 9.5846 -1.45784 -3.89512 0
M  V30 125 H 8.1616 0.364359 -3.71116 0
M  V30 126 N 10.3467 1.47872 -0.545128 0
M  V30 127 C 11.5957 2.01695 -0.0145033 0
M  V30 128 C 11.9087 1.42609 1.33873 0
M  V30 129 O 13.1147 1.88021 1.95858 0
M  V30 130 C 11.5707 3.59892 0.0245068 0
M  V30 131 C 11.1787 4.27966 -1.32475 0
M  V30 132 C 12.9227 4.21507 0.50316 0
M  V30 133 C 10.8297 5.78136 -1.2455 0
M  V30 134 H 9.7597 0.753998 -0.00165172 0
M  V30 135 H 12.4107 1.69985 -0.691175 0
M  V30 136 H 10.7927 3.88509 0.766575 0
M  V30 137 H 11.9667 4.11003 -2.08357 0
M  V30 138 H 10.2817 3.78286 -1.74036 0
M  V30 139 H 12.8787 5.31538 0.580656 0
M  V30 140 H 13.2217 3.87855 1.51243 0
M  V30 141 H 13.7547 3.97376 -0.183681 0
M  V30 142 H 10.4937 6.16388 -2.23039 0
M  V30 143 H 10.0137 5.97469 -0.528282 0
M  V30 144 H 11.6927 6.40099 -0.942488 0
M  V30 145 N 11.8248 0.280983 1.55075 0
M  V30 146 C 13.0498 -0.340154 2.04592 0
M  V30 147 C 13.4748 -1.48246 1.15779 0
M  V30 148 O 12.8328 -1.80614 0.15761 0
M  V30 149 C 12.8808 -0.793104 3.5177 0
M  V30 150 O 11.9848 -1.89981 3.66034 0
M  V30 151 H 11.3258 -0.0694289 0.66036 0
M  V30 152 H 13.8558 0.416993 2.00306 0
M  V30 153 H 13.8658 -1.08729 3.93245 0
M  V30 154 H 12.5408 0.0426163 4.15878 0
M  V30 155 H 11.1178 -1.60771 3.36463 0
M  V30 156 N 13.3029 -1.57598 0.00835791 0
M  V30 157 C 14.5489 -1.91211 -0.675732 0
M  V30 158 C 14.8819 -0.883139 -1.72958 0
M  V30 159 O 14.1569 0.097016 -1.94258 0
M  V30 160 C 14.4399 -3.35379 -1.31123 0
M  V30 161 C 14.2929 -4.48999 -0.268356 0
M  V30 162 C 15.6119 -3.7912 -2.23508 0
M  V30 163 H 12.7309 -0.695374 -0.244179 0
M  V30 164 H 15.3729 -1.89901 0.0613655 0
M  V30 165 H 13.5229 -3.36626 -1.93946 0
M  V30 166 H 15.1949 -4.59887 0.360844 0
M  V30 167 H 13.4379 -4.31873 0.408482 0
M  V30 168 H 14.1089 -5.46851 -0.752218 0
M  V30 169 H 16.5849 -3.79477 -1.70693 0
M  V30 170 H 15.4609 -4.80729 -2.64936 0
M  V30 171 H 15.7219 -3.13455 -3.11766 0
M  V30 172 N 14.781 0.264519 -1.55364 0
M  V30 173 C 16.028 0.994986 -1.7637 0
M  V30 174 C 16.356 1.85976 -0.5695 0
M  V30 175 O 15.611 1.90509 0.44776 0
M  V30 176 C 15.91 1.9004 -3.02687 0
M  V30 177 C 15.576 1.19243 -4.34847 0
M  V30 178 C 14.238 0.996709 -4.70764 0
M  V30 179 C 16.59 0.689296 -5.16622 0
M  V30 180 C 13.918 0.285261 -5.86006 0
M  V30 181 C 16.27 -0.00860079 -6.32599 0
M  V30 182 C 14.934 -0.215963 -6.67151 0
M  V30 183 H 14.204 0.364091 -0.645383 0
M  V30 184 H 16.851 0.266543 -1.89636 0
M  V30 185 H 15.156 2.69533 -2.84357 0
M  V30 186 H 16.853 2.46695 -3.16137 0
M  V30 187 H 13.443 1.3549 -4.06621 0
M  V30 188 H 17.627 0.828108 -4.89342 0
M  V30 189 H 12.883 0.113961 -6.11294 0
M  V30 190 H 17.057 -0.406186 -6.95214 0
M  V30 191 H 14.684 -0.769217 -7.56298 0
M  V30 192 N 16.2591 1.48442 0.529413 0
M  V30 193 C 17.1891 1.65902 1.64313 0
M  V30 194 C 18.1701 0.507897 1.6234 0
M  V30 195 O 19.3551 0.740503 1.79528 0
M  V30 196 C 16.4851 1.69911 3.02898 0
M  V30 197 C 15.4391 2.8453 3.19729 0
M  V30 198 C 14.7651 2.73629 4.59381 0
M  V30 199 C 16.0651 4.25821 3.02447 0
M  V30 200 H 17.7591 2.5914 1.49955 0
M  V30 201 H 15.3051 1.24709 0.719982 0
M  V30 202 H 17.2581 1.80715 3.80684 0
M  V30 203 H 15.9821 0.732524 3.18279 0
M  V30 204 H 14.6411 2.73283 2.44361 0
M  V30 205 H 14.2891 1.74938 4.71599 0
M  V30 206 H 13.9891 3.50541 4.71588 0
M  V30 207 H 15.5131 2.86401 5.39265 0
M  V30 208 H 16.9271 4.37898 3.70024 0
M  V30 209 H 15.3241 5.03735 3.26146 0
M  V30 210 H 16.3941 4.42244 1.98867 0
M  V30 211 N 17.7372 -0.778329 1.37039 0
M  V30 212 C 18.9862 -1.53189 1.3121 0
M  V30 213 C 19.2992 -1.95328 -0.103095 0
M  V30 214 O 20.5052 -2.70012 -0.283826 0
M  V30 215 C 18.9612 -2.76591 2.30272 0
M  V30 216 C 18.5692 -2.41577 3.77286 0
M  V30 217 C 20.3132 -3.5455 2.33441 0
M  V30 218 C 18.2202 -3.61441 4.68096 0
M  V30 219 H 17.1502 -0.5751 0.487622 0
M  V30 220 H 19.8012 -0.853101 1.62464 0
M  V30 221 H 18.1832 -3.46326 1.92027 0
M  V30 222 H 19.3572 -1.79668 4.2433 0
M  V30 223 H 17.6722 -1.76806 3.76999 0
M  V30 224 H 20.2692 -4.43628 2.98493 0
M  V30 225 H 20.6122 -3.93936 1.34611 0
M  V30 226 H 21.1452 -2.91805 2.7036 0
M  V30 227 H 17.8842 -3.27142 5.6803 0
M  V30 228 H 17.4042 -4.22478 4.25761 0
M  V30 229 H 19.0832 -4.28335 4.8491 0
M  V30 230 N 19.2153 -1.21501 -1.00376 0
M  V30 231 C 20.1453 -0.999478 -2.11028 0
M  V30 232 C 21.1263 0.0759671 -1.6993 0
M  V30 233 O 22.3113 -0.0841106 -1.94018 0
M  V30 234 C 19.4413 -0.564709 -3.42678 0
M  V30 235 C 18.3953 -1.58486 -3.97576 0
M  V30 236 C 17.7213 -1.00628 -5.25146 0
M  V30 237 C 19.0213 -2.97204 -4.29496 0
M  V30 238 H 20.7153 -1.92495 -2.29317 0
M  V30 239 H 18.2613 -0.92693 -1.102 0
M  V30 240 H 20.2143 -0.401091 -4.19487 0
M  V30 241 H 18.9383 0.396411 -3.24185 0
M  V30 242 H 17.5973 -1.73606 -3.22888 0
M  V30 243 H 17.2453 -0.0368439 -5.02987 0
M  V30 244 H 16.9453 -1.68771 -5.62841 0
M  V30 245 H 18.4693 -0.854015 -6.04598 0
M  V30 246 H 19.8833 -2.8552 -4.97143 0
M  V30 247 H 18.2803 -3.62372 -4.78338 0
M  V30 248 H 19.3503 -3.47956 -3.3772 0
M  V30 249 N 20.6934 1.19889 -1.02296 0
M  V30 250 C 21.9234 1.93109 -0.734332 0
M  V30 251 C 22.3314 1.75377 0.709889 0
M  V30 252 O 21.6744 1.06912 1.49384 0
M  V30 253 C 21.7364 3.45362 -0.99827 0
M  V30 254 C 21.4004 3.8686 -2.43287 0
M  V30 255 C 22.3974 3.92102 -3.41397 0
M  V30 256 C 20.0824 4.18668 -2.77529 0
M  V30 257 C 22.0764 4.28573 -4.71809 0
M  V30 258 C 19.7634 4.54813 -4.08153 0
M  V30 259 C 20.7614 4.59739 -5.05103 0
M  V30 260 O 20.4494 4.95051 -6.33388 0
M  V30 261 H 20.1814 0.620409 -0.268456 0
M  V30 262 H 22.7354 1.53144 -1.3688 0
M  V30 263 H 20.9654 3.85482 -0.306645 0
M  V30 264 H 22.6544 3.99814 -0.700234 0
M  V30 265 H 23.4204 3.67685 -3.1628 0
M  V30 266 H 19.2994 4.14021 -2.0275 0
M  V30 267 H 22.8434 4.32333 -5.4748 0
M  V30 268 H 18.7404 4.78687 -4.33047 0
M  V30 269 H 19.5084 5.1302 -6.37772 0
M  V30 270 N 22.1715 0.800033 1.35784 0
M  V30 271 C 23.1015 0.220184 2.3246 0
M  V30 272 C 24.0825 -0.65073 1.57161 0
M  V30 273 O 25.2675 -0.582359 1.85263 0
M  V30 274 C 22.3975 -0.637353 3.41402 0
M  V30 275 C 21.3515 0.134531 4.27789 0
M  V30 276 C 20.6775 -0.844285 5.27992 0
M  V30 277 C 21.9775 1.32979 5.05088 0
M  V30 278 H 23.6715 1.02787 2.81203 0
M  V30 279 H 21.2175 0.495717 1.35199 0
M  V30 280 H 23.1705 -1.05302 4.08031 0
M  V30 281 H 21.8945 -1.47785 2.91251 0
M  V30 282 H 20.5535 0.531296 3.6273 0
M  V30 283 H 20.2015 -1.68011 4.74111 0
M  V30 284 H 19.9015 -0.332184 5.8666 0
M  V30 285 H 21.4255 -1.2583 5.97494 0
M  V30 286 H 22.8395 0.98934 5.64699 0
M  V30 287 H 21.2365 1.77593 5.7322 0
M  V30 288 H 22.3065 2.11978 4.36111 0
M  V30 289 N 23.6496 -1.47581 0.552962 0
M  V30 290 C 24.8986 -2.01684 0.0251995 0
M  V30 291 C 25.2116 -1.43317 -1.33115 0
M  V30 292 O 26.4176 -1.89057 -1.94858 0
M  V30 293 C 24.8736 -3.599 -0.00542052 0
M  V30 294 C 24.4816 -4.27257 1.34742 0
M  V30 295 C 26.2256 -4.21768 -0.4808 0
M  V30 296 C 24.1326 -5.77467 1.27614 0
M  V30 297 H 23.0626 -0.753979 0.00565033 0
M  V30 298 H 25.7136 -1.69616 0.70018 0
M  V30 299 H 24.0956 -3.88911 -0.745961 0
M  V30 300 H 25.2696 -4.09893 2.10534 0
M  V30 301 H 23.5846 -3.77358 1.76039 0
M  V30 302 H 26.1816 -5.31838 -0.55246 0
M  V30 303 H 26.5246 -3.88651 -1.49184 0
M  V30 304 H 27.0576 -3.97273 0.204752 0
M  V30 305 H 23.7966 -6.15196 2.26304 0
M  V30 306 H 23.3166 -5.9718 0.55996 0
M  V30 307 H 24.9956 -6.3959 0.976421 0
M  V30 308 N 25.1277 -0.289203 -1.54924 0
M  V30 309 C 26.0577 0.58549 -2.2604 0
M  V30 310 C 27.0387 1.14753 -1.25562 0
M  V30 311 O 28.2237 1.17906 -1.54311 0
M  V30 312 C 25.3537 1.76305 -2.99222 0
M  V30 313 C 24.3077 1.33191 -4.06748 0
M  V30 314 C 23.6337 2.5937 -4.6758 0
M  V30 315 C 24.9337 0.471775 -5.20165 0
M  V30 316 H 26.6277 -0.00763532 -2.99399 0
M  V30 317 H 24.1737 -0.00511229 -1.43999 0
M  V30 318 H 26.1267 2.38097 -3.47689 0
M  V30 319 H 24.8507 2.38223 -2.23422 0
M  V30 320 H 23.5097 0.737121 -3.59113 0
M  V30 321 H 23.1577 3.19576 -3.88433 0
M  V30 322 H 22.8577 2.31228 -5.40192 0
M  V30 323 H 24.3817 3.21985 -5.18804 0
M  V30 324 H 25.7957 0.995056 -5.64599 0
M  V30 325 H 24.1927 0.284639 -5.99425 0
M  V30 326 H 25.2627 -0.506041 -4.82252 0
M  V30 327 N 26.6058 1.57591 -0.0167156 0
M  V30 328 C 27.8338 1.95575 0.675128 0
M  V30 329 C 28.2488 0.892542 1.6637 0
M  V30 330 O 27.6058 -0.126912 1.82058 0
M  V30 331 C 27.6568 3.33608 1.39239 0
M  V30 332 O 27.3778 4.3585 0.443444 0
M  V30 333 C 28.8788 3.86151 2.17721 0
M  V30 334 H 26.0988 0.644423 0.186978 0
M  V30 335 H 28.6428 2.0437 -0.0728 0
M  V30 336 H 26.7978 3.2607 2.09182 0
M  V30 337 H 27.2118 5.158 0.951358 0
M  V30 338 H 28.6858 4.85114 2.63379 0
M  V30 339 H 29.1628 3.19738 3.01105 0
M  V30 340 H 29.7688 3.96918 1.52761 0
M  V30 341 N 28.0839 -0.256276 1.55502 0
M  V30 342 C 29.3089 -1.00766 1.81276 0
M  V30 343 C 29.7339 -1.78524 0.59252 0
M  V30 344 O 29.0919 -1.75413 -0.45827 0
M  V30 345 C 29.1399 -1.92869 3.04687 0
M  V30 346 O 28.2439 -3.019 2.80945 0
M  V30 347 H 27.5849 -0.287224 0.598664 0
M  V30 348 H 30.1149 -0.280109 2.02674 0
M  V30 349 H 30.1249 -2.34511 3.33869 0
M  V30 350 H 28.7999 -1.35689 3.93143 0
M  V30 351 H 27.3769 -2.64454 2.62904 0
M  V30 352 N 29.562 -1.4872 -0.521534 0
M  V30 353 C 30.787 -1.61101 -1.30618 0
M  V30 354 C 31.212 -0.274611 -1.86085 0
M  V30 355 O 30.57 0.754937 -1.64834 0
M  V30 356 C 30.618 -2.66709 -2.4269 0
M  V30 357 O 29.722 -2.24456 -3.45967 0
M  V30 358 H 29.063 -0.539921 -0.386499 0
M  V30 359 H 31.593 -1.94767 -0.626645 0
M  V30 360 H 31.603 -2.88245 -2.88754 0
M  V30 361 H 30.278 -3.63727 -2.01682 0
M  V30 362 H 28.855 -2.13168 -3.05964 0
M  V30 363 N 31.0401 0.771051 -1.3745 0
M  V30 364 C 32.2871 1.52963 -1.32697 0
M  V30 365 C 32.6151 1.94299 0.0883274 0
M  V30 366 O 31.8701 1.64397 1.0617 0
M  V30 367 C 32.1691 2.80676 -2.2126 0
M  V30 368 C 31.8351 2.58389 -3.69521 0
M  V30 369 C 30.4971 2.52019 -4.09927 0
M  V30 370 C 32.8491 2.38469 -4.63446 0
M  V30 371 C 30.1771 2.23721 -5.42371 0
M  V30 372 C 32.5291 2.11694 -5.96128 0
M  V30 373 C 31.1931 2.03769 -6.35637 0
M  V30 374 H 30.4631 0.559732 -0.485573 0
M  V30 375 H 33.1101 0.888083 -1.69662 0
M  V30 376 H 31.4151 3.49392 -1.77291 0
M  V30 377 H 33.1121 3.38557 -2.14895 0
M  V30 378 H 29.7021 2.6421 -3.37478 0
M  V30 379 H 33.8861 2.4238 -4.33089 0
M  V30 380 H 29.1421 2.16081 -5.71943 0
M  V30 381 H 33.3161 1.9528 -6.6846 0
M  V30 382 H 30.9431 1.81606 -7.38189 0
M  V30 383 N 32.5182 1.22032 0.997298 0
M  V30 384 C 33.9292 1.0397 1.55071 0
M  V30 385 C 34.2802 -0.398192 1.92117 0
M  V30 386 O 33.4052 -1.28254 1.74298 0
M  V30 387 C 34.0002 1.88109 2.81781 0
M  V30 388 C 32.5592 1.74357 3.33581 0
M  V30 389 C 31.7062 1.84846 2.06706 0
M  V30 390 H 34.6572 1.35941 0.818883 0
M  V30 391 H 34.6782 1.39589 3.53971 0
M  V30 392 H 34.1902 2.92754 2.54787 0
M  V30 393 H 32.2912 0.72427 3.65493 0
M  V30 394 H 32.4042 2.56772 4.04481 0
M  V30 395 H 30.7682 1.28238 2.20062 0
M  V30 396 H 31.5512 2.91014 1.82114 0
M  V30 397 N 33.9963 -1.19345 1.0293 0
M  V30 398 C 35.2213 -1.93538 0.745511 0
M  V30 399 C 35.6463 -1.75007 -0.689511 0
M  V30 400 O 35.0043 -1.05265 -1.47611 0
M  V30 401 C 35.0523 -3.43336 1.10239 0
M  V30 402 O 34.1563 -4.11806 0.221289 0
M  V30 403 H 33.4973 -0.604193 0.275404 0
M  V30 404 H 36.0273 -1.5141 1.37609 0
M  V30 405 H 36.0373 -3.94004 1.05947 0
M  V30 406 H 34.7123 -3.56146 2.14786 0
M  V30 407 H 33.2893 -3.715 0.322842 0
M  V30 408 N 35.4744 -0.807222 -1.35358 0
M  V30 409 C 36.7044 -0.399796 -2.02695 0
M  V30 410 C 37.1124 0.994176 -1.60974 0
M  V30 411 O 36.4554 1.65209 -0.803226 0
M  V30 412 C 36.5174 -0.404445 -3.57218 0
M  V30 413 C 36.1814 -1.74904 -4.22206 0
M  V30 414 C 37.1784 -2.70743 -4.4384 0
M  V30 415 C 34.8634 -2.03322 -4.5931 0
M  V30 416 C 36.8574 -3.93183 -5.01683 0
M  V30 417 C 34.5444 -3.26026 -5.16866 0
M  V30 418 C 35.5424 -4.20774 -5.37994 0
M  V30 419 O 35.2304 -5.41312 -5.94337 0
M  V30 420 H 34.9624 -0.160517 -0.656666 0
M  V30 421 H 37.5164 -1.09235 -1.73945 0
M  V30 422 H 35.7464 0.344707 -3.85161 0
M  V30 423 H 37.4354 -0.0192429 -4.05895 0
M  V30 424 H 38.2014 -2.5008 -4.15554 0
M  V30 425 H 34.0804 -1.30384 -4.42178 0
M  V30 426 H 37.6244 -4.6715 -5.1809 0
M  V30 427 H 33.5214 -3.46559 -5.44579 0
M  V30 428 H 34.2894 -5.42618 -6.12787 0
M  V30 429 N 36.9525 1.47285 -0.560781 0
M  V30 430 C 38.1805 2.06855 -0.0430262 0
M  V30 431 C 38.5955 1.41291 1.25229 0
M  V30 432 O 37.9525 0.510648 1.7521 0
M  V30 433 C 38.0035 3.61178 0.152518 0
M  V30 434 O 37.7245 4.24285 -1.0915 0
M  V30 435 C 39.2255 4.37624 0.707145 0
M  V30 436 H 36.4455 0.669319 -0.0474652 0
M  V30 437 H 38.9895 1.89237 -0.77521 0
M  V30 438 H 37.1445 3.78298 0.834843 0
M  V30 439 H 37.5585 5.16868 -0.891482 0
M  V30 440 H 39.0325 5.46271 0.793244 0
M  V30 441 H 39.5095 4.04152 1.71923 0
M  V30 442 H 40.1155 4.25257 0.0604027 0
M  V30 443 N 38.4306 0.297415 1.54768 0
M  V30 444 C 39.6606 -0.315165 2.04182 0
M  V30 445 C 40.0686 -1.4834 1.17439 0
M  V30 446 O 39.4116 -1.82695 0.191891 0
M  V30 447 C 39.4736 -0.837583 3.49607 0
M  V30 448 C 39.1376 0.204912 4.5654 0
M  V30 449 C 40.1346 1.03214 5.09552 0
M  V30 450 C 37.8196 0.345578 5.0111 0
M  V30 451 C 39.8136 1.986 6.05671 0
M  V30 452 C 37.5006 1.30289 5.97049 0
M  V30 453 C 38.4986 2.12159 6.49213 0
M  V30 454 O 38.1866 3.06268 7.43273 0
M  V30 455 H 37.9186 -0.0729646 0.672051 0
M  V30 456 H 40.4726 0.433907 2.00765 0
M  V30 457 H 38.7026 -1.63712 3.50336 0
M  V30 458 H 40.3916 -1.36566 3.82236 0
M  V30 459 H 41.1576 0.934312 4.75916 0
M  V30 460 H 37.0366 -0.28171 4.60138 0
M  V30 461 H 40.5806 2.62542 6.46311 0
M  V30 462 H 36.4776 1.40145 6.30103 0
M  V30 463 H 37.2456 3.01205 7.61064 0
M  V30 464 N 39.9087 -1.5758 0.0250728 0
M  V30 465 C 40.8717 -2.08896 -0.943139 0
M  V30 466 C 41.8717 -1.00321 -1.25668 0
M  V30 467 O 43.0617 -1.26495 -1.19769 0
M  V30 468 C 40.1937 -2.55143 -2.26086 0
M  V30 469 H 41.3867 -2.95723 -0.498775 0
M  V30 470 H 38.9397 -1.54703 -0.222888 0
M  V30 471 H 39.6747 -1.71633 -2.75159 0
M  V30 472 H 39.4597 -3.34461 -2.04641 0
M  V30 473 H 40.9497 -2.95083 -2.95492 0
M  V30 474 N 41.3868 0.248026 -1.55636 0
M  V30 475 C 42.3188 1.32993 -1.8667 0
M  V30 476 C 43.3318 1.44345 -0.752877 0
M  V30 477 O 44.5208 1.45715 -1.03098 0
M  V30 478 C 41.6208 2.70863 -2.03682 0
M  V30 479 C 40.7938 2.81792 -3.34532 0
M  V30 480 C 39.8528 4.005 -3.41301 0
M  V30 481 O 38.8788 3.9008 -4.14519 0
M  V30 482 N 40.0808 5.13618 -2.70512 0
M  V30 483 H 42.8458 1.06707 -2.8006 0
M  V30 484 H 40.4068 0.438129 -1.55859 0
M  V30 485 H 42.3988 3.48612 -2.05553 0
M  V30 486 H 40.9688 2.89862 -1.17041 0
M  V30 487 H 40.1888 1.90729 -3.44987 0
M  V30 488 H 41.4768 2.86043 -4.20781 0
M  V30 489 H 40.8748 5.24975 -2.10755 0
M  V30 490 H 39.4318 5.89505 -2.78077 0
M  V30 491 N 42.8649 1.48995 0.513639 0
M  V30 492 C 44.1419 1.48338 1.27495 0
M  V30 493 C 44.5219 0.204065 2.10111 0
M  V30 494 O 43.8699 -0.813881 2.13514 0
M  V30 495 C 44.0799 2.75498 2.14247 0
M  V30 496 C 45.4279 3.24484 2.73852 0
M  V30 497 O 46.4519 2.76528 2.24523 0
M  V30 498 O 45.3109 4.07974 3.6362 0
M  V30 499 H 42.4049 0.593149 0.576284 0
M  V30 500 H 44.9509 1.61246 0.528948 0
M  V30 501 H 43.7229 3.60109 1.53092 0
M  V30 502 H 43.3459 2.6539 2.96064 0
M  V30 503 N 44.343 -0.763751 1.37857 0
M  V30 504 C 45.273 -1.89103 1.36975 0
M  V30 505 C 46.254 -1.68439 0.237152 0
M  V30 506 O 47.439 -1.8918 0.438713 0
M  V30 507 C 44.569 -3.26496 1.18395 0
M  V30 508 C 43.523 -3.61741 2.28751 0
M  V30 509 C 42.849 -4.97762 1.95286 0
M  V30 510 C 44.149 -3.67665 3.70972 0
M  V30 511 H 45.843 -1.90099 2.31307 0
M  V30 512 H 43.389 -0.91319 1.11341 0
M  V30 513 H 45.342 -4.05003 1.16406 0
M  V30 514 H 44.066 -3.25955 0.205215 0
M  V30 515 H 42.725 -2.85547 2.29909 0
M  V30 516 H 42.373 -4.93769 0.959221 0
M  V30 517 H 42.073 -5.22313 2.69189 0
M  V30 518 H 43.597 -5.7866 1.94898 0
M  V30 519 H 45.011 -4.36307 3.719 0
M  V30 520 H 43.408 -4.03718 4.43995 0
M  V30 521 H 44.478 -2.68134 4.0402 0
M  V30 522 N 45.8211 -1.22559 -0.990812 0
M  V30 523 C 46.7531 -0.955325 -2.08342 0
M  V30 524 C 47.7661 0.0668408 -1.62663 0
M  V30 525 O 48.9551 -0.167421 -1.77713 0
M  V30 526 C 46.0551 -0.415566 -3.36342 0
M  V30 527 C 45.2281 -1.49544 -4.11042 0
M  V30 528 C 44.2871 -0.962399 -5.17324 0
M  V30 529 O 43.3131 -1.64907 -5.44788 0
M  V30 530 N 44.5151 0.215134 -5.80101 0
M  V30 531 H 47.2801 -1.89596 -2.32106 0
M  V30 532 H 44.8411 -1.13276 -1.15673 0
M  V30 533 H 46.8331 -0.0442386 -4.04676 0
M  V30 534 H 45.4031 0.430232 -3.09625 0
M  V30 535 H 44.6231 -2.04 -3.37309 0
M  V30 536 H 45.9111 -2.22195 -4.57719 0
M  V30 537 H 45.3091 0.789779 -5.6016 0
M  V30 538 H 43.8661 0.527826 -6.49659 0
M  V30 539 N 47.2992 1.18797 -1.03562 0
M  V30 540 C 48.5482 1.87978 -0.731235 0
M  V30 541 C 48.8612 1.80911 0.743671 0
M  V30 542 O 50.0672 2.45407 1.16137 0
M  V30 543 C 48.5232 3.3721 -1.25768 0
M  V30 544 C 48.1312 3.52818 -2.76085 0
M  V30 545 C 49.8752 4.11825 -1.0296 0
M  V30 546 C 47.7822 4.9598 -3.22114 0
M  V30 547 H 46.7122 0.704063 -0.269835 0
M  V30 548 H 49.3632 1.34266 -1.25079 0
M  V30 549 H 47.7452 3.90359 -0.666011 0
M  V30 550 H 48.9192 3.09965 -3.40966 0
M  V30 551 H 47.2342 2.91602 -2.97249 0
M  V30 552 H 49.8312 5.17411 -1.34869 0
M  V30 553 H 50.1742 4.16287 0.0333546 0
M  V30 554 H 50.7072 3.64833 -1.58562 0
M  V30 555 H 47.4462 4.96684 -4.27768 0
M  V30 556 H 46.9662 5.39569 -2.61965 0
M  V30 557 H 48.6452 5.6467 -3.15844 0
M  V30 558 N 48.7773 0.814389 1.34928 0
M  V30 559 C 49.7403 0.235759 2.27984 0
M  V30 560 C 50.7403 -0.581412 1.49921 0
M  V30 561 O 51.9303 -0.398758 1.69575 0
M  V30 562 C 49.0623 -0.670433 3.34242 0
M  V30 563 H 50.2553 1.05659 2.80671 0
M  V30 564 H 47.8083 0.585614 1.44915 0
M  V30 565 H 48.5433 -1.51466 2.86755 0
M  V30 566 H 48.3283 -0.0860822 3.92005 0
M  V30 567 H 49.8183 -1.06935 4.03676 0
M  V30 568 N 50.2554 -1.46986 0.568584 0
M  V30 569 C 51.4804 -2.07335 0.0520528 0
M  V30 570 C 51.9054 -1.41675 -1.23733 0
M  V30 571 O 51.2634 -0.495623 -1.74394 0
M  V30 572 C 51.3114 -3.60417 -0.11501 0
M  V30 573 O 50.4154 -3.95309 -1.17492 0
M  V30 574 H 49.7564 -0.661597 0.0564385 0
M  V30 575 H 52.2864 -1.88837 0.787507 0
M  V30 576 H 52.2964 -4.06698 -0.325644 0
M  V30 577 H 50.9714 -4.07601 0.826675 0
M  V30 578 H 49.5484 -3.60757 -0.943869 0
M  V30 579 N 51.7335 -0.305618 -1.54608 0
M  V30 580 C 52.6815 0.584119 -2.25146 0
M  V30 581 C 53.6755 1.13326 -1.25911 0
M  V30 582 O 54.8815 1.08337 -1.43747 0
M  V30 583 H 51.2565 0.206983 -0.722954 0
M  V30 584 H 53.2275 -0.033291 -2.98381 0
M  V30 585 C 51.9765 1.74225 -3.009 0
M  V30 586 H 51.2995 1.32892 -3.77067 0
M  V30 587 H 52.7395 2.34077 -3.53531 0
M  V30 588 C 51.1985 2.64914 -2.0814 0
M  V30 589 O 51.7285 3.66137 -1.65246 0
M  V30 590 N 49.9345 2.3275 -1.74 0
M  V30 591 H 49.4815 1.50479 -2.09078 0
M  V30 592 H 49.4395 2.93694 -1.12211 0
M  V30 593 N 53.2116 1.57565 -0.0334293 0
M  V30 594 C 54.4416 1.95996 0.653398 0
M  V30 595 C 54.8496 0.908749 1.65947 0
M  V30 596 O 54.1926 -0.117471 1.83324 0
M  V30 597 C 54.2546 3.30589 1.41249 0
M  V30 598 C 53.9186 4.53503 0.564263 0
M  V30 599 C 54.9156 5.19647 -0.16225 0
M  V30 600 C 52.6006 4.99801 0.500398 0
M  V30 601 C 54.5946 6.30412 -0.941255 0
M  V30 602 C 52.2816 6.10448 -0.282308 0
M  V30 603 C 53.2796 6.75612 -1.00184 0
M  V30 604 O 52.9676 7.84134 -1.77171 0
M  V30 605 H 52.6996 0.65027 0.184728 0
M  V30 606 H 55.2536 2.05199 -0.0907841 0
M  V30 607 H 53.4836 3.17888 2.20191 0
M  V30 608 H 55.1726 3.53892 1.98784 0
M  V30 609 H 55.9386 4.84846 -0.12227 0
M  V30 610 H 51.8176 4.48883 1.05002 0
M  V30 611 H 55.3616 6.81208 -1.50339 0
M  V30 612 H 51.2586 6.44686 -0.323989 0
M  V30 613 H 52.0266 8.00822 -1.69194 0
M  V30 614 N 54.6897 -0.239769 1.55765 0
M  V30 615 C 55.9387 -0.964754 1.77131 0
M  V30 616 C 56.2517 -1.86213 0.59868 0
M  V30 617 O 57.4577 -2.6244 0.695522 0
M  V30 618 C 55.9137 -1.76552 3.1362 0
M  V30 619 C 55.5217 -0.915185 4.38553 0
M  V30 620 C 57.2657 -2.48281 3.44321 0
M  V30 621 C 55.1727 -1.71225 5.66071 0
M  V30 622 H 54.1027 -0.363953 0.660344 0
M  V30 623 H 56.7537 -0.219181 1.82186 0
M  V30 624 H 55.1357 -2.55331 3.02691 0
M  V30 625 H 56.3097 -0.169217 4.60489 0
M  V30 626 H 54.6247 -0.310889 4.15238 0
M  V30 627 H 57.2217 -3.08382 4.36812 0
M  V30 628 H 57.5647 -3.20256 2.65973 0
M  V30 629 H 58.0977 -1.76507 3.56497 0
M  V30 630 H 54.8367 -1.03612 6.4726 0
M  V30 631 H 54.3567 -2.43331 5.48224 0
M  V30 632 H 56.0357 -2.27758 6.05587 0
M  V30 633 N 56.1678 -1.49265 -0.50573 0
M  V30 634 C 57.3958 -1.62215 -1.28429 0
M  V30 635 C 57.8108 -0.291697 -1.86533 0
M  V30 636 O 57.1678 0.722233 -1.67601 0
M  V30 637 C 57.2188 -2.68735 -2.41793 0
M  V30 638 O 56.9398 -3.96619 -1.86078 0
M  V30 639 C 58.4408 -2.92346 -3.3324 0
M  V30 640 H 55.6608 -0.546239 -0.389697 0
M  V30 641 H 58.2048 -1.95265 -0.607609 0
M  V30 642 H 56.3598 -2.38476 -3.053 0
M  V30 643 H 56.7738 -4.55256 -2.60465 0
M  V30 644 H 58.2478 -3.70623 -4.09075 0
M  V30 645 H 58.7248 -2.02081 -3.89948 0
M  V30 646 H 59.3308 -3.24003 -2.75503 0
M  V30 647 N 57.6459 0.756429 -1.3826 0
M  V30 648 C 58.9229 1.50584 -1.24835 0
M  V30 649 C 59.3029 2.10556 0.151485 0
M  V30 650 O 58.6509 1.96825 1.1607 0
M  V30 651 C 58.8609 2.57448 -2.3563 0
M  V30 652 C 60.2089 3.24429 -2.73917 0
M  V30 653 O 61.2329 2.67751 -2.34921 0
M  V30 654 O 60.0919 4.26937 -3.41156 0
M  V30 655 H 57.1859 0.667664 -0.48801 0
M  V30 656 H 59.7319 0.792083 -1.5008 0
M  V30 657 H 58.5039 2.11362 -3.29305 0
M  V30 658 H 58.1269 3.36408 -2.11933 0
M  V30 659 N 59.124 1.23083 0.984299 0
M  V30 660 C 60.54 0.992637 1.24975 0
M  V30 661 C 60.74 -0.308618 1.99123 0
M  V30 662 O 59.796 -1.02905 2.30579 0
M  V30 663 C 61.109 2.19698 2.05312 0
M  V30 664 C 62.657 2.24147 2.18465 0
M  V30 665 C 63.132 3.44157 3.02192 0
M  V30 666 N 64.623 3.44372 3.09777 0
M  V30 667 C 65.358 4.33886 3.74874 0
M  V30 668 N 64.854 5.3363 4.41827 0
M  V30 669 N 66.647 4.21639 3.71721 0
M  V30 670 H 58.798 2.06731 0.487453 0
M  V30 671 H 61.061 0.906339 0.277944 0
M  V30 672 H 60.767 3.1411 1.58201 0
M  V30 673 H 60.641 2.20465 3.06064 0
M  V30 674 H 63.028 1.30277 2.64786 0
M  V30 675 H 63.109 2.27415 1.17115 0
M  V30 676 H 62.753 4.38332 2.56568 0
M  V30 677 H 62.683 3.3813 4.03702 0
M  V30 678 H 65.174 2.72201 2.62135 0
M  V30 679 H 65.487 5.98196 4.89266 0
M  V30 680 H 63.832 5.37534 4.40548 0
M  V30 681 H 67.023 3.42962 3.18582 0
M  V30 682 H 67.196 4.91604 4.22173 0
M  V30 683 N 60.6021 -1.18246 1.0419 0
M  V30 684 C 61.5651 -2.20128 0.638452 0
M  V30 685 C 62.5651 -1.57885 -0.304805 0
M  V30 686 O 63.7551 -1.73967 -0.0900369 0
M  V30 687 C 60.8871 -3.4084 -0.0637751 0
M  V30 688 H 62.0801 -2.57336 1.54007 0
M  V30 689 H 59.6331 -1.32152 0.834598 0
M  V30 690 H 60.3681 -3.09166 -0.979136 0
M  V30 691 H 60.1531 -3.8726 0.614198 0
M  V30 692 H 61.6431 -4.16274 -0.332512 0
M  V30 693 N 62.0802 -0.821533 -1.34494 0
M  V30 694 C 63.3272 -0.408946 -1.98328 0
M  V30 695 C 63.6552 1.02764 -1.65136 0
M  V30 696 O 62.9102 1.73026 -0.914349 0
M  V30 697 C 63.2092 -0.556512 -3.53041 0
M  V30 698 C 62.8752 -1.95861 -4.0614 0
M  V30 699 C 61.5372 -2.34217 -4.20352 0
M  V30 700 C 63.8892 -2.87523 -4.34718 0
M  V30 701 C 61.2172 -3.63572 -4.6047 0
M  V30 702 C 63.5692 -4.1634 -4.76281 0
M  V30 703 C 62.2332 -4.54675 -4.88699 0
M  V30 704 H 61.5032 -0.149644 -0.725732 0
M  V30 705 H 64.1502 -1.04521 -1.6046 0
M  V30 706 H 62.4552 0.163148 -3.9146 0
M  V30 707 H 64.1522 -0.217826 -4.00408 0
M  V30 708 H 60.7422 -1.65066 -3.95539 0
M  V30 709 H 64.9262 -2.59133 -4.23277 0
M  V30 710 H 60.1822 -3.93101 -4.68275 0
M  V30 711 H 64.3562 -4.87455 -4.97354 0
M  V30 712 H 61.9832 -5.54959 -5.19542 0
M  V30 713 N 63.5583 1.46682 -0.576371 0
M  V30 714 C 64.8073 2.01619 -0.0572825 0
M  V30 715 C 65.1203 1.45417 1.30818 0
M  V30 716 O 66.3263 1.92133 1.91825 0
M  V30 717 C 64.7823 3.59863 -0.0518371 0
M  V30 718 C 64.3903 4.25059 -1.41523 0
M  V30 719 C 66.1343 4.2248 0.413639 0
M  V30 720 C 64.0413 5.75364 -1.36785 0
M  V30 721 H 62.9713 0.753794 -0.0176448 0
M  V30 722 H 65.6223 1.68481 -0.727076 0
M  V30 723 H 64.0043 3.90048 0.683994 0
M  V30 724 H 65.1783 4.06491 -2.17029 0
M  V30 725 H 63.4933 3.7451 -1.8202 0
M  V30 726 H 66.0903 5.3265 0.467779 0
M  V30 727 H 66.4333 3.90976 1.42982 0
M  V30 728 H 66.9663 3.96897 -0.267929 0
M  V30 729 H 63.7053 6.11518 -2.36063 0
M  V30 730 H 63.2253 5.96214 -0.654895 0
M  V30 731 H 64.9043 6.37955 -1.07805 0
M  V30 732 N 65.0364 0.313813 1.54444 0
M  V30 733 C 65.9464 -0.565714 2.27677 0
M  V30 734 C 66.9624 -1.13754 1.31666 0
M  V30 735 O 68.1384 -1.15959 1.64668 0
M  V30 736 C 65.2034 -1.71528 3.01296 0
M  V30 737 C 64.2644 -1.17624 4.12872 0
M  V30 738 C 63.4974 -2.27102 4.8297 0
M  V30 739 O 63.7204 -3.47256 4.52514 0
M  V30 740 O 62.6544 -1.9307 5.70094 0
M  V30 741 H 66.4804 0.0287296 3.03686 0
M  V30 742 H 64.0654 0.0798312 1.49187 0
M  V30 743 H 65.9474 -2.38476 3.4743 0
M  V30 744 H 64.6224 -2.29608 2.2817 0
M  V30 745 H 63.5294 -0.472124 3.71109 0
M  V30 746 H 64.8624 -0.640695 4.88012 0
M  V30 747 N 66.5145 -1.57545 0.0417849 0
M  V30 748 C 67.9305 -1.56467 -0.314704 0
M  V30 749 C 68.1305 -1.04859 -1.72066 0
M  V30 750 O 67.1865 -0.700983 -2.42575 0
M  V30 751 C 68.4995 -3.00317 -0.15174 0
M  V30 752 C 70.0475 -3.12201 -0.223553 0
M  V30 753 C 70.5225 -4.57913 -0.0892295 0
M  V30 754 N 72.0135 -4.6297 -0.145808 0
M  V30 755 C 72.7485 -5.73362 -0.0658459 0
M  V30 756 N 72.2445 -6.92769 0.0659282 0
M  V30 757 N 74.0375 -5.6197 -0.12075 0
M  V30 758 H 66.1885 -1.89416 0.961014 0
M  V30 759 H 68.4515 -0.871862 0.372237 0
M  V30 760 H 68.1575 -3.42073 0.817254 0
M  V30 761 H 68.0315 -3.65892 -0.916692 0
M  V30 762 H 70.4185 -2.70349 -1.18301 0
M  V30 763 H 70.4995 -2.49323 0.571994 0
M  V30 764 H 70.1435 -5.00448 0.866867 0
M  V30 765 H 70.0735 -5.18786 -0.903802 0
M  V30 766 H 72.5645 -3.7709 -0.247286 0
M  V30 767 H 72.8775 -7.72707 0.119905 0
M  V30 768 H 71.2225 -6.94927 0.100885 0
M  V30 769 H 74.4135 -4.67572 -0.222187 0
M  V30 770 H 74.5865 -6.47977 -0.0549735 0
M  V30 771 N 67.9926 0.231505 -1.5589 0
M  V30 772 C 69.4036 0.799327 -1.68724 0
M  V30 773 C 69.7546 1.85398 -0.642022 0
M  V30 774 O 68.8796 2.1539 0.208784 0
M  V30 775 C 69.4746 1.45664 -3.05888 0
M  V30 776 C 68.0336 1.97197 -3.20609 0
M  V30 777 C 67.1806 0.828552 -2.64632 0
M  V30 778 H 70.1316 0.00702616 -1.58698 0
M  V30 779 H 70.1526 2.32517 -3.01191 0
M  V30 780 H 69.6646 0.688808 -3.81939 0
M  V30 781 H 67.7656 2.76813 -2.4941 0
M  V30 782 H 67.8786 2.15878 -4.27707 0
M  V30 783 H 66.2426 1.23321 -2.22854 0
M  V30 784 H 67.0256 0.0735544 -3.43221 0
M  V30 785 N 69.4707 1.49531 0.497807 0
M  V30 786 C 70.3807 1.69176 1.62532 0
M  V30 787 C 71.3967 0.5744 1.64246 0
M  V30 788 O 72.5727 0.849497 1.82608 0
M  V30 789 C 69.6377 1.75695 2.98885 0
M  V30 790 C 68.6987 2.9929 3.07773 0
M  V30 791 C 67.9317 3.05488 4.37622 0
M  V30 792 O 68.1547 2.19192 5.26603 0
M  V30 793 O 67.0887 3.9798 4.51548 0
M  V30 794 H 70.9147 2.647 1.48887 0
M  V30 795 H 68.4997 1.3331 0.674441 0
M  V30 796 H 70.3817 1.82317 3.79919 0
M  V30 797 H 69.0567 0.8335 3.12785 0
M  V30 798 H 67.9637 2.98183 2.25915 0
M  V30 799 H 69.2967 3.91125 2.98801 0
M  V30 800 N 70.9488 -0.749086 1.3866 0
M  V30 801 C 72.2258 -1.4992 1.25632 0
M  V30 802 C 72.6058 -2.10633 -0.140317 0
M  V30 803 O 71.9538 -1.97437 -1.15025 0
M  V30 804 C 72.1638 -2.56195 2.36992 0
M  V30 805 C 73.5118 -3.22972 2.75634 0
M  V30 806 O 74.5358 -2.66502 2.36337 0
M  V30 807 O 73.3948 -4.25122 3.43415 0
M  V30 808 H 70.4888 -0.665067 0.491544 0
M  V30 809 H 73.0348 -0.784113 1.50498 0
M  V30 810 H 71.8068 -2.09612 3.30422 0
M  V30 811 H 71.4298 -3.35279 2.13714 0
M  V30 812 N 72.4269 -1.23603 -0.977757 0
M  V30 813 C 73.6739 -1.06971 -1.71941 0
M  V30 814 C 74.0019 0.393009 -1.90488 0
M  V30 815 O 73.2569 1.30719 -1.4564 0
M  V30 816 C 73.5559 -1.7433 -3.11999 0
M  V30 817 C 73.2219 -3.24252 -3.13323 0
M  V30 818 C 71.8839 -3.65156 -3.13392 0
M  V30 819 C 74.2359 -4.20141 -3.08433 0
M  V30 820 C 71.5639 -5.00403 -3.0629 0
M  V30 821 C 73.9159 -5.55384 -3.02873 0
M  V30 822 C 72.5799 -5.95647 -3.01265 0
M  V30 823 H 71.8499 -0.391433 -0.629175 0
M  V30 824 H 74.4969 -1.53572 -1.14403 0
M  V30 825 H 72.8019 -1.20096 -3.7294 0
M  V30 826 H 74.4989 -1.58936 -3.68158 0
M  V30 827 H 71.0889 -2.91692 -3.14029 0
M  V30 828 H 75.2729 -3.89547 -3.07517 0
M  V30 829 H 70.5289 -5.3081 -3.03399 0
M  V30 830 H 74.7029 -6.29398 -2.98046 0
M  V30 831 H 72.3299 -7.0041 -2.95516 0
M  V30 832 N 73.905 1.17692 -1.04816 0
M  V30 833 C 74.835 2.23777 -0.666791 0
M  V30 834 C 75.816 1.66796 0.33361 0
M  V30 835 O 77.001 1.93039 0.212042 0
M  V30 836 C 74.131 3.47281 -0.0367933 0
M  V30 837 C 73.085 4.17059 -0.961546 0
M  V30 838 C 72.411 5.34342 -0.195626 0
M  V30 839 C 73.711 4.69713 -2.28402 0
M  V30 840 H 75.405 2.55933 -1.55367 0
M  V30 841 H 72.951 1.23019 -0.748484 0
M  V30 842 H 74.904 4.20706 0.241775 0
M  V30 843 H 73.628 3.14381 0.885004 0
M  V30 844 H 72.287 3.45541 -1.22462 0
M  V30 845 H 71.935 4.97692 0.728816 0
M  V30 846 H 71.635 5.81966 -0.811775 0
M  V30 847 H 73.159 6.10553 0.0757473 0
M  V30 848 H 74.573 5.34794 -2.06563 0
M  V30 849 H 72.97 5.279 -2.8538 0
M  V30 850 H 74.04 3.86726 -2.92525 0
M  V30 851 N 75.3831 0.828654 1.34056 0
M  V30 852 C 76.3301 0.252567 2.29414 0
M  V30 853 C 77.3001 -0.62588 1.53857 0
M  V30 854 O 78.4851 -0.566312 1.82202 0
M  V30 855 C 75.6251 -0.574831 3.40279 0
M  V30 856 C 74.7381 0.326499 4.30764 0
M  V30 857 C 73.8731 -0.511016 5.28736 0
M  V30 858 C 72.9121 0.389342 6.1086 0
M  V30 859 N 72.0491 -0.409439 7.00905 0
M  V30 860 H 76.8891 1.07108 2.78086 0
M  V30 861 H 74.4261 0.539677 1.36843 0
M  V30 862 H 76.3841 -1.06992 4.03248 0
M  V30 863 H 75.0141 -1.35841 2.92826 0
M  V30 864 H 74.0661 0.939837 3.68607 0
M  V30 865 H 75.3781 1.01857 4.88289 0
M  V30 866 H 74.5321 -1.07035 5.97184 0
M  V30 867 H 73.2711 -1.23657 4.71763 0
M  V30 868 H 72.2761 0.960769 5.4134 0
M  V30 869 H 73.5011 1.1131 6.69916 0
M  V30 870 H 71.4471 -1.11856 6.46393 0
M  V30 871 H 71.3641 0.224126 7.55668 0
M  V30 872 H 72.6321 -0.951336 7.73673 0
M  V30 873 N 76.8612 -1.46375 0.584142 0
M  V30 874 C 78.1382 -1.956 0.0033388 0
M  V30 875 C 78.5182 -1.52679 -1.45782 0
M  V30 876 O 77.8662 -0.77816 -2.14842 0
M  V30 877 C 78.0762 -3.48551 0.176891 0
M  V30 878 C 79.4242 -4.24576 0.0454609 0
M  V30 879 O 80.4482 -3.56043 0.105801 0
M  V30 880 O 79.3072 -5.46427 -0.0890376 0
M  V30 881 H 76.4012 -0.825547 -0.0490066 0
M  V30 882 H 78.9472 -1.56652 0.65256 0
M  V30 883 H 77.7192 -3.72683 1.1926 0
M  V30 884 H 77.3422 -3.94332 -0.508695 0
M  V30 885 N 78.3393 -0.321999 -1.54275 0
M  V30 886 C 79.2863 0.544664 -2.24281 0
M  V30 887 C 80.2563 1.1129 -1.23303 0
M  V30 888 O 81.4413 1.15354 -1.51981 0
M  V30 889 C 78.5813 1.70045 -3.00298 0
M  V30 890 C 77.6943 1.16159 -4.1609 0
M  V30 891 C 76.8293 2.28293 -4.79641 0
M  V30 892 C 75.8683 1.71648 -5.8754 0
M  V30 893 N 75.0053 2.77438 -6.44959 0
M  V30 894 H 79.8453 -0.0588907 -2.97942 0
M  V30 895 H 77.3823 -0.0408345 -1.47043 0
M  V30 896 H 79.3403 2.38054 -3.42616 0
M  V30 897 H 77.9703 2.27531 -2.28975 0
M  V30 898 H 77.0223 0.373092 -3.78566 0
M  V30 899 H 78.3343 0.707087 -4.93763 0
M  V30 900 H 77.4883 3.0421 -5.2492 0
M  V30 901 H 76.2273 2.77079 -4.01346 0
M  V30 902 H 75.2323 0.942282 -5.41665 0
M  V30 903 H 76.4573 1.23741 -6.67731 0
M  V30 904 H 74.4033 3.25519 -5.69538 0
M  V30 905 H 74.3203 2.36547 -7.1804 0
M  V30 906 H 75.5883 3.53189 -6.94894 0
M  V30 907 N 79.8174 1.5752 -0.0501392 0
M  V30 908 C 80.7274 2.14952 0.939827 0
M  V30 909 C 81.7434 1.10706 1.34239 0
M  V30 910 O 82.9194 1.42869 1.41952 0
M  V30 911 C 79.9844 2.68232 2.19665 0
M  V30 912 C 79.0454 3.87272 1.85253 0
M  V30 913 C 78.2784 4.38002 3.04943 0
M  V30 914 O 78.5014 3.87811 4.18281 0
M  V30 915 O 77.4354 5.29602 2.86017 0
M  V30 916 H 81.2614 2.9986 0.481392 0
M  V30 917 H 78.8464 1.4841 0.171699 0
M  V30 918 H 80.7284 3.02475 2.93406 0
M  V30 919 H 79.4034 1.86395 2.64648 0
M  V30 920 H 78.3104 3.5792 1.0883 0
M  V30 921 H 79.6434 4.70336 1.4507 0
M  V30 922 N 81.2955 -0.223234 1.56011 0
M  V30 923 C 82.2435 -1.29627 1.93131 0
M  V30 924 C 83.2375 -1.48608 0.813146 0
M  V30 925 O 84.4435 -1.49802 0.997966 0
M  V30 926 H 80.8185 -0.434563 0.613726 0
M  V30 927 H 82.7895 -0.955995 2.82672 0
M  V30 928 C 81.5385 -2.63983 2.26292 0
M  V30 929 H 80.8615 -2.50185 3.11846 0
M  V30 930 H 82.3015 -3.3788 2.56151 0
M  V30 931 C 80.7605 -3.18866 1.08747 0
M  V30 932 O 81.2905 -4.00192 0.347727 0
M  V30 933 N 79.4965 -2.77217 0.871743 0
M  V30 934 H 79.0435 -2.1119 1.47501 0
M  V30 935 H 79.0015 -3.1428 0.0869905 0
M  V30 936 N 82.7736 -1.49793 -0.48987 0
M  V30 937 C 83.7366 -1.66752 -1.57246 0
M  V30 938 C 84.7366 -0.538867 -1.51502 0
M  V30 939 O 85.9266 -0.805545 -1.54456 0
M  V30 940 C 83.0586 -1.67528 -2.96896 0
M  V30 941 H 84.2516 -2.63321 -1.43534 0
M  V30 942 H 81.8046 -1.38992 -0.714914 0
M  V30 943 H 82.5396 -0.725837 -3.16073 0
M  V30 944 H 82.3246 -2.49504 -3.02473 0
M  V30 945 H 83.8146 -1.82667 -3.7553 0
M  V30 946 N 84.2517 0.741722 -1.39055 0
M  V30 947 C 85.5007 1.49656 -1.35225 0
M  V30 948 C 85.8137 1.95533 0.0512708 0
M  V30 949 O 87.0197 2.7067 0.212138 0
M  V30 950 C 85.4757 2.70389 -2.37525 0
M  V30 951 C 85.0837 2.31489 -3.83558 0
M  V30 952 C 86.8277 3.48236 -2.42759 0
M  V30 953 C 84.7347 3.48903 -4.77515 0
M  V30 954 H 83.6647 0.56197 -0.502699 0
M  V30 955 H 86.3157 0.809727 -1.64668 0
M  V30 956 H 84.6977 3.41113 -2.01142 0
M  V30 957 H 85.8717 1.68354 -4.28945 0
M  V30 958 H 84.1867 1.66749 -3.81554 0
M  V30 959 H 86.7837 4.35558 -3.1015 0
M  V30 960 H 87.1267 3.90229 -1.45008 0
M  V30 961 H 87.6597 2.84535 -2.78002 0
M  V30 962 H 84.3987 3.11966 -5.76504 0
M  V30 963 H 83.9187 4.11041 -4.36813 0
M  V30 964 H 85.5977 4.15328 -4.96096 0
M  V30 965 N 85.7298 1.2412 0.971189 0
M  V30 966 C 86.6618 0.988349 2.06795 0
M  V30 967 C 87.6748 -0.0409541 1.62748 0
M  V30 968 O 88.8638 0.195673 1.77424 0
M  V30 969 C 85.9638 0.469023 3.35639 0
M  V30 970 C 85.1368 1.56065 4.08611 0
M  V30 971 C 84.1958 1.04458 5.15728 0
M  V30 972 O 83.2218 1.73553 5.42096 0
M  V30 973 N 84.4238 -0.122817 5.8037 0
M  V30 974 H 87.1888 1.93265 2.29061 0
M  V30 975 H 84.7498 1.15102 1.13856 0
M  V30 976 H 86.7418 0.108613 4.04554 0
M  V30 977 H 85.3118 -0.380919 3.1027 0
M  V30 978 H 84.5318 2.09341 3.34021 0
M  V30 979 H 85.8198 2.29449 4.54126 0
M  V30 980 H 85.2178 -0.700563 5.61345 0
M  V30 981 H 83.7748 -0.424404 6.50417 0
M  V30 982 N 87.2079 -1.17134 1.05439 0
M  V30 983 C 88.4539 -1.87979 0.776872 0
M  V30 984 C 88.8089 -1.7965 -0.688751 0
M  V30 985 O 88.1019 -1.19535 -1.4974 0
M  V30 986 C 88.2959 -3.36833 1.19491 0
M  V30 987 C 88.1249 -3.59653 2.69963 0
M  V30 988 C 86.8949 -3.76234 3.37307 0
M  V30 989 C 89.0929 -3.59091 3.68182 0
M  V30 990 N 87.0749 -3.86922 4.76618 0
M  V30 991 C 88.4459 -3.75659 4.93235 0
M  V30 992 C 90.5009 -3.42255 3.61616 0
M  V30 993 C 89.2039 -3.77133 6.12506 0
M  V30 994 C 91.2299 -3.45018 4.8033 0
M  V30 995 C 90.5919 -3.62096 6.04207 0
M  V30 996 H 86.6909 -0.705876 0.336546 0
M  V30 997 H 89.2749 -1.40602 1.34682 0
M  V30 998 H 87.4459 -3.82873 0.652884 0
M  V30 999 H 89.1779 -3.95305 0.866966 0
M  V30 1000 H 85.9329 -3.76193 2.87708 0
M  V30 1001 H 86.3569 -3.96055 5.49062 0
M  V30 1002 H 90.9989 -3.27986 2.66805 0
M  V30 1003 H 88.7169 -3.90186 7.07659 0
M  V30 1004 H 92.3029 -3.33246 4.76905 0
M  V30 1005 H 91.1829 -3.64142 6.94529 0
M  V30 1006 N 88.686 -0.835752 -1.33615 0
M  V30 1007 C 89.596 -0.269088 -2.33052 0
M  V30 1008 C 90.612 0.603251 -1.63208 0
M  V30 1009 O 91.788 0.508112 -1.94885 0
M  V30 1010 C 88.853 0.549091 -3.42324 0
M  V30 1011 C 87.914 -0.347156 -4.27894 0
M  V30 1012 C 87.147 0.43207 -5.31948 0
M  V30 1013 O 87.37 1.66409 -5.45586 0
M  V30 1014 O 86.304 -0.192298 -6.01593 0
M  V30 1015 H 90.13 -1.09243 -2.83372 0
M  V30 1016 H 87.715 -0.598198 -1.36901 0
M  V30 1017 H 89.597 1.01414 -4.09015 0
M  V30 1018 H 88.272 1.34955 -2.94226 0
M  V30 1019 H 87.179 -0.859979 -3.64081 0
M  V30 1020 H 88.512 -1.1123 -4.79467 0
M  V30 1021 N 90.1641 1.46063 -0.591896 0
M  V30 1022 C 91.1111 2.30399 0.136069 0
M  V30 1023 C 92.0811 1.41169 0.875238 0
M  V30 1024 O 93.2661 1.70112 0.86409 0
M  V30 1025 C 90.4061 3.25804 1.13781 0
M  V30 1026 C 89.5191 4.30134 0.401137 0
M  V30 1027 C 88.6541 5.12659 1.39121 0
M  V30 1028 C 87.6931 6.0873 0.641462 0
M  V30 1029 N 86.8301 6.8409 1.58004 0
M  V30 1030 H 91.6701 2.92118 -0.589144 0
M  V30 1031 H 89.2071 1.43959 -0.302342 0
M  V30 1032 H 91.1651 3.79569 1.73156 0
M  V30 1033 H 89.7951 2.65872 1.83062 0
M  V30 1034 H 88.8471 3.79152 -0.307826 0
M  V30 1035 H 90.1591 4.98458 -0.184565 0
M  V30 1036 H 89.3131 5.70747 2.05749 0
M  V30 1037 H 88.0521 4.44316 2.01084 0
M  V30 1038 H 87.0571 5.49786 -0.0385419 0
M  V30 1039 H 88.2821 6.79095 0.0270945 0
M  V30 1040 H 86.2281 6.18449 2.18761 0
M  V30 1041 H 86.1451 7.48709 1.04738 0
M  V30 1042 H 87.4131 7.4673 2.23639 0
M  V30 1043 N 91.6422 0.330177 1.54103 0
M  V30 1044 C 92.5892 -0.532762 2.24567 0
M  V30 1045 C 93.5592 -1.10635 1.23892 0
M  V30 1046 O 94.7442 -1.14546 1.5259 0
M  V30 1047 C 91.8842 -1.6845 3.01195 0
M  V30 1048 C 90.9972 -1.13951 4.167 0
M  V30 1049 C 90.1322 -2.25746 4.80845 0
M  V30 1050 C 89.1712 -1.6853 5.88442 0
M  V30 1051 N 88.3082 -2.74014 6.46421 0
M  V30 1052 H 93.1482 0.0746905 2.97906 0
M  V30 1053 H 90.6852 0.048632 1.4702 0
M  V30 1054 H 92.6432 -2.36234 3.43874 0
M  V30 1055 H 91.2732 -2.26314 2.30178 0
M  V30 1056 H 90.3252 -0.35301 3.78758 0
M  V30 1057 H 91.6372 -0.680892 4.94131 0
M  V30 1058 H 90.7912 -3.01422 5.26526 0
M  V30 1059 H 89.5302 -2.74947 4.0281 0
M  V30 1060 H 88.5352 -0.913543 5.42157 0
M  V30 1061 H 89.7602 -1.20198 6.68378 0
M  V30 1062 H 87.7062 -3.22494 5.71256 0
M  V30 1063 H 87.6232 -2.32735 7.19285 0
M  V30 1064 H 88.8912 -3.49499 6.96757 0
M  V30 1065 N 93.1203 -1.57491 0.0584922 0
M  V30 1066 C 94.0303 -2.15448 -0.928414 0
M  V30 1067 C 95.0463 -1.11416 -1.3365 0
M  V30 1068 O 96.2223 -1.4362 -1.41193 0
M  V30 1069 C 93.2873 -2.69393 -2.18239 0
M  V30 1070 C 92.3483 -3.88249 -1.83196 0
M  V30 1071 C 91.5813 -4.39613 -3.02616 0
M  V30 1072 O 91.8043 -3.90023 -4.16219 0
M  V30 1073 O 90.7383 -5.31111 -2.83204 0
M  V30 1074 H 94.5643 -3.00112 -0.465483 0
M  V30 1075 H 92.1493 -1.48499 -0.163826 0
M  V30 1076 H 94.0313 -3.04026 -2.91798 0
M  V30 1077 H 92.7063 -1.87796 -2.63656 0
M  V30 1078 H 91.6133 -3.58492 -1.06931 0
M  V30 1079 H 92.9463 -4.71098 -1.42573 0
M  V30 1080 N 94.5984 0.214957 -1.56127 0
M  V30 1081 C 95.5614 1.24997 -1.92116 0
M  V30 1082 C 96.5614 1.39467 -0.800344 0
M  V30 1083 O 97.7514 1.37619 -1.06802 0
M  V30 1084 C 94.8834 2.62271 -2.17777 0
M  V30 1085 H 96.0764 0.942875 -2.84693 0
M  V30 1086 H 93.6294 0.455654 -1.49511 0
M  V30 1087 H 94.3644 2.98068 -1.27773 0
M  V30 1088 H 94.1494 2.53143 -2.99434 0
M  V30 1089 H 95.6394 3.36946 -2.46693 0
M  V30 1090 N 96.0765 1.50051 0.48192 0
M  V30 1091 C 96.9865 1.7089 1.60728 0
M  V30 1092 C 98.0025 0.591788 1.63627 0
M  V30 1093 O 99.1785 0.868817 1.81696 0
M  V30 1094 C 96.2435 1.78855 2.97005 0
M  V30 1095 C 95.3045 3.02537 3.04581 0
M  V30 1096 C 94.5375 3.10112 4.34357 0
M  V30 1097 O 94.7605 2.24765 5.24249 0
M  V30 1098 O 93.6945 4.02747 4.47301 0
M  V30 1099 H 97.5205 2.66264 1.46072 0
M  V30 1100 H 95.1055 1.34018 0.660264 0
M  V30 1101 H 96.9875 1.86336 3.77964 0
M  V30 1102 H 95.6625 0.866628 3.11883 0
M  V30 1103 H 94.5695 3.00563 2.22739 0
M  V30 1104 H 95.9025 3.94272 2.94636 0
M  V30 1105 N 97.5546 -0.734337 1.39446 0
M  V30 1106 C 98.9706 -1.03997 1.21065 0
M  V30 1107 C 99.1706 -2.01369 0.0727019 0
M  V30 1108 O 98.2266 -2.45856 -0.575426 0
M  V30 1109 C 99.5396 -1.60163 2.54496 0
M  V30 1110 C 101.088 -1.7224 2.61347 0
M  V30 1111 C 101.563 -2.31814 3.95002 0
M  V30 1112 N 103.054 -2.39223 3.96644 0
M  V30 1113 C 103.789 -2.86258 4.96834 0
M  V30 1114 N 103.285 -3.33184 6.07421 0
M  V30 1115 N 105.078 -2.85473 4.84213 0
M  V30 1116 H 97.2286 -0.0885624 2.12215 0
M  V30 1117 H 99.4916 -0.10191 0.942506 0
M  V30 1118 H 99.1976 -0.960811 3.38321 0
M  V30 1119 H 99.0716 -2.5896 2.74262 0
M  V30 1120 H 101.459 -2.35443 1.77906 0
M  V30 1121 H 101.54 -0.720939 2.4543 0
M  V30 1122 H 101.184 -1.69238 4.78875 0
M  V30 1123 H 101.114 -3.32638 4.08239 0
M  V30 1124 H 103.605 -2.06057 3.16779 0
M  V30 1125 H 103.918 -3.67586 6.7978 0
M  V30 1126 H 102.263 -3.31191 6.11013 0
M  V30 1127 H 105.454 -2.48136 3.96921 0
M  V30 1128 H 105.627 -3.21814 5.62441 0
M  V30 1129 N 99.0327 -1.24633 -0.964593 0
M  V30 1130 C 100.279 -1.08949 -1.71049 0
M  V30 1131 C 100.612 0.370302 -1.90637 0
M  V30 1132 O 99.8867 1.27349 -1.47011 0
M  V30 1133 C 100.17 -1.83329 -3.0994 0
M  V30 1134 C 100.023 -3.37077 -2.97824 0
M  V30 1135 C 101.342 -1.60846 -4.09654 0
M  V30 1136 H 98.4607 -0.397178 -0.620821 0
M  V30 1137 H 101.103 -1.5334 -1.12191 0
M  V30 1138 H 99.2527 -1.45597 -3.60186 0
M  V30 1139 H 100.925 -3.84425 -2.5498 0
M  V30 1140 H 99.1677 -3.65298 -2.33965 0
M  V30 1141 H 99.8387 -3.84324 -3.96231 0
M  V30 1142 H 102.315 -1.93674 -3.68279 0
M  V30 1143 H 101.191 -2.1534 -5.04896 0
M  V30 1144 H 101.452 -0.547434 -4.38698 0
M  V30 1145 N 100.511 1.16574 -1.06058 0
M  V30 1146 C 101.421 2.2452 -0.680282 0
M  V30 1147 C 102.437 1.71348 0.302604 0
M  V30 1148 O 103.613 2.00822 0.152513 0
M  V30 1149 C 100.678 3.46629 -0.0700315 0
M  V30 1150 C 99.7388 4.14849 -1.10448 0
M  V30 1151 C 98.9718 5.31129 -0.523256 0
M  V30 1152 O 99.1948 5.66514 0.664709 0
M  V30 1153 O 98.1288 5.88526 -1.26179 0
M  V30 1154 H 101.955 2.59355 -1.58015 0
M  V30 1155 H 99.5398 1.24043 -0.832694 0
M  V30 1156 H 101.422 4.20543 0.268667 0
M  V30 1157 H 100.097 3.13573 0.803353 0
M  V30 1158 H 99.0038 3.42916 -1.49532 0
M  V30 1159 H 100.337 4.51954 -1.94931 0
M  V30 1160 N 101.989 0.842826 1.3317 0
M  V30 1161 C 102.936 0.276885 2.29133 0
M  V30 1162 C 103.906 -0.609527 1.54512 0
M  V30 1163 O 105.091 -0.546955 1.82792 0
M  V30 1164 C 102.231 -0.538707 3.40869 0
M  V30 1165 C 101.344 0.372169 4.30394 0
M  V30 1166 C 100.479 -0.454908 5.29249 0
M  V30 1167 C 99.5179 0.45411 6.10413 0
M  V30 1168 N 98.6549 -0.335075 7.013 0
M  V30 1169 H 103.495 1.10052 2.76934 0
M  V30 1170 H 101.032 0.554161 1.36262 0
M  V30 1171 H 102.99 -1.02709 4.0436 0
M  V30 1172 H 101.62 -1.32727 2.9425 0
M  V30 1173 H 100.672 0.97888 3.6759 0
M  V30 1174 H 101.984 1.0703 4.87182 0
M  V30 1175 H 101.138 -1.00695 5.98285 0
M  V30 1176 H 99.8769 -1.18646 4.73048 0
M  V30 1177 H 98.8819 1.01813 5.40291 0
M  V30 1178 H 100.107 1.18409 6.68697 0
M  V30 1179 H 98.0529 -1.04994 6.47543 0
M  V30 1180 H 97.9699 0.304262 7.55387 0
M  V30 1181 H 99.2379 -0.869224 7.74638 0
M  V30 1182 N 103.467 -1.45747 0.599634 0
M  V30 1183 C 104.415 -2.322 -0.136426 0
M  V30 1184 C 105.409 -1.45497 -0.867583 0
M  V30 1185 O 106.615 -1.62027 -0.78405 0
M  V30 1186 H 102.99 -0.749368 -0.0628588 0
M  V30 1187 H 104.961 -2.92072 0.611281 0
M  V30 1188 C 103.71 -3.28974 -1.12567 0
M  V30 1189 H 103.033 -3.9568 -0.572484 0
M  V30 1190 H 104.473 -3.92212 -1.61077 0
M  V30 1191 C 102.932 -2.55561 -2.19523 0
M  V30 1192 O 103.462 -2.33111 -3.27143 0
M  V30 1193 N 101.668 -2.15832 -1.94589 0
M  V30 1194 H 101.215 -2.3429 -1.07078 0
M  V30 1195 H 101.173 -1.67034 -2.66359 0
M  V30 1196 N 104.945 -0.338344 -1.53925 0
M  V30 1197 C 105.875 0.51328 -2.27789 0
M  V30 1198 C 106.856 1.107 -1.29149 0
M  V30 1199 O 108.041 1.12937 -1.57984 0
M  V30 1200 C 105.171 1.66697 -3.04679 0
M  V30 1201 C 104.125 1.20183 -4.1078 0
M  V30 1202 C 103.451 2.44363 -4.75595 0
M  V30 1203 C 104.751 0.30605 -5.21403 0
M  V30 1204 H 106.445 -0.102883 -2.99223 0
M  V30 1205 H 103.991 -0.0509219 -1.4391 0
M  V30 1206 H 105.944 2.26915 -3.55088 0
M  V30 1207 H 104.668 2.30995 -2.30887 0
M  V30 1208 H 103.327 0.622499 -3.61276 0
M  V30 1209 H 102.975 3.07057 -3.98403 0
M  V30 1210 H 102.675 2.13925 -5.47275 0
M  V30 1211 H 104.199 3.05317 -5.28786 0
M  V30 1212 H 105.613 0.814929 -5.67478 0
M  V30 1213 H 104.01 0.0937929 -6.00027 0
M  V30 1214 H 105.08 -0.65921 -4.80398 0
M  V30 1215 N 106.423 1.57458 -0.0668435 0
M  V30 1216 C 107.7 1.8469 0.644132 0
M  V30 1217 C 108.08 0.958343 1.88093 0
M  V30 1218 O 107.428 0.0233579 2.28488 0
M  V30 1219 C 107.638 3.34767 0.986509 0
M  V30 1220 C 108.986 4.02159 1.36212 0
M  V30 1221 O 110.01 3.39484 1.07839 0
M  V30 1222 O 108.869 5.12694 1.89227 0
M  V30 1223 H 105.963 0.762816 0.319437 0
M  V30 1224 H 108.509 1.6942 -0.0973986 0
M  V30 1225 H 107.281 3.91151 0.107883 0
M  V30 1226 H 106.904 3.55281 1.78497 0
M  V30 1227 N 107.901 -0.206675 1.56239 0
M  V30 1228 C 109.129 -0.945345 1.8404 0
M  V30 1229 C 109.544 -1.77336 0.647885 0
M  V30 1230 O 108.901 -1.78425 -0.383511 0
M  V30 1231 C 108.952 -1.8509 3.10522 0
M  V30 1232 O 108.673 -1.05634 4.25174 0
M  V30 1233 C 110.174 -2.70222 3.51418 0
M  V30 1234 H 107.394 -0.276372 0.61144 0
M  V30 1235 H 109.938 -0.217417 2.03341 0
M  V30 1236 H 108.093 -2.53259 2.93153 0
M  V30 1237 H 108.507 -1.67238 4.97124 0
M  V30 1238 H 109.981 -3.29438 4.42916 0
M  V30 1239 H 110.458 -3.43358 2.73864 0
M  V30 1240 H 111.064 -2.07443 3.71278 0
M  V30 1241 N 109.379 -1.50304 -0.473955 0
M  V30 1242 C 110.309 -1.71886 -1.58042 0
M  V30 1243 C 111.29 -0.567799 -1.60344 0
M  V30 1244 O 112.475 -0.806623 -1.76656 0
M  V30 1245 C 109.605 -1.81036 -2.96384 0
M  V30 1246 C 108.559 -2.962 -3.08949 0
M  V30 1247 C 107.885 -2.9049 -4.48909 0
M  V30 1248 C 109.185 -4.36752 -2.86434 0
M  V30 1249 H 110.879 -2.64527 -1.40234 0
M  V30 1250 H 108.425 -1.27295 -0.673201 0
M  V30 1251 H 110.378 -1.94719 -3.73714 0
M  V30 1252 H 109.102 -0.850147 -3.15341 0
M  V30 1253 H 107.761 -2.82164 -2.3405 0
M  V30 1254 H 107.409 -1.92321 -4.64781 0
M  V30 1255 H 107.109 -3.67802 -4.58253 0
M  V30 1256 H 108.633 -3.06218 -5.28264 0
M  V30 1257 H 110.047 -4.5133 -3.53517 0
M  V30 1258 H 108.444 -5.15493 -3.07225 0
M  V30 1259 H 109.514 -4.49321 -1.82316 0
M  V30 1260 N 110.857 0.726932 -1.39834 0
M  V30 1261 C 111.767 1.87131 -1.41489 0
M  V30 1262 C 112.783 1.71239 -0.308757 0
M  V30 1263 O 113.959 1.93701 -0.551529 0
M  V30 1264 C 111.024 3.22811 -1.26468 0
M  V30 1265 C 110.085 3.51039 -2.47124 0
M  V30 1266 C 109.318 4.80245 -2.3281 0
M  V30 1267 O 109.541 5.54537 -1.33585 0
M  V30 1268 O 108.475 5.08554 -3.21957 0
M  V30 1269 H 112.301 1.8869 -2.3797 0
M  V30 1270 H 109.886 0.875837 -1.21035 0
M  V30 1271 H 111.768 4.03877 -1.20255 0
M  V30 1272 H 110.443 3.22005 -0.330862 0
M  V30 1273 H 109.35 2.70027 -2.58914 0
M  V30 1274 H 110.683 3.56632 -3.39227 0
M  V30 1275 N 112.336 1.25143 0.95797 0
M  V30 1276 C 113.283 1.05235 2.05412 0
M  V30 1277 C 114.253 -0.0374561 1.66058 0
M  V30 1278 O 115.438 0.119073 1.90428 0
M  V30 1279 C 112.578 0.673589 3.38462 0
M  V30 1280 C 111.691 1.8379 3.90954 0
M  V30 1281 C 110.826 1.40381 5.12315 0
M  V30 1282 C 109.865 2.53746 5.57027 0
M  V30 1283 N 109.002 2.11136 6.69601 0
M  V30 1284 H 113.842 1.99048 2.21774 0
M  V30 1285 H 111.379 0.991277 1.08683 0
M  V30 1286 H 113.337 0.434964 4.14926 0
M  V30 1287 H 111.967 -0.227554 3.21997 0
M  V30 1288 H 111.019 2.18992 3.11041 0
M  V30 1289 H 112.331 2.68937 4.20089 0
M  V30 1290 H 111.485 1.12464 5.96185 0
M  V30 1291 H 110.224 0.523015 4.84887 0
M  V30 1292 H 109.229 2.82412 4.71724 0
M  V30 1293 H 110.454 3.42398 5.86464 0
M  V30 1294 H 108.4 1.25468 6.4389 0
M  V30 1295 H 108.317 2.89832 6.98236 0
M  V30 1296 H 109.585 1.86385 7.56889 0
M  V30 1297 N 113.814 -1.1601 1.06675 0
M  V30 1298 C 114.724 -2.24156 0.692179 0
M  V30 1299 C 115.74 -1.71507 -0.293513 0
M  V30 1300 O 116.916 -2.009 -0.141861 0
M  V30 1301 C 113.981 -3.46587 0.0884131 0
M  V30 1302 C 113.042 -4.14257 1.12646 0
M  V30 1303 C 112.275 -5.30844 0.551416 0
M  V30 1304 O 112.498 -5.66858 -0.634656 0
M  V30 1305 O 111.432 -5.87848 1.29298 0
M  V30 1306 H 115.258 -2.58513 1.59388 0
M  V30 1307 H 112.843 -1.23599 0.83926 0
M  V30 1308 H 114.725 -4.20679 -0.246361 0
M  V30 1309 H 113.4 -3.13994 -0.786712 0
M  V30 1310 H 112.307 -3.42118 1.51348 0
M  V30 1311 H 113.64 -4.50914 1.97325 0
M  V30 1312 N 115.292 -0.849877 -1.32721 0
M  V30 1313 C 116.255 -0.296122 -2.27279 0
M  V30 1314 C 117.255 0.541458 -1.5141 0
M  V30 1315 O 118.445 0.353658 -1.70572 0
M  V30 1316 C 115.577 0.581579 -3.35902 0
M  V30 1317 H 116.77 -1.13064 -2.77771 0
M  V30 1318 H 114.323 -0.62383 -1.43311 0
M  V30 1319 H 115.058 1.43809 -2.9067 0
M  V30 1320 H 114.843 -0.0178814 -3.92096 0
M  V30 1321 H 116.333 0.961951 -4.0637 0
M  V30 1322 N 116.77 1.45427 -0.607355 0
M  V30 1323 C 117.7 2.3329 0.0989352 0
M  V30 1324 C 118.681 1.46816 0.859007 0
M  V30 1325 O 119.866 1.75588 0.829604 0
M  V30 1326 C 116.996 3.29518 1.09705 0
M  V30 1327 C 115.95 4.25626 0.450206 0
M  V30 1328 C 115.276 5.11542 1.55655 0
M  V30 1329 C 116.576 5.18505 -0.628455 0
M  V30 1330 H 118.27 2.92595 -0.634716 0
M  V30 1331 H 115.816 1.40696 -0.306681 0
M  V30 1332 H 117.769 3.89855 1.59971 0
M  V30 1333 H 116.493 2.68372 1.86129 0
M  V30 1334 H 115.152 3.66586 -0.0315886 0
M  V30 1335 H 114.8 4.46765 2.31107 0
M  V30 1336 H 114.5 5.76647 1.12925 0
M  V30 1337 H 116.024 5.74748 2.06148 0
M  V30 1338 H 117.438 5.72916 -0.209877 0
M  V30 1339 H 115.835 5.92085 -0.977489 0
M  V30 1340 H 116.905 4.60948 -1.50514 0
M  V30 1341 N 118.248 0.346503 1.53744 0
M  V30 1342 C 119.158 -0.517293 2.28826 0
M  V30 1343 C 120.174 -1.10935 1.3405 0
M  V30 1344 O 121.35 -1.1244 1.6709 0
M  V30 1345 C 118.415 -1.65098 3.04866 0
M  V30 1346 C 117.476 -1.0884 4.15274 0
M  V30 1347 C 116.709 -2.16806 4.87679 0
M  V30 1348 O 116.932 -3.3758 4.59778 0
M  V30 1349 O 115.866 -1.80934 5.74061 0
M  V30 1350 H 119.692 0.0931396 3.03557 0
M  V30 1351 H 117.277 0.111458 1.48984 0
M  V30 1352 H 119.159 -2.31053 3.5241 0
M  V30 1353 H 117.834 -2.24717 2.32989 0
M  V30 1354 H 116.741 -0.3933 3.72027 0
M  V30 1355 H 118.074 -0.537036 4.89261 0
M  V30 1356 N 119.726 -1.57421 0.075193 0
M  V30 1357 C 120.656 -2.15942 -0.888324 0
M  V30 1358 C 121.637 -1.08737 -1.30806 0
M  V30 1359 O 122.822 -1.36787 -1.37851 0
M  V30 1360 C 119.952 -2.72379 -2.1547 0
M  V30 1361 C 118.906 -3.8478 -1.87425 0
M  V30 1362 C 118.232 -4.27834 -3.20721 0
M  V30 1363 C 119.532 -5.08869 -1.17684 0
M  V30 1364 H 121.226 -2.96705 -0.400799 0
M  V30 1365 H 118.772 -1.42723 -0.191342 0
M  V30 1366 H 120.725 -3.11965 -2.83295 0
M  V30 1367 H 119.449 -1.88841 -2.6647 0
M  V30 1368 H 118.108 -3.45703 -1.22004 0
M  V30 1369 H 117.756 -3.41214 -3.6957 0
M  V30 1370 H 117.456 -5.03605 -3.02746 0
M  V30 1371 H 118.98 -4.70039 -3.89738 0
M  V30 1372 H 120.394 -5.4575 -1.75584 0
M  V30 1373 H 118.791 -5.8994 -1.09956 0
M  V30 1374 H 119.861 -4.84648 -0.156453 0
M  V30 1375 N 121.204 0.198386 -1.56346 0
M  V30 1376 C 122.434 0.934215 -1.84271 0
M  V30 1377 C 122.842 1.77496 -0.655125 0
M  V30 1378 O 122.185 1.7961 0.385488 0
M  V30 1379 C 122.247 1.88278 -3.06254 0
M  V30 1380 C 121.911 1.22431 -4.40295 0
M  V30 1381 C 122.908 0.602839 -5.16393 0
M  V30 1382 C 120.593 1.22915 -4.87029 0
M  V30 1383 C 122.587 -0.0050083 -6.374 0
M  V30 1384 C 120.274 0.617465 -6.07973 0
M  V30 1385 C 121.272 0.00146341 -6.83 0
M  V30 1386 O 120.96 -0.600642 -8.01653 0
M  V30 1387 H 120.692 0.278245 -0.616081 0
M  V30 1388 H 123.246 0.211626 -2.04307 0
M  V30 1389 H 121.476 2.64498 -2.82095 0
M  V30 1390 H 123.165 2.48612 -3.20853 0
M  V30 1391 H 123.931 0.591265 -4.81382 0
M  V30 1392 H 119.81 1.69801 -4.28589 0
M  V30 1393 H 123.354 -0.48643 -6.95902 0
M  V30 1394 H 119.251 0.62653 -6.42452 0
M  V30 1395 H 120.019 -0.497225 -8.16988 0
M  V30 1396 N 122.682 1.50554 0.465978 0
M  V30 1397 C 123.629 1.6979 1.56333 0
M  V30 1398 C 124.599 0.539239 1.57103 0
M  V30 1399 O 125.784 0.770401 1.74555 0
M  V30 1400 C 122.924 1.80273 2.94271 0
M  V30 1401 C 122.037 3.07674 3.0325 0
M  V30 1402 C 121.172 3.08922 4.32135 0
M  V30 1403 C 120.211 4.30755 4.34875 0
M  V30 1404 N 119.348 4.29714 5.55239 0
M  V30 1405 H 124.188 2.63472 1.39235 0
M  V30 1406 H 121.725 1.30602 0.676873 0
M  V30 1407 H 123.683 1.84332 3.74269 0
M  V30 1408 H 122.313 0.900258 3.09992 0
M  V30 1409 H 121.365 3.13062 2.16094 0
M  V30 1410 H 122.677 3.97642 3.01135 0
M  V30 1411 H 121.831 3.11738 5.20485 0
M  V30 1412 H 120.57 2.16792 4.36866 0
M  V30 1413 H 119.575 4.28146 3.44922 0
M  V30 1414 H 120.8 5.24117 4.31831 0
M  V30 1415 H 118.746 3.4044 5.60746 0
M  V30 1416 H 118.663 5.13456 5.54886 0
M  V30 1417 H 119.931 4.36683 6.457 0
M  V30 1418 N 124.16 -0.719506 1.40217 0
M  V30 1419 C 125.107 -1.83359 1.40172 0
M  V30 1420 C 126.077 -1.64065 0.259206 0
M  V30 1421 O 127.262 -1.85254 0.456677 0
M  V30 1422 C 124.402 -3.2103 1.26624 0
M  V30 1423 C 123.515 -3.51923 2.50548 0
M  V30 1424 C 122.65 -4.79079 2.29471 0
M  V30 1425 C 121.689 -5.02863 3.48992 0
M  V30 1426 N 120.826 -6.2123 3.27135 0
M  V30 1427 H 125.666 -1.82733 2.35399 0
M  V30 1428 H 123.203 -0.892688 1.16917 0
M  V30 1429 H 125.161 -4.00524 1.16776 0
M  V30 1430 H 123.791 -3.20895 0.350176 0
M  V30 1431 H 122.843 -2.67014 2.70939 0
M  V30 1432 H 124.155 -3.6541 3.39525 0
M  V30 1433 H 123.309 -5.66582 2.16955 0
M  V30 1434 H 122.048 -4.67794 1.37913 0
M  V30 1435 H 121.053 -4.13816 3.6199 0
M  V30 1436 H 122.278 -5.16023 4.41472 0
M  V30 1437 H 120.224 -6.11204 2.38256 0
M  V30 1438 H 120.141 -6.35375 4.09675 0
M  V30 1439 H 121.409 -7.11532 3.18344 0
M  V30 1440 N 125.638 -1.25649 -0.95132 0
M  V30 1441 C 126.915 -1.01361 -1.67288 0
M  V30 1442 C 127.295 0.459135 -2.06046 0
M  V30 1443 O 126.643 1.43723 -1.7764 0
M  V30 1444 C 126.853 -1.95256 -2.89268 0
M  V30 1445 C 128.201 -2.23289 -3.61147 0
M  V30 1446 O 129.225 -1.93041 -2.99355 0
M  V30 1447 O 128.084 -2.74741 -4.72419 0
M  V30 1448 H 125.178 -0.38464 -0.732107 0
M  V30 1449 H 127.724 -1.36817 -1.00395 0
M  V30 1450 H 126.496 -2.94685 -2.57442 0
M  V30 1451 H 126.119 -1.60218 -3.6389 0
M  V30 1452 N 127.117 1.15442 -1.07289 0
M  V30 1453 C 128.342 1.90638 -0.816828 0
M  V30 1454 C 128.767 1.77445 0.624083 0
M  V30 1455 O 128.125 1.10671 1.43602 0
M  V30 1456 C 128.173 3.39008 -1.22906 0
M  V30 1457 O 127.277 4.10701 -0.373975 0
M  V30 1458 H 126.618 0.593555 -0.297638 0
M  V30 1459 H 129.148 1.46198 -1.43134 0
M  V30 1460 H 129.158 3.89801 -1.20497 0
M  V30 1461 H 127.833 3.47929 -2.27856 0
M  V30 1462 H 126.41 3.70046 -0.460499 0
M  V30 1463 N 128.595 0.856903 1.32268 0
M  V30 1464 C 129.505 0.306131 2.32594 0
M  V30 1465 C 130.521 -0.577209 1.64147 0
M  V30 1466 O 131.697 -0.477043 1.95669 0
M  V30 1467 C 128.762 -0.494561 3.43154 0
M  V30 1468 C 127.823 0.415186 4.27288 0
M  V30 1469 C 127.056 -0.347387 5.32568 0
M  V30 1470 O 127.279 -1.57708 5.48165 0
M  V30 1471 O 126.213 0.287982 6.01211 0
M  V30 1472 H 130.039 1.13737 2.81598 0
M  V30 1473 H 127.624 0.619902 1.35932 0
M  V30 1474 H 129.506 -0.948944 4.10576 0
M  V30 1475 H 128.181 -1.30257 2.96336 0
M  V30 1476 H 127.088 0.917793 3.62667 0
M  V30 1477 H 128.421 1.18844 4.77637 0
M  V30 1478 N 130.073 -1.45103 0.615059 0
M  V30 1479 C 131.005 -2.28786 -0.13762 0
M  V30 1480 C 132.018 -1.40376 -0.824525 0
M  V30 1481 O 133.207 -1.64681 -0.688662 0
M  V30 1482 C 130.307 -3.16322 -1.21628 0
M  V30 1483 C 129.48 -4.33054 -0.615039 0
M  V30 1484 C 128.539 -5.01743 -1.58556 0
M  V30 1485 O 127.565 -5.58293 -1.10895 0
M  V30 1486 N 128.767 -5.01714 -2.91998 0
M  V30 1487 H 131.532 -2.94025 0.580483 0
M  V30 1488 H 129.093 -1.55373 0.45507 0
M  V30 1489 H 131.085 -3.59139 -1.86552 0
M  V30 1490 H 129.655 -2.52943 -1.83681 0
M  V30 1491 H 128.875 -3.93627 0.21245 0
M  V30 1492 H 130.163 -5.08431 -0.193704 0
M  V30 1493 H 129.561 -4.57075 -3.33316 0
M  V30 1494 H 128.118 -5.48371 -3.52325 0
M  V30 1495 N 131.551 -0.354651 -1.53558 0
M  V30 1496 C 132.8 0.239504 -2.00273 0
M  V30 1497 C 133.113 1.50759 -1.24623 0
M  V30 1498 O 134.319 2.17968 -1.61871 0
M  V30 1499 C 132.775 0.477341 -3.5672 0
M  V30 1500 C 132.383 -0.775488 -4.41237 0
M  V30 1501 C 134.127 1.02975 -4.11821 0
M  V30 1502 C 132.034 -0.507838 -5.89216 0
M  V30 1503 H 130.964 0.0932743 -0.748208 0
M  V30 1504 H 133.615 -0.471701 -1.77334 0
M  V30 1505 H 131.997 1.24953 -3.7577 0
M  V30 1506 H 133.171 -1.54963 -4.33962 0
M  V30 1507 H 131.486 -1.25033 -3.97185 0
M  V30 1508 H 134.083 1.24513 -5.2 0
M  V30 1509 H 134.426 1.98862 -3.65731 0
M  V30 1510 H 134.959 0.317994 -3.96527 0
M  V30 1511 H 131.698 -1.43674 -6.39561 0
M  V30 1512 H 131.218 0.228011 -5.99366 0
M  V30 1513 H 132.897 -0.129238 -6.46871 0
M  V30 1514 N 133.029 1.57378 -0.0835403 0
M  V30 1515 C 134.254 1.98682 0.594987 0
M  V30 1516 C 134.679 0.961969 1.61641 0
M  V30 1517 O 134.037 -0.0709989 1.81161 0
M  V30 1518 C 134.085 3.38988 1.2296 0
M  V30 1519 O 133.189 3.39208 2.34546 0
M  V30 1520 H 132.53 0.646368 0.152002 0
M  V30 1521 H 135.06 2.03961 -0.161533 0
M  V30 1522 H 135.07 3.76431 1.57366 0
M  V30 1523 H 133.745 4.13107 0.481228 0
M  V30 1524 H 132.322 3.13548 2.01846 0
M  V30 1525 N 134.507 -0.190092 1.56449 0
M  V30 1526 C 135.455 -1.25501 1.95837 0
M  V30 1527 C 136.449 -1.4685 0.844485 0
M  V30 1528 O 137.655 -1.47651 1.02952 0
M  V30 1529 H 134.03 -0.421447 0.622805 0
M  V30 1530 H 136.001 -0.895821 2.84636 0
M  V30 1531 C 134.75 -2.59124 2.31841 0
M  V30 1532 H 134.073 -2.43514 3.17082 0
M  V30 1533 H 135.513 -3.32371 2.6326 0
M  V30 1534 C 133.972 -3.16488 1.15486 0
M  V30 1535 O 134.502 -3.99365 0.432535 0
M  V30 1536 N 132.708 -2.75305 0.930349 0
M  V30 1537 H 132.255 -2.08013 1.51948 0
M  V30 1538 H 132.213 -3.14024 0.153634 0
M  V30 1539 N 135.985 -1.50799 -0.457987 0
M  V30 1540 C 137.215 -1.65977 -1.23025 0
M  V30 1541 C 137.623 -0.347918 -1.85974 0
M  V30 1542 O 136.966 0.68148 -1.70592 0
M  V30 1543 C 137.028 -2.70309 -2.3701 0
M  V30 1544 C 136.692 -4.135 -1.94594 0
M  V30 1545 C 137.689 -4.98949 -1.46101 0
M  V30 1546 C 135.374 -4.5949 -2.02915 0
M  V30 1547 C 137.368 -6.28442 -1.06489 0
M  V30 1548 C 135.055 -5.88984 -1.62914 0
M  V30 1549 C 136.053 -6.73286 -1.1478 0
M  V30 1550 O 135.741 -8.00362 -0.75339 0
M  V30 1551 H 135.473 -0.56064 -0.377702 0
M  V30 1552 H 138.027 -1.97857 -0.551537 0
M  V30 1553 H 136.257 -2.337 -3.08093 0
M  V30 1554 H 137.946 -2.74574 -2.98938 0
M  V30 1555 H 138.712 -4.6463 -1.39084 0
M  V30 1556 H 134.591 -3.94009 -2.39328 0
M  V30 1557 H 138.135 -6.94194 -0.688488 0
M  V30 1558 H 134.032 -6.22822 -1.69595 0
M  V30 1559 H 134.8 -8.13744 -0.88108 0
M  V30 1560 N 137.463 0.71206 -1.40597 0
M  V30 1561 C 138.688 1.50617 -1.42581 0
M  V30 1562 C 139.113 1.88079 -0.0282102 0
M  V30 1563 O 138.471 1.53511 0.964579 0
M  V30 1564 C 138.519 2.7557 -2.3258 0
M  V30 1565 O 137.623 3.72414 -1.77148 0
M  V30 1566 H 136.964 0.453966 -0.484573 0
M  V30 1567 H 139.494 0.876649 -1.84868 0
M  V30 1568 H 139.504 3.2406 -2.47889 0
M  V30 1569 H 138.179 2.47639 -3.34138 0
M  V30 1570 H 136.756 3.31276 -1.71204 0
M  V30 1571 N 138.941 1.26152 0.944643 0
M  V30 1572 C 139.873 1.03199 2.04652 0
M  V30 1573 C 140.886 -0.00642356 1.62799 0
M  V30 1574 O 142.075 0.233263 1.76969 0
M  V30 1575 C 139.175 0.540111 3.34568 0
M  V30 1576 C 138.348 1.64697 4.05208 0
M  V30 1577 C 137.407 1.15374 5.13396 0
M  V30 1578 O 136.433 1.85013 5.38293 0
M  V30 1579 N 137.635 0.00031529 5.805 0
M  V30 1580 H 140.4 1.9808 2.2491 0
M  V30 1581 H 137.961 1.17491 1.11389 0
M  V30 1582 H 139.953 0.194401 4.04233 0
M  V30 1583 H 138.523 -0.315021 3.11009 0
M  V30 1584 H 137.743 2.16379 3.29506 0
M  V30 1585 H 139.031 2.3903 4.49157 0
M  V30 1586 H 138.429 -0.581336 5.62705 0
M  V30 1587 H 136.986 -0.286346 6.51171 0
M  V30 1588 N 140.419 -1.14872 1.07899 0
M  V30 1589 C 141.647 -1.89661 0.82683 0
M  V30 1590 C 142.062 -1.78312 -0.620519 0
M  V30 1591 O 141.419 -1.13888 -1.42604 0
M  V30 1592 C 141.47 -3.39817 1.23316 0
M  V30 1593 O 141.191 -3.50845 2.62372 0
M  V30 1594 C 142.692 -4.31615 1.0111 0
M  V30 1595 H 139.912 -0.60092 0.298557 0
M  V30 1596 H 142.456 -1.4551 1.43691 0
M  V30 1597 H 140.611 -3.8161 0.667286 0
M  V30 1598 H 141.025 -4.44076 2.79101 0
M  V30 1599 H 142.499 -5.35367 1.34486 0
M  V30 1600 H 142.976 -4.39169 -0.0522168 0
M  V30 1601 H 143.582 -3.95572 1.56215 0
M  V30 1602 N 141.898 -0.863906 -1.31812 0
M  V30 1603 C 143.314 -0.555004 -1.49639 0
M  V30 1604 C 143.514 0.912266 -1.79666 0
M  V30 1605 O 142.57 1.69479 -1.87171 0
M  V30 1606 C 143.883 -1.44998 -2.63431 0
M  V30 1607 C 145.431 -1.45138 -2.77316 0
M  V30 1608 C 145.906 -2.33179 -3.94197 0
M  V30 1609 N 147.397 -2.31025 -4.01474 0
M  V30 1610 C 148.132 -2.95871 -4.9117 0
M  V30 1611 N 147.628 -3.69863 -5.8581 0
M  V30 1612 N 149.421 -2.85211 -4.84367 0
M  V30 1613 H 141.572 -1.81339 -1.10589 0
M  V30 1614 H 143.835 -0.77505 -0.545895 0
M  V30 1615 H 143.541 -2.49377 -2.48 0
M  V30 1616 H 143.415 -1.14409 -3.59431 0
M  V30 1617 H 145.802 -0.415201 -2.92164 0
M  V30 1618 H 145.883 -1.79747 -1.82001 0
M  V30 1619 H 145.527 -3.3687 -3.80107 0
M  V30 1620 H 145.457 -1.95897 -4.88807 0
M  V30 1621 H 147.948 -1.77238 -3.33759 0
M  V30 1622 H 148.261 -4.16486 -6.50968 0
M  V30 1623 H 146.606 -3.73971 -5.85808 0
M  V30 1624 H 149.797 -2.26948 -4.09405 0
M  V30 1625 H 149.97 -3.36027 -5.54066 0
M  V30 1626 N 143.376 1.44774 -0.622745 0
M  V30 1627 C 144.308 2.28856 0.125485 0
M  V30 1628 C 145.321 1.40811 0.817069 0
M  V30 1629 O 146.51 1.65044 0.679918 0
M  V30 1630 C 143.61 3.16963 1.19949 0
M  V30 1631 C 142.783 4.33374 0.592064 0
M  V30 1632 C 141.842 5.02577 1.55893 0
M  V30 1633 O 140.868 5.58873 1.07933 0
M  V30 1634 N 142.07 5.03256 2.89334 0
M  V30 1635 H 144.835 2.93713 -0.596068 0
M  V30 1636 H 142.396 1.55129 -0.463303 0
M  V30 1637 H 144.388 3.60123 1.84644 0
M  V30 1638 H 142.958 2.53913 1.82337 0
M  V30 1639 H 142.178 3.93509 -0.233322 0
M  V30 1640 H 143.466 5.08527 0.166738 0
M  V30 1641 H 142.864 4.58836 3.30887 0
M  V30 1642 H 141.421 5.50232 3.49412 0
M  V30 1643 N 144.854 0.36279 1.53368 0
M  V30 1644 C 146.084 -0.228281 2.05335 0
M  V30 1645 C 146.492 -1.43226 1.23625 0
M  V30 1646 O 145.835 -1.81717 0.269206 0
M  V30 1647 C 145.897 -0.688549 3.52845 0
M  V30 1648 C 145.561 0.398362 4.5526 0
M  V30 1649 C 146.558 1.24732 5.04716 0
M  V30 1650 C 144.243 0.557805 4.99193 0
M  V30 1651 C 146.237 2.2411 5.96702 0
M  V30 1652 C 143.924 1.55495 5.90986 0
M  V30 1653 C 144.922 2.39503 6.39631 0
M  V30 1654 O 144.61 3.37517 7.29615 0
M  V30 1655 H 144.342 -0.044395 0.674541 0
M  V30 1656 H 146.896 0.518668 1.98744 0
M  V30 1657 H 145.126 -1.48706 3.56964 0
M  V30 1658 H 146.815 -1.20231 3.87685 0
M  V30 1659 H 147.581 1.13532 4.71525 0
M  V30 1660 H 143.46 -0.0862959 4.60919 0
M  V30 1661 H 147.004 2.89718 6.34594 0
M  V30 1662 H 142.901 1.66744 6.23592 0
M  V30 1663 H 143.669 3.33213 7.47604 0
M  V30 1664 N 146.332 -1.57332 0.0918853 0
M  V30 1665 C 147.579 -1.94236 -0.572577 0
M  V30 1666 C 147.907 -0.973398 -1.6839 0
M  V30 1667 O 147.162 0.00756912 -1.95699 0
M  V30 1668 C 147.461 -3.37689 -1.17051 0
M  V30 1669 C 147.127 -4.50527 -0.183304 0
M  V30 1670 C 145.789 -4.81119 0.0882276 0
M  V30 1671 C 148.141 -5.18883 0.49095 0
M  V30 1672 C 145.469 -5.77395 1.04076 0
M  V30 1673 C 147.821 -6.1618 1.43193 0
M  V30 1674 C 146.485 -6.45179 1.71173 0
M  V30 1675 H 145.755 -0.710762 -0.209521 0
M  V30 1676 H 148.402 -1.9077 0.167036 0
M  V30 1677 H 146.707 -3.37718 -1.9863 0
M  V30 1678 H 148.404 -3.63543 -1.69227 0
M  V30 1679 H 144.994 -4.26681 -0.405124 0
M  V30 1680 H 149.178 -4.95427 0.294312 0
M  V30 1681 H 144.434 -5.98179 1.26457 0
M  V30 1682 H 148.608 -6.68243 1.96023 0
M  V30 1683 H 146.235 -7.1959 2.4514 0
M  V30 1684 N 147.81 0.181792 -1.56548 0
M  V30 1685 C 149.04 0.914618 -1.85252 0
M  V30 1686 C 149.448 1.76791 -0.673914 0
M  V30 1687 O 148.791 1.80009 0.366416 0
M  V30 1688 C 148.853 1.85019 -3.08234 0
M  V30 1689 C 148.517 1.17754 -4.41569 0
M  V30 1690 C 149.514 0.548035 -5.17003 0
M  V30 1691 C 147.199 1.17742 -4.88305 0
M  V30 1692 C 149.193 -0.0726128 -6.37359 0
M  V30 1693 C 146.88 0.552946 -6.08593 0
M  V30 1694 C 147.878 -0.070978 -6.82963 0
M  V30 1695 O 147.566 -0.685635 -8.00971 0
M  V30 1696 H 147.298 0.271695 -0.618998 0
M  V30 1697 H 149.852 0.189944 -2.0452 0
M  V30 1698 H 148.082 2.61491 -2.84885 0
M  V30 1699 H 149.771 2.45195 -3.23472 0
M  V30 1700 H 150.537 0.540174 -4.81982 0
M  V30 1701 H 146.416 1.65246 -4.30366 0
M  V30 1702 H 149.96 -0.560213 -6.95347 0
M  V30 1703 H 145.857 0.558354 -6.43081 0
M  V30 1704 H 146.625 -0.58385 -8.16415 0
M  V30 1705 N 149.288 1.51039 0.449983 0
M  V30 1706 C 150.565 1.53612 1.21089 0
M  V30 1707 C 150.945 0.292997 2.09057 0
M  V30 1708 O 150.293 -0.72259 2.16774 0
M  V30 1709 C 150.503 2.84337 2.0237 0
M  V30 1710 C 151.851 3.35807 2.59843 0
M  V30 1711 O 152.875 2.85802 2.12593 0
M  V30 1712 O 151.734 4.23029 3.45989 0
M  V30 1713 H 148.828 0.617057 0.550608 0
M  V30 1714 H 151.374 1.63344 0.460082 0
M  V30 1715 H 150.146 3.66278 1.37681 0
M  V30 1716 H 149.769 2.77708 2.84542 0
M  V30 1717 N 150.766 -0.704594 1.40972 0
M  V30 1718 C 151.996 -1.49138 1.42974 0
M  V30 1719 C 152.404 -1.89175 0.0308406 0
M  V30 1720 O 151.747 -1.56734 -0.958138 0
M  V30 1721 C 151.809 -2.79016 2.26694 0
M  V30 1722 C 151.473 -2.61236 3.74973 0
M  V30 1723 C 152.47 -2.27773 4.67349 0
M  V30 1724 C 150.155 -2.77158 4.18914 0
M  V30 1725 C 152.149 -2.10457 6.01653 0
M  V30 1726 C 149.836 -2.59459 5.53285 0
M  V30 1727 C 150.834 -2.26158 6.4447 0
M  V30 1728 O 150.522 -2.08605 7.76363 0
M  V30 1729 H 150.254 -0.466443 0.489292 0
M  V30 1730 H 152.808 -0.8758 1.85793 0
M  V30 1731 H 151.038 -3.42947 1.78673 0
M  V30 1732 H 152.727 -3.40782 2.20504 0
M  V30 1733 H 153.493 -2.15095 4.34694 0
M  V30 1734 H 149.372 -3.02064 3.48251 0
M  V30 1735 H 152.916 -1.84387 6.72791 0
M  V30 1736 H 148.813 -2.71725 5.85522 0
M  V30 1737 H 149.581 -2.23439 7.87412 0
M  V30 1738 N 152.244 -1.26651 -0.937939 0
M  V30 1739 C 153.176 -1.04283 -2.04102 0
M  V30 1740 C 154.189 -0.00221014 -1.628 0
M  V30 1741 O 155.378 -0.242645 -1.76843 0
M  V30 1742 C 152.478 -0.557846 -3.34277 0
M  V30 1743 C 151.651 -1.66843 -4.04329 0
M  V30 1744 C 150.71 -1.18095 -5.12777 0
M  V30 1745 O 149.736 -1.87865 -5.37304 0
M  V30 1746 N 150.938 -0.0311006 -5.80492 0
M  V30 1747 H 153.703 -1.9927 -2.23856 0
M  V30 1748 H 151.264 -1.1808 -1.10764 0
M  V30 1749 H 153.256 -0.215836 -4.04124 0
M  V30 1750 H 151.826 0.298523 -3.11171 0
M  V30 1751 H 151.046 -2.18123 -3.28353 0
M  V30 1752 H 152.334 -2.41408 -4.47883 0
M  V30 1753 H 151.732 0.551486 -5.63005 0
M  V30 1754 H 150.289 0.251809 -6.51313 0
M  V30 1755 N 153.722 1.14298 -1.08507 0
M  V30 1756 C 154.971 1.84708 -0.810305 0
M  V30 1757 C 155.284 1.83903 0.666271 0
M  V30 1758 O 156.49 2.50112 1.05624 0
M  V30 1759 C 154.946 3.31572 -1.39957 0
M  V30 1760 C 154.554 3.40791 -2.90801 0
M  V30 1761 C 156.298 4.07087 -1.20334 0
M  V30 1762 C 154.205 4.81872 -3.4286 0
M  V30 1763 H 153.135 0.691985 -0.299454 0
M  V30 1764 H 155.786 1.28841 -1.30661 0
M  V30 1765 H 154.168 3.87183 -0.830976 0
M  V30 1766 H 155.342 2.95225 -3.53806 0
M  V30 1767 H 153.657 2.78732 -3.0935 0
M  V30 1768 H 156.254 5.11225 -1.56693 0
M  V30 1769 H 156.597 4.16054 -0.143237 0
M  V30 1770 H 157.13 3.57779 -1.73893 0
M  V30 1771 H 153.869 4.78094 -4.48449 0
M  V30 1772 H 153.389 5.27972 -2.84615 0
M  V30 1773 H 155.068 5.50765 -3.39509 0
M  V30 1774 N 155.201 0.870884 1.31352 0
M  V30 1775 C 156.111 0.330783 2.32256 0
M  V30 1776 C 157.127 -0.559767 1.6475 0
M  V30 1777 O 158.303 -0.456263 1.96164 0
M  V30 1778 C 155.368 -0.458137 3.4366 0
M  V30 1779 C 154.429 0.460482 4.26823 0
M  V30 1780 C 153.662 -0.290881 5.32907 0
M  V30 1781 O 153.885 -1.51885 5.49806 0
M  V30 1782 O 152.819 0.351732 6.00871 0
M  V30 1783 H 156.645 1.16718 2.80376 0
M  V30 1784 H 154.23 0.634285 1.35267 0
M  V30 1785 H 156.112 -0.905343 4.1156 0
M  V30 1786 H 154.787 -1.27106 2.97701 0
M  V30 1787 H 153.694 0.956207 3.61673 0
M  V30 1788 H 155.027 1.23903 4.7635 0
M  V30 1789 N 156.679 -1.44442 0.630414 0
M  V30 1790 C 157.904 -2.06927 0.139944 0
M  V30 1791 C 158.329 -1.46795 -1.17613 0
M  V30 1792 O 157.687 -0.569144 -1.72135 0
M  V30 1793 C 157.735 -3.6058 0.0379581 0
M  V30 1794 O 156.839 -3.99937 -1.0062 0
M  V30 1795 H 156.18 -0.658608 0.0844483 0
M  V30 1796 H 158.71 -1.85327 0.866891 0
M  V30 1797 H 158.72 -4.07714 -0.152856 0
M  V30 1798 H 157.395 -4.03728 0.998809 0
M  V30 1799 H 155.972 -3.64436 -0.79001 0
M  V30 1800 N 158.157 -0.370918 -1.53173 0
M  V30 1801 C 159.105 0.488101 -2.27421 0
M  V30 1802 C 160.099 1.07884 -1.30604 0
M  V30 1803 O 161.305 1.02143 -1.48212 0
M  V30 1804 H 157.68 0.176134 -0.731082 0
M  V30 1805 H 159.651 -0.159815 -2.97972 0
M  V30 1806 C 158.4 1.61306 -3.08019 0
M  V30 1807 H 157.723 1.1678 -3.82364 0
M  V30 1808 H 159.163 2.18872 -3.63141 0
M  V30 1809 C 157.622 2.55848 -2.19188 0
M  V30 1810 O 158.152 3.58799 -1.80626 0
M  V30 1811 N 156.358 2.2516 -1.83715 0
M  V30 1812 H 155.905 1.41476 -2.15273 0
M  V30 1813 H 155.863 2.8867 -1.24567 0
M  V30 1814 N 159.635 1.57281 -0.100228 0
M  V30 1815 C 161.046 1.81725 0.428107 0
M  V30 1816 C 161.397 1.01619 1.67833 0
M  V30 1817 O 160.522 0.247098 2.14985 0
M  V30 1818 C 161.117 3.29617 0.78347 0
M  V30 1819 C 159.676 3.54808 1.25653 0
M  V30 1820 C 158.823 2.76118 0.255752 0
M  V30 1821 H 161.774 1.55324 -0.325608 0
M  V30 1822 H 161.795 3.4322 1.64256 0
M  V30 1823 H 161.307 3.87893 -0.12665 0
M  V30 1824 H 159.408 3.01868 2.18418 0
M  V30 1825 H 159.521 4.63443 1.21482 0
M  V30 1826 H 157.885 2.43745 0.738956 0
M  V30 1827 H 158.668 3.37145 -0.647136 0
M  V30 1828 N 161.113 -0.173488 1.56642 0
M  V30 1829 C 162.529 -0.525174 1.50712 0
M  V30 1830 C 162.729 -1.8476 0.804107 0
M  V30 1831 O 161.785 -2.49869 0.363574 0
M  V30 1832 C 163.098 -0.559937 2.95441 0
M  V30 1833 C 164.646 -0.647288 3.06234 0
M  V30 1834 C 165.121 -0.712963 4.52417 0
M  V30 1835 N 166.612 -0.775911 4.56655 0
M  V30 1836 C 167.347 -0.847264 5.67106 0
M  V30 1837 N 166.843 -0.879585 6.87194 0
M  V30 1838 N 168.636 -0.886117 5.55071 0
M  V30 1839 H 160.787 0.693681 2.00753 0
M  V30 1840 H 163.05 0.249841 0.914485 0
M  V30 1841 H 162.756 0.343049 3.50023 0
M  V30 1842 H 162.63 -1.40718 3.49969 0
M  V30 1843 H 165.017 -1.5407 2.51687 0
M  V30 1844 H 165.098 0.226586 2.54794 0
M  V30 1845 H 164.742 0.176183 5.07594 0
M  V30 1846 H 164.672 -1.60295 5.0161 0
M  V30 1847 H 167.163 -0.759304 3.70193 0
M  V30 1848 H 167.476 -0.935144 7.67121 0
M  V30 1849 H 165.821 -0.847898 6.89808 0
M  V30 1850 H 169.012 -0.857853 4.60172 0
M  V30 1851 H 169.185 -0.938263 6.41171 0
M  V30 1852 N 162.591 -1.51276 -0.441967 0
M  V30 1853 C 163.501 -1.75092 -1.56141 0
M  V30 1854 C 164.517 -0.634963 -1.62001 0
M  V30 1855 O 165.693 -0.916686 -1.79329 0
M  V30 1856 C 162.758 -1.86666 -2.92158 0
M  V30 1857 C 161.819 -3.10506 -2.96453 0
M  V30 1858 C 161.052 -3.21519 -4.25982 0
M  V30 1859 O 161.275 -2.38586 -5.18105 0
M  V30 1860 O 160.209 -4.14465 -4.36466 0
M  V30 1861 H 164.035 -2.70044 -1.38961 0
M  V30 1862 H 161.62 -1.35722 -0.624499 0
M  V30 1863 H 163.502 -1.96292 -3.72891 0
M  V30 1864 H 162.177 -0.949014 -3.09476 0
M  V30 1865 H 161.084 -3.06363 -2.14692 0
M  V30 1866 H 162.417 -4.01945 -2.84079 0
M  V30 1867 N 164.069 0.697108 -1.41344 0
M  V30 1868 C 165.016 1.81106 -1.43071 0
M  V30 1869 C 165.986 1.63632 -0.285275 0
M  V30 1870 O 167.171 1.84504 -0.486091 0
M  V30 1871 C 164.311 3.18975 -1.31715 0
M  V30 1872 C 163.424 3.47892 -2.56115 0
M  V30 1873 C 162.559 4.75367 -2.37064 0
M  V30 1874 C 161.598 4.97247 -3.56948 0
M  V30 1875 N 160.735 6.15947 -3.36977 0
M  V30 1876 H 165.575 1.78965 -2.38276 0
M  V30 1877 H 163.112 0.873975 -1.18322 0
M  V30 1878 H 165.07 3.98615 -1.23133 0
M  V30 1879 H 163.7 3.20297 -0.401183 0
M  V30 1880 H 162.752 2.62669 -2.75153 0
M  V30 1881 H 164.064 3.59962 -3.45295 0
M  V30 1882 H 163.218 5.63059 -2.25941 0
M  V30 1883 H 161.957 4.65541 -1.45338 0
M  V30 1884 H 160.962 4.08004 -3.68527 0
M  V30 1885 H 162.187 5.08934 -4.49626 0
M  V30 1886 H 160.133 6.07336 -2.47949 0
M  V30 1887 H 160.05 6.28777 -4.19732 0
M  V30 1888 H 161.318 7.06377 -3.29623 0
M  V30 1889 N 165.547 1.27147 0.931209 0
M  V30 1890 C 166.457 1.11372 2.06478 0
M  V30 1891 C 167.473 0.044645 1.73943 0
M  V30 1892 O 168.649 0.250417 1.99837 0
M  V30 1893 C 165.714 0.758838 3.38294 0
M  V30 1894 C 164.775 1.90841 3.84549 0
M  V30 1895 C 164.008 1.57036 5.10074 0
M  V30 1896 O 164.231 0.476645 5.68405 0
M  V30 1897 O 163.165 2.40839 5.51616 0
M  V30 1898 H 166.991 2.06493 2.22698 0
M  V30 1899 H 164.576 1.06301 1.04978 0
M  V30 1900 H 166.458 0.574098 4.17471 0
M  V30 1901 H 165.133 -0.162879 3.2329 0
M  V30 1902 H 164.04 2.14819 3.06274 0
M  V30 1903 H 165.373 2.81021 4.04089 0
M  V30 1904 N 167.025 -1.13721 1.09112 0
M  V30 1905 C 168.255 -1.88499 0.845671 0
M  V30 1906 C 168.663 -1.79218 -0.606432 0
M  V30 1907 O 168.006 -1.1544 -1.42896 0
M  V30 1908 C 168.068 -3.38954 1.19793 0
M  V30 1909 C 167.732 -3.72018 2.65428 0
M  V30 1910 C 168.729 -3.7153 3.63677 0
M  V30 1911 C 166.414 -4.01775 3.01467 0
M  V30 1912 C 168.408 -4.00336 4.95994 0
M  V30 1913 C 166.095 -4.30243 4.33975 0
M  V30 1914 C 167.093 -4.29508 5.31048 0
M  V30 1915 O 166.781 -4.5728 6.61173 0
M  V30 1916 H 166.513 -0.603702 0.304171 0
M  V30 1917 H 169.067 -1.44903 1.45576 0
M  V30 1918 H 167.297 -3.83039 0.530871 0
M  V30 1919 H 168.986 -3.95052 0.932146 0
M  V30 1920 H 169.752 -3.4862 3.37179 0
M  V30 1921 H 165.631 -4.01496 2.26544 0
M  V30 1922 H 169.175 -3.99678 5.71755 0
M  V30 1923 H 165.072 -4.52625 4.60219 0
M  V30 1924 H 165.84 -4.74964 6.66597 0
M  V30 1925 N 168.503 -0.877838 -1.30888 0
M  V30 1926 C 169.45 -0.337538 -2.28318 0
M  V30 1927 C 170.42 0.568346 -1.56074 0
M  V30 1928 O 171.605 0.498298 -1.84178 0
M  V30 1929 C 168.745 0.448142 -3.42178 0
M  V30 1930 C 167.858 -0.48615 -4.29256 0
M  V30 1931 C 166.993 0.314427 -5.30269 0
M  V30 1932 C 166.032 -0.615791 -6.08995 0
M  V30 1933 N 165.169 0.14902 -7.01942 0
M  V30 1934 H 170.009 -1.17356 -2.73919 0
M  V30 1935 H 167.546 -0.590094 -1.34745 0
M  V30 1936 H 169.504 0.919517 -4.06941 0
M  V30 1937 H 168.134 1.24879 -2.97666 0
M  V30 1938 H 167.186 -1.076 -3.64865 0
M  V30 1939 H 168.498 -1.19909 -4.84173 0
M  V30 1940 H 167.652 0.847969 -6.00745 0
M  V30 1941 H 166.391 1.06062 -4.76027 0
M  V30 1942 H 165.396 -1.16102 -5.37401 0
M  V30 1943 H 166.621 -1.36097 -6.65323 0
M  V30 1944 H 164.567 0.877884 -6.50099 0
M  V30 1945 H 164.484 -0.504433 -7.54315 0
M  V30 1946 H 165.752 0.663537 -7.76671 0
M  V30 1947 N 169.982 1.44106 -0.638065 0
M  V30 1948 C 170.93 2.3248 0.0748149 0
M  V30 1949 C 171.924 1.47746 0.828702 0
M  V30 1950 O 173.13 1.64049 0.740816 0
M  V30 1951 H 169.505 0.750771 0.0429686 0
M  V30 1952 H 171.476 2.90348 -0.688504 0
M  V30 1953 C 170.225 3.31843 1.03805 0
M  V30 1954 H 169.548 3.97059 0.467375 0
M  V30 1955 H 170.988 3.96345 1.50622 0
M  V30 1956 C 169.447 2.61291 2.1267 0
M  V30 1957 O 169.977 2.41702 3.20847 0
M  V30 1958 N 168.183 2.20915 1.88798 0
M  V30 1959 H 167.73 2.37047 1.00829 0
M  V30 1960 H 167.688 1.74038 2.61836 0
M  V30 1961 N 171.46 0.379036 1.52974 0
M  V30 1962 C 172.39 -0.452706 2.29069 0
M  V30 1963 C 173.371 -1.07237 1.32039 0
M  V30 1964 O 174.556 -1.08708 1.60923 0
M  V30 1965 C 171.686 -1.5856 3.08992 0
M  V30 1966 C 170.64 -1.0925 4.13822 0
M  V30 1967 C 169.966 -2.31668 4.81907 0
M  V30 1968 C 171.266 -0.167702 5.22031 0
M  V30 1969 H 172.96 0.182181 2.98845 0
M  V30 1970 H 170.506 0.0890592 1.43724 0
M  V30 1971 H 172.459 -2.1742 3.6098 0
M  V30 1972 H 171.183 -2.24792 2.36931 0
M  V30 1973 H 169.842 -0.526494 3.628 0
M  V30 1974 H 169.49 -2.96386 4.06404 0
M  V30 1975 H 169.19 -1.9934 5.52754 0
M  V30 1976 H 170.714 -2.91189 5.36695 0
M  V30 1977 H 172.128 -0.664186 5.6944 0
M  V30 1978 H 170.525 0.0653265 6.00064 0
M  V30 1979 H 171.595 0.786347 4.78482 0
M  V30 1980 N 172.938 -1.57226 0.108567 0
M  V30 1981 C 174.354 -1.5766 -0.248058 0
M  V30 1982 C 174.554 -1.12063 -1.67464 0
M  V30 1983 O 173.61 -0.803236 -2.39383 0
M  V30 1984 C 174.923 -3.0069 -0.0242287 0
M  V30 1985 C 176.471 -3.12868 -0.0909372 0
M  V30 1986 C 176.946 -4.57879 0.105067 0
M  V30 1987 N 178.437 -4.63172 0.0506846 0
M  V30 1988 C 179.172 -5.73126 0.177396 0
M  V30 1989 N 178.668 -6.91866 0.359696 0
M  V30 1990 N 180.461 -5.61977 0.117709 0
M  V30 1991 H 172.612 -1.85169 1.04049 0
M  V30 1992 H 174.875 -0.85529 0.40888 0
M  V30 1993 H 174.581 -3.38299 0.961604 0
M  V30 1994 H 174.455 -3.6945 -0.76068 0
M  V30 1995 H 176.842 -2.75124 -1.06729 0
M  V30 1996 H 176.923 -2.46672 0.677225 0
M  V30 1997 H 176.567 -4.96321 1.07834 0
M  V30 1998 H 176.497 -5.22153 -0.682954 0
M  V30 1999 H 178.988 -3.778 -0.0871266 0
M  V30 2000 H 179.301 -7.71503 0.447529 0
M  V30 2001 H 177.646 -6.93874 0.395536 0
M  V30 2002 H 180.837 -4.68094 -0.0236741 0
M  V30 2003 H 181.01 -6.47627 0.219905 0
M  V30 2004 N 174.416 0.165178 -1.56732 0
M  V30 2005 C 175.364 1.22369 -1.97809 0
M  V30 2006 C 176.358 1.45488 -0.867741 0
M  V30 2007 O 177.564 1.45995 -1.05288 0
M  V30 2008 H 173.939 0.411486 -0.629431 0
M  V30 2009 H 175.91 0.850425 -2.86025 0
M  V30 2010 C 174.659 2.55403 -2.35934 0
M  V30 2011 H 173.982 2.38438 -3.20916 0
M  V30 2012 H 175.422 3.2814 -2.68514 0
M  V30 2013 C 173.881 3.14611 -1.20506 0
M  V30 2014 O 174.411 3.98626 -0.496016 0
M  V30 2015 N 172.617 2.7379 -0.97403 0
M  V30 2016 H 172.164 2.0557 -1.55238 0
M  V30 2017 H 172.122 3.1374 -0.203573 0
M  V30 2018 N 175.894 1.51508 0.433938 0
M  V30 2019 C 176.857 1.72473 1.50949 0
M  V30 2020 C 177.857 0.594725 1.49398 0
M  V30 2021 O 179.047 0.862315 1.5136 0
M  V30 2022 C 176.179 1.78431 2.90474 0
M  V30 2023 H 177.372 2.68467 1.33662 0
M  V30 2024 H 174.925 1.41549 0.662836 0
M  V30 2025 H 175.66 0.842645 3.13161 0
M  V30 2026 H 175.445 2.60558 2.93005 0
M  V30 2027 H 176.935 1.96479 3.68491 0
M  V30 2028 N 177.372 -0.689602 1.41712 0
M  V30 2029 C 178.621 -1.44534 1.40686 0
M  V30 2030 C 178.934 -1.95588 0.0213352 0
M  V30 2031 O 180.14 -2.71271 -0.111534 0
M  V30 2032 C 178.596 -2.61387 2.47396 0
M  V30 2033 C 178.204 -2.17094 3.91885 0
M  V30 2034 C 179.948 -3.38986 2.55517 0
M  V30 2035 C 177.855 -3.3094 4.90135 0
M  V30 2036 H 176.785 -0.542925 0.52321 0
M  V30 2037 H 179.436 -0.748054 1.6756 0
M  V30 2038 H 177.818 -3.33412 2.13664 0
M  V30 2039 H 178.992 -1.52318 4.34897 0
M  V30 2040 H 177.307 -1.52473 3.8748 0
M  V30 2041 H 179.904 -4.23747 3.26102 0
M  V30 2042 H 180.247 -3.84578 1.59391 0
M  V30 2043 H 180.78 -2.74021 2.8837 0
M  V30 2044 H 177.519 -2.90355 5.87685 0
M  V30 2045 H 177.039 -3.94546 4.51767 0
M  V30 2046 H 178.718 -3.9663 5.11169 0
M  V30 2047 N 178.85 -1.27639 -0.924453 0
M  V30 2048 C 180.075 -1.17101 -1.71179 0
M  V30 2049 C 180.5 0.268134 -1.86179 0
M  V30 2050 O 179.858 1.19415 -1.36418 0
M  V30 2051 C 179.906 -1.86313 -3.08739 0
M  V30 2052 O 179.01 -1.16331 -3.95652 0
M  V30 2053 H 178.351 -0.407091 -0.524569 0
M  V30 2054 H 180.881 -1.68767 -1.15666 0
M  V30 2055 H 180.891 -1.938 -3.59034 0
M  V30 2056 H 179.566 -2.91001 -2.97138 0
M  V30 2057 H 178.143 -1.16935 -3.54091 0
M  V30 2058 N 180.328 1.1314 -1.09713 0
M  V30 2059 C 181.275 2.18642 -0.739196 0
M  V30 2060 C 182.245 1.63706 0.280978 0
M  V30 2061 O 183.43 1.90111 0.161946 0
M  V30 2062 C 180.57 3.44685 -0.169102 0
M  V30 2063 C 179.683 4.13711 -1.24367 0
M  V30 2064 C 178.818 5.27379 -0.636019 0
M  V30 2065 C 177.857 5.88259 -1.69169 0
M  V30 2066 N 176.994 6.93352 -1.10485 0
M  V30 2067 H 181.834 2.48607 -1.64312 0
M  V30 2068 H 179.371 1.22066 -0.820875 0
M  V30 2069 H 181.329 4.16815 0.179256 0
M  V30 2070 H 179.959 3.15161 0.698079 0
M  V30 2071 H 179.011 3.39835 -1.70927 0
M  V30 2072 H 180.323 4.55037 -2.04311 0
M  V30 2073 H 179.477 6.06238 -0.236677 0
M  V30 2074 H 178.216 4.8731 0.194928 0
M  V30 2075 H 177.221 5.08092 -2.10055 0
M  V30 2076 H 178.446 6.30399 -2.52536 0
M  V30 2077 H 176.392 6.55335 -0.295234 0
M  V30 2078 H 176.309 7.33236 -1.84121 0
M  V30 2079 H 177.577 7.76057 -0.73181 0
M  V30 2080 N 181.806 0.884767 1.30421 0
M  V30 2081 C 182.754 0.340869 2.30089 0
M  V30 2082 C 183.748 -0.55201 1.60154 0
M  V30 2083 O 184.954 -0.436467 1.74628 0
M  V30 2084 H 181.329 0.0915739 0.746404 0
M  V30 2085 H 183.3 1.19513 2.73421 0
M  V30 2086 C 182.049 -0.429779 3.45034 0
M  V30 2087 H 181.372 0.248024 3.9903 0
M  V30 2088 H 182.812 -0.775445 4.16849 0
M  V30 2089 C 181.271 -1.62677 2.95022 0
M  V30 2090 O 181.801 -2.72614 2.95033 0
M  V30 2091 N 180.007 -1.46387 2.51036 0
M  V30 2092 H 179.554 -0.569506 2.51226 0
M  V30 2093 H 179.512 -2.26612 2.17932 0
M  V30 2094 N 183.284 -1.43765 0.645699 0
M  V30 2095 C 184.231 -2.30745 -0.0504648 0
M  V30 2096 C 185.201 -1.4432 -0.822241 0
M  V30 2097 O 186.386 -1.73202 -0.800358 0
M  V30 2098 C 183.526 -3.29802 -1.0161 0
M  V30 2099 C 182.639 -4.31326 -0.241219 0
M  V30 2100 C 181.774 -5.17469 -1.19998 0
M  V30 2101 C 180.813 -6.10691 -0.415094 0
M  V30 2102 N 179.95 -6.89483 -1.32506 0
M  V30 2103 H 184.79 -2.8973 0.697155 0
M  V30 2104 H 182.327 -1.42738 0.355563 0
M  V30 2105 H 184.285 -3.85734 -1.58949 0
M  V30 2106 H 182.915 -2.72483 -1.73069 0
M  V30 2107 H 181.967 -3.77749 0.448334 0
M  V30 2108 H 183.279 -4.9743 0.369437 0
M  V30 2109 H 182.433 -5.7799 -1.84424 0
M  V30 2110 H 181.172 -4.51473 -1.84455 0
M  V30 2111 H 180.177 -5.49265 0.242565 0
M  V30 2112 H 181.402 -6.78727 0.224966 0
M  V30 2113 H 179.348 -6.26142 -1.95657 0
M  V30 2114 H 179.265 -7.52081 -0.768783 0
M  V30 2115 H 180.533 -7.54516 -1.9577 0
M  V30 2116 N 184.763 -0.387143 -1.52771 0
M  V30 2117 C 186.012 0.19697 -2.00736 0
M  V30 2118 C 186.325 1.48082 -1.27793 0
M  V30 2119 O 187.531 2.14485 -1.66458 0
M  V30 2120 C 185.987 0.401568 -3.57653 0
M  V30 2121 C 185.595 -0.868907 -4.39493 0
M  V30 2122 C 187.339 0.942164 -4.13912 0
M  V30 2123 C 185.246 -0.632705 -5.88006 0
M  V30 2124 H 184.176 0.0773827 -0.750019 0
M  V30 2125 H 186.827 -0.50921 -1.76293 0
M  V30 2126 H 185.209 1.16954 -3.78335 0
M  V30 2127 H 186.383 -1.64133 -4.30577 0
M  V30 2128 H 184.698 -1.33429 -3.94443 0
M  V30 2129 H 187.295 1.13455 -5.22525 0
M  V30 2130 H 187.638 1.9106 -3.69867 0
M  V30 2131 H 188.171 0.233814 -3.97112 0
M  V30 2132 H 184.91 -1.57208 -6.36369 0
M  V30 2133 H 184.43 0.100825 -5.99715 0
M  V30 2134 H 186.109 -0.26642 -6.46451 0
M  V30 2135 N 186.241 1.57166 -0.116904 0
M  V30 2136 C 187.518 1.86645 0.585049 0
M  V30 2137 C 187.898 1.0177 1.84949 0
M  V30 2138 O 187.246 0.0960379 2.28298 0
M  V30 2139 C 187.456 3.37736 0.879507 0
M  V30 2140 C 188.804 4.06289 1.23348 0
M  V30 2141 O 189.828 3.42743 0.969836 0
M  V30 2142 O 188.687 5.18455 1.7282 0
M  V30 2143 H 185.781 0.772593 0.295007 0
M  V30 2144 H 188.327 1.69025 -0.151249 0
M  V30 2145 H 187.099 3.91296 -0.0166136 0
M  V30 2146 H 186.722 3.6078 1.67103 0
M  V30 2147 N 187.719 -0.156864 1.56817 0
M  V30 2148 C 188.666 -1.19394 1.97519 0
M  V30 2149 C 189.636 -1.4322 0.841265 0
M  V30 2150 O 190.821 -1.55719 1.10255 0
M  V30 2151 C 187.961 -2.52483 2.35258 0
M  V30 2152 C 187.074 -2.35914 3.61896 0
M  V30 2153 C 186.209 -3.61969 3.88782 0
M  V30 2154 C 185.248 -3.40395 5.08722 0
M  V30 2155 N 184.385 -4.58556 5.31668 0
M  V30 2156 H 189.225 -0.839845 2.85921 0
M  V30 2157 H 186.762 -0.403264 1.41464 0
M  V30 2158 H 188.72 -3.30071 2.55165 0
M  V30 2159 H 187.35 -2.85859 1.49949 0
M  V30 2160 H 186.402 -1.49429 3.49821 0
M  V30 2161 H 187.714 -2.15926 4.49641 0
M  V30 2162 H 186.868 -4.47989 4.09135 0
M  V30 2163 H 185.607 -3.84951 2.9944 0
M  V30 2164 H 184.612 -2.52763 4.88253 0
M  V30 2165 H 185.837 -3.18822 5.99608 0
M  V30 2166 H 183.783 -4.81729 4.45279 0
M  V30 2167 H 183.7 -4.41535 6.13664 0
M  V30 2168 H 184.968 -5.45817 5.5651 0
M  V30 2169 N 189.197 -1.51736 -0.425897 0
M  V30 2170 C 190.608 -1.5732 -1.00536 0
M  V30 2171 C 190.959 -0.403537 -1.92005 0
M  V30 2172 O 190.084 0.478256 -2.11049 0
M  V30 2173 C 190.679 -2.85119 -1.8301 0
M  V30 2174 C 189.238 -2.93236 -2.35987 0
M  V30 2175 C 188.385 -2.52098 -1.15508 0
M  V30 2176 H 191.336 -1.57348 -0.206739 0
M  V30 2177 H 191.357 -2.69526 -2.68581 0
M  V30 2178 H 190.869 -3.7023 -1.16411 0
M  V30 2179 H 188.97 -2.12581 -3.06007 0
M  V30 2180 H 189.083 -3.9713 -2.68001 0
M  V30 2181 H 187.447 -2.05558 -1.50393 0
M  V30 2182 H 188.23 -3.39565 -0.505014 0
M  V30 2183 N 190.675 0.682077 -1.42076 0
M  V30 2184 C 191.924 1.43786 -1.41451 0
M  V30 2185 C 192.237 1.95574 -0.0317074 0
M  V30 2186 O 193.443 2.71326 0.0971462 0
M  V30 2187 C 191.899 2.60071 -2.48779 0
M  V30 2188 C 191.507 2.15013 -3.93031 0
M  V30 2189 C 193.251 3.37626 -2.57311 0
M  V30 2190 C 191.158 3.28336 -4.91883 0
M  V30 2191 H 190.088 0.540143 -0.526082 0
M  V30 2192 H 192.739 0.739157 -1.67955 0
M  V30 2193 H 191.121 3.32275 -2.15429 0
M  V30 2194 H 192.295 1.5001 -4.35699 0
M  V30 2195 H 190.61 1.50416 -3.88284 0
M  V30 2196 H 193.207 4.22012 -3.28345 0
M  V30 2197 H 193.55 3.83727 -1.61429 0
M  V30 2198 H 194.083 2.72488 -2.89819 0
M  V30 2199 H 190.822 2.87234 -5.89217 0
M  V30 2200 H 190.342 3.92145 -4.53853 0
M  V30 2201 H 192.021 3.93913 -5.13265 0
M  V30 2202 N 192.153 1.28127 0.917671 0
M  V30 2203 C 193.101 1.11569 2.04096 0
M  V30 2204 C 194.095 0.0360242 1.69362 0
M  V30 2205 O 195.301 0.194501 1.78946 0
M  V30 2206 H 191.676 0.344097 0.668656 0
M  V30 2207 H 193.647 2.06711 2.15205 0
M  V30 2208 C 192.396 0.790197 3.38602 0
M  V30 2209 H 191.719 1.61293 3.6582 0
M  V30 2210 H 193.159 0.714271 4.1794 0
M  V30 2211 C 191.618 -0.505897 3.3308 0
M  V30 2212 O 192.148 -1.53736 3.71117 0
M  V30 2213 N 190.354 -0.505193 2.86175 0
M  V30 2214 H 189.901 0.334621 2.55417 0
M  V30 2215 H 189.859 -1.37243 2.82863 0
M  V30 2216 N 193.631 -1.12557 1.10312 0
M  V30 2217 C 194.877 -1.84311 0.846011 0
M  V30 2218 C 195.21 -1.83805 -0.626859 0
M  V30 2219 O 194.485 -1.28268 -1.46211 0
M  V30 2220 C 194.768 -3.32048 1.39341 0
M  V30 2221 C 194.621 -3.41016 2.93305 0
M  V30 2222 C 195.94 -4.27764 1.03468 0
M  V30 2223 H 193.059 -0.669192 0.30879 0
M  V30 2224 H 195.701 -1.32057 1.36605 0
M  V30 2225 H 193.851 -3.76678 0.951087 0
M  V30 2226 H 195.523 -3.05031 3.46055 0
M  V30 2227 H 193.766 -2.81603 3.29973 0
M  V30 2228 H 194.437 -4.44948 3.26689 0
M  V30 2229 H 196.913 -3.91253 1.41633 0
M  V30 2230 H 195.789 -5.29549 1.44463 0
M  V30 2231 H 196.05 -4.42064 -0.0560404 0
M  V30 2232 N 195.109 -0.891671 -1.2995 0
M  V30 2233 C 196.339 -0.527893 -1.99742 0
M  V30 2234 C 196.747 0.88979 -1.66971 0
M  V30 2235 O 196.09 1.59766 -0.906667 0
M  V30 2236 C 196.152 -0.630804 -3.53922 0
M  V30 2237 C 195.816 -2.01401 -4.10228 0
M  V30 2238 C 196.813 -2.98422 -4.25724 0
M  V30 2239 C 194.498 -2.32121 -4.45449 0
M  V30 2240 C 196.492 -4.24293 -4.75662 0
M  V30 2241 C 194.179 -3.58237 -4.95086 0
M  V30 2242 C 195.177 -4.54137 -5.10146 0
M  V30 2243 O 194.865 -5.78014 -5.58708 0
M  V30 2244 H 194.597 -0.201953 -0.645129 0
M  V30 2245 H 197.151 -1.20076 -1.66646 0
M  V30 2246 H 195.381 0.0990616 -3.86573 0
M  V30 2247 H 197.07 -0.277338 -4.04951 0
M  V30 2248 H 197.836 -2.76001 -3.98809 0
M  V30 2249 H 193.715 -1.5824 -4.32991 0
M  V30 2250 H 197.259 -4.99153 -4.87332 0
M  V30 2251 H 193.156 -3.80491 -5.21437 0
M  V30 2252 H 193.924 -5.8049 -5.77039 0
M  V30 2253 N 196.587 1.43421 -0.653314 0
M  V30 2254 C 197.817 2.05864 -0.174238 0
M  V30 2255 C 198.225 1.49052 1.16534 0
M  V30 2256 O 197.568 0.616481 1.73047 0
M  V30 2257 C 197.63 3.59499 -0.00875873 0
M  V30 2258 C 197.294 4.38893 -1.27364 0
M  V30 2259 C 198.291 4.70947 -2.20239 0
M  V30 2260 C 195.976 4.789 -1.51525 0
M  V30 2261 C 197.97 5.41916 -3.35568 0
M  V30 2262 C 195.657 5.49614 -2.67147 0
M  V30 2263 C 196.655 5.81044 -3.58994 0
M  V30 2264 O 196.343 6.50313 -4.72597 0
M  V30 2265 H 196.075 0.670345 -0.0872549 0
M  V30 2266 H 198.629 1.84913 -0.894226 0
M  V30 2267 H 196.859 3.79025 0.7666 0
M  V30 2268 H 198.548 4.0364 0.427687 0
M  V30 2269 H 199.314 4.40558 -2.02815 0
M  V30 2270 H 195.193 4.53843 -0.809158 0
M  V30 2271 H 198.737 5.66365 -4.07279 0
M  V30 2272 H 194.634 5.79419 -2.84505 0
M  V30 2273 H 195.402 6.68795 -4.71864 0
M  V30 2274 N 198.065 0.39524 1.52563 0
M  V30 2275 C 199.312 -0.185044 2.01653 0
M  V30 2276 C 199.64 -1.46317 1.28146 0
M  V30 2277 O 198.895 -1.9213 0.372074 0
M  V30 2278 C 199.194 -0.493444 3.53977 0
M  V30 2279 C 198.86 0.69384 4.4553 0
M  V30 2280 C 197.522 1.01954 4.70275 0
M  V30 2281 C 199.874 1.48785 4.99512 0
M  V30 2282 C 197.202 2.14069 5.46252 0
M  V30 2283 C 199.554 2.59965 5.76716 0
M  V30 2284 C 198.218 2.93037 5.99738 0
M  V30 2285 H 197.488 -0.0677123 0.7379 0
M  V30 2286 H 200.135 0.533807 1.8391 0
M  V30 2287 H 198.44 -1.29369 3.69825 0
M  V30 2288 H 200.137 -0.955163 3.89458 0
M  V30 2289 H 196.727 0.429987 4.26438 0
M  V30 2290 H 200.911 1.24946 4.80315 0
M  V30 2291 H 196.167 2.40056 5.62302 0
M  V30 2292 H 200.341 3.21887 6.17545 0
M  V30 2293 H 197.968 3.8003 6.58393 0
M  V30 2294 N 199.544 -1.57102 0.125237 0
M  V30 2295 C 200.454 -2.19191 -0.8362 0
M  V30 2296 C 201.47 -1.16985 -1.28805 0
M  V30 2297 O 202.646 -1.49479 -1.34974 0
M  V30 2298 C 199.711 -2.78407 -2.06617 0
M  V30 2299 C 198.772 -3.9567 -1.66565 0
M  V30 2300 C 198.005 -4.52052 -2.83698 0
M  V30 2301 O 198.228 -4.07326 -3.99302 0
M  V30 2302 O 197.162 -5.42645 -2.60423 0
M  V30 2303 H 200.988 -3.01816 -0.337776 0
M  V30 2304 H 198.573 -1.4906 -0.100695 0
M  V30 2305 H 200.455 -3.16129 -2.7864 0
M  V30 2306 H 199.13 -1.9881 -2.55453 0
M  V30 2307 H 198.037 -3.62705 -0.916296 0
M  V30 2308 H 199.37 -4.76722 -1.22464 0
M  V30 2309 N 201.022 0.148545 -1.56898 0
M  V30 2310 C 202.247 0.880385 -1.87787 0
M  V30 2311 C 202.672 1.74018 -0.714093 0
M  V30 2312 O 202.03 1.78153 0.336343 0
M  V30 2313 C 202.078 1.71422 -3.17249 0
M  V30 2314 O 201.182 2.8183 -3.01074 0
M  V30 2315 H 200.523 0.245301 -0.617028 0
M  V30 2316 H 203.053 0.139826 -2.04122 0
M  V30 2317 H 203.063 2.10954 -3.49231 0
M  V30 2318 H 201.738 1.08284 -4.01556 0
M  V30 2319 H 200.315 2.45715 -2.80497 0
M  V30 2320 N 202.5 1.5196 0.417844 0
M  V30 2321 C 203.911 1.57851 0.997 0
M  V30 2322 C 204.262 0.413714 1.91789 0
M  V30 2323 O 203.387 -0.467057 2.113 0
M  V30 2324 C 203.982 2.86085 1.81496 0
M  V30 2325 C 202.541 2.94483 2.34428 0
M  V30 2326 C 201.688 2.52707 1.14169 0
M  V30 2327 H 204.639 1.57455 0.198392 0
M  V30 2328 H 204.66 2.70947 2.67148 0
M  V30 2329 H 204.172 3.70842 1.14446 0
M  V30 2330 H 202.273 2.142 3.04875 0
M  V30 2331 H 202.386 3.98546 2.65891 0
M  V30 2332 H 200.75 2.06353 1.49301 0
M  V30 2333 H 201.533 3.39828 0.486999 0
M  V30 2334 N 203.978 -0.674533 1.42435 0
M  V30 2335 C 204.888 -1.81751 1.48337 0
M  V30 2336 C 205.904 -1.69975 0.372099 0
M  V30 2337 O 207.08 -1.91521 0.62304 0
M  V30 2338 C 204.145 -3.17895 1.38361 0
M  V30 2339 C 203.206 -3.41625 2.59982 0
M  V30 2340 C 202.439 -4.71274 2.50473 0
M  V30 2341 O 202.662 -5.49197 1.54075 0
M  V30 2342 O 201.596 -4.96254 3.4061 0
M  V30 2343 H 205.422 -1.79728 2.44809 0
M  V30 2344 H 203.007 -0.830312 1.24202 0
M  V30 2345 H 204.889 -3.99136 1.35161 0
M  V30 2346 H 203.564 -3.20555 0.450144 0
M  V30 2347 H 202.471 -2.60231 2.68757 0
M  V30 2348 H 203.804 -3.43796 3.52229 0
M  V30 2349 N 205.456 -1.28612 -0.910864 0
M  V30 2350 C 206.403 -1.12786 -2.01365 0
M  V30 2351 C 207.373 -0.024201 -1.66082 0
M  V30 2352 O 208.558 -0.189667 -1.89855 0
M  V30 2353 C 205.698 -0.798743 -3.35729 0
M  V30 2354 C 204.811 -1.98173 -3.83864 0
M  V30 2355 C 203.946 -1.59298 -5.06752 0
M  V30 2356 C 202.985 -2.74245 -5.47226 0
M  V30 2357 N 202.122 -2.35842 -6.61304 0
M  V30 2358 H 206.962 -2.07142 -2.14234 0
M  V30 2359 H 204.499 -1.03093 -1.0493 0
M  V30 2360 H 206.457 -0.588662 -4.13026 0
M  V30 2361 H 205.087 0.10789 -3.2262 0
M  V30 2362 H 204.139 -2.30386 -3.02699 0
M  V30 2363 H 205.451 -2.84343 -4.09818 0
M  V30 2364 H 204.605 -1.34513 -5.916 0
M  V30 2365 H 203.344 -0.702618 -4.82612 0
M  V30 2366 H 202.349 -2.99725 -4.60918 0
M  V30 2367 H 203.574 -3.63928 -5.73353 0
M  V30 2368 H 201.52 -1.49279 -6.38789 0
M  V30 2369 H 201.437 -3.15546 -6.86998 0
M  V30 2370 H 202.705 -2.14348 -7.4945 0
M  V30 2371 N 206.934 1.1197 -1.10907 0
M  V30 2372 C 208.181 1.83588 -0.854507 0
M  V30 2373 C 208.509 1.84357 0.6199 0
M  V30 2374 O 207.764 1.28809 1.47332 0
M  V30 2375 C 208.063 3.30749 -1.35425 0
M  V30 2376 C 207.729 3.50146 -2.84093 0
M  V30 2377 C 206.391 3.55148 -3.2469 0
M  V30 2378 C 208.743 3.56857 -3.79872 0
M  V30 2379 C 206.071 3.6441 -4.59806 0
M  V30 2380 C 208.423 3.6765 -5.14797 0
M  V30 2381 C 207.087 3.7091 -5.54961 0
M  V30 2382 H 206.357 0.671795 -0.312686 0
M  V30 2383 H 209.004 1.32091 -1.38652 0
M  V30 2384 H 207.309 3.84703 -0.742361 0
M  V30 2385 H 209.006 3.8464 -1.1337 0
M  V30 2386 H 205.596 3.46919 -2.51685 0
M  V30 2387 H 209.78 3.52258 -3.49611 0
M  V30 2388 H 205.036 3.65208 -4.9034 0
M  V30 2389 H 209.21 3.71786 -5.88853 0
M  V30 2390 H 206.837 3.7784 -6.59652 0
M  V30 2391 N 208.412 0.89855 1.29475 0
M  V30 2392 C 209.375 0.380272 2.26023 0
M  V30 2393 C 210.375 -0.484891 1.53315 0
M  V30 2394 O 211.565 -0.290108 1.71767 0
M  V30 2395 C 208.697 -0.45651 3.3783 0
M  V30 2396 H 209.89 1.23295 2.73383 0
M  V30 2397 H 207.443 0.676589 1.40897 0
M  V30 2398 H 208.178 -1.32922 2.95808 0
M  V30 2399 H 207.963 0.163393 3.91759 0
M  V30 2400 H 209.453 -0.810466 4.0966 0
M  V30 2401 N 209.89 -1.43072 0.660911 0
M  V30 2402 C 211.137 -2.01721 0.177445 0
M  V30 2403 C 211.465 -1.5218 -1.21126 0
M  V30 2404 O 210.72 -0.708659 -1.82419 0
M  V30 2405 C 211.019 -3.57103 0.145563 0
M  V30 2406 C 210.685 -4.26021 1.47705 0
M  V30 2407 C 209.347 -4.44563 1.84165 0
M  V30 2408 C 211.699 -4.64983 2.35458 0
M  V30 2409 C 209.027 -4.99334 3.0803 0
M  V30 2410 C 211.379 -5.21127 3.58622 0
M  V30 2411 C 210.043 -5.37884 3.95268 0
M  V30 2412 H 209.313 -0.73815 0.0649317 0
M  V30 2413 H 211.96 -1.71446 0.853144 0
M  V30 2414 H 210.265 -3.86965 -0.61361 0
M  V30 2415 H 211.962 -4.00248 -0.2455 0
M  V30 2416 H 208.552 -4.11939 1.18339 0
M  V30 2417 H 212.736 -4.50343 2.08579 0
M  V30 2418 H 207.992 -5.10493 3.36462 0
M  V30 2419 H 212.166 -5.50262 4.26831 0
M  V30 2420 H 209.793 -5.80089 4.91325 0
M  V30 2421 N 211.368 -0.403325 -1.52352 0
M  V30 2422 C 212.316 0.439752 -2.28405 0
M  V30 2423 C 213.31 1.05089 -1.32863 0
M  V30 2424 O 214.516 0.989759 -1.50345 0
M  V30 2425 H 210.891 0.160587 -0.734653 0
M  V30 2426 H 212.862 -0.222983 -2.97566 0
M  V30 2427 C 211.611 1.54736 -3.11371 0
M  V30 2428 H 210.934 1.08643 -3.84755 0
M  V30 2429 H 212.374 2.1112 -3.67701 0
M  V30 2430 C 210.833 2.51141 -2.24566 0
M  V30 2431 O 211.363 3.54887 -1.88196 0
M  V30 2432 N 209.569 2.21213 -1.8845 0
M  V30 2433 H 209.116 1.36878 -2.18225 0
M  V30 2434 H 209.074 2.85963 -1.30662 0
M  V30 2435 N 212.846 1.57033 -0.133567 0
M  V30 2436 C 213.793 2.16074 0.811208 0
M  V30 2437 C 214.763 1.08979 1.2535 0
M  V30 2438 O 215.948 1.36958 1.32843 0
M  V30 2439 C 213.088 2.77595 2.05024 0
M  V30 2440 C 212.201 3.99042 1.65498 0
M  V30 2441 C 211.336 4.48603 2.84479 0
M  V30 2442 C 210.375 5.62547 2.41262 0
M  V30 2443 N 209.512 6.06787 3.53206 0
M  V30 2444 H 214.352 2.96477 0.300906 0
M  V30 2445 H 211.889 1.46462 0.136822 0
M  V30 2446 H 213.847 3.11402 2.77642 0
M  V30 2447 H 212.477 1.99859 2.53488 0
M  V30 2448 H 211.529 3.71302 0.826981 0
M  V30 2449 H 212.841 4.81629 1.29748 0
M  V30 2450 H 211.995 4.84395 3.65303 0
M  V30 2451 H 210.734 3.64995 3.23465 0
M  V30 2452 H 209.739 5.26345 1.58874 0
M  V30 2453 H 210.964 6.47931 2.03377 0
M  V30 2454 H 208.91 5.26117 3.91838 0
M  V30 2455 H 208.827 6.84266 3.21427 0
M  V30 2456 H 210.095 6.4722 4.34427 0
M  V30 2457 N 214.325 -0.140222 1.56975 0
M  V30 2458 C 215.235 -1.19223 2.02047 0
M  V30 2459 C 216.251 -1.46612 0.937062 0
M  V30 2460 O 217.427 -1.58148 1.24704 0
M  V30 2461 C 214.492 -2.50414 2.39778 0
M  V30 2462 C 213.553 -2.30612 3.621 0
M  V30 2463 C 212.786 -3.55547 3.98023 0
M  V30 2464 O 213.009 -4.62004 3.34528 0
M  V30 2465 O 211.943 -3.47808 4.91237 0
M  V30 2466 H 215.769 -0.839559 2.91865 0
M  V30 2467 H 213.354 -0.349453 1.45256 0
M  V30 2468 H 215.236 -3.27747 2.64877 0
M  V30 2469 H 213.911 -2.85198 1.53114 0
M  V30 2470 H 212.818 -1.51207 3.4218 0
M  V30 2471 H 214.151 -2.00741 4.49404 0
M  V30 2472 N 215.803 -1.52179 -0.40978 0
M  V30 2473 C 217.052 -1.65434 -1.15388 0
M  V30 2474 C 217.365 -0.390056 -1.91671 0
M  V30 2475 O 218.571 -0.402399 -2.68501 0
M  V30 2476 C 217.027 -2.92279 -2.10003 0
M  V30 2477 C 216.635 -4.25813 -1.39239 0
M  V30 2478 C 218.379 -3.14897 -2.84675 0
M  V30 2479 C 216.286 -5.43782 -2.32498 0
M  V30 2480 H 215.216 -0.616267 -0.434432 0
M  V30 2481 H 217.867 -1.78666 -0.418401 0
M  V30 2482 H 216.249 -2.72744 -2.871 0
M  V30 2483 H 217.423 -4.55828 -0.675099 0
M  V30 2484 H 215.738 -4.09292 -0.766097 0
M  V30 2485 H 218.335 -4.0021 -3.54593 0
M  V30 2486 H 218.678 -2.29103 -3.47588 0
M  V30 2487 H 219.211 -3.34901 -2.14677 0
M  V30 2488 H 215.95 -6.3192 -1.74233 0
M  V30 2489 H 215.47 -5.18106 -3.02201 0
M  V30 2490 H 217.149 -5.76834 -2.93038 0
M  V30 2491 N 217.281 0.66697 -1.42791 0
M  V30 2492 C 218.697 0.981027 -1.25889 0
M  V30 2493 C 218.897 2.00793 -0.168695 0
M  V30 2494 O 217.953 2.48321 0.45747 0
M  V30 2495 C 219.266 1.47838 -2.61848 0
M  V30 2496 C 220.814 1.59575 -2.69267 0
M  V30 2497 C 221.289 2.12704 -4.05612 0
M  V30 2498 N 222.78 2.20026 -4.07606 0
M  V30 2499 C 223.515 2.62227 -5.09926 0
M  V30 2500 N 223.011 3.03824 -6.22626 0
M  V30 2501 N 224.804 2.62045 -4.97281 0
M  V30 2502 H 216.955 -0.0127891 -2.12396 0
M  V30 2503 H 219.218 0.0568258 -0.946295 0
M  V30 2504 H 218.924 0.798299 -3.4252 0
M  V30 2505 H 218.798 2.45579 -2.86305 0
M  V30 2506 H 221.185 2.26687 -1.88936 0
M  V30 2507 H 221.266 0.60302 -2.48591 0
M  V30 2508 H 220.91 1.46198 -4.86404 0
M  V30 2509 H 220.84 3.12782 -4.23645 0
M  V30 2510 H 223.331 1.90708 -3.2625 0
M  V30 2511 H 223.644 3.34734 -6.96544 0
M  V30 2512 H 221.989 3.01662 -6.26119 0
M  V30 2513 H 225.18 2.28916 -4.08308 0
M  V30 2514 H 225.353 2.94613 -5.77154 0
M  V30 2515 N 218.759 1.29093 0.90403 0
M  V30 2516 C 219.987 1.19689 1.68766 0
M  V30 2517 C 220.402 -0.243113 1.87228 0
M  V30 2518 O 219.759 -1.16326 1.40621 0
M  V30 2519 C 219.81 1.90144 3.07453 0
M  V30 2520 O 219.531 3.2852 2.89838 0
M  V30 2521 C 221.032 1.87162 4.01852 0
M  V30 2522 H 218.252 0.415035 0.527244 0
M  V30 2523 H 220.796 1.7039 1.13082 0
M  V30 2524 H 218.951 1.43289 3.59926 0
M  V30 2525 H 219.365 3.63944 3.77684 0
M  V30 2526 H 220.839 2.41032 4.96596 0
M  V30 2527 H 221.316 0.84617 4.30972 0
M  V30 2528 H 221.922 2.33741 3.5531 0
M  V30 2529 N 220.237 -1.11381 1.11499 0
M  V30 2530 C 221.147 -2.21019 0.786628 0
M  V30 2531 C 222.163 -1.72597 -0.220507 0
M  V30 2532 O 223.339 -2.01321 -0.0565251 0
M  V30 2533 C 220.404 -3.459 0.235333 0
M  V30 2534 C 219.465 -4.09107 1.30115 0
M  V30 2535 C 218.698 -5.28027 0.776068 0
M  V30 2536 O 218.921 -5.6904 -0.393661 0
M  V30 2537 O 217.855 -5.81835 1.54114 0
M  V30 2538 H 221.681 -2.51521 1.70209 0
M  V30 2539 H 219.266 -1.19928 0.890928 0
M  V30 2540 H 221.148 -4.21346 -0.067715 0
M  V30 2541 H 219.823 -3.17049 -0.652828 0
M  V30 2542 H 218.73 -3.35391 1.65722 0
M  V30 2543 H 220.063 -4.42139 2.16273 0
M  V30 2544 N 221.715 -0.905404 -1.28997 0
M  V30 2545 C 222.663 -0.377431 -2.29517 0
M  V30 2546 C 223.657 0.526461 -1.61012 0
M  V30 2547 O 224.863 0.40863 -1.753 0
M  V30 2548 H 221.238 -0.103437 -0.744852 0
M  V30 2549 H 223.209 -1.23848 -2.71485 0
M  V30 2550 C 221.958 0.374833 -3.45674 0
M  V30 2551 H 221.281 -0.311474 -3.98585 0
M  V30 2552 H 222.721 0.70903 -4.1803 0
M  V30 2553 C 221.18 1.57963 -2.97572 0
M  V30 2554 O 221.71 2.67886 -2.99333 0
M  V30 2555 N 219.916 1.42375 -2.53333 0
M  V30 2556 H 219.463 0.529466 -2.521 0
M  V30 2557 H 219.421 2.23117 -2.21509 0
M  V30 2558 N 223.193 1.4272 -0.668489 0
M  V30 2559 C 224.125 2.2914 0.052613 0
M  V30 2560 C 225.138 1.43339 0.771857 0
M  V30 2561 O 226.327 1.67123 0.627067 0
M  V30 2562 C 223.427 3.20618 1.09804 0
M  V30 2563 C 222.6 4.35039 0.45389 0
M  V30 2564 C 221.659 5.07282 1.39825 0
M  V30 2565 O 220.685 5.62024 0.900978 0
M  V30 2566 N 221.887 5.12206 2.73176 0
M  V30 2567 H 224.652 2.91668 -0.689209 0
M  V30 2568 H 222.213 1.53577 -0.512422 0
M  V30 2569 H 224.205 3.65815 1.73094 0
M  V30 2570 H 222.775 2.59585 1.74167 0
M  V30 2571 H 221.995 3.92567 -0.358396 0
M  V30 2572 H 223.283 5.088 0.00486972 0
M  V30 2573 H 222.681 4.6913 3.16122 0
M  V30 2574 H 221.238 5.61069 3.31729 0
M  V30 2575 N 224.671 0.411399 1.52136 0
M  V30 2576 C 225.619 -0.427633 2.28635 0
M  V30 2577 C 226.613 -1.04383 1.33419 0
M  V30 2578 O 227.819 -0.981772 1.50868 0
M  V30 2579 H 224.194 -0.156689 0.735495 0
M  V30 2580 H 226.165 0.238761 2.97443 0
M  V30 2581 C 224.914 -1.53082 3.12188 0
M  V30 2582 H 224.237 -1.06601 3.85326 0
M  V30 2583 H 225.677 -2.09167 3.68816 0
M  V30 2584 C 224.136 -2.49946 2.25895 0
M  V30 2585 O 224.666 -3.53884 1.90076 0
M  V30 2586 N 222.872 -2.2021 1.8962 0
M  V30 2587 H 222.419 -1.35719 2.18948 0
M  V30 2588 H 222.377 -2.85266 1.32176 0
M  V30 2589 N 226.149 -1.5696 0.141893 0
M  V30 2590 C 227.059 -2.20066 -0.812905 0
M  V30 2591 C 228.075 -1.18344 -1.27557 0
M  V30 2592 O 229.251 -1.50902 -1.33381 0
M  V30 2593 C 226.316 -2.80583 -2.03652 0
M  V30 2594 C 225.377 -3.97414 -1.62359 0
M  V30 2595 C 224.61 -4.55036 -2.78887 0
M  V30 2596 O 224.833 -4.11538 -3.94959 0
M  V30 2597 O 223.767 -5.45376 -2.54653 0
M  V30 2598 H 227.593 -3.02157 -0.305746 0
M  V30 2599 H 225.178 -1.49159 -0.0848799 0
M  V30 2600 H 227.06 -3.19067 -2.75272 0
M  V30 2601 H 225.735 -2.01508 -2.5333 0
M  V30 2602 H 224.642 -3.63656 -0.877775 0
M  V30 2603 H 225.975 -4.77994 -1.17401 0
M  V30 2604 N 227.627 0.131896 -1.57047 0
M  V30 2605 C 228.876 0.84044 -1.83356 0
M  V30 2606 C 229.189 1.81646 -0.725535 0
M  V30 2607 O 230.395 2.57025 -0.874659 0
M  V30 2608 C 228.851 1.54528 -3.25037 0
M  V30 2609 C 228.459 0.610902 -4.43815 0
M  V30 2610 C 230.203 2.23972 -3.60606 0
M  V30 2611 C 228.11 1.31823 -5.76521 0
M  V30 2612 H 227.04 0.317599 -0.683847 0
M  V30 2613 H 229.691 0.0931561 -1.83263 0
M  V30 2614 H 228.073 2.33873 -3.19561 0
M  V30 2615 H 229.247 -0.148407 -4.60561 0
M  V30 2616 H 227.562 0.0241016 -4.16393 0
M  V30 2617 H 230.159 2.77558 -4.57018 0
M  V30 2618 H 230.502 3.01173 -2.87403 0
M  V30 2619 H 231.035 1.51529 -3.6781 0
M  V30 2620 H 227.774 0.587771 -6.52859 0
M  V30 2621 H 227.294 2.04987 -5.63685 0
M  V30 2622 H 228.973 1.855 -6.19838 0
M  V30 2623 N 229.106 1.52395 0.401703 0
M  V30 2624 C 230.331 1.70972 1.17403 0
M  V30 2625 C 230.756 0.421615 1.83314 0
M  V30 2626 O 230.114 -0.621564 1.70312 0
M  V30 2627 C 230.162 2.85151 2.20728 0
M  V30 2628 O 229.266 2.51238 3.27037 0
M  V30 2629 H 228.607 0.568927 0.342372 0
M  V30 2630 H 231.137 1.99131 0.469891 0
M  V30 2631 H 231.147 3.10279 2.64936 0
M  V30 2632 H 229.822 3.78603 1.7214 0
M  V30 2633 H 228.399 2.36808 2.88057 0
M  V30 2634 N 230.584 -0.659388 1.43143 0
M  V30 2635 C 231.514 -1.78422 1.50625 0
M  V30 2636 C 232.495 -1.66216 0.361443 0
M  V30 2637 O 233.68 -1.85404 0.577834 0
M  V30 2638 C 230.81 -3.16815 1.42287 0
M  V30 2639 C 229.764 -3.43777 2.54954 0
M  V30 2640 C 229.09 -4.81905 2.31671 0
M  V30 2641 C 230.39 -3.39134 3.97222 0
M  V30 2642 H 232.084 -1.72417 2.44771 0
M  V30 2643 H 229.63 -0.828084 1.17808 0
M  V30 2644 H 231.583 -3.95253 1.46127 0
M  V30 2645 H 230.307 -3.23534 0.446435 0
M  V30 2646 H 228.966 -2.67707 2.50457 0
M  V30 2647 H 228.614 -4.85294 1.32284 0
M  V30 2648 H 228.314 -5.00906 3.07192 0
M  V30 2649 H 229.838 -5.62609 2.37284 0
M  V30 2650 H 231.252 -4.07518 4.03239 0
M  V30 2651 H 229.649 -3.69671 4.72719 0
M  V30 2652 H 230.719 -2.37426 4.22797 0
M  V30 2653 N 232.062 -1.29571 -0.897171 0
M  V30 2654 C 232.972 -1.16808 -2.03453 0
M  V30 2655 C 233.988 -0.0907471 -1.73763 0
M  V30 2656 O 235.164 -0.303312 -1.99103 0
M  V30 2657 C 232.229 -0.848264 -3.36163 0
M  V30 2658 C 231.29 -2.0097 -3.79354 0
M  V30 2659 C 230.523 -1.70505 -5.05731 0
M  V30 2660 O 230.746 -0.62718 -5.66941 0
M  V30 2661 O 229.68 -2.5538 -5.45036 0
M  V30 2662 H 233.506 -2.12325 -2.17144 0
M  V30 2663 H 231.091 -1.09047 -1.02123 0
M  V30 2664 H 232.973 -0.684581 -4.15802 0
M  V30 2665 H 231.648 0.0771071 -3.23608 0
M  V30 2666 H 230.555 -2.22863 -3.00471 0
M  V30 2667 H 231.888 -2.91636 -3.96496 0
M  V30 2668 N 233.54 1.10788 -1.12088 0
M  V30 2669 C 234.487 2.17025 -0.785407 0
M  V30 2670 C 235.457 1.64265 0.246191 0
M  V30 2671 O 236.642 1.90412 0.121584 0
M  V30 2672 C 233.782 3.44249 -0.242177 0
M  V30 2673 C 232.895 4.1098 -1.33115 0
M  V30 2674 C 232.03 5.25911 -0.747741 0
M  V30 2675 C 231.069 5.84538 -1.81609 0
M  V30 2676 N 230.206 6.90853 -1.25167 0
M  V30 2677 H 235.046 2.45066 -1.69548 0
M  V30 2678 H 232.583 1.20297 -0.846582 0
M  V30 2679 H 234.541 4.17101 0.0908026 0
M  V30 2680 H 233.171 3.16571 0.631072 0
M  V30 2681 H 232.223 3.36133 -1.78097 0
M  V30 2682 H 233.535 4.50601 -2.13917 0
M  V30 2683 H 232.689 6.056 -0.365216 0
M  V30 2684 H 231.428 4.87614 0.0915188 0
M  V30 2685 H 230.433 5.03522 -2.20785 0
M  V30 2686 H 231.658 6.249 -2.6585 0
M  V30 2687 H 229.604 6.54562 -0.434174 0
M  V30 2688 H 229.521 7.29166 -1.99633 0
M  V30 2689 H 230.789 7.7433 -0.896259 0
M  V30 2690 N 235.018 0.912232 1.28515 0
M  V30 2691 C 236.265 0.544599 1.95039 0
M  V30 2692 C 236.593 -0.911435 1.71823 0
M  V30 2693 O 235.848 -1.66317 1.03137 0
M  V30 2694 C 236.147 0.798392 3.48368 0
M  V30 2695 C 235.813 2.23374 3.91682 0
M  V30 2696 C 234.475 2.62617 4.03219 0
M  V30 2697 C 236.827 3.16786 4.13879 0
M  V30 2698 C 234.155 3.94429 4.3433 0
M  V30 2699 C 236.507 4.48161 4.46469 0
M  V30 2700 C 235.171 4.8726 4.56217 0
M  V30 2701 H 234.441 0.199283 0.7137 0
M  V30 2702 H 237.088 1.15327 1.52879 0
M  V30 2703 H 235.393 0.106908 3.91654 0
M  V30 2704 H 237.09 0.493141 3.97956 0
M  V30 2705 H 233.68 1.91922 3.83228 0
M  V30 2706 H 237.864 2.87677 4.0442 0
M  V30 2707 H 233.12 4.24426 4.40082 0
M  V30 2708 H 237.294 5.20559 4.62592 0
M  V30 2709 H 234.921 5.89431 4.80078 0
M  V30 2710 N 236.496 -1.42363 0.676048 0
M  V30 2711 C 237.444 -2.32596 -0.0131507 0
M  V30 2712 C 238.438 -1.49891 -0.789238 0
M  V30 2713 O 239.644 -1.65955 -0.697061 0
M  V30 2714 H 236.019 -0.751647 -0.0230481 0
M  V30 2715 H 237.99 -2.88421 0.765243 0
M  V30 2716 C 236.739 -3.34479 -0.949702 0
M  V30 2717 H 236.062 -3.98158 -0.361938 0
M  V30 2718 H 237.502 -4.00199 -1.4006 0
M  V30 2719 C 235.961 -2.66838 -2.05667 0
M  V30 2720 O 236.491 -2.50124 -3.14326 0
M  V30 2721 N 234.697 -2.25843 -1.82875 0
M  V30 2722 H 234.244 -2.39637 -0.945085 0
M  V30 2723 H 234.202 -1.80918 -2.5713 0
M  V30 2724 N 237.974 -0.419461 -1.51915 0
M  V30 2725 C 238.884 0.407528 -2.31033 0
M  V30 2726 C 239.9 1.04413 -1.3919 0
M  V30 2727 O 241.076 1.0434 -1.72265 0
M  V30 2728 C 238.141 1.50365 -3.12396 0
M  V30 2729 C 237.202 0.889029 -4.19994 0
M  V30 2730 C 236.435 1.93291 -4.97468 0
M  V30 2731 O 236.658 3.15259 -4.75361 0
M  V30 2732 O 235.592 1.53339 -5.8204 0
M  V30 2733 H 239.418 -0.237865 -3.02767 0
M  V30 2734 H 237.003 -0.182413 -1.48282 0
M  V30 2735 H 238.885 2.13975 -3.63032 0
M  V30 2736 H 237.56 2.13345 -2.43445 0
M  V30 2737 H 236.467 0.215353 -3.7348 0
M  V30 2738 H 237.8 0.302991 -4.91267 0
M  V30 2739 N 239.452 1.56882 -0.150215 0
M  V30 2740 C 240.382 2.19935 0.784284 0
M  V30 2741 C 241.363 1.14854 1.25469 0
M  V30 2742 O 242.548 1.43209 1.31168 0
M  V30 2743 C 239.678 2.82349 2.02229 0
M  V30 2744 C 238.632 3.93285 1.68853 0
M  V30 2745 C 237.958 4.42649 2.99944 0
M  V30 2746 C 239.258 5.13904 0.932714 0
M  V30 2747 H 240.952 2.9828 0.258781 0
M  V30 2748 H 238.498 1.43473 0.123029 0
M  V30 2749 H 240.451 3.25126 2.68088 0
M  V30 2750 H 239.175 2.0134 2.57157 0
M  V30 2751 H 237.834 3.5113 1.05371 0
M  V30 2752 H 237.482 3.58458 3.52869 0
M  V30 2753 H 237.182 5.17476 2.78374 0
M  V30 2754 H 238.706 4.88099 3.66868 0
M  V30 2755 H 240.12 5.53506 1.49345 0
M  V30 2756 H 238.517 5.94515 0.81684 0
M  V30 2757 H 239.587 4.84842 -0.0749568 0
M  V30 2758 N 240.93 -0.123565 1.57115 0
M  V30 2759 C 241.877 -1.15177 2.00007 0
M  V30 2760 C 242.847 -1.41403 0.871454 0
M  V30 2761 O 244.032 -1.53346 1.13533 0
M  V30 2762 C 241.172 -2.47436 2.40561 0
M  V30 2763 C 240.285 -2.28184 3.66819 0
M  V30 2764 C 239.42 -3.53641 3.96373 0
M  V30 2765 C 238.459 -3.29528 5.15827 0
M  V30 2766 N 237.596 -4.47175 5.41275 0
M  V30 2767 H 242.436 -0.779008 2.87638 0
M  V30 2768 H 239.973 -0.373166 1.42288 0
M  V30 2769 H 241.931 -3.24584 2.62109 0
M  V30 2770 H 240.561 -2.82614 1.55978 0
M  V30 2771 H 239.613 -1.41976 3.52912 0
M  V30 2772 H 240.925 -2.0634 4.5412 0
M  V30 2773 H 240.079 -4.39209 4.18545 0
M  V30 2774 H 238.818 -3.78512 3.07538 0
M  V30 2775 H 237.823 -2.42349 4.93505 0
M  V30 2776 H 239.048 -3.06031 6.06236 0
M  V30 2777 H 236.994 -4.72175 4.55397 0
M  V30 2778 H 236.911 -4.28419 6.22891 0
M  V30 2779 H 238.179 -5.3389 5.67963 0
M  V30 2780 N 242.408 -1.52605 -0.393616 0
M  V30 2781 C 243.318 -1.79971 -1.50492 0
M  V30 2782 C 244.334 -0.686181 -1.59899 0
M  V30 2783 O 245.51 -0.973274 -1.76322 0
M  V30 2784 C 242.575 -1.95867 -2.86072 0
M  V30 2785 C 241.636 -3.19781 -2.86424 0
M  V30 2786 C 240.869 -3.34909 -4.15538 0
M  V30 2787 O 241.092 -2.54948 -5.10253 0
M  V30 2788 O 240.026 -4.28141 -4.23059 0
M  V30 2789 H 243.852 -2.74328 -1.30299 0
M  V30 2790 H 241.437 -1.3764 -0.581005 0
M  V30 2791 H 243.319 -2.08056 -3.66457 0
M  V30 2792 H 241.994 -1.04699 -3.063 0
M  V30 2793 H 240.901 -3.13038 -2.04837 0
M  V30 2794 H 242.234 -4.1078 -2.71147 0
M  V30 2795 N 243.887 0.651787 -1.4349 0
M  V30 2796 C 245.115 1.43937 -1.48626 0
M  V30 2797 C 245.53 1.8851 -0.104587 0
M  V30 2798 O 244.887 1.5958 0.885464 0
M  V30 2799 C 244.938 2.6734 -2.43334 0
M  V30 2800 O 244.659 2.24631 -3.76128 0
M  V30 2801 C 246.16 3.60683 -2.57726 0
M  V30 2802 H 243.38 0.44213 -0.504739 0
M  V30 2803 H 245.924 0.798944 -1.88248 0
M  V30 2804 H 244.079 3.2752 -2.06904 0
M  V30 2805 H 244.493 3.04485 -4.2707 0
M  V30 2806 H 245.967 4.43933 -3.28067 0
M  V30 2807 H 246.444 4.08126 -1.62265 0
M  V30 2808 H 247.05 3.06384 -2.94973 0
M  V30 2809 N 245.365 1.30045 0.890287 0
M  V30 2810 C 246.614 1.17929 1.63633 0
M  V30 2811 C 246.927 -0.266204 1.9378 0
M  V30 2812 O 248.133 -0.508804 2.6669 0
M  V30 2813 C 246.589 2.06317 2.94892 0
M  V30 2814 C 246.197 3.55745 2.72305 0
M  V30 2815 C 247.941 2.0295 3.72843 0
M  V30 2816 C 245.848 4.36205 3.99348 0
M  V30 2817 H 244.778 0.437782 0.613892 0
M  V30 2818 H 247.429 1.54754 0.986075 0
M  V30 2819 H 245.811 1.6237 3.61182 0
M  V30 2820 H 246.985 4.07805 2.1455 0
M  V30 2821 H 245.3 3.6088 2.07737 0
M  V30 2822 H 247.897 2.60319 4.67053 0
M  V30 2823 H 248.24 1.0117 4.0382 0
M  V30 2824 H 248.773 2.4499 3.13408 0
M  V30 2825 H 245.512 5.38659 3.73533 0
M  V30 2826 H 245.032 3.8891 4.56628 0
M  V30 2827 H 246.711 4.47362 4.67415 0
M  V30 2828 N 246.843 -1.10192 1.12674 0
M  V30 2829 C 247.775 -2.16418 0.754701 0
M  V30 2830 C 248.788 -1.61309 -0.21986 0
M  V30 2831 O 249.977 -1.785 -0.000826841 0
M  V30 2832 C 247.077 -3.38762 0.096698 0
M  V30 2833 C 246.25 -4.23307 1.10136 0
M  V30 2834 C 245.309 -5.24092 0.470513 0
M  V30 2835 O 244.335 -5.57906 1.12824 0
M  V30 2836 N 245.537 -5.75491 -0.760948 0
M  V30 2837 H 248.302 -2.48943 1.66875 0
M  V30 2838 H 245.863 -1.25834 1.01869 0
M  V30 2839 H 247.855 -4.03291 -0.337384 0
M  V30 2840 H 246.425 -3.04192 -0.720153 0
M  V30 2841 H 245.645 -3.55036 1.71299 0
M  V30 2842 H 246.933 -4.76624 1.78064 0
M  V30 2843 H 246.331 -5.50222 -1.31424 0
M  V30 2844 H 244.888 -6.41792 -1.13781 0
M  V30 2845 N 248.321 -0.919034 -1.28029 0
M  V30 2846 C 249.598 -0.473668 -1.89778 0
M  V30 2847 C 249.978 1.04783 -1.83259 0
M  V30 2848 O 249.326 1.8982 -1.27202 0
M  V30 2849 C 249.536 -1.00998 -3.34066 0
M  V30 2850 C 250.884 -1.06525 -4.1102 0
M  V30 2851 O 251.908 -0.958996 -3.43048 0
M  V30 2852 O 250.767 -1.22776 -5.3253 0
M  V30 2853 H 247.861 -0.15098 -0.813101 0
M  V30 2854 H 250.407 -1.01016 -1.36359 0
M  V30 2855 H 249.179 -2.05392 -3.33061 0
M  V30 2856 H 248.802 -0.454626 -3.94992 0
M  V30 2857 N 249.799 1.42003 -0.683588 0
M  V30 2858 C 250.746 2.30798 -0.0107309 0
M  V30 2859 C 251.716 1.4645 0.783688 0
M  V30 2860 O 252.901 1.75263 0.754156 0
M  V30 2861 C 250.041 3.3238 0.928306 0
M  V30 2862 C 249.154 4.31814 0.126776 0
M  V30 2863 C 248.289 5.20468 1.06236 0
M  V30 2864 C 247.328 6.11577 0.253035 0
M  V30 2865 N 246.465 6.92754 1.14179 0
M  V30 2866 H 251.305 2.8778 -0.773727 0
M  V30 2867 H 248.842 1.41745 -0.393283 0
M  V30 2868 H 250.8 3.89813 1.48666 0
M  V30 2869 H 249.43 2.76976 1.65783 0
M  V30 2870 H 248.482 3.76427 -0.54833 0
M  V30 2871 H 249.794 4.96276 -0.501192 0
M  V30 2872 H 248.948 5.82677 1.69035 0
M  V30 2873 H 247.687 4.56204 1.7242 0
M  V30 2874 H 246.692 5.48428 -0.388108 0
M  V30 2875 H 247.917 6.77892 -0.404839 0
M  V30 2876 H 245.863 6.3111 1.78987 0
M  V30 2877 H 245.78 7.53855 0.569111 0
M  V30 2878 H 247.048 7.59441 1.75697 0
M  V30 2879 N 251.277 0.427512 1.51691 0
M  V30 2880 C 252.207 -0.3796 2.30394 0
M  V30 2881 C 253.188 -1.02982 1.35384 0
M  V30 2882 O 254.373 -1.03534 1.643 0
M  V30 2883 C 251.503 -1.48649 3.1388 0
M  V30 2884 C 250.457 -0.960294 4.17088 0
M  V30 2885 C 249.783 -2.16219 4.89033 0
M  V30 2886 C 251.083 -0.00153679 5.223 0
M  V30 2887 H 252.777 0.277164 2.98114 0
M  V30 2888 H 250.323 0.134739 1.43368 0
M  V30 2889 H 252.276 -2.05826 3.67714 0
M  V30 2890 H 251 -2.1714 2.43962 0
M  V30 2891 H 249.659 -0.410806 3.64291 0
M  V30 2892 H 249.307 -2.83307 4.15628 0
M  V30 2893 H 249.007 -1.81654 5.58816 0
M  V30 2894 H 250.531 -2.73968 5.45687 0
M  V30 2895 H 251.945 -0.482687 5.71264 0
M  V30 2896 H 250.342 0.256199 5.99553 0
M  V30 2897 H 251.412 0.938174 4.75738 0
M  V30 2898 N 252.755 -1.56801 0.158532 0
M  V30 2899 C 254.002 -1.9649 -0.489679 0
M  V30 2900 C 254.33 -1.04394 -1.6411 0
M  V30 2901 O 253.585 -0.0754401 -1.95555 0
M  V30 2902 C 253.884 -3.4235 -1.02623 0
M  V30 2903 C 253.55 -4.50899 0.00794526 0
M  V30 2904 C 252.212 -4.80312 0.292207 0
M  V30 2905 C 254.564 -5.16333 0.710584 0
M  V30 2906 C 251.892 -5.72461 1.28472 0
M  V30 2907 C 254.244 -6.09553 1.69199 0
M  V30 2908 C 252.908 -6.37339 1.98383 0
M  V30 2909 H 252.178 -0.719009 -0.179186 0
M  V30 2910 H 254.825 -1.8989 0.247798 0
M  V30 2911 H 253.13 -3.45838 -1.84128 0
M  V30 2912 H 254.827 -3.70393 -1.53656 0
M  V30 2913 H 251.417 -4.28015 -0.22379 0
M  V30 2914 H 255.601 -4.93732 0.504174 0
M  V30 2915 H 250.857 -5.92278 1.51714 0
M  V30 2916 H 255.031 -6.59327 2.24189 0
M  V30 2917 H 252.658 -7.08546 2.7544 0
M  V30 2918 N 254.233 0.115231 -1.57178 0
M  V30 2919 C 255.18 1.14115 -2.00615 0
M  V30 2920 C 256.15 1.40939 -0.878941 0
M  V30 2921 O 257.335 1.52741 -1.14345 0
M  V30 2922 C 254.475 2.46156 -2.4187 0
M  V30 2923 C 253.588 2.26236 -3.68024 0
M  V30 2924 C 252.723 3.51534 -3.98243 0
M  V30 2925 C 251.762 3.26787 -5.17568 0
M  V30 2926 N 250.899 4.44298 -5.43639 0
M  V30 2927 H 255.739 0.763743 -2.88047 0
M  V30 2928 H 253.276 0.365615 -1.42484 0
M  V30 2929 H 255.234 3.23189 -2.63827 0
M  V30 2930 H 253.864 2.81783 -1.57475 0
M  V30 2931 H 252.916 1.40102 -3.5366 0
M  V30 2932 H 254.228 2.03929 -4.55208 0
M  V30 2933 H 253.382 4.36984 -4.20868 0
M  V30 2934 H 252.121 3.76876 -3.09541 0
M  V30 2935 H 251.126 2.39729 -4.94783 0
M  V30 2936 H 252.351 3.02812 -6.0785 0
M  V30 2937 H 250.297 4.69754 -4.57895 0
M  V30 2938 H 250.214 4.25109 -6.25154 0
M  V30 2939 H 251.482 5.3087 -5.70786 0
M  V30 2940 N 255.711 1.52812 0.385517 0
M  V30 2941 C 256.643 1.74096 1.49074 0
M  V30 2942 C 257.656 0.621462 1.50472 0
M  V30 2943 O 258.845 0.897245 1.54311 0
M  V30 2944 C 255.945 1.78774 2.87911 0
M  V30 2945 C 255.118 3.08134 3.10439 0
M  V30 2946 C 254.177 3.04313 4.29278 0
M  V30 2947 O 253.203 3.78168 4.25415 0
M  V30 2948 N 254.405 2.23741 5.35649 0
M  V30 2949 H 257.17 2.69455 1.31202 0
M  V30 2950 H 254.731 1.51343 0.575065 0
M  V30 2951 H 256.723 1.73721 3.65518 0
M  V30 2952 H 255.293 0.907869 2.99126 0
M  V30 2953 H 254.513 3.26649 2.20667 0
M  V30 2954 H 255.801 3.93662 3.22347 0
M  V30 2955 H 255.199 1.63211 5.41645 0
M  V30 2956 H 253.756 2.24524 6.11909 0
M  V30 2957 N 257.189 -0.644168 1.43834 0
M  V30 2958 C 258.466 -1.40188 1.36406 0
M  V30 2959 C 258.846 -2.11094 0.0163124 0
M  V30 2960 O 258.194 -2.05426 -1.00062 0
M  V30 2961 C 258.404 -2.3791 2.55343 0
M  V30 2962 C 259.752 -3.01637 2.98832 0
M  V30 2963 O 260.776 -2.48237 2.55455 0
M  V30 2964 O 259.635 -3.98477 3.74003 0
M  V30 2965 H 256.729 -0.626773 0.539523 0
M  V30 2966 H 259.275 -0.670317 1.559 0
M  V30 2967 H 258.047 -1.84525 3.4506 0
M  V30 2968 H 257.67 -3.18503 2.37995 0
M  V30 2969 N 258.668 -1.30515 -0.883378 0
M  V30 2970 C 259.916 -1.19194 -1.63209 0
M  V30 2971 C 260.237 0.253205 -1.93349 0
M  V30 2972 O 259.507 1.17025 -1.57105 0
M  V30 2973 H 258.087 -0.438148 -0.605009 0
M  V30 2974 H 260.749 -1.63663 -1.05832 0
M  V30 2975 H 259.845 -1.75396 -2.58153 0
M  V30 2976 N 260.146 1.09593 -1.13257 0
M  V30 2977 C 261.393 1.81734 -0.893257 0
M  V30 2978 C 261.721 1.8563 0.580656 0
M  V30 2979 O 260.976 1.31906 1.44566 0
M  V30 2980 C 261.275 3.27802 -1.42411 0
M  V30 2981 C 260.941 3.44041 -2.91456 0
M  V30 2982 C 259.603 3.48181 -3.3215 0
M  V30 2983 C 261.955 3.48719 -3.87356 0
M  V30 2984 C 259.283 3.54575 -4.67433 0
M  V30 2985 C 261.635 3.56648 -5.2248 0
M  V30 2986 C 260.299 3.59055 -5.62704 0
M  V30 2987 H 259.569 0.665011 -0.326866 0
M  V30 2988 H 262.216 1.2912 -1.41422 0
M  V30 2989 H 260.521 3.83042 -0.823795 0
M  V30 2990 H 262.218 3.82149 -1.21503 0
M  V30 2991 H 258.808 3.41502 -2.58987 0
M  V30 2992 H 262.992 3.44763 -3.57004 0
M  V30 2993 H 258.248 3.54725 -4.97976 0
M  V30 2994 H 262.422 3.59212 -5.96607 0
M  V30 2995 H 260.049 3.63763 -6.67518 0
M  V30 2996 N 261.624 0.925811 1.2754 0
M  V30 2997 C 262.571 0.422045 2.26908 0
M  V30 2998 C 263.541 -0.510029 1.58076 0
M  V30 2999 O 264.726 -0.429599 1.85901 0
M  V30 3000 C 261.866 -0.320837 3.43605 0
M  V30 3001 C 260.979 0.64513 4.27156 0
M  V30 3002 C 260.114 -0.117405 5.3107 0
M  V30 3003 C 259.153 0.841391 6.0629 0
M  V30 3004 N 258.29 0.111604 7.02011 0
M  V30 3005 H 263.13 1.27441 2.69375 0
M  V30 3006 H 260.667 0.639697 1.32462 0
M  V30 3007 H 262.625 -0.76785 4.10073 0
M  V30 3008 H 261.255 -1.13745 3.02096 0
M  V30 3009 H 260.307 1.21067 3.6062 0
M  V30 3010 H 261.619 1.37797 4.79389 0
M  V30 3011 H 260.773 -0.624422 6.03478 0
M  V30 3012 H 259.512 -0.883219 4.79636 0
M  V30 3013 H 258.517 1.35967 5.32722 0
M  V30 3014 H 259.742 1.60696 6.59813 0
M  V30 3015 H 257.688 -0.635999 6.5291 0
M  V30 3016 H 257.605 0.784044 7.51923 0
M  V30 3017 H 258.873 -0.374823 7.78598 0
M  V30 3018 N 263.102 -1.41638 0.69111 0
M  V30 3019 C 264.379 -1.95036 0.148421 0
M  V30 3020 C 264.759 -1.63072 -1.34055 0
M  V30 3021 O 264.107 -0.93538 -2.08478 0
M  V30 3022 C 264.317 -3.46279 0.434951 0
M  V30 3023 C 265.665 -4.23069 0.360275 0
M  V30 3024 O 266.689 -3.54277 0.369613 0
M  V30 3025 O 265.548 -5.45583 0.316534 0
M  V30 3026 H 262.642 -0.826908 0.0123654 0
M  V30 3027 H 265.188 -1.5138 0.766963 0
M  V30 3028 H 263.96 -3.6281 1.46576 0
M  V30 3029 H 263.583 -3.97019 -0.214787 0
M  V30 3030 N 264.58 -0.43555 -1.51462 0
M  V30 3031 C 265.826 0.131709 -2.02372 0
M  V30 3032 C 266.159 1.42516 -1.3192 0
M  V30 3033 O 265.434 1.89606 -0.433573 0
M  V30 3034 C 265.717 0.352301 -3.58373 0
M  V30 3035 C 265.57 -0.959676 -4.39443 0
M  V30 3036 C 266.889 1.12286 -4.25535 0
M  V30 3037 H 264.008 0.0463936 -0.735538 0
M  V30 3038 H 266.65 -0.574197 -1.81116 0
M  V30 3039 H 264.8 0.9536 -3.76615 0
M  V30 3040 H 266.472 -1.59482 -4.32855 0
M  V30 3041 H 264.715 -1.56468 -4.04599 0
M  V30 3042 H 265.386 -0.759394 -5.46752 0
M  V30 3043 H 267.862 0.613545 -4.11552 0
M  V30 3044 H 266.738 1.24598 -5.34571 0
M  V30 3045 H 266.999 2.15048 -3.86273 0
M  V30 3046 N 266.058 1.56714 -0.166846 0
M  V30 3047 C 267.283 2.01557 0.488833 0
M  V30 3048 C 267.708 1.0463 1.56314 0
M  V30 3049 O 267.066 0.0251304 1.81283 0
M  V30 3050 C 267.114 3.4503 1.04818 0
M  V30 3051 O 266.218 3.51163 2.16236 0
M  V30 3052 H 265.559 0.653516 0.117526 0
M  V30 3053 H 268.089 2.02818 -0.269421 0
M  V30 3054 H 268.099 3.84243 1.37191 0
M  V30 3055 H 266.774 4.15077 0.261572 0
M  V30 3056 H 265.351 3.23807 1.84942 0
M  V30 3057 N 267.536 -0.106894 1.57237 0
M  V30 3058 C 268.466 -1.13148 2.04254 0
M  V30 3059 C 269.447 -1.42476 0.929224 0
M  V30 3060 O 270.632 -1.52709 1.19973 0
M  V30 3061 C 267.762 -2.4545 2.45706 0
M  V30 3062 C 266.716 -2.30558 3.60592 0
M  V30 3063 C 266.042 -3.67931 3.87983 0
M  V30 3064 C 267.342 -1.75597 4.91897 0
M  V30 3065 H 269.036 -0.740374 2.90101 0
M  V30 3066 H 266.582 -0.354696 1.39563 0
M  V30 3067 H 268.535 -3.17389 2.77205 0
M  V30 3068 H 267.259 -2.86475 1.56843 0
M  V30 3069 H 265.918 -1.61067 3.29322 0
M  V30 3070 H 265.566 -4.06462 2.96306 0
M  V30 3071 H 265.266 -3.58817 4.65322 0
M  V30 3072 H 266.79 -4.41356 4.21945 0
M  V30 3073 H 268.204 -2.37364 5.21854 0
M  V30 3074 H 266.601 -1.77272 5.73319 0
M  V30 3075 H 267.671 -0.714451 4.79608 0
M  V30 3076 N 269.014 -1.53014 -0.377408 0
M  V30 3077 C 270.244 -1.72265 -1.14054 0
M  V30 3078 C 270.652 -0.44601 -1.83868 0
M  V30 3079 O 269.995 0.590095 -1.73964 0
M  V30 3080 C 270.057 -2.82492 -2.22348 0
M  V30 3081 C 269.721 -4.23233 -1.72402 0
M  V30 3082 C 270.718 -5.05992 -1.19448 0
M  V30 3083 C 268.403 -4.696 -1.78273 0
M  V30 3084 C 270.397 -6.33203 -0.730268 0
M  V30 3085 C 268.084 -5.96792 -1.31464 0
M  V30 3086 C 269.082 -6.78424 -0.789297 0
M  V30 3087 O 268.77 -8.0323 -0.328077 0
M  V30 3088 H 268.502 -0.579873 -0.347453 0
M  V30 3089 H 271.056 -2.00502 -0.445882 0
M  V30 3090 H 269.286 -2.49702 -2.95272 0
M  V30 3091 H 270.975 -2.90034 -2.83963 0
M  V30 3092 H 271.741 -4.71349 -1.14259 0
M  V30 3093 H 267.62 -4.06142 -2.18106 0
M  V30 3094 H 271.164 -6.96868 -0.319542 0
M  V30 3095 H 267.061 -6.30937 -1.36342 0
M  V30 3096 H 267.829 -8.1727 -0.448493 0
M  V30 3097 N 270.492 0.636531 -1.44174 0
M  V30 3098 C 271.402 1.77754 -1.53103 0
M  V30 3099 C 272.418 1.68928 -0.417034 0
M  V30 3100 O 273.594 1.89801 -0.6736 0
M  V30 3101 C 270.659 3.14115 -1.46741 0
M  V30 3102 C 269.72 3.34612 -2.68948 0
M  V30 3103 C 268.953 4.64467 -2.6288 0
M  V30 3104 O 269.176 5.44919 -1.68581 0
M  V30 3105 O 268.11 4.87049 -3.53648 0
M  V30 3106 H 271.936 1.73174 -2.49489 0
M  V30 3107 H 269.521 0.79709 -1.2636 0
M  V30 3108 H 271.403 3.95412 -1.45696 0
M  V30 3109 H 270.078 3.19249 -0.534975 0
M  V30 3110 H 268.985 2.53014 -2.75562 0
M  V30 3111 H 270.318 3.34336 -3.61221 0
M  V30 3112 N 271.97 1.30982 0.876444 0
M  V30 3113 C 273.381 1.18277 1.44456 0
M  V30 3114 C 273.732 -0.213265 1.95037 0
M  V30 3115 O 272.857 -1.11057 1.85729 0
M  V30 3116 C 273.452 2.1411 2.62569 0
M  V30 3117 C 272.011 2.05358 3.15444 0
M  V30 3118 C 271.158 2.03706 1.88146 0
M  V30 3119 H 274.109 1.43127 0.685584 0
M  V30 3120 H 274.13 1.72692 3.39054 0
M  V30 3121 H 273.642 3.15706 2.25724 0
M  V30 3122 H 271.743 1.06934 3.56926 0
M  V30 3123 H 271.856 2.94156 3.78166 0
M  V30 3124 H 270.22 1.48629 2.06837 0
M  V30 3125 H 271.003 3.07047 1.53547 0
M  V30 3126 N 273.449 -1.08991 1.13837 0
M  V30 3127 C 274.697 -1.80899 0.901098 0
M  V30 3128 C 275.018 -1.86356 -0.574134 0
M  V30 3129 O 274.288 -1.35235 -1.41733 0
M  V30 3130 H 272.868 -0.669966 0.330386 0
M  V30 3131 H 275.53 -1.318 1.43578 0
M  V30 3132 H 274.626 -2.83929 1.29578 0
M  V30 3133 N 274.927 -0.932562 -1.27047 0
M  V30 3134 C 275.875 -0.42603 -2.28665 0
M  V30 3135 C 276.869 0.49219 -1.62092 0
M  V30 3136 O 278.075 0.371355 -1.76128 0
M  V30 3137 H 274.45 -0.119213 -0.742491 0
M  V30 3138 H 276.421 -1.29579 -2.68797 0
M  V30 3139 C 275.17 0.301426 -3.46391 0
M  V30 3140 H 274.493 -0.39595 -3.97834 0
M  V30 3141 H 275.933 0.6202 -4.1944 0
M  V30 3142 C 274.392 1.51616 -3.00856 0
M  V30 3143 O 274.922 2.61476 -3.04948 0
M  V30 3144 N 273.128 1.36969 -2.56296 0
M  V30 3145 H 272.675 0.475873 -2.53166 0
M  V30 3146 H 272.633 2.18368 -2.26192 0
M  V30 3147 N 276.405 1.4127 -0.698611 0
M  V30 3148 C 277.653 2.00782 -0.230409 0
M  V30 3149 C 277.974 1.5562 1.17505 0
M  V30 3150 O 277.244 0.78815 1.79346 0
M  V30 3151 H 275.824 0.742464 -0.0821944 0
M  V30 3152 H 278.486 1.72852 -0.90045 0
M  V30 3153 H 277.582 3.11095 -0.25021 0
M  V30 3154 N 277.883 0.443576 1.51229 0
M  V30 3155 C 279.16 -0.181038 1.9476 0
M  V30 3156 C 279.54 -1.59523 1.38259 0
M  V30 3157 O 278.888 -2.2122 0.572198 0
M  V30 3158 C 279.098 -0.152422 3.48667 0
M  V30 3159 C 280.446 -0.354923 4.23114 0
M  V30 3160 O 281.47 -0.230257 3.55455 0
M  V30 3161 O 280.329 -0.603674 5.43156 0
M  V30 3162 H 277.423 -0.1266 0.817252 0
M  V30 3163 H 279.969 0.502004 1.62105 0
M  V30 3164 H 278.741 0.836022 3.82265 0
M  V30 3165 H 278.364 -0.878107 3.87782 0
M  V30 3166 N 279.361 -1.56624 0.175154 0
M  V30 3167 C 280.271 -2.21741 -0.766042 0
M  V30 3168 C 281.287 -1.21023 -1.25018 0
M  V30 3169 O 282.463 -1.53697 -1.3015 0
M  V30 3170 C 279.528 -2.84839 -1.97655 0
M  V30 3171 C 278.589 -4.00769 -1.53892 0
M  V30 3172 C 277.822 -4.60849 -2.69173 0
M  V30 3173 O 278.045 -4.19823 -3.86141 0
M  V30 3174 O 276.979 -5.50655 -2.43028 0
M  V30 3175 H 280.805 -3.02738 -0.241585 0
M  V30 3176 H 278.39 -1.49305 -0.053222 0
M  V30 3177 H 280.272 -3.24834 -2.68442 0
M  V30 3178 H 278.947 -2.06836 -2.48999 0
M  V30 3179 H 277.854 -3.65436 -0.80044 0
M  V30 3180 H 279.187 -4.80376 -1.07236 0
M  V30 3181 N 280.839 0.0985539 -1.57292 0
M  V30 3182 C 281.786 1.11981 -2.01814 0
M  V30 3183 C 282.756 1.39999 -0.89384 0
M  V30 3184 O 283.941 1.5152 -1.15958 0
M  V30 3185 C 281.081 2.43577 -2.44467 0
M  V30 3186 C 280.194 2.2232 -3.70402 0
M  V30 3187 C 279.329 3.4729 -4.01949 0
M  V30 3188 C 278.368 3.2128 -5.21005 0
M  V30 3189 N 277.505 4.38507 -5.48321 0
M  V30 3190 H 282.345 0.733149 -2.88841 0
M  V30 3191 H 279.882 0.350482 -1.42864 0
M  V30 3192 H 281.84 3.20373 -2.6724 0
M  V30 3193 H 280.47 2.80097 -1.60455 0
M  V30 3194 H 279.522 1.36343 -3.55126 0
M  V30 3195 H 280.834 1.99089 -4.57345 0
M  V30 3196 H 279.988 4.32495 -4.25479 0
M  V30 3197 H 278.727 3.73572 -3.13521 0
M  V30 3198 H 277.732 2.34468 -4.97298 0
M  V30 3199 H 278.957 2.96348 -6.11028 0
M  V30 3200 H 276.903 4.64871 -4.62851 0
M  V30 3201 H 276.82 4.18455 -6.29628 0
M  V30 3202 H 278.088 5.24787 -5.76385 0
M  V30 3203 N 282.317 1.53212 0.369288 0
M  V30 3204 C 283.728 1.60943 0.946276 0
M  V30 3205 C 284.079 0.47452 1.90375 0
M  V30 3206 O 283.204 -0.399597 2.12679 0
M  V30 3207 C 283.799 2.91715 1.72302 0
M  V30 3208 C 282.358 3.01792 2.24941 0
M  V30 3209 C 281.505 2.56211 1.06072 0
M  V30 3210 H 284.456 1.58007 0.148198 0
M  V30 3211 H 284.477 2.79309 2.58393 0
M  V30 3212 H 283.989 3.74295 1.0259 0
M  V30 3213 H 282.09 2.23791 2.97906 0
M  V30 3214 H 282.203 4.06803 2.53077 0
M  V30 3215 H 280.567 2.10998 1.4266 0
M  V30 3216 H 281.35 3.41206 0.378639 0
M  V30 3217 N 283.795 -0.628877 1.44509 0
M  V30 3218 C 285.023 -1.41554 1.50897 0
M  V30 3219 C 285.438 -1.8832 0.134564 0
M  V30 3220 O 284.795 -1.60969 -0.859965 0
M  V30 3221 C 284.846 -2.63435 2.47556 0
M  V30 3222 O 284.567 -2.18619 3.79654 0
M  V30 3223 C 286.068 -3.56537 2.63431 0
M  V30 3224 H 283.288 -0.434044 0.511709 0
M  V30 3225 H 285.832 -0.768895 1.89495 0
M  V30 3226 H 283.987 -3.24187 2.12089 0
M  V30 3227 H 284.401 -2.97652 4.31861 0
M  V30 3228 H 285.875 -4.38657 3.35088 0
M  V30 3229 H 286.352 -4.05493 1.68738 0
M  V30 3230 H 286.958 -3.01653 2.9981 0
M  V30 3231 N 285.273 -1.31445 -0.869486 0
M  V30 3232 C 286.684 -1.19042 -1.43826 0
M  V30 3233 C 287.035 0.202919 -1.95148 0
M  V30 3234 O 286.16 1.10071 -1.86315 0
M  V30 3235 C 286.755 -2.15499 -2.6143 0
M  V30 3236 C 285.314 -2.07028 -3.14351 0
M  V30 3237 C 284.461 -2.04701 -1.87063 0
M  V30 3238 H 287.412 -1.43489 -0.677984 0
M  V30 3239 H 287.433 -1.74488 -3.38134 0
M  V30 3240 H 286.945 -3.16899 -2.24046 0
M  V30 3241 H 285.046 -1.08825 -3.56354 0
M  V30 3242 H 285.159 -2.96157 -3.766 0
M  V30 3243 H 283.523 -1.49724 -2.06046 0
M  V30 3244 H 284.306 -3.07857 -1.51917 0
M  V30 3245 N 286.751 1.08385 -1.14413 0
M  V30 3246 C 287.681 2.17321 -0.854044 0
M  V30 3247 C 288.662 1.69024 0.191049 0
M  V30 3248 O 289.847 1.94141 0.0476779 0
M  V30 3249 C 286.977 3.45719 -0.330983 0
M  V30 3250 C 285.931 4.07409 -1.31155 0
M  V30 3251 C 285.257 5.30762 -0.64778 0
M  V30 3252 C 286.557 4.48665 -2.67388 0
M  V30 3253 H 288.251 2.41845 -1.76498 0
M  V30 3254 H 285.797 1.16233 -0.850051 0
M  V30 3255 H 287.75 4.21241 -0.115645 0
M  V30 3256 H 286.474 3.2075 0.615381 0
M  V30 3257 H 285.133 3.33919 -1.51306 0
M  V30 3258 H 284.781 5.02078 0.304398 0
M  V30 3259 H 284.481 5.72992 -1.30207 0
M  V30 3260 H 286.005 6.08998 -0.441972 0
M  V30 3261 H 287.419 5.15364 -2.51143 0
M  V30 3262 H 285.816 5.01814 -3.29093 0
M  V30 3263 H 286.886 3.60543 -3.24248 0
M  V30 3264 N 288.23 0.939286 1.26551 0
M  V30 3265 C 289.16 0.465044 2.28822 0
M  V30 3266 C 290.141 -0.480692 1.63167 0
M  V30 3267 O 291.326 -0.382955 1.90387 0
M  V30 3268 C 288.456 -0.27234 3.46231 0
M  V30 3269 C 287.41 0.58666 4.2396 0
M  V30 3270 C 286.736 -0.280573 5.33963 0
M  V30 3271 C 288.036 1.85704 4.88171 0
M  V30 3272 H 289.73 1.31979 2.68741 0
M  V30 3273 H 287.276 0.636061 1.29191 0
M  V30 3274 H 289.229 -0.615133 4.16886 0
M  V30 3275 H 287.953 -1.16121 3.0526 0
M  V30 3276 H 286.612 0.91232 3.55067 0
M  V30 3277 H 286.26 -1.16874 4.89234 0
M  V30 3278 H 285.96 0.29076 5.8688 0
M  V30 3279 H 287.484 -0.618678 6.07458 0
M  V30 3280 H 288.898 1.58161 5.51052 0
M  V30 3281 H 287.295 2.37279 5.51197 0
M  V30 3282 H 288.365 2.56957 4.11219 0
M  V30 3283 N 289.708 -1.40897 0.706093 0
M  V30 3284 C 290.957 -2.00284 0.238574 0
M  V30 3285 C 291.27 -1.56604 -1.17194 0
M  V30 3286 O 292.476 -2.08624 -1.73748 0
M  V30 3287 C 290.932 -3.57934 0.375623 0
M  V30 3288 C 290.54 -4.10591 1.79217 0
M  V30 3289 C 292.284 -4.24488 -0.0315857 0
M  V30 3290 C 290.191 -5.60712 1.88032 0
M  V30 3291 H 289.121 -0.749144 0.0854398 0
M  V30 3292 H 291.772 -1.61251 0.875813 0
M  V30 3293 H 290.154 -3.94622 -0.330042 0
M  V30 3294 H 291.328 -3.85301 2.52745 0
M  V30 3295 H 289.643 -3.56601 2.15 0
M  V30 3296 H 292.24 -5.34698 0.0136842 0
M  V30 3297 H 292.583 -4.02261 -1.072 0
M  V30 3298 H 293.116 -3.92873 0.624181 0
M  V30 3299 H 289.855 -5.87781 2.90161 0
M  V30 3300 H 289.375 -5.87896 1.18903 0
M  V30 3301 H 291.054 -6.25658 1.64805 0
M  V30 3302 N 291.186 -0.45159 -1.50991 0
M  V30 3303 C 292.136 0.370861 -2.24964 0
M  V30 3304 C 293.12 0.978074 -1.2776 0
M  V30 3305 O 294.312 0.893854 -1.52772 0
M  V30 3306 C 291.441 1.46344 -3.10545 0
M  V30 3307 C 290.527 0.864924 -4.15187 0
M  V30 3308 N 290.918 -0.00311354 -5.058 0
M  V30 3309 C 289.216 1.13099 -4.31422 0
M  V30 3310 C 289.917 -0.340772 -5.80701 0
M  V30 3311 N 288.893 0.279203 -5.42883 0
M  V30 3312 H 292.695 -0.298134 -2.92384 0
M  V30 3313 H 290.209 -0.264528 -1.60231 0
M  V30 3314 H 292.206 2.06565 -3.62128 0
M  V30 3315 H 290.866 2.13463 -2.4467 0
M  V30 3316 H 291.877 -0.37058 -5.16572 0
M  V30 3317 H 288.554 1.79861 -3.76771 0
M  V30 3318 H 289.944 -1.048 -6.63677 0
M  V30 3319 N 292.664 1.56529 -0.183458 0
M  V30 3320 C 293.594 2.21549 0.737456 0
M  V30 3321 C 294.575 1.17489 1.23005 0
M  V30 3322 O 295.76 1.45959 1.281 0
M  V30 3323 C 292.89 2.86575 1.96194 0
M  V30 3324 C 291.844 3.96778 1.60473 0
M  V30 3325 C 291.17 4.48911 2.90487 0
M  V30 3326 C 292.47 5.15767 0.823497 0
M  V30 3327 H 294.164 2.98761 0.195453 0
M  V30 3328 H 291.71 1.43702 0.0925686 0
M  V30 3329 H 293.663 3.30739 2.61131 0
M  V30 3330 H 292.387 2.06749 2.52828 0
M  V30 3331 H 291.046 3.53286 0.978997 0
M  V30 3332 H 290.694 3.65862 3.45186 0
M  V30 3333 H 290.394 5.23265 2.67335 0
M  V30 3334 H 291.918 4.95771 3.56432 0
M  V30 3335 H 293.332 5.56549 1.37571 0
M  V30 3336 H 291.729 5.96114 0.690551 0
M  V30 3337 H 292.799 4.84574 -0.177782 0
M  V30 3338 N 294.142 -0.090211 1.57342 0
M  V30 3339 C 295.089 -1.10909 2.02405 0
M  V30 3340 C 296.059 -1.39523 0.901252 0
M  V30 3341 O 297.244 -1.50903 1.1676 0
M  V30 3342 C 294.384 -2.42277 2.45755 0
M  V30 3343 C 293.497 -2.20352 3.71576 0
M  V30 3344 C 292.632 -3.45154 4.03785 0
M  V30 3345 C 291.671 -3.18512 5.22701 0
M  V30 3346 N 290.808 -4.35593 5.50639 0
M  V30 3347 H 295.648 -0.71782 2.89225 0
M  V30 3348 H 293.185 -0.342901 1.43048 0
M  V30 3349 H 295.143 -3.18951 2.68935 0
M  V30 3350 H 293.773 -2.79242 1.61938 0
M  V30 3351 H 292.825 -1.34458 3.55844 0
M  V30 3352 H 294.137 -1.96661 4.58395 0
M  V30 3353 H 293.291 -4.30233 4.27767 0
M  V30 3354 H 292.03 -3.71904 3.15498 0
M  V30 3355 H 291.035 -2.31827 4.98534 0
M  V30 3356 H 292.26 -2.93103 6.12591 0
M  V30 3357 H 290.206 -4.6241 4.6531 0
M  V30 3358 H 290.123 -4.1511 6.31838 0
M  V30 3359 H 291.391 -5.21723 5.7916 0
M  V30 3360 N 295.62 -1.53406 -0.361157 0
M  V30 3361 C 296.55 -1.83136 -1.44857 0
M  V30 3362 C 297.531 -0.685174 -1.5569 0
M  V30 3363 O 298.716 -0.93544 -1.70186 0
M  V30 3364 C 295.846 -2.02522 -2.82138 0
M  V30 3365 C 294.8 -3.18302 -2.86126 0
M  V30 3366 C 294.126 -3.22989 -4.26125 0
M  V30 3367 C 295.426 -4.56796 -2.53248 0
M  V30 3368 H 297.12 -2.74201 -1.20226 0
M  V30 3369 H 294.666 -1.31938 -0.576922 0
M  V30 3370 H 296.619 -2.21904 -3.58241 0
M  V30 3371 H 295.343 -1.08172 -3.08166 0
M  V30 3372 H 294.002 -2.98747 -2.12475 0
M  V30 3373 H 293.65 -2.26267 -4.49235 0
M  V30 3374 H 293.35 -4.00781 -4.29708 0
M  V30 3375 H 294.874 -3.44559 -5.04094 0
M  V30 3376 H 296.288 -4.7631 -3.19064 0
M  V30 3377 H 294.685 -5.36862 -2.68141 0
M  V30 3378 H 295.755 -4.61606 -1.48484 0
M  V30 3379 N 297.098 0.621204 -1.44841 0
M  V30 3380 C 298.509 1.20298 -1.42777 0
M  V30 3381 C 298.86 1.95639 -0.148259 0
M  V30 3382 O 297.985 2.02955 0.750892 0
M  V30 3383 C 298.58 2.1882 -2.58657 0
M  V30 3384 C 297.139 2.72403 -2.59756 0
M  V30 3385 C 296.286 1.4757 -2.34773 0
M  V30 3386 H 299.237 0.411297 -1.53278 0
M  V30 3387 H 299.258 3.01607 -2.31977 0
M  V30 3388 H 298.77 1.63957 -3.51766 0
M  V30 3389 H 296.871 3.31242 -1.70615 0
M  V30 3390 H 296.984 3.17765 -3.58556 0
M  V30 3391 H 295.348 1.76051 -1.8406 0
M  V30 3392 H 296.131 0.945954 -3.3001 0
M  V30 3393 N 298.576 1.31904 0.862503 0
M  V30 3394 C 299.523 1.20182 1.9704 0
M  V30 3395 C 300.493 0.0858247 1.65878 0
M  V30 3396 O 301.678 0.26 1.8902 0
M  V30 3397 C 298.818 0.922797 3.32533 0
M  V30 3398 C 297.931 2.12284 3.76244 0
M  V30 3399 C 297.066 1.77996 5.00491 0
M  V30 3400 C 296.105 2.94366 5.36671 0
M  V30 3401 N 295.242 2.60223 6.52095 0
M  V30 3402 H 300.082 2.14951 2.06398 0
M  V30 3403 H 297.619 1.06917 1.01031 0
M  V30 3404 H 299.577 0.741548 4.10557 0
M  V30 3405 H 298.207 0.0119227 3.22798 0
M  V30 3406 H 297.259 2.41461 2.9394 0
M  V30 3407 H 298.571 2.99357 3.98982 0
M  V30 3408 H 297.725 1.56377 5.862 0
M  V30 3409 H 296.464 0.881252 4.79672 0
M  V30 3410 H 295.469 3.16625 4.49476 0
M  V30 3411 H 296.694 3.84957 5.59451 0
M  V30 3412 H 294.64 1.72884 6.32809 0
M  V30 3413 H 294.557 3.40827 6.74814 0
M  V30 3414 H 295.825 2.42016 7.40978 0
M  V30 3415 N 300.054 -1.07777 1.14986 0
M  V30 3416 C 301.002 -2.16964 0.838406 0
M  V30 3417 C 301.996 -1.68372 -0.186386 0
M  V30 3418 O 303.202 -1.79951 -0.0418465 0
M  V30 3419 H 299.577 -0.708006 0.253439 0
M  V30 3420 H 301.548 -2.40454 1.76704 0
M  V30 3421 C 300.297 -3.4604 0.339335 0
M  V30 3422 H 299.62 -3.83813 1.11927 0
M  V30 3423 H 301.06 -4.23698 0.160021 0
M  V30 3424 C 299.519 -3.23569 -0.938325 0
M  V30 3425 O 300.049 -3.47752 -2.01077 0
M  V30 3426 N 298.255 -2.77079 -0.876117 0
M  V30 3427 H 297.802 -2.576 -0.00322037 0
M  V30 3428 H 297.76 -2.62422 -1.73153 0
M  V30 3429 N 301.532 -0.945985 -1.26051 0
M  V30 3430 C 302.76 -0.613025 -1.9761 0
M  V30 3431 C 303.175 0.813035 -1.70397 0
M  V30 3432 O 302.532 1.54274 -0.974979 0
M  V30 3433 C 302.583 -0.85159 -3.51326 0
M  V30 3434 O 302.304 -2.22157 -3.77595 0
M  V30 3435 C 303.805 -0.529831 -4.40122 0
M  V30 3436 H 301.025 -0.230593 -0.630133 0
M  V30 3437 H 303.569 -1.268 -1.60443 0
M  V30 3438 H 301.724 -0.243151 -3.86636 0
M  V30 3439 H 302.138 -2.2852 -4.721 0
M  V30 3440 H 303.612 -0.747348 -5.46917 0
M  V30 3441 H 304.089 0.535341 -4.35925 0
M  V30 3442 H 304.695 -1.11721 -4.10364 0
M  V30 3443 N 303.011 1.40521 -0.713556 0
M  V30 3444 C 304.259 2.00527 -0.251692 0
M  V30 3445 C 304.58 1.56857 1.15848 0
M  V30 3446 O 303.85 0.807127 1.785 0
M  V30 3447 H 302.43 0.741551 -0.0900646 0
M  V30 3448 H 305.092 1.71887 -0.918733 0
M  V30 3449 H 304.188 3.10813 -0.283192 0
M  V30 3450 N 304.489 0.459591 1.5075 0
M  V30 3451 C 305.422 -0.386257 2.24907 0
M  V30 3452 C 306.4 -1.006 1.27744 0
M  V30 3453 O 307.584 -1.04416 1.56938 0
M  V30 3454 C 304.711 -1.54021 3.01654 0
M  V30 3455 C 303.757 -1.03898 4.13651 0
M  V30 3456 S 304.59 0.0370501 5.35487 0
M  V30 3457 C 305.746 -1.12105 6.15779 0
M  V30 3458 H 305.979 0.243272 2.96303 0
M  V30 3459 H 303.512 0.244339 1.52454 0
M  V30 3460 H 305.47 -2.20163 3.46466 0
M  V30 3461 H 304.131 -2.14121 2.29806 0
M  V30 3462 H 303.324 -1.90254 4.66711 0
M  V30 3463 H 302.926 -0.45545 3.71216 0
M  V30 3464 H 305.218 -2.03501 6.46215 0
M  V30 3465 H 306.161 -0.62995 7.05292 0
M  V30 3466 H 306.569 -1.36967 5.47631 0
M  V30 3467 N 305.967 -1.56429 0.191757 0
M  V30 3468 C 306.897 -2.21937 -0.725696 0
M  V30 3469 C 307.878 -1.1814 -1.2238 0
M  V30 3470 O 309.063 -1.46636 -1.27325 0
M  V30 3471 C 306.193 -2.87611 -1.94672 0
M  V30 3472 C 305.147 -3.97623 -1.58366 0
M  V30 3473 C 304.473 -4.50446 -2.88102 0
M  V30 3474 C 305.773 -5.16197 -0.796133 0
M  V30 3475 H 307.467 -2.98861 -0.179606 0
M  V30 3476 H 305.013 -1.43749 -0.0849464 0
M  V30 3477 H 306.966 -3.3212 -2.59373 0
M  V30 3478 H 305.69 -2.08087 -2.51728 0
M  V30 3479 H 304.349 -3.53801 -0.960247 0
M  V30 3480 H 303.997 -3.67688 -3.43241 0
M  V30 3481 H 303.697 -5.24675 -2.64556 0
M  V30 3482 H 305.221 -4.97654 -3.53798 0
M  V30 3483 H 306.635 -5.57271 -1.34618 0
M  V30 3484 H 305.032 -5.96471 -0.658928 0
M  V30 3485 H 306.102 -4.84473 0.203478 0
M  V30 3486 N 307.445 0.0818655 -1.57387 0
M  V30 3487 C 308.856 0.634871 -1.75574 0
M  V30 3488 C 309.207 1.78435 -0.815809 0
M  V30 3489 O 308.332 2.164 0.0025366 0
M  V30 3490 C 308.927 1.15845 -3.18379 0
M  V30 3491 C 307.486 1.65741 -3.37945 0
M  V30 3492 C 306.633 0.572549 -2.71325 0
M  V30 3493 H 309.584 -0.144268 -1.58043 0
M  V30 3494 H 309.605 2.02751 -3.21982 0
M  V30 3495 H 309.117 0.321631 -3.86765 0
M  V30 3496 H 307.218 2.51781 -2.74658 0
M  V30 3497 H 307.331 1.74129 -4.46336 0
M  V30 3498 H 305.695 1.01518 -2.33594 0
M  V30 3499 H 306.478 -0.253918 -3.4236 0
M  V30 3500 N 308.923 1.53595 0.353017 0
M  V30 3501 C 310.153 1.74058 1.11299 0
M  V30 3502 C 310.561 0.475205 1.83135 0
M  V30 3503 O 309.904 -0.562344 1.74881 0
M  V30 3504 C 309.966 2.85994 2.17825 0
M  V30 3505 C 309.63 4.25923 1.65647 0
M  V30 3506 C 310.627 5.07829 1.11383 0
M  V30 3507 C 308.312 4.72377 1.7078 0
M  V30 3508 C 310.306 6.34285 0.629439 0
M  V30 3509 C 307.993 5.98808 1.21953 0
M  V30 3510 C 308.991 6.79594 0.681265 0
M  V30 3511 O 308.679 8.03651 0.200248 0
M  V30 3512 H 308.411 0.585327 0.338183 0
M  V30 3513 H 310.965 2.01186 0.413927 0
M  V30 3514 H 309.195 2.54368 2.91262 0
M  V30 3515 H 310.884 2.94515 2.79313 0
M  V30 3516 H 311.65 4.73107 1.06746 0
M  V30 3517 H 307.529 4.0956 2.11617 0
M  V30 3518 H 311.073 6.97288 0.208636 0
M  V30 3519 H 306.97 6.33026 1.26287 0
M  V30 3520 H 307.738 8.1788 0.318416 0
M  V30 3521 N 310.401 -0.613514 1.45168 0
M  V30 3522 C 311.65 -1.36874 1.4815 0
M  V30 3523 C 311.963 -1.952 0.124982 0
M  V30 3524 O 313.169 -2.71481 0.0324176 0
M  V30 3525 C 311.625 -2.47905 2.60904 0
M  V30 3526 C 311.233 -1.96016 4.02842 0
M  V30 3527 C 312.977 -3.24965 2.73126 0
M  V30 3528 C 310.884 -3.04494 5.06988 0
M  V30 3529 H 309.814 -0.514428 0.551253 0
M  V30 3530 H 312.465 -0.658182 1.7129 0
M  V30 3531 H 310.847 -3.21618 2.31037 0
M  V30 3532 H 312.021 -1.29051 4.4236 0
M  V30 3533 H 310.336 -1.31719 3.95018 0
M  V30 3534 H 312.933 -4.05865 3.48106 0
M  V30 3535 H 313.276 -3.75588 1.79553 0
M  V30 3536 H 313.809 -2.5835 3.0249 0
M  V30 3537 H 310.548 -2.58795 6.0225 0
M  V30 3538 H 310.068 -3.70044 4.72046 0
M  V30 3539 H 311.747 -3.68976 5.31475 0
M  V30 3540 N 311.879 -1.3236 -0.855495 0
M  V30 3541 C 312.827 -1.2118 -1.9854 0
M  V30 3542 C 313.821 -0.116788 -1.68997 0
M  V30 3543 O 315.027 -0.279657 -1.77814 0
M  V30 3544 H 311.402 -0.375608 -0.651477 0
M  V30 3545 H 313.373 -2.16743 -2.05098 0
M  V30 3546 C 312.122 -0.950849 -3.34446 0
M  V30 3547 H 311.445 -1.78563 -3.57708 0
M  V30 3548 H 312.885 -0.912863 -4.14057 0
M  V30 3549 C 311.344 0.346404 -3.35114 0
M  V30 3550 O 311.874 1.35855 -3.7803 0
M  V30 3551 N 310.08 0.36808 -2.88259 0
M  V30 3552 H 309.627 -0.456102 -2.5353 0
M  V30 3553 H 309.585 1.23591 -2.89089 0
M  V30 3554 N 313.357 1.07166 -1.15556 0
M  V30 3555 C 314.582 1.84053 -0.955988 0
M  V30 3556 C 315.007 1.81586 0.490739 0
M  V30 3557 O 314.365 1.21018 1.34997 0
M  V30 3558 C 314.413 3.28957 -1.47714 0
M  V30 3559 O 313.517 4.06795 -0.677593 0
M  V30 3560 H 312.858 0.569842 -0.340847 0
M  V30 3561 H 315.388 1.35178 -1.53584 0
M  V30 3562 H 315.398 3.79788 -1.4908 0
M  V30 3563 H 314.073 3.30068 -2.53037 0
M  V30 3564 H 312.65 3.6561 -0.733721 0
M  V30 3565 N 314.835 0.952656 1.25548 0
M  V30 3566 C 315.783 0.462354 2.27958 0
M  V30 3567 C 316.777 -0.46634 1.62855 0
M  V30 3568 O 317.983 -0.343287 1.76696 0
M  V30 3569 H 314.358 0.13101 0.7405 0
M  V30 3570 H 316.329 1.33839 2.66702 0
M  V30 3571 C 315.078 -0.24628 3.46827 0
M  V30 3572 H 314.401 0.459192 3.97154 0
M  V30 3573 H 315.841 -0.553393 4.20373 0
M  V30 3574 C 314.3 -1.4681 3.0323 0
M  V30 3575 O 314.83 -2.56591 3.09069 0
M  V30 3576 N 313.036 -1.32874 2.58443 0
M  V30 3577 H 312.583 -0.435536 2.53891 0
M  V30 3578 H 312.541 -2.14742 2.29637 0
M  V30 3579 N 316.313 -1.40141 0.720998 0
M  V30 3580 C 317.59 -1.94677 0.189757 0
M  V30 3581 C 317.97 -1.65879 -1.30566 0
M  V30 3582 O 317.318 -0.979391 -2.06447 0
M  V30 3583 C 317.528 -3.45279 0.508304 0
M  V30 3584 C 318.876 -4.22209 0.449934 0
M  V30 3585 O 319.9 -3.53413 0.444677 0
M  V30 3586 O 318.759 -5.44788 0.432189 0
M  V30 3587 H 315.853 -0.826459 0.0299026 0
M  V30 3588 H 318.399 -1.49719 0.7989 0
M  V30 3589 H 317.171 -3.59619 1.54239 0
M  V30 3590 H 316.794 -3.97386 -0.130525 0
M  V30 3591 N 317.792 -0.46758 -1.50504 0
M  V30 3592 C 319.038 0.0887532 -2.02606 0
M  V30 3593 C 319.371 1.39686 -1.34913 0
M  V30 3594 O 318.646 1.88644 -0.473694 0
M  V30 3595 C 318.929 0.276206 -3.59039 0
M  V30 3596 C 318.782 -1.05267 -4.37309 0
M  V30 3597 C 320.101 1.03235 -4.27821 0
M  V30 3598 H 317.22 0.0307814 -0.736357 0
M  V30 3599 H 319.862 -0.612485 -1.79857 0
M  V30 3600 H 318.012 0.8735 -3.78553 0
M  V30 3601 H 319.684 -1.68628 -4.29374 0
M  V30 3602 H 317.927 -1.65015 -4.01189 0
M  V30 3603 H 318.598 -0.875197 -5.45018 0
M  V30 3604 H 321.074 0.526111 -4.12761 0
M  V30 3605 H 319.95 1.1323 -5.37094 0
M  V30 3606 H 320.211 2.06806 -3.90748 0
M  V30 3607 N 319.27 1.56325 -0.20005 0
M  V30 3608 C 320.217 2.1932 0.718833 0
M  V30 3609 C 321.187 1.14198 1.20615 0
M  V30 3610 O 322.372 1.42469 1.26914 0
M  V30 3611 C 319.512 2.86041 1.93066 0
M  V30 3612 C 318.625 4.05702 1.48425 0
M  V30 3613 C 317.76 4.60266 2.65196 0
M  V30 3614 C 316.799 5.72273 2.17185 0
M  V30 3615 N 315.936 6.21221 3.27152 0
M  V30 3616 H 320.776 2.97486 0.17489 0
M  V30 3617 H 318.313 1.46911 0.0745794 0
M  V30 3618 H 320.271 3.22897 2.64184 0
M  V30 3619 H 318.901 2.1043 2.44783 0
M  V30 3620 H 317.953 3.74475 0.668755 0
M  V30 3621 H 319.265 4.86699 1.09204 0
M  V30 3622 H 318.419 4.99453 3.4443 0
M  V30 3623 H 317.158 3.78386 3.07693 0
M  V30 3624 H 316.163 5.3261 1.36407 0
M  V30 3625 H 317.388 6.55974 1.75713 0
M  V30 3626 H 315.334 5.42263 3.69171 0
M  V30 3627 H 315.251 6.97284 2.92116 0
M  V30 3628 H 316.519 6.65063 4.06585 0
M  V30 3629 N 320.748 -0.0735177 1.57428 0
M  V30 3630 C 321.976 -0.785969 1.9139 0
M  V30 3631 C 322.391 -1.71207 0.795847 0
M  V30 3632 O 321.748 -1.81033 -0.230915 0
M  V30 3633 C 321.799 -1.58107 3.25091 0
M  V30 3634 O 321.52 -0.6922 4.32597 0
M  V30 3635 C 323.021 -2.39467 3.73055 0
M  V30 3636 H 320.241 -0.223558 0.632663 0
M  V30 3637 H 322.785 -0.044302 2.04452 0
M  V30 3638 H 320.94 -2.27503 3.13562 0
M  V30 3639 H 321.354 -1.24504 5.09508 0
M  V30 3640 H 322.828 -2.90716 4.69242 0
M  V30 3641 H 323.305 -3.18913 3.01979 0
M  V30 3642 H 323.911 -1.7523 3.87523 0
M  V30 3643 N 322.226 -1.5378 -0.344866 0
M  V30 3644 C 323.156 -1.84662 -1.42906 0
M  V30 3645 C 324.137 -0.701648 -1.54955 0
M  V30 3646 O 325.322 -0.953438 -1.69184 0
M  V30 3647 C 322.452 -2.05503 -2.79974 0
M  V30 3648 C 321.406 -3.21318 -2.82734 0
M  V30 3649 C 320.732 -3.2749 -4.22675 0
M  V30 3650 C 322.032 -4.59456 -2.48389 0
M  V30 3651 H 323.726 -2.75461 -1.17311 0
M  V30 3652 H 321.272 -1.32542 -0.562896 0
M  V30 3653 H 323.225 -2.25691 -3.55867 0
M  V30 3654 H 321.949 -1.11434 -3.07002 0
M  V30 3655 H 320.608 -3.00984 -2.09294 0
M  V30 3656 H 320.256 -2.31019 -4.4681 0
M  V30 3657 H 319.956 -4.05316 -4.25433 0
M  V30 3658 H 321.48 -3.49887 -5.00412 0
M  V30 3659 H 322.894 -4.79667 -3.13995 0
M  V30 3660 H 321.291 -5.39675 -2.62432 0
M  V30 3661 H 322.361 -4.63155 -1.4358 0
M  V30 3662 N 323.704 0.605807 -1.45491 0
M  V30 3663 C 324.953 1.36086 -1.48874 0
M  V30 3664 C 325.266 1.95131 -0.135333 0
M  V30 3665 O 326.472 2.7146 -0.0468144 0
M  V30 3666 C 324.928 2.46518 -2.62215 0
M  V30 3667 C 324.536 1.93877 -4.03876 0
M  V30 3668 C 326.28 3.23512 -2.74846 0
M  V30 3669 C 324.187 3.01801 -5.08596 0
M  V30 3670 H 323.117 0.511497 -0.553974 0
M  V30 3671 H 325.768 0.649089 -1.71636 0
M  V30 3672 H 324.15 3.20388 -2.32739 0
M  V30 3673 H 325.324 1.26704 -4.43038 0
M  V30 3674 H 323.639 1.29622 -3.95711 0
M  V30 3675 H 326.236 4.04013 -3.50253 0
M  V30 3676 H 326.579 3.74631 -1.81542 0
M  V30 3677 H 327.112 2.56742 -3.03856 0
M  V30 3678 H 323.851 2.55597 -6.03614 0
M  V30 3679 H 323.371 3.67535 -4.74002 0
M  V30 3680 H 325.05 3.66152 -5.33424 0
M  V30 3681 N 325.182 1.32811 0.848464 0
M  V30 3682 C 326.092 1.24278 1.98978 0
M  V30 3683 C 327.108 0.155176 1.73307 0
M  V30 3684 O 328.284 0.376999 1.9784 0
M  V30 3685 C 325.349 0.972444 3.32783 0
M  V30 3686 C 324.41 2.14911 3.71634 0
M  V30 3687 C 323.643 1.89157 4.99054 0
M  V30 3688 O 323.866 0.837165 5.64223 0
M  V30 3689 O 322.8 2.75433 5.35183 0
M  V30 3690 H 326.626 2.20238 2.09115 0
M  V30 3691 H 324.211 1.12762 0.980052 0
M  V30 3692 H 326.093 0.838432 4.12975 0
M  V30 3693 H 324.768 0.043051 3.23671 0
M  V30 3694 H 323.675 2.33862 2.91992 0
M  V30 3695 H 325.008 3.06151 3.85399 0
M  V30 3696 N 326.66 -1.06551 1.16123 0
M  V30 3697 C 327.592 -2.13908 0.823171 0
M  V30 3698 C 328.605 -1.61926 -0.16843 0
M  V30 3699 O 329.794 -1.78412 0.055962 0
M  V30 3700 C 326.894 -3.38283 0.204424 0
M  V30 3701 C 326.067 -4.19589 1.23548 0
M  V30 3702 C 325.126 -5.2233 0.637011 0
M  V30 3703 O 324.152 -5.54034 1.30516 0
M  V30 3704 N 325.354 -5.77621 -0.577474 0
M  V30 3705 H 328.119 -2.43508 1.74711 0
M  V30 3706 H 325.68 -1.2253 1.05821 0
M  V30 3707 H 327.672 -4.0416 -0.208909 0
M  V30 3708 H 326.242 -3.06329 -0.623012 0
M  V30 3709 H 325.462 -3.49406 1.82507 0
M  V30 3710 H 326.75 -4.70718 1.93137 0
M  V30 3711 H 326.148 -5.54125 -1.13853 0
M  V30 3712 H 324.705 -6.45087 -0.933053 0
M  V30 3713 N 328.138 -0.959301 -1.25041 0
M  V30 3714 C 329.415 -0.533805 -1.88175 0
M  V30 3715 C 329.795 0.988994 -1.865 0
M  V30 3716 O 329.143 1.85677 -1.33177 0
M  V30 3717 C 329.353 -1.11575 -3.30684 0
M  V30 3718 C 330.701 -1.19548 -4.07423 0
M  V30 3719 O 331.725 -1.06765 -3.39823 0
M  V30 3720 O 330.584 -1.39656 -5.28354 0
M  V30 3721 H 327.678 -0.176772 -0.807887 0
M  V30 3722 H 330.224 -1.05303 -1.33076 0
M  V30 3723 H 328.996 -2.15884 -3.26358 0
M  V30 3724 H 328.619 -0.580059 -3.93346 0
M  V30 3725 N 329.616 1.39756 -0.72842 0
M  V30 3726 C 330.846 2.04651 -0.283117 0
M  V30 3727 C 331.254 1.5502 1.08469 0
M  V30 3728 O 330.597 0.707343 1.69536 0
M  V30 3729 C 330.659 3.58947 -0.199309 0
M  V30 3730 C 330.323 4.31525 -1.5045 0
M  V30 3731 C 331.32 4.5861 -2.44894 0
M  V30 3732 C 329.005 4.70195 -1.76698 0
M  V30 3733 C 330.999 5.23366 -3.63822 0
M  V30 3734 C 328.686 5.3468 -2.95906 0
M  V30 3735 C 329.684 5.61198 -3.89289 0
M  V30 3736 O 329.372 6.24347 -5.06404 0
M  V30 3737 H 329.104 0.664777 -0.122666 0
M  V30 3738 H 331.658 1.79913 -0.990987 0
M  V30 3739 H 329.888 3.82556 0.56461 0
M  V30 3740 H 331.577 4.0534 0.213125 0
M  V30 3741 H 332.343 4.29187 -2.25883 0
M  V30 3742 H 328.222 4.48916 -1.04859 0
M  V30 3743 H 331.766 5.4398 -4.36728 0
M  V30 3744 H 327.663 5.63524 -3.14819 0
M  V30 3745 H 328.431 6.42842 -5.06652 0
M  V30 3746 N 331.094 0.475555 1.50254 0
M  V30 3747 C 332.319 -0.0777042 2.07254 0
M  V30 3748 C 332.744 -1.3235 1.3366 0
M  V30 3749 O 332.102 -1.77152 0.385597 0
M  V30 3750 C 332.15 -0.340169 3.58992 0
M  V30 3751 O 331.254 -1.41982 3.87188 0
M  V30 3752 H 330.595 0.0149556 0.663832 0
M  V30 3753 H 333.125 0.667878 1.93392 0
M  V30 3754 H 333.135 -0.579332 4.03866 0
M  V30 3755 H 331.81 0.570167 4.11973 0
M  V30 3756 H 330.387 -1.16762 3.54148 0
M  V30 3757 N 332.573 -1.56217 0.208337 0
M  V30 3758 C 333.822 -1.97124 -0.427204 0
M  V30 3759 C 334.135 -1.09859 -1.61835 0
M  V30 3760 O 335.341 -1.40606 -2.32255 0
M  V30 3761 C 333.797 -3.50633 -0.811442 0
M  V30 3762 C 333.405 -4.46582 0.35615 0
M  V30 3763 C 335.149 -4.00282 -1.41332 0
M  V30 3764 C 333.056 -5.91379 -0.0497852 0
M  V30 3765 H 331.986 -0.736086 -0.163381 0
M  V30 3766 H 334.637 -1.8099 0.302456 0
M  V30 3767 H 333.019 -3.62319 -1.59815 0
M  V30 3768 H 334.193 -4.46636 1.1337 0
M  V30 3769 H 332.508 -4.07202 0.870396 0
M  V30 3770 H 335.105 -5.0595 -1.72972 0
M  V30 3771 H 335.448 -3.45359 -2.32449 0
M  V30 3772 H 335.981 -3.91764 -0.690323 0
M  V30 3773 H 332.72 -6.50255 0.827529 0
M  V30 3774 H 332.24 -5.94549 -0.791926 0
M  V30 3775 H 333.919 -6.45209 -0.481042 0
M  V30 3776 N 334.051 0.0651679 -1.57465 0
M  V30 3777 C 334.998 1.07675 -2.04144 0
M  V30 3778 C 335.968 1.38071 -0.923335 0
M  V30 3779 O 337.153 1.49026 -1.19146 0
M  V30 3780 C 334.293 2.38337 -2.49579 0
M  V30 3781 C 333.406 2.14413 -3.75035 0
M  V30 3782 C 332.541 3.38686 -4.09225 0
M  V30 3783 C 331.58 3.10156 -5.27702 0
M  V30 3784 N 330.717 4.26778 -5.57499 0
M  V30 3785 H 335.557 0.671716 -2.90331 0
M  V30 3786 H 333.094 0.3201 -1.43575 0
M  V30 3787 H 335.052 3.14632 -2.73975 0
M  V30 3788 H 333.682 2.7663 -1.6636 0
M  V30 3789 H 332.734 1.2878 -3.57939 0
M  V30 3790 H 334.046 1.89344 -4.61466 0
M  V30 3791 H 333.2 4.23373 -4.34558 0
M  V30 3792 H 331.939 3.66837 -3.21374 0
M  V30 3793 H 330.944 2.23866 -5.02159 0
M  V30 3794 H 332.169 2.8332 -6.17176 0
M  V30 3795 H 330.115 4.54948 -4.72608 0
M  V30 3796 H 330.032 4.05005 -6.38362 0
M  V30 3797 H 331.3 5.12443 -5.87386 0
M  V30 3798 N 335.529 1.53961 0.336706 0
M  V30 3799 C 336.778 1.70751 1.07363 0
M  V30 3800 C 337.091 0.481061 1.89592 0
M  V30 3801 O 338.297 0.530046 2.66276 0
M  V30 3802 C 336.753 3.01965 1.95818 0
M  V30 3803 C 336.361 4.31971 1.18764 0
M  V30 3804 C 338.105 3.28121 2.69327 0
M  V30 3805 C 336.012 5.54255 2.06289 0
M  V30 3806 H 334.942 0.636292 0.404535 0
M  V30 3807 H 337.593 1.80459 0.332681 0
M  V30 3808 H 335.975 2.86132 2.7376 0
M  V30 3809 H 337.149 4.5853 0.456849 0
M  V30 3810 H 335.464 4.12481 0.569946 0
M  V30 3811 H 338.061 4.16673 3.35094 0
M  V30 3812 H 338.404 2.45426 3.36261 0
M  V30 3813 H 338.937 3.44762 1.98454 0
M  V30 3814 H 335.676 6.39513 1.43885 0
M  V30 3815 H 335.196 5.31935 2.77138 0
M  V30 3816 H 336.875 5.90159 2.65182 0
M  V30 3817 N 337.007 -0.598083 1.45811 0
M  V30 3818 C 338.284 -1.35777 1.40797 0
M  V30 3819 C 338.664 -2.10935 0.083462 0
M  V30 3820 O 338.012 -2.08505 -0.934763 0
M  V30 3821 C 338.222 -2.29666 2.62783 0
M  V30 3822 C 339.57 -2.91977 3.08277 0
M  V30 3823 O 340.594 -2.39984 2.63223 0
M  V30 3824 O 339.453 -3.86376 3.86491 0
M  V30 3825 H 336.547 -0.609291 0.55919 0
M  V30 3826 H 339.093 -0.620379 1.57954 0
M  V30 3827 H 337.865 -1.73454 3.50756 0
M  V30 3828 H 337.488 -3.1077 2.48008 0
M  V30 3829 N 338.485 -1.33259 -0.841409 0
M  V30 3830 C 339.432 -1.23302 -1.95103 0
M  V30 3831 C 340.402 -0.112204 -1.65721 0
M  V30 3832 O 341.587 -0.290038 -1.88583 0
M  V30 3833 C 338.727 -0.975583 -3.31023 0
M  V30 3834 C 337.84 -2.18243 -3.72819 0
M  V30 3835 C 336.975 -1.85936 -4.97595 0
M  V30 3836 C 336.014 -3.02866 -5.3192 0
M  V30 3837 N 335.151 -2.70565 -6.47873 0
M  V30 3838 H 339.991 -2.18207 -2.02952 0
M  V30 3839 H 337.528 -1.0851 -0.993173 0
M  V30 3840 H 339.486 -0.80677 -4.09325 0
M  V30 3841 H 338.116 -0.0632755 -3.22738 0
M  V30 3842 H 337.168 -2.46107 -2.90061 0
M  V30 3843 H 338.48 -3.05666 -3.94169 0
M  V30 3844 H 337.634 -1.65684 -5.83638 0
M  V30 3845 H 336.373 -0.957452 -4.78209 0
M  V30 3846 H 335.378 -3.23736 -4.44382 0
M  V30 3847 H 336.603 -3.93809 -5.53255 0
M  V30 3848 H 334.549 -1.8293 -6.29978 0
M  V30 3849 H 334.466 -3.51519 -6.69306 0
M  V30 3850 H 335.734 -2.53774 -7.37034 0
M  V30 3851 N 339.963 1.05934 -1.16686 0
M  V30 3852 C 341.212 1.78188 -0.945085 0
M  V30 3853 C 341.525 1.88338 0.528021 0
M  V30 3854 O 342.731 2.57258 0.867799 0
M  V30 3855 C 341.187 3.20277 -1.64167 0
M  V30 3856 C 340.795 3.18281 -3.15279 0
M  V30 3857 C 342.539 3.97039 -1.502 0
M  V30 3858 C 340.446 4.55112 -3.7766 0
M  V30 3859 H 339.376 0.667866 -0.349959 0
M  V30 3860 H 342.027 1.18794 -1.39858 0
M  V30 3861 H 340.409 3.79952 -1.11589 0
M  V30 3862 H 341.583 2.68167 -3.74731 0
M  V30 3863 H 339.898 2.55018 -3.29173 0
M  V30 3864 H 342.495 4.98194 -1.94183 0
M  V30 3865 H 342.838 4.13845 -0.451461 0
M  V30 3866 H 343.371 3.43894 -1.99954 0
M  V30 3867 H 340.11 4.43512 -4.82677 0
M  V30 3868 H 339.63 5.05406 -3.22994 0
M  V30 3869 H 341.309 5.24064 -3.79428 0
M  V30 3870 N 341.441 0.965919 1.2453 0
M  V30 3871 C 342.687 0.62776 1.92839 0
M  V30 3872 C 343.02 -0.834694 1.75347 0
M  V30 3873 O 342.295 -1.60031 1.10546 0
M  V30 3874 C 342.578 1.00109 3.45905 0
M  V30 3875 C 342.431 2.52011 3.72573 0
M  V30 3876 C 343.75 0.53435 4.36844 0
M  V30 3877 H 340.869 0.229537 0.700344 0
M  V30 3878 H 343.511 1.2046 1.46933 0
M  V30 3879 H 341.661 0.510238 3.85135 0
M  V30 3880 H 343.333 3.08559 3.42912 0
M  V30 3881 H 341.576 2.95287 3.17786 0
M  V30 3882 H 342.247 2.73183 4.79661 0
M  V30 3883 H 344.723 0.955565 4.04979 0
M  V30 3884 H 343.599 0.824152 5.42678 0
M  V30 3885 H 343.86 -0.565589 4.38467 0
M  V30 3886 N 342.919 -1.39368 0.735821 0
M  V30 3887 C 344.335 -1.54204 0.411492 0
M  V30 3888 C 344.535 -1.70268 -1.07755 0
M  V30 3889 O 343.591 -1.70364 -1.86366 0
M  V30 3890 C 344.904 -2.75925 1.19523 0
M  V30 3891 C 346.452 -2.89761 1.18354 0
M  V30 3892 C 346.927 -4.14421 1.94986 0
M  V30 3893 N 348.418 -4.21462 1.92156 0
M  V30 3894 C 349.153 -5.16871 2.48258 0
M  V30 3895 N 348.649 -6.18063 3.13001 0
M  V30 3896 N 350.442 -5.09093 2.38287 0
M  V30 3897 H 342.593 -1.27189 1.70108 0
M  V30 3898 H 344.856 -0.616517 0.720147 0
M  V30 3899 H 344.562 -2.70401 2.24892 0
M  V30 3900 H 344.436 -3.68614 0.800222 0
M  V30 3901 H 346.823 -2.94777 0.137975 0
M  V30 3902 H 346.904 -1.98133 1.61793 0
M  V30 3903 H 346.548 -4.10166 2.99543 0
M  V30 3904 H 346.478 -5.05095 1.48953 0
M  V30 3905 H 348.969 -3.48979 1.44991 0
M  V30 3906 H 349.282 -6.87326 3.53275 0
M  V30 3907 H 347.627 -6.18448 3.17091 0
M  V30 3908 H 350.818 -4.28973 1.8735 0
M  V30 3909 H 350.991 -5.83272 2.82308 0
M  V30 3910 N 344.397 -0.483516 -1.5 0
M  V30 3911 C 345.646 0.0689102 -2.01582 0
M  V30 3912 C 345.959 1.39655 -1.36952 0
M  V30 3913 O 347.165 2.03465 -1.79762 0
M  V30 3914 C 345.621 0.173302 -3.59483 0
M  V30 3915 C 345.229 -1.14665 -4.33077 0
M  V30 3916 C 346.973 0.677024 -4.19066 0
M  V30 3917 C 344.88 -1.00537 -5.82792 0
M  V30 3918 H 343.81 0.0295277 -0.753422 0
M  V30 3919 H 346.461 -0.620295 -1.72698 0
M  V30 3920 H 344.843 0.926569 -3.85007 0
M  V30 3921 H 346.017 -1.91184 -4.19268 0
M  V30 3922 H 344.332 -1.58244 -3.85159 0
M  V30 3923 H 346.929 0.799952 -5.28682 0
M  V30 3924 H 347.272 1.67151 -3.81269 0
M  V30 3925 H 347.805 -0.0192083 -3.97795 0
M  V30 3926 H 344.544 -1.9736 -6.25083 0
M  V30 3927 H 344.064 -0.280776 -5.99142 0
M  V30 3928 H 345.743 -0.677 -6.43448 0
M  V30 3929 N 345.875 1.56104 -0.216619 0
M  V30 3930 C 347.121 1.98466 0.417033 0
M  V30 3931 C 347.454 1.10403 1.59765 0
M  V30 3932 O 346.729 0.160632 1.93836 0
M  V30 3933 C 347.012 3.49769 0.85637 0
M  V30 3934 C 346.865 4.48606 -0.327546 0
M  V30 3935 C 348.184 4.05339 1.7143 0
M  V30 3936 H 345.303 0.721551 0.150112 0
M  V30 3937 H 347.945 1.87423 -0.311864 0
M  V30 3938 H 346.095 3.5931 1.47745 0
M  V30 3939 H 347.767 4.5108 -0.965618 0
M  V30 3940 H 346.01 4.22682 -0.975805 0
M  V30 3941 H 346.681 5.51995 0.0227149 0
M  V30 3942 H 349.157 3.98712 1.19031 0
M  V30 3943 H 348.033 5.11533 1.99061 0
M  V30 3944 H 348.294 3.51918 2.67593 0
M  V30 3945 N 347.353 -0.0568162 1.57498 0
M  V30 3946 C 348.602 -0.752001 1.87157 0
M  V30 3947 C 348.915 -1.77978 0.811375 0
M  V30 3948 O 350.121 -2.52559 0.996293 0
M  V30 3949 C 348.577 -1.38844 3.3204 0
M  V30 3950 C 348.185 -0.398456 4.46225 0
M  V30 3951 C 349.929 -2.06512 3.70882 0
M  V30 3952 C 347.836 -1.04166 5.82154 0
M  V30 3953 H 346.766 -0.28461 0.698222 0
M  V30 3954 H 349.417 -0.00561272 1.83499 0
M  V30 3955 H 347.799 -2.1836 3.30356 0
M  V30 3956 H 348.973 0.367977 4.59328 0
M  V30 3957 H 347.288 0.174592 4.16034 0
M  V30 3958 H 349.885 -2.55437 4.6974 0
M  V30 3959 H 350.228 -2.87117 3.01445 0
M  V30 3960 H 350.761 -1.33808 3.7462 0
M  V30 3961 H 347.5 -0.275614 6.5492 0
M  V30 3962 H 347.02 -1.7786 5.72823 0
M  V30 3963 H 348.699 -1.55715 6.27982 0
M  V30 3964 N 348.832 -1.54138 -0.328536 0
M  V30 3965 C 349.742 -1.86192 -1.42723 0
M  V30 3966 C 350.758 -0.753382 -1.56844 0
M  V30 3967 O 351.934 -1.04718 -1.72035 0
M  V30 3968 C 348.999 -2.07824 -2.77507 0
M  V30 3969 C 348.06 -3.31641 -2.72603 0
M  V30 3970 C 347.293 -3.52232 -4.00959 0
M  V30 3971 O 347.516 -2.7636 -4.9898 0
M  V30 3972 O 346.45 -4.45699 -4.0452 0
M  V30 3973 H 350.276 -2.79608 -1.18547 0
M  V30 3974 H 347.861 -1.3998 -0.522104 0
M  V30 3975 H 349.743 -2.23411 -3.57303 0
M  V30 3976 H 348.418 -1.17596 -3.01584 0
M  V30 3977 H 347.325 -3.21444 -1.91376 0
M  V30 3978 H 348.658 -4.2191 -2.53481 0
M  V30 3979 N 350.31 0.590341 -1.46126 0
M  V30 3980 C 351.558 1.34616 -1.50742 0
M  V30 3981 C 351.879 1.94363 -0.157486 0
M  V30 3982 O 351.149 1.78136 0.815136 0
M  V30 3983 H 349.729 0.499789 -0.555175 0
M  V30 3984 H 352.391 0.691953 -1.82203 0
M  V30 3985 H 351.487 2.15678 -2.25587 0
M  V30 3986 N 351.788 1.33704 0.83433 0
M  V30 3987 C 352.735 1.24335 1.94447 0
M  V30 3988 C 353.705 0.120991 1.65659 0
M  V30 3989 O 354.89 0.300035 1.88426 0
M  V30 3990 C 352.03 0.993124 3.30501 0
M  V30 3991 C 351.143 2.20217 3.71657 0
M  V30 3992 C 350.278 1.88572 4.96602 0
M  V30 3993 C 349.317 3.05683 5.30306 0
M  V30 3994 N 348.454 2.73997 6.46429 0
M  V30 3995 H 353.294 2.1928 2.01792 0
M  V30 3996 H 350.831 1.09035 0.987404 0
M  V30 3997 H 352.789 0.828467 4.08892 0
M  V30 3998 H 351.419 0.0803902 3.227 0
M  V30 3999 H 350.471 2.47642 2.88752 0
M  V30 4000 H 351.783 3.07752 3.92543 0
M  V30 4001 H 350.937 1.68776 5.82752 0
M  V30 4002 H 349.676 0.982799 4.77695 0
M  V30 4003 H 348.681 3.26088 4.42659 0
M  V30 4004 H 349.906 3.96737 5.51159 0
M  V30 4005 H 347.852 1.86268 6.28999 0
M  V30 4006 H 347.769 3.55064 6.67432 0
M  V30 4007 H 349.037 2.57679 7.35678 0
M  V30 4008 N 353.266 -1.05314 1.17247 0
M  V30 4009 C 354.198 -2.13023 0.845812 0
M  V30 4010 C 355.211 -1.62096 -0.151246 0
M  V30 4011 O 356.4 -1.78343 0.0748818 0
M  V30 4012 C 353.5 -3.38047 0.240292 0
M  V30 4013 C 352.673 -4.18255 1.27991 0
M  V30 4014 C 351.732 -5.21625 0.692375 0
M  V30 4015 O 350.758 -5.52619 1.36385 0
M  V30 4016 N 351.96 -5.78201 -0.516178 0
M  V30 4017 H 354.725 -2.41642 1.77283 0
M  V30 4018 H 352.286 -1.21401 1.07115 0
M  V30 4019 H 354.278 -4.04359 -0.16603 0
M  V30 4020 H 352.848 -3.06972 -0.590487 0
M  V30 4021 H 352.068 -3.47451 1.86203 0
M  V30 4022 H 353.356 -4.68643 1.98119 0
M  V30 4023 H 352.754 -5.55301 -1.07969 0
M  V30 4024 H 351.311 -6.4604 -0.86458 0
M  V30 4025 N 354.744 -0.972509 -1.24016 0
M  V30 4026 C 355.974 -0.653853 -1.9598 0
M  V30 4027 C 356.382 0.781801 -1.72292 0
M  V30 4028 O 355.725 1.53677 -1.00644 0
M  V30 4029 C 355.787 -0.854608 -3.49194 0
M  V30 4030 C 355.451 -2.27082 -3.96589 0
M  V30 4031 C 356.448 -3.24892 -4.05883 0
M  V30 4032 C 354.133 -2.5998 -4.29786 0
M  V30 4033 C 356.127 -4.53684 -4.47716 0
M  V30 4034 C 353.814 -3.88997 -4.71301 0
M  V30 4035 C 354.812 -4.85661 -4.80232 0
M  V30 4036 O 354.5 -6.12376 -5.20818 0
M  V30 4037 H 354.232 -0.242572 -0.630979 0
M  V30 4038 H 356.786 -1.30431 -1.58673 0
M  V30 4039 H 355.016 -0.146985 -3.86421 0
M  V30 4040 H 356.705 -0.534311 -4.02368 0
M  V30 4041 H 357.471 -3.00805 -3.80449 0
M  V30 4042 H 353.35 -1.85457 -4.22051 0
M  V30 4043 H 356.894 -5.29135 -4.54601 0
M  V30 4044 H 352.791 -4.12882 -4.96184 0
M  V30 4045 H 353.559 -6.16013 -5.38953 0
M  V30 4046 N 356.222 1.38976 -0.743202 0
M  V30 4047 C 357.471 1.99581 -0.291592 0
M  V30 4048 C 357.784 1.59656 1.13001 0
M  V30 4049 O 358.99 2.13157 1.68156 0
M  V30 4050 C 357.446 3.56813 -0.470391 0
M  V30 4051 C 357.054 4.05695 -1.90041 0
M  V30 4052 C 358.798 4.24423 -0.0809709 0
M  V30 4053 C 356.705 5.5553 -2.02832 0
M  V30 4054 H 355.635 0.746615 -0.105272 0
M  V30 4055 H 358.286 1.58872 -0.918258 0
M  V30 4056 H 356.668 3.95359 0.225299 0
M  V30 4057 H 357.842 3.78464 -2.62872 0
M  V30 4058 H 356.157 3.50775 -2.24379 0
M  V30 4059 H 358.754 5.34474 -0.155445 0
M  V30 4060 H 359.097 4.04962 0.96497 0
M  V30 4061 H 359.63 3.9108 -0.728124 0
M  V30 4062 H 356.369 5.79881 -3.05643 0
M  V30 4063 H 355.889 5.84537 -1.34448 0
M  V30 4064 H 357.568 6.21069 -1.81335 0
M  V30 4065 N 357.7 0.491464 1.49741 0
M  V30 4066 C 358.647 -0.292027 2.28945 0
M  V30 4067 C 359.617 -0.968973 1.34908 0
M  V30 4068 O 360.802 -0.97748 1.6386 0
M  V30 4069 C 357.942 -1.35617 3.17336 0
M  V30 4070 C 357.055 -0.691957 4.26422 0
M  V30 4071 C 356.19 -1.73572 5.02042 0
M  V30 4072 C 355.229 -1.05286 6.02977 0
M  V30 4073 N 354.366 -2.0404 6.71798 0
M  V30 4074 H 359.206 0.389654 2.95442 0
M  V30 4075 H 356.743 0.204003 1.45679 0
M  V30 4076 H 358.701 -1.98502 3.66951 0
M  V30 4077 H 357.331 -2.00674 2.52844 0
M  V30 4078 H 356.383 0.0499523 3.80367 0
M  V30 4079 H 357.695 -0.153946 4.98562 0
M  V30 4080 H 356.849 -2.43987 5.55478 0
M  V30 4081 H 355.588 -2.30757 4.29654 0
M  V30 4082 H 354.593 -0.334446 5.48782 0
M  V30 4083 H 355.818 -0.487636 6.77347 0
M  V30 4084 H 353.764 -2.60205 6.02187 0
M  V30 4085 H 353.681 -1.55279 7.39881 0
M  V30 4086 H 354.949 -2.73772 7.29842 0
M  V30 4087 N 359.178 -1.55987 0.224894 0
M  V30 4088 C 360.141 -2.19178 -0.670348 0
M  V30 4089 C 361.141 -1.15461 -1.11917 0
M  V30 4090 O 362.331 -1.40675 -1.02743 0
M  V30 4091 C 359.463 -2.81777 -1.9187 0
M  V30 4092 H 360.656 -2.99662 -0.119364 0
M  V30 4093 H 358.209 -1.5628 -0.0247128 0
M  V30 4094 H 358.944 -2.05172 -2.51147 0
M  V30 4095 H 358.729 -3.57732 -1.60531 0
M  V30 4096 H 360.219 -3.30205 -2.55645 0
M  V30 4097 N 360.656 0.0484629 -1.57525 0
M  V30 4098 C 361.566 1.07241 -2.08654 0
M  V30 4099 C 362.582 1.409 -1.02095 0
M  V30 4100 O 363.758 1.50609 -1.33712 0
M  V30 4101 C 360.823 2.36008 -2.5397 0
M  V30 4102 C 359.884 2.09108 -3.7493 0
M  V30 4103 C 359.117 3.31736 -4.18075 0
M  V30 4104 O 359.34 4.41714 -3.60895 0
M  V30 4105 O 358.274 3.18576 -5.10679 0
M  V30 4106 H 362.1 0.667965 -2.96263 0
M  V30 4107 H 359.685 0.26417 -1.47046 0
M  V30 4108 H 361.567 3.11747 -2.83535 0
M  V30 4109 H 360.242 2.75786 -1.69481 0
M  V30 4110 H 359.149 1.31 -3.50414 0
M  V30 4111 H 360.482 1.74198 -4.60343 0
M  V30 4112 N 362.134 1.5431 0.320358 0
M  V30 4113 C 363.097 1.83195 1.3774 0
M  V30 4114 C 364.097 0.703906 1.44575 0
M  V30 4115 O 365.287 0.972214 1.44546 0
M  V30 4116 C 362.419 1.99487 2.76438 0
M  V30 4117 H 363.612 2.77642 1.1338 0
M  V30 4118 H 361.165 1.46076 0.556012 0
M  V30 4119 H 361.9 1.07262 3.06048 0
M  V30 4120 H 361.685 2.81575 2.7287 0
M  V30 4121 H 363.175 2.23271 3.52902 0
M  V30 4122 N 363.613 -0.582584 1.46437 0
M  V30 4123 C 364.838 -1.37168 1.55563 0
M  V30 4124 C 365.263 -1.87061 0.19743 0
M  V30 4125 O 364.621 -1.61572 -0.822451 0
M  V30 4126 C 364.669 -2.53511 2.56446 0
M  V30 4127 O 363.773 -3.54953 2.09958 0
M  V30 4128 H 363.114 -0.408494 0.523477 0
M  V30 4129 H 365.644 -0.706646 1.9201 0
M  V30 4130 H 365.654 -3.00426 2.76058 0
M  V30 4131 H 364.329 -2.16549 3.55076 0
M  V30 4132 H 362.906 -3.14516 2.00334 0
M  V30 4133 N 365.091 -1.34144 -0.827227 0
M  V30 4134 C 366.34 -1.25602 -1.5782 0
M  V30 4135 C 366.653 0.173445 -1.94829 0
M  V30 4136 O 367.859 0.380984 -2.68814 0
M  V30 4137 C 366.315 -2.20151 -2.84713 0
M  V30 4138 C 365.923 -3.68331 -2.55021 0
M  V30 4139 C 367.667 -2.20508 -3.62735 0
M  V30 4140 C 365.574 -4.54762 -3.78082 0
M  V30 4141 H 364.504 -0.466573 -0.592306 0
M  V30 4142 H 367.155 -1.59283 -0.911116 0
M  V30 4143 H 365.537 -1.79417 -3.53023 0
M  V30 4144 H 366.711 -4.17577 -1.94849 0
M  V30 4145 H 365.026 -3.7038 -1.90283 0
M  V30 4146 H 367.623 -2.82306 -4.54101 0
M  V30 4147 H 367.966 -1.20322 -3.98533 0
M  V30 4148 H 368.499 -2.59664 -3.01362 0
M  V30 4149 H 365.238 -5.55867 -3.47407 0
M  V30 4150 H 364.758 -4.10254 -4.37552 0
M  V30 4151 H 366.437 -4.69153 -4.45538 0
M  V30 4152 N 366.569 1.04691 -1.17803 0
M  V30 4153 C 367.815 1.78045 -0.970969 0
M  V30 4154 C 368.148 1.87686 0.498751 0
M  V30 4155 O 367.423 1.38035 1.37027 0
M  V30 4156 C 367.706 3.2166 -1.61884 0
M  V30 4157 C 367.559 3.20001 -3.161 0
M  V30 4158 C 368.878 4.1962 -1.3269 0
M  V30 4159 H 365.997 0.64633 -0.354155 0
M  V30 4160 H 368.639 1.22333 -1.45378 0
M  V30 4161 H 366.789 3.69232 -1.20831 0
M  V30 4162 H 368.461 2.80467 -3.66246 0
M  V30 4163 H 366.704 2.58203 -3.48588 0
M  V30 4164 H 367.375 4.21386 -3.56564 0
M  V30 4165 H 369.851 3.80567 -1.68249 0
M  V30 4166 H 368.727 5.18339 -1.80599 0
M  V30 4167 H 368.988 4.414 -0.248622 0
M  V30 4168 N 368.047 0.979072 1.23499 0
M  V30 4169 C 368.995 0.510604 2.26926 0
M  V30 4170 C 369.989 -0.431691 1.63807 0
M  V30 4171 O 371.195 -0.30573 1.77385 0
M  V30 4172 H 367.57 0.146688 0.737554 0
M  V30 4173 H 369.541 1.39466 2.63803 0
M  V30 4174 C 368.29 -0.172658 3.47271 0
M  V30 4175 H 367.613 0.543331 3.96091 0
M  V30 4176 H 369.053 -0.464101 4.21452 0
M  V30 4177 C 367.512 -1.40345 3.06276 0
M  V30 4178 O 368.042 -2.49978 3.14442 0
M  V30 4179 N 366.248 -1.27362 2.61203 0
M  V30 4180 H 365.795 -0.381584 2.54758 0
M  V30 4181 H 365.753 -2.09822 2.34141 0
M  V30 4182 N 369.525 -1.3858 0.750561 0
M  V30 4183 C 370.75 -2.04997 0.314812 0
M  V30 4184 C 371.175 -1.56235 -1.04749 0
M  V30 4185 O 370.533 -0.712981 -1.66692 0
M  V30 4186 C 370.581 -3.58961 0.343415 0
M  V30 4187 O 369.685 -4.07025 -0.663628 0
M  V30 4188 H 369.026 -0.649081 0.139962 0
M  V30 4189 H 371.556 -1.77313 1.02084 0
M  V30 4190 H 371.566 -4.07542 0.193233 0
M  V30 4191 H 370.241 -3.93811 1.33738 0
M  V30 4192 H 368.818 -3.6982 -0.478307 0
M  V30 4193 N 371.003 -0.499398 -1.49478 0
M  V30 4194 C 371.933 0.269244 -2.31943 0
M  V30 4195 C 372.914 0.964054 -1.40143 0
M  V30 4196 O 374.099 0.955767 -1.69052 0
M  V30 4197 C 371.229 1.33504 -3.20615 0
M  V30 4198 C 370.183 0.760202 -4.21195 0
M  V30 4199 C 369.509 1.9264 -4.98792 0
M  V30 4200 C 370.809 -0.247661 -5.21712 0
M  V30 4201 H 372.503 -0.419082 -2.96452 0
M  V30 4202 H 370.049 -0.202988 -1.42562 0
M  V30 4203 H 372.002 1.88048 -3.77115 0
M  V30 4204 H 370.726 2.05253 -2.54045 0
M  V30 4205 H 369.385 0.23653 -3.65836 0
M  V30 4206 H 369.033 2.63154 -4.28671 0
M  V30 4207 H 368.733 1.54785 -5.66847 0
M  V30 4208 H 370.257 2.4762 -5.58137 0
M  V30 4209 H 371.671 0.209579 -5.72917 0
M  V30 4210 H 370.068 -0.541962 -5.97648 0
M  V30 4211 H 371.138 -1.16409 -4.7072 0
M  V30 4212 N 372.481 1.55866 -0.233164 0
M  V30 4213 C 373.758 1.90471 0.444988 0
M  V30 4214 C 374.138 1.15209 1.7689 0
M  V30 4215 O 373.486 0.265119 2.26957 0
M  V30 4216 C 373.696 3.4333 0.626559 0
M  V30 4217 C 375.044 4.14319 0.92871 0
M  V30 4218 O 376.068 3.48993 0.712926 0
M  V30 4219 O 374.927 5.29846 1.33887 0
M  V30 4220 H 372.021 0.792347 0.236885 0
M  V30 4221 H 374.567 1.67437 -0.276211 0
M  V30 4222 H 373.339 3.90095 -0.306822 0
M  V30 4223 H 372.962 3.72181 1.39881 0
M  V30 4224 N 373.959 -0.0401083 1.57549 0
M  V30 4225 C 375.206 -0.733125 1.88763 0
M  V30 4226 C 375.534 -1.75946 0.829058 0
M  V30 4227 O 374.789 -1.94949 -0.171323 0
M  V30 4228 C 375.088 -1.44902 3.26708 0
M  V30 4229 C 374.754 -0.559707 4.47413 0
M  V30 4230 C 373.416 -0.314731 4.8017 0
M  V30 4231 C 375.768 0.0549743 5.21171 0
M  V30 4232 C 373.096 0.553886 5.8408 0
M  V30 4233 C 375.448 0.911229 6.26003 0
M  V30 4234 C 374.112 1.16577 6.57241 0
M  V30 4235 H 373.382 -0.268269 0.690733 0
M  V30 4236 H 376.029 0.00679408 1.91499 0
M  V30 4237 H 374.334 -2.26197 3.1991 0
M  V30 4238 H 376.031 -1.99058 3.48105 0
M  V30 4239 H 372.621 -0.760793 4.21794 0
M  V30 4240 H 376.805 -0.121344 4.96152 0
M  V30 4241 H 372.061 0.759518 6.06664 0
M  V30 4242 H 376.235 1.3941 6.82303 0
M  V30 4243 H 373.862 1.84058 7.37582 0
M  V30 4244 N 375.437 -1.54477 -0.31217 0
M  V30 4245 C 376.384 -1.84655 -1.38461 0
M  V30 4246 C 377.354 -0.694536 -1.50882 0
M  V30 4247 O 378.539 -0.942081 -1.6592 0
M  V30 4248 C 375.679 -2.0896 -2.74645 0
M  V30 4249 C 374.792 -3.36618 -2.70763 0
M  V30 4250 C 373.927 -3.50824 -3.98868 0
M  V30 4251 C 372.966 -4.72315 -3.89339 0
M  V30 4252 N 372.103 -4.83387 -5.09197 0
M  V30 4253 H 376.943 -2.76142 -1.12026 0
M  V30 4254 H 374.48 -1.36748 -0.542065 0
M  V30 4255 H 376.438 -2.21045 -3.53829 0
M  V30 4256 H 375.068 -1.20752 -2.99364 0
M  V30 4257 H 374.12 -3.33211 -1.83506 0
M  V30 4258 H 375.432 -4.25917 -2.59608 0
M  V30 4259 H 374.586 -3.62513 -4.86486 0
M  V30 4260 H 373.325 -2.59638 -4.12843 0
M  V30 4261 H 372.33 -4.6067 -3.00105 0
M  V30 4262 H 373.555 -5.64897 -3.76919 0
M  V30 4263 H 371.501 -3.9512 -5.23657 0
M  V30 4264 H 371.418 -5.66669 -5.00422 0
M  V30 4265 H 372.686 -4.9942 -5.98498 0
M  V30 4266 N 376.915 0.57481 -1.46744 0
M  V30 4267 C 378.192 1.3352 -1.4294 0
M  V30 4268 C 378.572 2.10775 -0.117009 0
M  V30 4269 O 377.92 2.09966 0.901474 0
M  V30 4270 C 378.13 2.25456 -2.66403 0
M  V30 4271 C 379.478 2.87035 -3.12883 0
M  V30 4272 O 380.502 2.35766 -2.67007 0
M  V30 4273 O 379.361 3.80179 -3.92589 0
M  V30 4274 H 376.455 0.600318 -0.568812 0
M  V30 4275 H 379.001 0.595171 -1.58921 0
M  V30 4276 H 377.773 1.67851 -3.53471 0
M  V30 4277 H 377.396 3.06785 -2.52921 0
M  V30 4278 N 378.394 1.34581 0.820102 0
M  V30 4279 C 379.671 1.17675 1.56244 0
M  V30 4280 C 380.051 -0.249541 2.0962 0
M  V30 4281 O 379.399 -1.25125 1.91196 0
M  V30 4282 C 379.609 2.23364 2.6816 0
M  V30 4283 C 380.957 2.58485 3.36854 0
M  V30 4284 O 381.981 2.22175 2.78418 0
M  V30 4285 O 380.84 3.20868 4.42386 0
M  V30 4286 H 377.934 0.456333 0.689702 0
M  V30 4287 H 380.48 1.46222 0.861231 0
M  V30 4288 H 379.252 3.19087 2.26493 0
M  V30 4289 H 378.875 1.96009 3.45928 0
M  V30 4290 N 379.872 -1.04064 1.18357 0
M  V30 4291 C 381.118 -1.77528 0.980397 0
M  V30 4292 C 381.451 -1.87948 -0.48879 0
M  V30 4293 O 380.726 -1.3876 -1.36293 0
M  V30 4294 C 381.009 -3.20797 1.63588 0
M  V30 4295 C 380.862 -3.1832 3.17793 0
M  V30 4296 C 382.181 -4.18911 1.34914 0
M  V30 4297 H 379.3 -0.644443 0.357578 0
M  V30 4298 H 381.942 -1.2156 1.46024 0
M  V30 4299 H 380.092 -3.68586 1.22788 0
M  V30 4300 H 381.764 -2.78521 3.67728 0
M  V30 4301 H 380.007 -2.56351 3.49952 0
M  V30 4302 H 380.678 -4.19489 3.58794 0
M  V30 4303 H 383.154 -3.7967 1.70265 0
M  V30 4304 H 382.03 -5.17374 1.83346 0
M  V30 4305 H 382.291 -4.41262 0.272027 0
M  V30 4306 N 381.35 -0.985608 -1.22978 0
M  V30 4307 C 382.575 -0.675254 -1.961 0
M  V30 4308 C 383 0.752154 -1.72407 0
M  V30 4309 O 382.358 1.5131 -0.998751 0
M  V30 4310 C 382.406 -0.977899 -3.47087 0
M  V30 4311 O 381.51 -0.072685 -4.12336 0
M  V30 4312 H 380.851 -0.253443 -0.613728 0
M  V30 4313 H 383.381 -1.32061 -1.56272 0
M  V30 4314 H 383.391 -0.916739 -3.97567 0
M  V30 4315 H 382.066 -2.01807 -3.63657 0
M  V30 4316 H 380.643 -0.188703 -3.72422 0
M  V30 4317 N 382.828 1.3818 -0.7579 0
M  V30 4318 C 383.775 2.30416 -0.133057 0
M  V30 4319 C 384.745 1.50398 0.704957 0
M  V30 4320 O 385.93 1.79014 0.660192 0
M  V30 4321 C 383.07 3.36834 0.750813 0
M  V30 4322 C 382.183 4.31879 -0.102297 0
M  V30 4323 C 381.318 5.25368 0.784979 0
M  V30 4324 C 380.357 6.12058 -0.0715046 0
M  V30 4325 N 379.494 6.97832 0.772972 0
M  V30 4326 H 384.334 2.83274 -0.925186 0
M  V30 4327 H 381.871 1.39461 -0.467866 0
M  V30 4328 H 383.829 3.97145 1.27794 0
M  V30 4329 H 382.459 2.85374 1.50868 0
M  V30 4330 H 381.511 3.72991 -0.747095 0
M  V30 4331 H 382.823 4.92921 -0.763552 0
M  V30 4332 H 381.977 5.90818 1.37911 0
M  V30 4333 H 380.716 4.64703 1.47996 0
M  V30 4334 H 379.721 5.456 -0.678272 0
M  V30 4335 H 380.946 6.74793 -0.763606 0
M  V30 4336 H 378.892 6.3971 1.45282 0
M  V30 4337 H 378.809 7.55812 0.168709 0
M  V30 4338 H 380.077 7.67687 1.35194 0
M  V30 4339 N 384.306 0.507319 1.49211 0
M  V30 4340 C 385.554 -0.0348839 2.0207 0
M  V30 4341 C 385.875 -1.36898 1.38866 0
M  V30 4342 O 385.145 -1.88133 0.546151 0
M  V30 4343 H 383.725 -0.0158812 0.746831 0
M  V30 4344 H 386.387 0.665998 1.83168 0
M  V30 4345 H 385.483 -0.159917 3.1169 0
M  V30 4346 N 385.784 -1.5574 0.241426 0
M  V30 4347 C 387.061 -1.90704 -0.434881 0
M  V30 4348 C 387.441 -1.16145 -1.76277 0
M  V30 4349 O 386.789 -0.277152 -2.26813 0
M  V30 4350 C 386.999 -3.43657 -0.608343 0
M  V30 4351 C 388.347 -4.14806 -0.906725 0
M  V30 4352 O 389.371 -3.49366 -0.694408 0
M  V30 4353 O 388.23 -5.30548 -1.31075 0
M  V30 4354 H 385.324 -0.793592 -0.23268 0
M  V30 4355 H 387.87 -1.67288 0.285086 0
M  V30 4356 H 386.642 -3.89927 0.327505 0
M  V30 4357 H 386.265 -3.72918 -1.37906 0
M  V30 4358 N 387.262 0.0317525 -1.57568 0
M  V30 4359 C 388.192 1.03274 -2.0942 0
M  V30 4360 C 389.173 1.3788 -0.996143 0
M  V30 4361 O 390.358 1.46811 -1.27122 0
M  V30 4362 C 387.488 2.33448 -2.57137 0
M  V30 4363 C 386.442 2.13091 -3.71182 0
M  V30 4364 C 385.768 3.49001 -4.05095 0
M  V30 4365 C 387.068 1.51928 -4.99715 0
M  V30 4366 H 388.762 0.60112 -2.93303 0
M  V30 4367 H 386.308 0.287705 -1.41097 0
M  V30 4368 H 388.261 3.03802 -2.92032 0
M  V30 4369 H 386.985 2.78665 -1.70333 0
M  V30 4370 H 385.644 1.45171 -3.36632 0
M  V30 4371 H 385.292 3.91862 -3.15362 0
M  V30 4372 H 384.992 3.36207 -4.81911 0
M  V30 4373 H 386.516 4.20721 -4.42522 0
M  V30 4374 H 387.93 2.12196 -5.32584 0
M  V30 4375 H 386.327 1.49716 -5.81124 0
M  V30 4376 H 387.397 0.484811 -4.8247 0
M  V30 4377 N 388.74 1.54641 0.303973 0
M  V30 4378 C 389.986 1.74969 1.03718 0
M  V30 4379 C 390.341 0.527461 1.85029 0
M  V30 4380 O 389.634 -0.480143 1.85486 0
M  V30 4381 C 389.828 2.97753 1.97681 0
M  V30 4382 C 389.657 4.318 1.25613 0
M  V30 4383 C 388.427 4.95616 0.984518 0
M  V30 4384 C 390.625 5.10021 0.662081 0
M  V30 4385 N 388.607 6.13455 0.233794 0
M  V30 4386 C 389.978 6.19984 0.0439736 0
M  V30 4387 C 392.033 4.94663 0.566835 0
M  V30 4388 C 390.736 7.16264 -0.66016 0
M  V30 4389 C 392.762 5.91271 -0.123637 0
M  V30 4390 C 392.124 7.00601 -0.730608 0
M  V30 4391 H 388.223 0.692873 0.362562 0
M  V30 4392 H 390.807 1.92116 0.316135 0
M  V30 4393 H 388.978 2.82036 2.6704 0
M  V30 4394 H 390.71 3.06621 2.64132 0
M  V30 4395 H 387.465 4.55921 1.28191 0
M  V30 4396 H 387.889 6.76879 -0.127996 0
M  V30 4397 H 392.531 4.10267 1.02181 0
M  V30 4398 H 390.249 8.00204 -1.12691 0
M  V30 4399 H 393.835 5.81466 -0.197236 0
M  V30 4400 H 392.715 7.7407 -1.2564 0
M  V30 4401 N 390.218 -0.567019 1.47046 0
M  V30 4402 C 391.466 -1.322 1.52864 0
M  V30 4403 C 391.787 -1.94088 0.188388 0
M  V30 4404 O 391.057 -1.7941 -0.786693 0
M  V30 4405 H 389.637 -0.490894 0.563056 0
M  V30 4406 H 392.299 -0.662879 1.83281 0
M  V30 4407 H 391.395 -2.12062 2.2899 0
M  V30 4408 N 391.696 -1.35014 -0.812953 0
M  V30 4409 C 392.643 -1.27412 -1.92444 0
M  V30 4410 C 393.613 -0.14733 -1.65445 0
M  V30 4411 O 394.798 -0.329974 -1.87925 0
M  V30 4412 C 391.938 -1.04558 -3.28879 0
M  V30 4413 C 391.051 -2.26101 -3.68106 0
M  V30 4414 C 390.186 -1.96449 -4.9354 0
M  V30 4415 C 389.225 -3.14081 -5.25376 0
M  V30 4416 N 388.362 -2.84246 -6.41988 0
M  V30 4417 H 393.202 -2.22463 -1.98278 0
M  V30 4418 H 390.739 -1.10593 -0.969933 0
M  V30 4419 H 392.697 -0.893413 -4.07522 0
M  V30 4420 H 391.327 -0.131719 -3.22531 0
M  V30 4421 H 390.379 -2.52204 -2.84775 0
M  V30 4422 H 391.691 -3.13959 -3.87597 0
M  V30 4423 H 390.845 -1.78026 -5.79993 0
M  V30 4424 H 389.584 -1.05867 -4.76071 0
M  V30 4425 H 388.589 -3.33089 -4.37415 0
M  V30 4426 H 389.814 -4.05455 -5.44778 0
M  V30 4427 H 387.76 -1.96252 -6.25956 0
M  V30 4428 H 387.677 -3.65637 -6.61699 0
M  V30 4429 H 388.945 -2.6935 -7.31485 0
M  V30 4430 N 393.175 1.03435 -1.18907 0
M  V30 4431 C 394.085 2.15075 -0.937015 0
M  V30 4432 C 395.101 1.73706 0.101085 0
M  V30 4433 O 396.277 2.01232 -0.0822948 0
M  V30 4434 C 393.342 3.43458 -0.473057 0
M  V30 4435 C 392.403 3.99172 -1.57989 0
M  V30 4436 C 391.636 5.21427 -1.13797 0
M  V30 4437 O 391.859 5.704 0.000725941 0
M  V30 4438 O 390.793 5.69837 -1.9383 0
M  V30 4439 H 394.619 2.39198 -1.87131 0
M  V30 4440 H 392.204 1.13506 -0.971427 0
M  V30 4441 H 394.086 4.20811 -0.222702 0
M  V30 4442 H 392.761 3.20793 0.432869 0
M  V30 4443 H 391.668 3.23178 -1.88433 0
M  V30 4444 H 393.001 4.2619 -2.46217 0
M  V30 4445 N 394.653 0.992116 1.22453 0
M  V30 4446 C 395.601 0.534644 2.26372 0
M  V30 4447 C 396.595 -0.414293 1.64256 0
M  V30 4448 O 397.801 -0.286899 1.77699 0
M  V30 4449 H 394.176 0.154502 0.735957 0
M  V30 4450 H 396.147 1.42256 2.62309 0
M  V30 4451 C 394.896 -0.135815 3.47435 0
M  V30 4452 H 394.219 0.585311 3.95492 0
M  V30 4453 H 395.659 -0.419374 4.21921 0
M  V30 4454 C 394.118 -1.37089 3.07747 0
M  V30 4455 O 394.648 -2.46629 3.17076 0
M  V30 4456 N 392.854 -1.24585 2.62539 0
M  V30 4457 H 392.401 -0.354542 2.55149 0
M  V30 4458 H 392.359 -2.07327 2.36353 0
M  V30 4459 N 396.131 -1.37776 0.765217 0
M  V30 4460 C 397.361 -2.03828 0.337277 0
M  V30 4461 C 397.769 -1.57841 -1.04321 0
M  V30 4462 O 397.112 -0.752043 -1.67601 0
M  V30 4463 C 397.174 -3.58292 0.294407 0
M  V30 4464 C 396.838 -4.27384 1.61838 0
M  V30 4465 C 397.835 -4.51956 2.56967 0
M  V30 4466 C 395.52 -4.65345 1.89102 0
M  V30 4467 C 397.514 -5.13536 3.77571 0
M  V30 4468 C 395.201 -5.26647 3.09978 0
M  V30 4469 C 396.199 -5.50679 4.04032 0
M  V30 4470 O 395.887 -6.10702 5.2278 0
M  V30 4471 H 395.619 -0.661292 0.140248 0
M  V30 4472 H 398.173 -1.77222 1.03834 0
M  V30 4473 H 396.403 -3.83918 -0.462983 0
M  V30 4474 H 398.092 -4.05763 -0.105581 0
M  V30 4475 H 398.858 -4.23048 2.37183 0
M  V30 4476 H 394.737 -4.45978 1.16725 0
M  V30 4477 H 398.281 -5.3221 4.50997 0
M  V30 4478 H 394.178 -5.54979 3.29649 0
M  V30 4479 H 394.946 -6.29183 5.23517 0
M  V30 4480 N 397.609 -0.515225 -1.4894 0
M  V30 4481 C 398.834 0.022727 -2.07388 0
M  V30 4482 C 399.259 1.2876 -1.37122 0
M  V30 4483 O 398.617 1.76067 -0.432431 0
M  V30 4484 C 398.665 0.244869 -3.59768 0
M  V30 4485 O 397.769 1.31667 -3.90817 0
M  V30 4486 H 397.11 -0.0325506 -0.663202 0
M  V30 4487 H 399.64 -0.718918 -1.91553 0
M  V30 4488 H 399.65 0.47205 -4.0526 0
M  V30 4489 H 398.325 -0.679194 -4.10317 0
M  V30 4490 H 396.902 1.07331 -3.5712 0
M  V30 4491 N 399.087 1.5561 -0.249682 0
M  V30 4492 C 400.364 1.90932 0.424761 0
M  V30 4493 C 400.744 1.17078 1.75658 0
M  V30 4494 O 400.092 0.289176 2.26663 0
M  V30 4495 C 400.302 3.43975 0.590109 0
M  V30 4496 C 401.65 4.15281 0.884714 0
M  V30 4497 O 402.674 3.49729 0.67587 0
M  V30 4498 O 401.533 5.31236 1.28259 0
M  V30 4499 H 398.627 0.794815 0.228468 0
M  V30 4500 H 401.173 1.67135 -0.293954 0
M  V30 4501 H 399.945 3.89748 -0.34818 0
M  V30 4502 H 399.568 3.73644 1.35926 0
M  V30 4503 N 400.565 -0.0233959 1.57583 0
M  V30 4504 C 401.811 -0.708611 1.90657 0
M  V30 4505 C 402.166 -1.7266 0.848895 0
M  V30 4506 O 401.459 -1.91075 -0.141749 0
M  V30 4507 C 401.653 -1.41428 3.28227 0
M  V30 4508 C 401.482 -0.466155 4.47277 0
M  V30 4509 C 400.252 -0.085117 5.05228 0
M  V30 4510 C 402.45 0.257836 5.13653 0
M  V30 4511 N 400.432 0.863672 6.07794 0
M  V30 4512 C 401.803 1.06209 6.10835 0
M  V30 4513 C 403.858 0.324174 4.96844 0
M  V30 4514 C 402.561 1.9266 6.93018 0
M  V30 4515 C 404.587 1.17583 5.79593 0
M  V30 4516 C 403.949 1.96799 6.7635 0
M  V30 4517 H 400.048 -0.233222 0.746412 0
M  V30 4518 H 402.632 0.0314512 1.94675 0
M  V30 4519 H 400.803 -2.12477 3.25128 0
M  V30 4520 H 402.535 -2.05233 3.488 0
M  V30 4521 H 399.29 -0.448516 4.71471 0
M  V30 4522 H 399.714 1.33274 6.63752 0
M  V30 4523 H 404.356 -0.273975 4.21911 0
M  V30 4524 H 402.074 2.53552 7.67292 0
M  V30 4525 H 405.66 1.23076 5.68633 0
M  V30 4526 H 404.54 2.61635 7.39268 0
M  V30 4527 N 402.043 -1.548 -0.295768 0
M  V30 4528 C 403.268 -1.78653 -1.05346 0
M  V30 4529 C 403.693 -0.546894 -1.79974 0
M  V30 4530 O 403.051 0.502763 -1.7419 0
M  V30 4531 C 403.099 -2.99679 -2.00561 0
M  V30 4532 O 402.203 -2.7317 -3.08953 0
M  V30 4533 H 401.544 -0.59116 -0.302367 0
M  V30 4534 H 404.074 -2.01895 -0.331598 0
M  V30 4535 H 404.084 -3.27793 -2.42932 0
M  V30 4536 H 402.759 -3.89562 -1.4565 0
M  V30 4537 H 401.336 -2.56089 -2.71059 0
M  V30 4538 N 403.521 0.559213 -1.47345 0
M  V30 4539 C 404.469 1.68747 -1.60085 0
M  V30 4540 C 405.463 1.628 -0.46825 0
M  V30 4541 O 406.669 1.68009 -0.645977 0
M  V30 4542 H 403.044 0.558329 -0.503759 0
M  V30 4543 H 405.015 1.55138 -2.54902 0
M  V30 4544 C 403.764 3.07103 -1.63042 0
M  V30 4545 H 403.087 3.12361 -2.49541 0
M  V30 4546 H 404.527 3.85743 -1.76006 0
M  V30 4547 C 402.986 3.34935 -0.363357 0
M  V30 4548 O 403.516 3.98102 0.536416 0
M  V30 4549 N 401.722 2.89574 -0.244 0
M  V30 4550 H 401.269 2.38348 -0.977133 0
M  V30 4551 H 401.227 3.08566 0.602836 0
M  V30 4552 N 404.999 1.35443 0.805782 0
M  V30 4553 C 405.946 1.28431 1.91766 0
M  V30 4554 C 406.916 0.156102 1.65365 0
M  V30 4555 O 408.101 0.339936 1.87747 0
M  V30 4556 C 405.241 1.06301 3.2832 0
M  V30 4557 C 404.354 2.2805 3.66902 0
M  V30 4558 C 403.489 1.99064 4.92491 0
M  V30 4559 C 402.528 3.16863 5.23703 0
M  V30 4560 N 401.665 2.87647 6.40471 0
M  V30 4561 H 406.505 2.23511 1.97096 0
M  V30 4562 H 404.042 1.11105 0.964054 0
M  V30 4563 H 406 0.915012 4.07042 0
M  V30 4564 H 404.63 0.148822 3.22457 0
M  V30 4565 H 403.682 2.53711 2.83434 0
M  V30 4566 H 404.994 3.1601 3.85927 0
M  V30 4567 H 404.148 1.81099 5.7904 0
M  V30 4568 H 402.887 1.0839 4.75503 0
M  V30 4569 H 401.892 3.35404 4.35642 0
M  V30 4570 H 403.117 4.08339 5.4262 0
M  V30 4571 H 401.063 1.99568 6.24907 0
M  V30 4572 H 400.98 3.69141 6.59751 0
M  V30 4573 H 402.248 2.73226 7.30047 0
M  V30 4574 N 406.477 -1.02803 1.19454 0
M  V30 4575 C 407.407 -2.12999 0.956758 0
M  V30 4576 C 408.388 -1.69743 -0.110188 0
M  V30 4577 O 409.573 -1.94148 0.0450038 0
M  V30 4578 C 406.703 -3.43746 0.495553 0
M  V30 4579 C 405.657 -4.00688 1.50443 0
M  V30 4580 C 404.983 -5.27067 0.900275 0
M  V30 4581 C 406.283 -4.35397 2.8849 0
M  V30 4582 H 407.977 -2.33148 1.87836 0
M  V30 4583 H 405.523 -1.12045 0.904539 0
M  V30 4584 H 407.476 -4.2021 0.316493 0
M  V30 4585 H 406.2 -3.23321 -0.461646 0
M  V30 4586 H 404.859 -3.2632 1.67065 0
M  V30 4587 H 404.507 -5.02959 -0.064503 0
M  V30 4588 H 404.207 -5.66127 1.57397 0
M  V30 4589 H 405.731 -6.06196 0.73203 0
M  V30 4590 H 407.145 -5.02795 2.75446 0
M  V30 4591 H 405.542 -4.85541 3.52661 0
M  V30 4592 H 406.612 -3.44662 3.41081 0
M  V30 4593 N 407.956 -0.998596 -1.21925 0
M  V30 4594 C 409.184 -0.696286 -1.94832 0
M  V30 4595 C 409.599 0.740032 -1.73692 0
M  V30 4596 O 408.956 1.5 -1.03953 0
M  V30 4597 C 409.007 -0.999833 -3.47398 0
M  V30 4598 O 408.728 -2.37972 -3.67833 0
M  V30 4599 C 410.229 -0.716025 -4.37479 0
M  V30 4600 H 407.449 -0.257111 -0.619786 0
M  V30 4601 H 409.993 -1.33491 -1.54921 0
M  V30 4602 H 408.148 -0.406918 -3.85257 0
M  V30 4603 H 408.562 -2.48338 -4.61983 0
M  V30 4604 H 410.036 -0.978642 -5.43256 0
M  V30 4605 H 410.513 0.349968 -4.37803 0
M  V30 4606 H 411.119 -1.29025 -4.05256 0
M  V30 4607 N 409.434 1.37368 -0.772513 0
M  V30 4608 C 410.845 1.8231 -0.402493 0
M  V30 4609 C 411.196 1.6436 1.07146 0
M  V30 4610 O 410.321 1.15514 1.82991 0
M  V30 4611 C 410.916 3.30979 -0.723776 0
M  V30 4612 C 409.475 3.74195 -0.406802 0
M  V30 4613 C 408.622 2.59885 -0.967218 0
M  V30 4614 H 411.573 1.25829 -0.967099 0
M  V30 4615 H 411.594 3.80499 -0.00870832 0
M  V30 4616 H 411.106 3.44011 -1.7966 0
M  V30 4617 H 409.207 3.66732 0.658673 0
M  V30 4618 H 409.32 4.7027 -0.915588 0
M  V30 4619 H 407.684 2.51674 -0.391416 0
M  V30 4620 H 408.467 2.7571 -2.04546 0
M  V30 4621 N 410.912 0.523116 1.48665 0
M  V30 4622 C 411.86 -0.256859 2.31177 0
M  V30 4623 C 412.854 -0.94199 1.40794 0
M  V30 4624 O 414.06 -0.867157 1.57735 0
M  V30 4625 H 410.435 -0.1017 0.745091 0
M  V30 4626 H 412.406 0.458739 2.94853 0
M  V30 4627 C 411.155 -1.29503 3.22683 0
M  V30 4628 H 410.478 -0.777248 3.92172 0
M  V30 4629 H 411.918 -1.81233 3.83315 0
M  V30 4630 C 410.377 -2.32501 2.43813 0
M  V30 4631 O 410.907 -3.3881 2.15803 0
M  V30 4632 N 409.113 -2.05538 2.05432 0
M  V30 4633 H 408.66 -1.19104 2.28412 0
M  V30 4634 H 408.618 -2.74676 1.52973 0
M  V30 4635 N 412.39 -1.55475 0.257931 0
M  V30 4636 C 413.3 -2.2549 -0.647425 0
M  V30 4637 C 414.316 -1.2748 -1.18427 0
M  V30 4638 O 415.492 -1.6038 -1.2182 0
M  V30 4639 C 412.557 -2.94916 -1.82278 0
M  V30 4640 C 411.618 -4.08363 -1.32432 0
M  V30 4641 C 410.851 -4.74469 -2.44366 0
M  V30 4642 O 411.074 -4.39701 -3.63344 0
M  V30 4643 O 410.008 -5.62763 -2.13497 0
M  V30 4644 H 413.834 -3.03593 -0.0807707 0
M  V30 4645 H 411.419 -1.49377 0.0259962 0
M  V30 4646 H 413.301 -3.38606 -2.50846 0
M  V30 4647 H 411.976 -2.19744 -2.37685 0
M  V30 4648 H 410.883 -3.69166 -0.605605 0
M  V30 4649 H 412.216 -4.85385 -0.816211 0
M  V30 4650 N 413.868 0.0150385 -1.57593 0
M  V30 4651 C 414.798 1.01047 -2.10503 0
M  V30 4652 C 415.779 1.36816 -1.01071 0
M  V30 4653 O 416.964 1.45455 -1.28672 0
M  V30 4654 C 414.094 2.30708 -2.59598 0
M  V30 4655 C 413.048 2.09142 -3.73421 0
M  V30 4656 C 412.374 3.44685 -4.08774 0
M  V30 4657 C 413.674 1.46619 -5.01298 0
M  V30 4658 H 415.368 0.569978 -2.93925 0
M  V30 4659 H 412.914 0.272724 -1.41394 0
M  V30 4660 H 414.867 3.00687 -2.95238 0
M  V30 4661 H 413.591 2.76843 -1.73279 0
M  V30 4662 H 412.25 1.41592 -3.38153 0
M  V30 4663 H 411.898 3.88495 -3.195 0
M  V30 4664 H 411.598 3.31077 -4.8545 0
M  V30 4665 H 413.122 4.16004 -4.4696 0
M  V30 4666 H 414.536 2.06535 -5.34805 0
M  V30 4667 H 412.933 1.43544 -5.82679 0
M  V30 4668 H 414.003 0.433611 -4.82957 0
M  V30 4669 N 415.346 1.54954 0.287554 0
M  V30 4670 C 416.309 1.86076 1.33823 0
M  V30 4671 C 417.309 0.734414 1.43049 0
M  V30 4672 O 418.499 1.00266 1.42452 0
M  V30 4673 C 415.631 2.05305 2.72144 0
M  V30 4674 H 416.824 2.79984 1.07465 0
M  V30 4675 H 414.377 1.47223 0.524902 0
M  V30 4676 H 415.112 1.1373 3.03704 0
M  V30 4677 H 414.897 2.873 2.66836 0
M  V30 4678 H 416.387 2.30706 3.48087 0
M  V30 4679 N 416.824 -0.551391 1.4764 0
M  V30 4680 C 418.101 -1.31229 1.45046 0
M  V30 4681 C 418.481 -2.10563 0.150527 0
M  V30 4682 O 417.829 -2.11374 -0.867956 0
M  V30 4683 C 418.039 -2.21189 2.69956 0
M  V30 4684 C 419.387 -2.82021 3.1741 0
M  V30 4685 O 420.411 -2.31488 2.70724 0
M  V30 4686 O 419.27 -3.73885 3.98588 0
M  V30 4687 H 416.364 -0.591193 0.578291 0
M  V30 4688 H 418.91 -0.569813 1.59847 0
M  V30 4689 H 417.682 -1.62207 3.56096 0
M  V30 4690 H 417.305 -3.02722 2.57769 0
M  V30 4691 N 418.302 -1.35869 -0.798587 0
M  V30 4692 C 419.548 -1.2978 -1.55836 0
M  V30 4693 C 419.881 0.125322 -1.93795 0
M  V30 4694 O 419.156 1.07658 -1.61987 0
M  V30 4695 C 419.439 -2.21188 -2.84162 0
M  V30 4696 C 419.292 -3.72155 -2.52628 0
M  V30 4697 C 420.611 -2.11545 -3.85923 0
M  V30 4698 H 417.73 -0.472769 -0.565383 0
M  V30 4699 H 420.372 -1.66341 -0.918192 0
M  V30 4700 H 418.522 -1.90139 -3.38791 0
M  V30 4701 H 420.194 -4.13682 -2.04121 0
M  V30 4702 H 418.437 -3.92042 -1.85704 0
M  V30 4703 H 419.108 -4.31511 -3.44242 0
M  V30 4704 H 421.584 -2.38855 -3.40716 0
M  V30 4705 H 420.46 -2.77688 -4.73477 0
M  V30 4706 H 420.721 -1.09987 -4.282 0
M  V30 4707 N 419.78 1.02168 -1.19998 0
M  V30 4708 C 420.728 2.12717 -0.940967 0
M  V30 4709 C 421.722 1.69069 0.105841 0
M  V30 4710 O 422.928 1.79946 -0.0440583 0
M  V30 4711 H 419.303 0.695108 -0.28693 0
M  V30 4712 H 421.274 2.3175 -1.87975 0
M  V30 4713 C 420.023 3.44027 -0.504049 0
M  V30 4714 H 419.346 3.78036 -1.30112 0
M  V30 4715 H 420.786 4.22452 -0.361991 0
M  V30 4716 C 419.245 3.27678 0.782878 0
M  V30 4717 O 419.775 3.56949 1.84256 0
M  V30 4718 N 417.981 2.80943 0.742921 0
M  V30 4719 H 417.528 2.57322 -0.119687 0
M  V30 4720 H 417.486 2.70385 1.60435 0
M  V30 4721 N 421.258 1.00505 1.21394 0
M  V30 4722 C 422.535 0.603277 1.86064 0
M  V30 4723 C 422.915 -0.919095 1.90042 0
M  V30 4724 O 422.263 -1.80607 1.39977 0
M  V30 4725 C 422.473 1.23772 3.26315 0
M  V30 4726 C 423.821 1.34586 4.02705 0
M  V30 4727 O 424.845 1.19304 3.35626 0
M  V30 4728 O 423.704 1.59169 5.22807 0
M  V30 4729 H 420.798 0.206634 0.800769 0
M  V30 4730 H 423.344 1.1017 1.29076 0
M  V30 4731 H 422.116 2.27848 3.18121 0
M  V30 4732 H 421.739 0.725648 3.90922 0
M  V30 4733 N 422.737 -1.36956 0.779787 0
M  V30 4734 C 423.967 -2.03459 0.358877 0
M  V30 4735 C 424.375 -1.58939 -1.02641 0
M  V30 4736 O 423.718 -0.769777 -1.66794 0
M  V30 4737 C 423.78 -3.5796 0.332393 0
M  V30 4738 C 423.444 -4.25644 1.66362 0
M  V30 4739 C 424.441 -4.49205 2.61746 0
M  V30 4740 C 422.126 -4.63313 1.94027 0
M  V30 4741 C 424.12 -5.09503 3.82996 0
M  V30 4742 C 421.807 -5.2333 3.15546 0
M  V30 4743 C 422.805 -5.46363 4.0985 0
M  V30 4744 O 422.493 -6.05122 5.29228 0
M  V30 4745 H 422.225 -0.659767 0.147254 0
M  V30 4746 H 424.779 -1.76111 1.05708 0
M  V30 4747 H 423.009 -3.84388 -0.422237 0
M  V30 4748 H 424.698 -4.05852 -0.0625389 0
M  V30 4749 H 425.464 -4.20508 2.41657 0
M  V30 4750 H 421.343 -4.44715 1.21448 0
M  V30 4751 H 424.887 -5.27397 4.56617 0
M  V30 4752 H 420.784 -5.51451 3.35517 0
M  V30 4753 H 421.552 -6.23595 5.30161 0
M  V30 4754 N 424.215 -0.530993 -1.48385 0
M  V30 4755 C 425.148 0.278511 -2.26494 0
M  V30 4756 C 426.126 0.943905 -1.32398 0
M  V30 4757 O 427.31 0.968098 -1.61741 0
M  V30 4758 C 424.437 1.39453 -3.08659 0
M  V30 4759 C 423.483 0.840434 -4.18137 0
M  V30 4760 S 424.316 -0.292496 -5.34701 0
M  V30 4761 C 425.472 0.825973 -6.20426 0
M  V30 4762 H 425.705 -0.384365 -2.94805 0
M  V30 4763 H 423.238 -0.316799 -1.51115 0
M  V30 4764 H 425.196 2.03382 -3.56575 0
M  V30 4765 H 423.857 2.02913 -2.3976 0
M  V30 4766 H 423.05 1.67769 -4.75257 0
M  V30 4767 H 422.652 0.277819 -3.72967 0
M  V30 4768 H 424.944 1.72438 -6.55188 0
M  V30 4769 H 425.887 0.292728 -7.07495 0
M  V30 4770 H 426.295 1.10683 -5.53543 0
M  V30 4771 N 425.693 1.55336 -0.266172 0
M  V30 4772 C 427.109 1.59356 0.0882065 0
M  V30 4773 C 427.309 1.2834 1.55342 0
M  V30 4774 O 426.365 1.03996 2.30089 0
M  V30 4775 C 427.678 2.99409 -0.278364 0
M  V30 4776 C 429.226 3.12196 -0.224243 0
M  V30 4777 C 429.701 4.545 -0.565123 0
M  V30 4778 N 431.192 4.60313 -0.51634 0
M  V30 4779 C 431.927 5.68434 -0.753013 0
M  V30 4780 N 431.423 6.84738 -1.05383 0
M  V30 4781 N 433.216 5.57942 -0.682414 0
M  V30 4782 H 425.367 1.73764 -1.22147 0
M  V30 4783 H 427.63 0.809822 -0.492841 0
M  V30 4784 H 427.336 3.2691 -1.29703 0
M  V30 4785 H 427.21 3.75228 0.385186 0
M  V30 4786 H 429.597 2.84464 0.78512 0
M  V30 4787 H 429.678 2.38609 -0.921922 0
M  V30 4788 H 429.322 4.82956 -1.57213 0
M  V30 4789 H 429.252 5.26374 0.154248 0
M  V30 4790 H 431.743 3.7676 -0.29335 0
M  V30 4791 H 432.056 7.63088 -1.22133 0
M  V30 4792 H 430.401 6.86375 -1.09151 0
M  V30 4793 H 433.592 4.65958 -0.44731 0
M  V30 4794 H 433.765 6.4213 -0.870248 0
M  V30 4795 N 427.171 -0.0066808 1.57599 0
M  V30 4796 C 428.419 -0.691552 1.899 0
M  V30 4797 C 428.74 -1.74682 0.866672 0
M  V30 4798 O 428.01 -1.95661 -0.0968189 0
M  V30 4799 H 426.59 -0.258416 0.700878 0
M  V30 4800 H 429.252 0.0326655 1.94873 0
M  V30 4801 H 428.348 -1.16702 2.8946 0
M  V30 4802 N 428.649 -1.55105 -0.279332 0
M  V30 4803 C 429.897 -1.75066 -1.00977 0
M  V30 4804 C 430.218 -0.551276 -1.87045 0
M  V30 4805 O 429.488 0.433984 -1.91032 0
M  V30 4806 H 428.068 -0.645578 -0.375816 0
M  V30 4807 H 430.73 -1.92497 -0.305089 0
M  V30 4808 H 429.826 -2.64894 -1.65038 0
M  V30 4809 N 430.127 0.543554 -1.4793 0
M  V30 4810 C 431.357 1.32324 -1.58663 0
M  V30 4811 C 431.765 1.8766 -0.240896 0
M  V30 4812 O 431.108 1.66411 0.778011 0
M  V30 4813 C 431.17 2.52094 -2.56299 0
M  V30 4814 C 430.834 2.17944 -4.01683 0
M  V30 4815 C 431.831 1.74422 -4.89768 0
M  V30 4816 C 429.516 2.28884 -4.47121 0
M  V30 4817 C 431.51 1.42287 -6.21316 0
M  V30 4818 C 429.197 1.96361 -5.78693 0
M  V30 4819 C 430.195 1.53132 -6.65612 0
M  V30 4820 O 429.883 1.21029 -7.94737 0
M  V30 4821 H 429.615 0.409174 -0.538101 0
M  V30 4822 H 432.169 0.663887 -1.94375 0
M  V30 4823 H 430.399 3.20965 -2.15681 0
M  V30 4824 H 432.088 3.14165 -2.57012 0
M  V30 4825 H 432.854 1.65452 -4.55907 0
M  V30 4826 H 428.733 2.61488 -3.79664 0
M  V30 4827 H 432.277 1.08472 -6.89115 0
M  V30 4828 H 428.174 2.04967 -6.12094 0
M  V30 4829 H 428.942 1.34543 -8.07366 0
M  V30 4830 N 431.605 1.3629 0.791371 0
M  V30 4831 C 432.833 1.33562 1.58016 0
M  V30 4832 C 433.248 -0.0835616 1.88615 0
M  V30 4833 O 432.605 -1.0399 1.49974 0
M  V30 4834 C 432.656 2.15517 2.90232 0
M  V30 4835 O 432.377 3.51902 2.60953 0
M  V30 4836 C 433.878 2.20546 3.84544 0
M  V30 4837 H 431.098 0.458226 0.490173 0
M  V30 4838 H 433.642 1.79361 0.982345 0
M  V30 4839 H 431.797 1.73278 3.46487 0
M  V30 4840 H 432.211 3.94644 3.4548 0
M  V30 4841 H 433.685 2.82252 4.74382 0
M  V30 4842 H 434.162 1.20838 4.2225 0
M  V30 4843 H 434.768 2.63013 3.34222 0
M  V30 4844 N 433.083 -1.0153 1.20538 0
M  V30 4845 C 434.046 -2.0826 0.957098 0
M  V30 4846 C 435.046 -1.60657 -0.0678655 0
M  V30 4847 O 436.236 -1.73385 0.168332 0
M  V30 4848 C 433.368 -3.38033 0.441188 0
M  V30 4849 H 434.561 -2.31719 1.90384 0
M  V30 4850 H 432.114 -1.1835 1.02093 0
M  V30 4851 H 432.849 -3.20249 -0.510961 0
M  V30 4852 H 432.634 -3.73911 1.18038 0
M  V30 4853 H 434.124 -4.16613 0.287009 0
M  V30 4854 N 434.561 -1.01147 -1.20859 0
M  V30 4855 C 435.81 -0.693214 -1.89413 0
M  V30 4856 C 436.123 0.779969 -1.79376 0
M  V30 4857 O 437.329 1.21057 -2.43017 0
M  V30 4858 C 435.785 -1.18949 -3.39675 0
M  V30 4859 C 435.393 -2.68921 -3.58309 0
M  V30 4860 C 437.137 -0.94642 -4.13815 0
M  V30 4861 C 435.044 -3.12056 -5.0237 0
M  V30 4862 H 433.974 -0.255595 -0.709357 0
M  V30 4863 H 436.625 -1.22349 -1.36759 0
M  V30 4864 H 435.007 -0.587228 -3.91622 0
M  V30 4865 H 436.181 -3.34652 -3.16772 0
M  V30 4866 H 434.496 -2.91314 -2.97532 0
M  V30 4867 H 437.093 -1.24417 -5.20023 0
M  V30 4868 H 437.436 0.117219 -4.16135 0
M  V30 4869 H 437.969 -1.5118 -3.67953 0
M  V30 4870 H 434.708 -4.17674 -5.05202 0
M  V30 4871 H 434.228 -2.51041 -5.44737 0
M  V30 4872 H 435.907 -3.04403 -5.70918 0
M  V30 4873 N 436.039 1.36541 -0.78704 0
M  V30 4874 C 436.987 2.31965 -0.171724 0
M  V30 4875 C 437.981 1.55689 0.667631 0
M  V30 4876 O 439.187 1.70969 0.562981 0
M  V30 4877 H 435.562 0.751101 -0.0367545 0
M  V30 4878 H 437.533 2.81428 -0.992017 0
M  V30 4879 C 436.282 3.40968 0.680904 0
M  V30 4880 H 435.605 3.99775 0.0443961 0
M  V30 4881 H 437.045 4.10063 1.07815 0
M  V30 4882 C 435.504 2.82338 1.83813 0
M  V30 4883 O 436.034 2.74311 2.93456 0
M  V30 4884 N 434.24 2.39661 1.6435 0
M  V30 4885 H 433.787 2.46389 0.751668 0
M  V30 4886 H 433.745 2.00779 2.4194 0
M  V30 4887 N 437.518 0.538854 1.48102 0
M  V30 4888 C 438.466 -0.232325 2.31437 0
M  V30 4889 C 439.46 -0.927004 1.41785 0
M  V30 4890 O 440.666 -0.850378 1.58646 0
M  V30 4891 H 437.041 -0.0937916 0.746128 0
M  V30 4892 H 439.012 0.489986 2.9435 0
M  V30 4893 C 437.761 -1.26074 3.24038 0
M  V30 4894 H 437.084 -0.735609 3.92974 0
M  V30 4895 H 438.524 -1.77157 3.85216 0
M  V30 4896 C 436.983 -2.29902 2.46265 0
M  V30 4897 O 437.513 -3.36502 2.19384 0
M  V30 4898 N 435.719 -2.03348 2.07601 0
M  V30 4899 H 435.266 -1.16675 2.29662 0
M  V30 4900 H 435.224 -2.73038 1.55877 0
M  V30 4901 N 438.996 -1.55193 0.274407 0
M  V30 4902 C 440.226 -2.03692 -0.345442 0
M  V30 4903 C 440.634 -1.15224 -1.50067 0
M  V30 4904 O 439.977 -0.164749 -1.8296 0
M  V30 4905 C 440.039 -3.48325 -0.88939 0
M  V30 4906 C 439.703 -4.56794 0.137115 0
M  V30 4907 C 440.7 -5.11028 0.956378 0
M  V30 4908 C 438.385 -5.01568 0.27115 0
M  V30 4909 C 440.379 -6.08552 1.89587 0
M  V30 4910 C 438.066 -5.98918 1.21412 0
M  V30 4911 C 439.064 -6.52291 2.02498 0
M  V30 4912 O 438.752 -7.47738 2.952 0
M  V30 4913 H 438.484 -0.670893 -0.0829332 0
M  V30 4914 H 441.038 -2.01387 0.404056 0
M  V30 4915 H 439.268 -3.47867 -1.68895 0
M  V30 4916 H 440.957 -3.80167 -1.42225 0
M  V30 4917 H 441.723 -4.7725 0.863559 0
M  V30 4918 H 437.602 -4.5967 -0.349987 0
M  V30 4919 H 441.146 -6.50137 2.52918 0
M  V30 4920 H 437.043 -6.32114 1.30776 0
M  V30 4921 H 437.811 -7.65451 2.89874 0
M  V30 4922 N 440.474 -0.00167713 -1.576 0
M  V30 4923 C 441.404 0.988091 -2.11563 0
M  V30 4924 C 442.385 1.35736 -1.02517 0
M  V30 4925 O 443.57 1.44082 -1.30208 0
M  V30 4926 C 440.7 2.27941 -2.62031 0
M  V30 4927 C 439.654 2.0517 -3.75619 0
M  V30 4928 C 438.98 3.4033 -4.12407 0
M  V30 4929 C 440.28 1.41294 -5.02825 0
M  V30 4930 H 441.974 0.538771 -2.94513 0
M  V30 4931 H 439.52 0.257712 -1.41675 0
M  V30 4932 H 441.473 2.97539 -2.9841 0
M  V30 4933 H 440.197 2.74989 -1.76205 0
M  V30 4934 H 438.856 1.37998 -3.39635 0
M  V30 4935 H 438.504 3.85085 -3.23603 0
M  V30 4936 H 438.204 3.25909 -4.88935 0
M  V30 4937 H 439.728 4.1124 -4.51347 0
M  V30 4938 H 441.142 2.00851 -5.36965 0
M  V30 4939 H 439.539 1.37356 -5.84169 0
M  V30 4940 H 440.609 0.382362 -4.8339 0
M  V30 4941 N 441.952 1.55251 0.271103 0
M  V30 4942 C 443.201 1.75151 1.00025 0
M  V30 4943 C 443.514 0.561041 1.87381 0
M  V30 4944 O 444.72 0.642506 2.63788 0
M  V30 4945 C 443.176 3.09999 1.82835 0
M  V30 4946 C 442.784 4.3662 1.00336 0
M  V30 4947 C 444.528 3.39249 2.55168 0
M  V30 4948 C 442.435 5.62506 1.82595 0
M  V30 4949 H 441.365 0.652877 0.377183 0
M  V30 4950 H 444.016 1.81708 0.255843 0
M  V30 4951 H 442.398 2.97485 2.61378 0
M  V30 4952 H 443.572 4.60055 0.261959 0
M  V30 4953 H 441.887 4.14527 0.394486 0
M  V30 4954 H 444.484 4.3051 3.1712 0
M  V30 4955 H 444.827 2.59467 3.2555 0
M  V30 4956 H 445.36 3.52869 1.83653 0
M  V30 4957 H 442.099 6.45041 1.16631 0
M  V30 4958 H 441.619 5.43211 2.54327 0
M  V30 4959 H 443.298 6.00875 2.39913 0
M  V30 4960 N 443.43 -0.535701 1.48216 0
M  V30 4961 C 444.655 -1.32149 1.59848 0
M  V30 4962 C 445.08 -1.86338 0.256842 0
M  V30 4963 O 444.438 -1.64107 -0.770632 0
M  V30 4964 C 444.486 -2.45224 2.64381 0
M  V30 4965 O 443.59 -3.48093 2.21144 0
M  V30 4966 H 442.931 -0.391634 0.536208 0
M  V30 4967 H 445.461 -0.645202 1.94161 0
M  V30 4968 H 445.471 -2.91491 2.85476 0
M  V30 4969 H 444.146 -2.05143 3.61786 0
M  V30 4970 H 442.723 -3.07984 2.10239 0
M  V30 4971 N 444.908 -1.36708 -0.784132 0
M  V30 4972 C 445.856 -1.31533 -1.91838 0
M  V30 4973 C 446.85 -0.206205 -1.6814 0
M  V30 4974 O 448.056 -0.373519 -1.76082 0
M  V30 4975 H 444.431 -0.409613 -0.630651 0
M  V30 4976 H 446.402 -2.2731 -1.9332 0
M  V30 4977 C 445.151 -1.12679 -3.28936 0
M  V30 4978 H 444.474 -1.97274 -3.4774 0
M  V30 4979 H 445.914 -1.13106 -4.08636 0
M  V30 4980 C 444.373 0.168281 -3.36479 0
M  V30 4981 O 444.903 1.15625 -3.84699 0
M  V30 4982 N 443.109 0.214762 -2.89805 0
M  V30 4983 H 442.656 -0.589852 -2.50756 0
M  V30 4984 H 442.614 1.08094 -2.95234 0
M  V30 4985 N 446.386 1.0089 -1.21074 0
M  V30 4986 C 447.634 1.74262 -1.02358 0
M  V30 4987 C 447.955 1.89869 0.444393 0
M  V30 4988 O 447.225 1.44677 1.32081 0
M  V30 4989 H 445.805 0.645615 -0.375754 0
M  V30 4990 H 448.467 1.21596 -1.52317 0
M  V30 4991 H 447.563 2.74328 -1.4883 0
M  V30 4992 N 447.864 1.01787 1.20321 0
M  V30 4993 C 449.275 0.739307 1.71438 0
M  V30 4994 C 449.626 -0.742041 1.81627 0
M  V30 4995 O 448.751 -1.57903 1.47971 0
M  V30 4996 C 449.346 1.33538 3.11373 0
M  V30 4997 C 447.905 1.10566 3.59795 0
M  V30 4998 C 447.052 1.44028 2.36962 0
M  V30 4999 H 450.003 1.18718 1.05317 0
M  V30 5000 H 450.024 0.726611 3.73498 0
M  V30 5001 H 449.536 2.41352 3.03926 0
M  V30 5002 H 447.637 0.0452405 3.72573 0
M  V30 5003 H 447.75 1.78661 4.44542 0
M  V30 5004 H 446.114 0.85933 2.39766 0
M  V30 5005 H 446.897 2.52901 2.32155 0
M  V30 5006 N 449.342 -1.36122 0.79427 0
M  V30 5007 C 450.272 -2.32551 0.210328 0
M  V30 5008 C 451.253 -1.56884 -0.657386 0
M  V30 5009 O 452.438 -1.85014 -0.590207 0
M  V30 5010 C 449.568 -3.41128 -0.651819 0
M  V30 5011 C 448.522 -4.27842 0.116395 0
M  V30 5012 C 447.848 -5.2763 -0.86666 0
M  V30 5013 C 449.148 -5.05647 1.30837 0
M  V30 5014 H 450.842 -2.81636 1.01594 0
M  V30 5015 H 448.388 -1.35407 0.489981 0
M  V30 5016 H 450.341 -4.07581 -1.07031 0
M  V30 5017 H 449.065 -2.90622 -1.49019 0
M  V30 5018 H 447.724 -3.62952 0.515915 0
M  V30 5019 H 447.372 -4.73395 -1.70019 0
M  V30 5020 H 447.072 -5.86514 -0.35705 0
M  V30 5021 H 448.596 -5.96955 -1.28361 0
M  V30 5022 H 450.01 -5.65113 0.965393 0
M  V30 5023 H 448.407 -5.73967 1.75161 0
M  V30 5024 H 449.477 -4.37006 2.10128 0
M  V30 5025 N 450.82 -0.546701 -1.47814 0
M  V30 5026 C 451.768 0.220048 -2.31557 0
M  V30 5027 C 452.762 0.919472 -1.42275 0
M  V30 5028 O 453.968 0.841953 -1.59095 0
M  V30 5029 H 450.343 0.0898334 -0.746615 0
M  V30 5030 H 452.314 -0.505589 -2.94086 0
M  V30 5031 C 451.063 1.24353 -3.24702 0
M  V30 5032 H 450.386 0.714758 -3.93359 0
M  V30 5033 H 451.826 1.75112 -3.8615 0
M  V30 5034 C 450.285 2.28593 -2.47481 0
M  V30 5035 O 450.815 3.35334 -2.21165 0
M  V30 5036 N 449.021 2.02244 -2.08676 0
M  V30 5037 H 448.568 1.15455 -2.30278 0
M  V30 5038 H 448.526 2.72207 -1.57323 0
M  V30 5039 N 452.299 1.55045 -0.282633 0
M  V30 5040 C 453.247 2.24254 0.617478 0
M  V30 5041 C 454.241 1.24215 1.15183 0
M  V30 5042 O 455.447 1.42123 1.10459 0
M  V30 5043 H 451.822 0.719801 0.217693 0
M  V30 5044 H 453.793 2.98398 0.0110076 0
M  V30 5045 C 452.542 2.98281 1.78672 0
M  V30 5046 H 451.865 3.75053 1.38475 0
M  V30 5047 H 453.305 3.50017 2.393 0
M  V30 5048 C 451.764 2.04184 2.67975 0
M  V30 5049 O 452.294 1.59792 3.6855 0
M  V30 5050 N 450.5 1.70526 2.35307 0
M  V30 5051 H 450.047 2.06821 1.53567 0
M  V30 5052 H 450.005 1.07839 2.95327 0
M  V30 5053 N 453.777 0.010035 1.57597 0
M  V30 5054 C 455.188 -0.531426 1.78977 0
M  V30 5055 C 455.539 -1.73375 0.918454 0
M  V30 5056 O 454.664 -2.16047 0.123635 0
M  V30 5057 C 455.259 -0.97086 3.24592 0
M  V30 5058 C 453.818 -1.45756 3.47033 0
M  V30 5059 C 452.965 -0.413384 2.74201 0
M  V30 5060 H 455.916 0.236166 1.56933 0
M  V30 5061 H 455.937 -1.83633 3.33255 0
M  V30 5062 H 455.449 -0.0955893 3.87982 0
M  V30 5063 H 453.55 -2.35339 2.88871 0
M  V30 5064 H 453.663 -1.4781 4.55729 0
M  V30 5065 H 452.027 -0.877266 2.39115 0
M  V30 5066 H 452.81 0.453092 3.40297 0
M  V30 5067 N 455.255 -1.55392 -0.262866 0
M  V30 5068 C 456.203 -1.8977 -1.345 0
M  V30 5069 C 457.197 -0.775063 -1.50629 0
M  V30 5070 O 458.403 -0.959519 -1.52293 0
M  V30 5071 H 454.778 -0.602467 -0.450041 0
M  V30 5072 H 456.749 -2.80147 -1.02762 0
M  V30 5073 C 455.498 -2.19501 -2.69657 0
M  V30 5074 H 454.821 -3.05378 -2.5804 0
M  V30 5075 H 456.261 -2.47469 -3.44289 0
M  V30 5076 C 454.72 -1.00597 -3.21531 0
M  V30 5077 O 455.25 -0.245768 -4.00947 0
M  V30 5078 N 453.456 -0.800911 -2.79345 0
M  V30 5079 H 453.003 -1.42079 -2.14875 0
M  V30 5080 H 452.961 -0.00697996 -3.14399 0
M  V30 5081 N 456.733 0.527833 -1.48498 0
M  V30 5082 C 458.144 1.10975 -1.50138 0
M  V30 5083 C 458.495 1.943 -0.272378 0
M  V30 5084 O 457.62 2.07319 0.620301 0
M  V30 5085 C 458.215 2.01927 -2.72049 0
M  V30 5086 C 456.774 2.55332 -2.76554 0
M  V30 5087 C 455.921 1.32341 -2.43683 0
M  V30 5088 H 458.872 0.312986 -1.55583 0
M  V30 5089 H 458.893 2.86244 -2.50689 0
M  V30 5090 H 458.405 1.41254 -3.61481 0
M  V30 5091 H 456.506 3.19721 -1.91336 0
M  V30 5092 H 456.619 2.94319 -3.78038 0
M  V30 5093 H 454.983 1.63989 -1.94884 0
M  V30 5094 H 455.766 0.734165 -3.35358 0
M  V30 5095 N 458.211 1.37122 0.776871 0
M  V30 5096 C 459.121 1.34651 1.9211 0
M  V30 5097 C 460.137 0.246824 1.7224 0
M  V30 5098 O 461.313 0.48134 1.95563 0
M  V30 5099 C 458.378 1.14748 3.2716 0
M  V30 5100 C 457.439 2.34308 3.5972 0
M  V30 5101 C 456.672 2.15345 4.88326 0
M  V30 5102 O 456.895 1.13507 5.58992 0
M  V30 5103 O 455.829 3.03414 5.1983 0
M  V30 5104 H 459.655 2.31013 1.97146 0
M  V30 5105 H 457.24 1.17799 0.918901 0
M  V30 5106 H 459.122 1.05616 4.0795 0
M  V30 5107 H 457.797 0.214562 3.22988 0
M  V30 5108 H 456.704 2.49011 2.79185 0
M  V30 5109 H 458.037 3.26149 3.68629 0
M  V30 5110 N 459.689 -1.00246 1.21608 0
M  V30 5111 C 460.619 -2.10921 1.00172 0
M  V30 5112 C 461.6 -1.69938 -0.0741587 0
M  V30 5113 O 462.785 -1.94009 0.0861753 0
M  V30 5114 C 459.915 -3.42618 0.568355 0
M  V30 5115 C 458.869 -3.97407 1.58909 0
M  V30 5116 C 458.195 -5.25038 1.01187 0
M  V30 5117 C 459.495 -4.2918 2.97661 0
M  V30 5118 H 461.189 -2.29112 1.92739 0
M  V30 5119 H 458.735 -1.10101 0.928102 0
M  V30 5120 H 460.688 -4.19444 0.405555 0
M  V30 5121 H 459.412 -3.24227 -0.392961 0
M  V30 5122 H 458.071 -3.22703 1.73949 0
M  V30 5123 H 457.719 -5.02982 0.0421965 0
M  V30 5124 H 457.419 -5.62661 1.6937 0
M  V30 5125 H 458.943 -6.04507 0.860448 0
M  V30 5126 H 460.357 -4.96839 2.86049 0
M  V30 5127 H 458.754 -4.77952 3.6288 0
M  V30 5128 H 459.824 -3.3735 3.48315 0
M  V30 5129 N 461.167 -1.02423 -1.1978 0
M  V30 5130 C 462.444 -0.632802 -1.85081 0
M  V30 5131 C 462.824 0.888745 -1.9148 0
M  V30 5132 O 462.172 1.78357 -1.42832 0
M  V30 5133 C 462.382 -1.28947 -3.24305 0
M  V30 5134 C 463.73 -1.40976 -4.00513 0
M  V30 5135 O 464.754 -1.24628 -3.33686 0
M  V30 5136 O 463.613 -1.67467 -5.20209 0
M  V30 5137 H 460.707 -0.219348 -0.79738 0
M  V30 5138 H 463.253 -1.12209 -1.27307 0
M  V30 5139 H 462.025 -2.3288 -3.14456 0
M  V30 5140 H 461.648 -0.787748 -3.89718 0
M  V30 5141 N 462.645 1.35699 -0.801477 0
M  V30 5142 C 463.87 2.03687 -0.390678 0
M  V30 5143 C 464.295 1.60015 0.988778 0
M  V30 5144 O 463.653 0.774357 1.63931 0
M  V30 5145 C 463.701 3.57439 -0.476404 0
M  V30 5146 O 462.805 4.09208 0.512106 0
M  V30 5147 H 462.146 0.64344 -0.163956 0
M  V30 5148 H 464.676 1.73403 -1.08594 0
M  V30 5149 H 464.686 4.06544 -0.344357 0
M  V30 5150 H 463.361 3.88576 -1.48262 0
M  V30 5151 H 461.938 3.7134 0.340721 0
M  V30 5152 N 464.123 0.554532 1.47522 0
M  V30 5153 C 465.07 -0.19466 2.29978 0
M  V30 5154 C 466.04 -0.910882 1.38896 0
M  V30 5155 O 467.225 -0.907102 1.67858 0
M  V30 5156 C 464.365 -1.22035 3.22802 0
M  V30 5157 C 463.478 -0.510474 4.28973 0
M  V30 5158 C 462.613 -1.52123 5.08952 0
M  V30 5159 C 461.652 -0.796173 6.069 0
M  V30 5160 N 460.789 -1.75363 6.79847 0
M  V30 5161 H 465.629 0.51461 2.93523 0
M  V30 5162 H 463.166 0.265607 1.44682 0
M  V30 5163 H 465.124 -1.8276 3.7504 0
M  V30 5164 H 463.754 -1.89769 2.61127 0
M  V30 5165 H 462.806 0.211234 3.79813 0
M  V30 5166 H 464.118 0.0576503 4.98767 0
M  V30 5167 H 463.272 -2.20207 5.65326 0
M  V30 5168 H 462.011 -2.12327 4.39054 0
M  V30 5169 H 461.016 -0.101388 5.49707 0
M  V30 5170 H 462.241 -0.199911 6.78806 0
M  V30 5171 H 460.187 -2.3443 6.12682 0
M  V30 5172 H 460.104 -1.23759 7.45801 0
M  V30 5173 H 461.372 -2.4257 7.40797 0
M  V30 5174 N 465.601 -1.54893 0.290851 0
M  V30 5175 C 466.847 -2.0023 -0.321867 0
M  V30 5176 C 467.18 -1.179 -1.54316 0
M  V30 5177 O 466.455 -0.25293 -1.92848 0
M  V30 5178 C 466.738 -3.53456 -0.688515 0
M  V30 5179 C 466.591 -4.46532 0.541209 0
M  V30 5180 C 467.91 -4.13057 -1.51895 0
M  V30 5181 H 465.029 -0.727891 -0.115515 0
M  V30 5182 H 467.671 -1.85722 0.400931 0
M  V30 5183 H 465.821 -3.6595 -1.30433 0
M  V30 5184 H 467.493 -4.4596 1.17973 0
M  V30 5185 H 465.736 -4.17545 1.17636 0
M  V30 5186 H 466.407 -5.51475 0.240675 0
M  V30 5187 H 468.883 -4.03937 -0.99872 0
M  V30 5188 H 467.759 -5.20448 -1.74429 0
M  V30 5189 H 468.02 -3.64284 -2.50498 0
M  V30 5190 N 467.08 -0.0183926 -1.57589 0
M  V30 5191 C 468.028 0.985111 -2.10709 0
M  V30 5192 C 469.022 1.34397 -1.0312 0
M  V30 5193 O 470.228 1.32746 -1.21567 0
M  V30 5194 H 466.603 0.335418 -0.673052 0
M  V30 5195 H 468.574 0.511689 -2.9398 0
M  V30 5196 C 467.323 2.26202 -2.64061 0
M  V30 5197 H 466.646 1.9946 -3.4649 0
M  V30 5198 H 468.086 2.94652 -3.04887 0
M  V30 5199 C 466.545 2.98444 -1.5631 0
M  V30 5200 O 467.075 3.90142 -0.956674 0
M  V30 5201 N 465.281 2.6059 -1.28612 0
M  V30 5202 H 464.828 1.86101 -1.78112 0
M  V30 5203 H 464.786 3.09238 -0.567406 0
M  V30 5204 N 468.558 1.5553 0.254621 0
M  V30 5205 C 469.506 1.9048 1.33492 0
M  V30 5206 C 470.5 0.78304 1.50216 0
M  V30 5207 O 471.706 0.967582 1.51782 0
M  V30 5208 H 468.081 0.604846 0.44684 0
M  V30 5209 H 470.052 2.80688 1.01275 0
M  V30 5210 C 468.801 2.20928 2.68489 0
M  V30 5211 H 468.124 3.06742 2.56417 0
M  V30 5212 H 469.564 2.49291 3.42972 0
M  V30 5213 C 468.023 1.023 3.20993 0
M  V30 5214 O 468.553 0.267027 4.00811 0
M  V30 5215 N 466.759 0.815714 2.78917 0
M  V30 5216 H 466.306 1.43217 2.14119 0
M  V30 5217 H 466.264 0.0236532 3.14391 0
M  V30 5218 N 470.036 -0.519951 1.48776 0
M  V30 5219 C 471.285 -1.27175 1.56555 0
M  V30 5220 C 471.598 -1.9401 0.248869 0
M  V30 5221 O 472.804 -2.70725 0.205004 0
M  V30 5222 C 471.26 -2.30811 2.76142 0
M  V30 5223 C 470.868 -1.7 4.14493 0
M  V30 5224 C 472.612 -3.06937 2.9324 0
M  V30 5225 C 470.519 -2.71635 5.25327 0
M  V30 5226 H 469.449 -0.478329 0.582853 0
M  V30 5227 H 472.1 -0.547916 1.75129 0
M  V30 5228 H 470.482 -3.06274 2.51023 0
M  V30 5229 H 471.656 -1.00658 4.49672 0
M  V30 5230 H 469.971 -1.06331 4.02595 0
M  V30 5231 H 472.568 -3.82905 3.73213 0
M  V30 5232 H 472.911 -3.63409 2.03075 0
M  V30 5233 H 473.444 -2.38589 3.18308 0
M  V30 5234 H 470.183 -2.1997 6.1749 0
M  V30 5235 H 469.703 -3.39275 4.94624 0
M  V30 5236 H 471.382 -3.34429 5.53865 0
M  V30 5237 N 471.514 -1.37532 -0.769588 0
M  V30 5238 C 472.424 -1.35668 -1.91393 0
M  V30 5239 C 473.44 -0.255954 -1.72107 0
M  V30 5240 O 474.616 -0.491704 -1.95305 0
M  V30 5241 C 471.681 -1.16481 -3.26547 0
M  V30 5242 C 470.742 -2.36212 -3.58472 0
M  V30 5243 C 469.975 -2.17932 -4.87177 0
M  V30 5244 O 470.198 -1.1647 -5.58382 0
M  V30 5245 O 469.132 -3.06167 -5.18214 0
M  V30 5246 H 472.958 -2.32055 -1.95918 0
M  V30 5247 H 470.543 -1.18284 -0.912641 0
M  V30 5248 H 472.425 -1.07778 -4.07384 0
M  V30 5249 H 471.1 -0.231687 -3.2287 0
M  V30 5250 H 470.007 -2.50488 -2.77861 0
M  V30 5251 H 471.34 -3.281 -3.66894 0
M  V30 5252 N 472.992 0.995999 -1.22138 0
M  V30 5253 C 473.94 2.10673 -0.985876 0
M  V30 5254 C 474.934 1.69255 0.0699553 0
M  V30 5255 O 476.14 1.79812 -0.0822176 0
M  V30 5256 H 472.515 0.688865 -0.30161 0
M  V30 5257 H 474.486 2.27711 -1.92848 0
M  V30 5258 C 473.235 3.42881 -0.576909 0
M  V30 5259 H 472.558 3.75191 -1.38101 0
M  V30 5260 H 473.998 4.21589 -0.451518 0
M  V30 5261 C 472.457 3.29265 0.713196 0
M  V30 5262 O 472.987 3.60777 1.76643 0
M  V30 5263 N 471.193 2.82456 0.683162 0
M  V30 5264 H 470.74 2.5701 -0.174242 0
M  V30 5265 H 470.698 2.73727 1.54663 0
M  V30 5266 N 474.47 1.03057 1.19235 0
M  V30 5267 C 475.433 0.617418 2.20727 0
M  V30 5268 C 476.433 -0.319856 1.57587 0
M  V30 5269 O 477.623 -0.106633 1.73873 0
M  V30 5270 C 474.755 -0.096296 3.40764 0
M  V30 5271 H 475.948 1.51544 2.58794 0
M  V30 5272 H 473.501 0.821949 1.32942 0
M  V30 5273 H 474.236 -1.00859 3.08217 0
M  V30 5274 H 474.021 0.577217 3.87828 0
M  V30 5275 H 475.511 -0.372219 4.15938 0
M  V30 5276 N 475.948 -1.35272 0.808662 0
M  V30 5277 C 476.878 -2.32315 0.234981 0
M  V30 5278 C 477.859 -1.57572 -0.64071 0
M  V30 5279 O 479.044 -1.8563 -0.570551 0
M  V30 5280 C 476.174 -3.41801 -0.615601 0
M  V30 5281 C 475.128 -4.27694 0.161767 0
M  V30 5282 C 474.454 -5.28519 -0.810649 0
M  V30 5283 C 475.754 -5.04231 1.36193 0
M  V30 5284 H 477.448 -2.80543 1.04575 0
M  V30 5285 H 474.994 -1.3488 0.504315 0
M  V30 5286 H 476.947 -4.08693 -1.02702 0
M  V30 5287 H 475.671 -2.92186 -1.45928 0
M  V30 5288 H 474.33 -3.62384 0.554382 0
M  V30 5289 H 473.978 -4.75171 -1.64988 0
M  V30 5290 H 473.678 -5.8686 -0.294822 0
M  V30 5291 H 475.202 -5.98283 -1.22023 0
M  V30 5292 H 476.616 -5.64058 1.02528 0
M  V30 5293 H 475.013 -5.72077 1.81239 0
M  V30 5294 H 476.083 -4.34753 2.14751 0
M  V30 5295 N 477.426 -0.562348 -1.47226 0
M  V30 5296 C 478.373 0.182461 -2.30078 0
M  V30 5297 C 479.343 0.903503 -1.39377 0
M  V30 5298 O 480.528 0.898188 -1.68337 0
M  V30 5299 C 477.668 1.20322 -3.23445 0
M  V30 5300 C 476.781 0.487717 -4.29238 0
M  V30 5301 C 475.916 1.49422 -5.09752 0
M  V30 5302 C 474.955 0.763976 -6.07314 0
M  V30 5303 N 474.092 1.71755 -6.80768 0
M  V30 5304 H 478.932 -0.530169 -2.93246 0
M  V30 5305 H 476.469 -0.273276 -1.44539 0
M  V30 5306 H 478.427 1.80768 -3.76004 0
M  V30 5307 H 477.057 1.88382 -2.6213 0
M  V30 5308 H 476.109 -0.231374 -3.79696 0
M  V30 5309 H 477.421 -0.0841003 -4.98729 0
M  V30 5310 H 476.575 2.17206 -5.66486 0
M  V30 5311 H 475.314 2.09995 -4.40174 0
M  V30 5312 H 474.319 0.0722344 -5.49753 0
M  V30 5313 H 475.544 0.16391 -6.78902 0
M  V30 5314 H 473.49 2.31177 -6.13916 0
M  V30 5315 H 473.407 1.19802 -7.46447 0
M  V30 5316 H 474.675 2.38638 -7.42073 0
M  V30 5317 N 478.904 1.54736 -0.299062 0
M  V30 5318 C 479.834 2.26409 0.571085 0
M  V30 5319 C 480.815 1.2629 1.13951 0
M  V30 5320 O 482 1.55059 1.16921 0
M  V30 5321 C 479.13 3.00338 1.74396 0
M  V30 5322 C 478.084 4.07588 1.30599 0
M  V30 5323 C 477.41 4.69222 2.56387 0
M  V30 5324 C 478.71 5.20455 0.438645 0
M  V30 5325 H 480.404 2.99388 -0.0266991 0
M  V30 5326 H 477.95 1.43993 -0.0142812 0
M  V30 5327 H 479.903 3.49198 2.35878 0
M  V30 5328 H 478.627 2.24934 2.36796 0
M  V30 5329 H 477.286 3.59575 0.71424 0
M  V30 5330 H 476.934 3.9046 3.17097 0
M  V30 5331 H 476.634 5.41653 2.27784 0
M  V30 5332 H 478.158 5.20844 3.18675 0
M  V30 5333 H 479.572 5.65221 0.959085 0
M  V30 5334 H 477.969 5.99594 0.246466 0
M  V30 5335 H 479.039 4.8192 -0.536738 0
M  V30 5336 N 480.382 0.0267497 1.57577 0
M  V30 5337 C 481.61 -0.662661 1.96001 0
M  V30 5338 C 482.025 -1.65799 0.903117 0
M  V30 5339 O 481.382 -1.82135 -0.115317 0
M  V30 5340 C 481.433 -1.37112 3.34488 0
M  V30 5341 O 481.154 -0.415683 4.36123 0
M  V30 5342 C 482.655 -2.15257 3.8753 0
M  V30 5343 H 479.875 -0.18287 0.6456 0
M  V30 5344 H 482.419 0.0858116 2.0432 0
M  V30 5345 H 480.574 -2.07101 3.27395 0
M  V30 5346 H 480.988 -0.918496 5.16395 0
M  V30 5347 H 482.462 -2.60285 4.86781 0
M  V30 5348 H 482.939 -2.99063 3.21649 0
M  V30 5349 H 483.545 -1.50231 3.97883 0
M  V30 5350 N 481.861 -1.55662 -0.24637 0
M  V30 5351 C 483.272 -1.67953 -0.81539 0
M  V30 5352 C 483.623 -0.624302 -1.86002 0
M  V30 5353 O 482.748 0.229328 -2.15181 0
M  V30 5354 C 483.343 -3.04484 -1.48576 0
M  V30 5355 C 481.902 -3.18713 -2.00248 0
M  V30 5356 C 481.049 -2.6383 -0.853766 0
M  V30 5357 H 484 -1.58685 -0.0221692 0
M  V30 5358 H 484.021 -2.98959 -2.3538 0
M  V30 5359 H 483.533 -3.81264 -0.725222 0
M  V30 5360 H 481.634 -2.46757 -2.79181 0
M  V30 5361 H 481.747 -4.25628 -2.1995 0
M  V30 5362 H 480.111 -2.21667 -1.25442 0
M  V30 5363 H 480.894 -3.43135 -0.106302 0
M  V30 5364 N 483.339 0.512053 -1.4905 0
M  V30 5365 C 484.588 1.26343 -1.57227 0
M  V30 5366 C 484.901 1.93876 -0.259155 0
M  V30 5367 O 486.107 2.70612 -0.219358 0
M  V30 5368 C 484.563 2.29343 -2.77362 0
M  V30 5369 C 484.171 1.67799 -4.15388 0
M  V30 5370 C 485.915 3.05378 -2.94864 0
M  V30 5371 C 483.822 2.68845 -5.2676 0
M  V30 5372 H 482.752 0.475231 -0.585382 0
M  V30 5373 H 485.403 0.53862 -1.75417 0
M  V30 5374 H 483.785 3.04938 -2.52643 0
M  V30 5375 H 484.959 0.982715 -4.50199 0
M  V30 5376 H 483.274 1.04194 -4.03153 0
M  V30 5377 H 485.871 3.80921 -3.75238 0
M  V30 5378 H 486.214 3.62327 -2.05 0
M  V30 5379 H 486.747 2.36898 -3.19569 0
M  V30 5380 H 483.486 2.16692 -6.18647 0
M  V30 5381 H 483.006 3.36647 -4.96416 0
M  V30 5382 H 484.685 3.31487 -5.5563 0
M  V30 5383 N 484.817 1.37938 0.762283 0
M  V30 5384 C 486.228 1.30094 1.33912 0
M  V30 5385 C 486.579 -0.0472026 1.96143 0
M  V30 5386 O 485.704 -0.94917 1.94473 0
M  V30 5387 C 486.299 2.35592 2.43478 0
M  V30 5388 C 484.858 2.31353 2.96905 0
M  V30 5389 C 484.005 2.18919 1.70205 0
M  V30 5390 H 486.956 1.48423 0.561816 0
M  V30 5391 H 486.977 2.00806 3.23199 0
M  V30 5392 H 486.489 3.33701 1.98155 0
M  V30 5393 H 484.59 1.36799 3.46579 0
M  V30 5394 H 484.703 3.25147 3.51875 0
M  V30 5395 H 483.067 1.65624 1.93496 0
M  V30 5396 H 483.85 3.18956 1.26973 0
M  V30 5397 N 486.295 -0.989507 1.22664 0
M  V30 5398 C 487.52 -1.77031 1.08051 0
M  V30 5399 C 487.945 -1.84535 -0.364483 0
M  V30 5400 O 487.303 -1.3003 -1.2634 0
M  V30 5401 C 487.351 -3.18 1.70024 0
M  V30 5402 O 486.455 -4.01161 0.956216 0
M  V30 5403 H 485.796 -0.545008 0.379292 0
M  V30 5404 H 488.326 -1.24277 1.62531 0
M  V30 5405 H 488.336 -3.68616 1.74888 0
M  V30 5406 H 487.011 -3.11853 2.75174 0
M  V30 5407 H 485.588 -3.59687 0.98384 0
M  V30 5408 N 487.773 -1.03688 -1.18687 0
M  V30 5409 C 488.721 -0.618292 -2.24232 0
M  V30 5410 C 489.715 0.353045 -1.6568 0
M  V30 5411 O 490.921 0.220749 -1.78641 0
M  V30 5412 H 487.296 -0.181711 -0.729716 0
M  V30 5413 H 489.267 -1.51893 -2.56848 0
M  V30 5414 C 488.016 0.00677342 -3.47699 0
M  V30 5415 H 487.339 -0.731692 -3.93047 0
M  V30 5416 H 488.779 0.262492 -4.23187 0
M  V30 5417 C 487.238 1.25572 -3.12623 0
M  V30 5418 O 487.768 2.34691 -3.26011 0
M  V30 5419 N 485.974 1.14755 -2.66982 0
M  V30 5420 H 485.521 0.259601 -2.56289 0
M  V30 5421 H 485.479 1.98412 -2.43885 0
M  V30 5422 N 489.251 1.34841 -0.815825 0
M  V30 5423 C 490.181 2.32187 -0.247298 0
M  V30 5424 C 491.162 1.5791 0.632344 0
M  V30 5425 O 492.347 1.8593 0.560698 0
M  V30 5426 C 489.477 3.42122 0.597466 0
M  V30 5427 C 488.431 4.27602 -0.184446 0
M  V30 5428 C 487.757 5.28942 0.782609 0
M  V30 5429 C 489.057 5.03502 -1.38865 0
M  V30 5430 H 490.751 2.79985 -1.06061 0
M  V30 5431 H 488.297 1.34611 -0.511461 0
M  V30 5432 H 490.25 4.09232 1.00533 0
M  V30 5433 H 488.974 2.92956 1.44376 0
M  V30 5434 H 487.633 3.62085 -0.573592 0
M  V30 5435 H 487.281 4.7604 1.62466 0
M  V30 5436 H 486.981 5.87008 0.263695 0
M  V30 5437 H 488.505 5.98922 1.18848 0
M  V30 5438 H 489.919 5.63506 -1.05518 0
M  V30 5439 H 488.316 5.71108 -1.8427 0
M  V30 5440 H 489.386 4.33608 -2.17054 0
M  V30 5441 N 490.729 0.570148 1.46925 0
M  V30 5442 C 491.978 0.0487352 2.01641 0
M  V30 5443 C 492.291 -1.31433 1.44861 0
M  V30 5444 O 493.497 -1.92638 1.91318 0
M  V30 5445 C 491.953 0.0365817 3.59881 0
M  V30 5446 C 491.561 1.39719 4.25655 0
M  V30 5447 C 493.305 -0.431545 4.22301 0
M  V30 5448 C 491.212 1.34345 5.75939 0
M  V30 5449 H 490.142 0.0144492 0.753862 0
M  V30 5450 H 492.793 0.719928 1.68788 0
M  V30 5451 H 491.175 -0.700522 3.89755 0
M  V30 5452 H 492.349 2.15303 4.07408 0
M  V30 5453 H 490.664 1.80431 3.75278 0
M  V30 5454 H 493.261 -0.490354 5.32447 0
M  V30 5455 H 493.604 -1.44638 3.90366 0
M  V30 5456 H 494.137 0.251102 3.97007 0
M  V30 5457 H 490.876 2.33469 6.12513 0
M  V30 5458 H 490.396 0.629615 5.96486 0
M  V30 5459 H 492.075 1.051 6.38407 0
M  V30 5460 N 492.207 -1.54576 0.307264 0
M  V30 5461 C 493.453 -2.0056 -0.300612 0
M  V30 5462 C 493.786 -1.1953 -1.53057 0
M  V30 5463 O 493.061 -0.27337 -1.92569 0
M  V30 5464 C 493.344 -3.54167 -0.650987 0
M  V30 5465 C 493.197 -4.45933 0.588539 0
M  V30 5466 C 494.516 -4.14645 -1.47506 0
M  V30 5467 H 491.635 -0.729075 -0.107788 0
M  V30 5468 H 494.277 -1.85286 0.420606 0
M  V30 5469 H 492.427 -3.67313 -1.26544 0
M  V30 5470 H 494.099 -4.44683 1.22697 0
M  V30 5471 H 492.342 -4.16274 1.22058 0
M  V30 5472 H 493.013 -5.51189 0.299153 0
M  V30 5473 H 495.489 -4.04973 -0.955821 0
M  V30 5474 H 494.365 -5.22269 -1.68899 0
M  V30 5475 H 494.626 -3.66921 -2.4662 0
M  V30 5476 N 493.685 -0.035106 -1.57561 0
M  V30 5477 C 494.915 0.651312 -1.96065 0
M  V30 5478 C 495.323 1.6585 -0.910514 0
M  V30 5479 O 494.666 1.83336 0.11552 0
M  V30 5480 C 494.728 1.40897 -3.30739 0
M  V30 5481 C 494.392 0.559436 -4.53563 0
M  V30 5482 C 495.389 -0.16778 -5.19629 0
M  V30 5483 C 493.074 0.495079 -4.99854 0
M  V30 5484 C 495.068 -0.947963 -6.30311 0
M  V30 5485 C 492.755 -0.288804 -6.10417 0
M  V30 5486 C 493.753 -1.00903 -6.75505 0
M  V30 5487 O 493.441 -1.78005 -7.83945 0
M  V30 5488 H 493.173 0.184036 -0.650467 0
M  V30 5489 H 495.727 -0.0929677 -2.05189 0
M  V30 5490 H 493.957 2.19852 -3.18123 0
M  V30 5491 H 495.646 1.98407 -3.54104 0
M  V30 5492 H 496.412 -0.12743 -4.84833 0
M  V30 5493 H 492.291 1.04524 -4.48994 0
M  V30 5494 H 495.835 -1.51064 -6.81047 0
M  V30 5495 H 491.732 -0.33085 -6.44652 0
M  V30 5496 H 492.5 -1.70046 -8.00641 0
M  V30 5497 N 495.163 1.55791 0.238111 0
M  V30 5498 C 496.579 1.48411 0.587045 0
M  V30 5499 C 496.779 0.72702 1.87927 0
M  V30 5500 O 495.835 0.259942 2.51158 0
M  V30 5501 C 497.148 2.92873 0.681623 0
M  V30 5502 C 498.696 3.03295 0.773363 0
M  V30 5503 C 499.171 4.49082 0.899428 0
M  V30 5504 N 500.662 4.53056 0.964075 0
M  V30 5505 C 501.397 5.63117 1.08104 0
M  V30 5506 N 500.893 6.82969 1.16299 0
M  V30 5507 N 502.686 5.50933 1.11488 0
M  V30 5508 H 494.837 2.0345 -0.610076 0
M  V30 5509 H 497.1 0.924034 -0.211813 0
M  V30 5510 H 496.806 3.51142 -0.19802 0
M  V30 5511 H 496.68 3.43851 1.55069 0
M  V30 5512 H 499.067 2.45101 1.64346 0
M  V30 5513 H 499.148 2.55513 -0.121034 0
M  V30 5514 H 498.792 5.07889 0.0338586 0
M  V30 5515 H 498.722 4.94553 1.809 0
M  V30 5516 H 501.213 3.66737 0.91173 0
M  V30 5517 H 501.526 7.62598 1.25155 0
M  V30 5518 H 499.871 6.85712 1.13241 0
M  V30 5519 H 503.062 4.56231 1.0474 0
M  V30 5520 H 503.235 6.36743 1.20259 0
M  V30 5521 N 496.642 -0.504142 1.49319 0
M  V30 5522 C 498.058 -0.835039 1.36012 0
M  V30 5523 C 498.258 -1.97674 0.390808 0
M  V30 5524 O 497.314 -2.51867 -0.178655 0
M  V30 5525 C 498.627 -1.17821 2.76656 0
M  V30 5526 C 500.175 -1.2866 2.85334 0
M  V30 5527 C 500.65 -1.66307 4.26739 0
M  V30 5528 N 502.141 -1.73362 4.29534 0
M  V30 5529 C 502.876 -2.0393 5.35911 0
M  V30 5530 N 502.372 -2.32744 6.52535 0
M  V30 5531 N 504.165 -2.05155 5.23324 0
M  V30 5532 H 496.316 0.248764 2.10938 0
M  V30 5533 H 498.579 0.0486962 0.946748 0
M  V30 5534 H 498.285 -0.412682 3.4927 0
M  V30 5535 H 498.159 -2.12239 3.11825 0
M  V30 5536 H 500.546 -2.04285 2.1296 0
M  V30 5537 H 500.627 -0.323004 2.53752 0
M  V30 5538 H 500.271 -0.91234 4.99639 0
M  V30 5539 H 500.201 -2.63761 4.55782 0
M  V30 5540 H 502.692 -1.53268 3.45424 0
M  V30 5541 H 503.005 -2.55248 7.2943 0
M  V30 5542 H 501.35 -2.30207 6.55767 0
M  V30 5543 H 504.541 -1.82119 4.3122 0
M  V30 5544 H 504.714 -2.28644 6.06322 0
M  V30 5545 N 498.12 -1.38341 -0.754957 0
M  V30 5546 C 499.345 -1.37882 -1.5493 0
M  V30 5547 C 499.77 0.0296385 -1.88077 0
M  V30 5548 O 499.128 1.01133 -1.50472 0
M  V30 5549 C 499.176 -2.23996 -2.82592 0
M  V30 5550 O 498.28 -1.65612 -3.77686 0
M  V30 5551 H 497.621 -0.470384 -0.468652 0
M  V30 5552 H 500.151 -1.82084 -0.933082 0
M  V30 5553 H 500.161 -2.37806 -3.3153 0
M  V30 5554 H 498.836 -3.26365 -2.57796 0
M  V30 5555 H 497.413 -1.60936 -3.36384 0
M  V30 5556 N 499.598 0.982988 -1.23187 0
M  V30 5557 C 500.846 1.72052 -1.06031 0
M  V30 5558 C 501.167 1.90769 0.404019 0
M  V30 5559 O 500.437 1.47446 1.28982 0
M  V30 5560 H 499.017 0.637499 -0.389363 0
M  V30 5561 H 501.679 1.18338 -1.54862 0
M  V30 5562 H 500.775 2.7111 -1.54615 0
M  V30 5563 N 501.076 1.04316 1.18135 0
M  V30 5564 C 502.487 0.775505 1.69832 0
M  V30 5565 C 502.838 -0.703348 1.8316 0
M  V30 5566 O 501.963 -1.54729 1.51287 0
M  V30 5567 C 502.558 1.40112 3.0847 0
M  V30 5568 C 501.117 1.18172 3.57368 0
M  V30 5569 C 500.264 1.49022 2.33854 0
M  V30 5570 H 503.215 1.20925 1.02775 0
M  V30 5571 H 503.236 0.805672 3.71873 0
M  V30 5572 H 502.748 2.47744 2.98738 0
M  V30 5573 H 500.849 0.124258 3.72393 0
M  V30 5574 H 500.962 1.8805 4.40652 0
M  V30 5575 H 499.326 0.909995 2.37889 0
M  V30 5576 H 500.109 2.57768 2.26738 0
M  V30 5577 N 502.554 -1.34406 0.822964 0
M  V30 5578 C 503.486 -2.28305 0.202375 0
M  V30 5579 C 504.499 -1.5103 -0.60777 0
M  V30 5580 O 505.688 -1.73057 -0.437444 0
M  V30 5581 C 502.788 -3.30836 -0.734911 0
M  V30 5582 C 501.961 -4.37388 0.0324177 0
M  V30 5583 C 501.02 -5.1968 -0.825803 0
M  V30 5584 O 500.046 -5.68556 -0.270771 0
M  V30 5585 N 501.248 -5.39393 -2.14558 0
M  V30 5586 H 504.013 -2.82201 1.00909 0
M  V30 5587 H 501.574 -1.4693 0.67993 0
M  V30 5588 H 503.566 -3.82786 -1.31365 0
M  V30 5589 H 502.136 -2.77334 -1.44238 0
M  V30 5590 H 501.356 -3.86152 0.792469 0
M  V30 5591 H 502.644 -5.05702 0.560633 0
M  V30 5592 H 502.042 -5.01357 -2.62025 0
M  V30 5593 H 500.599 -5.94461 -2.67318 0
M  V30 5594 N 504.032 -0.577932 -1.46621 0
M  V30 5595 C 504.942 0.160651 -2.34049 0
M  V30 5596 C 505.958 0.890911 -1.49462 0
M  V30 5597 O 507.134 0.855166 -1.82343 0
M  V30 5598 C 504.199 1.16447 -3.26559 0
M  V30 5599 C 503.26 0.4394 -4.27045 0
M  V30 5600 C 502.493 1.3954 -5.15135 0
M  V30 5601 O 502.716 2.63162 -5.06065 0
M  V30 5602 O 501.65 0.908585 -5.95003 0
M  V30 5603 H 505.476 -0.557057 -2.98547 0
M  V30 5604 H 503.061 -0.338369 -1.45518 0
M  V30 5605 H 504.943 1.7434 -3.83645 0
M  V30 5606 H 503.618 1.86373 -2.64663 0
M  V30 5607 H 502.525 -0.181247 -3.73661 0
M  V30 5608 H 503.858 -0.218799 -4.91713 0
M  V30 5609 N 505.51 1.54411 -0.315457 0
M  V30 5610 C 506.757 2.00419 0.289543 0
M  V30 5611 C 507.085 1.20373 1.52776 0
M  V30 5612 O 506.34 0.271769 1.93804 0
M  V30 5613 C 506.639 3.50936 0.676652 0
M  V30 5614 C 506.305 4.48532 -0.461472 0
M  V30 5615 C 504.967 4.74936 -0.773879 0
M  V30 5616 C 507.319 5.06567 -1.22637 0
M  V30 5617 C 504.647 5.56634 -1.85405 0
M  V30 5618 C 506.999 5.89441 -2.29657 0
M  V30 5619 C 505.663 6.1415 -2.61488 0
M  V30 5620 H 504.933 0.733386 0.105951 0
M  V30 5621 H 507.58 1.86434 -0.437554 0
M  V30 5622 H 505.885 3.62606 1.48405 0
M  V30 5623 H 507.582 3.83971 1.15618 0
M  V30 5624 H 504.172 4.28096 -0.207893 0
M  V30 5625 H 508.356 4.86157 -0.998271 0
M  V30 5626 H 503.612 5.74012 -2.10523 0
M  V30 5627 H 507.786 6.33432 -2.89374 0
M  V30 5628 H 505.413 6.77245 -3.45317 0
M  V30 5629 N 506.988 0.0434614 1.5754 0
M  V30 5630 C 508.236 -0.630786 1.92004 0
M  V30 5631 C 508.557 -1.71836 0.921807 0
M  V30 5632 O 507.827 -1.9587 -0.034522 0
M  V30 5633 H 506.407 -0.235988 0.708745 0
M  V30 5634 H 509.069 0.0946462 1.9467 0
M  V30 5635 H 508.165 -1.07434 2.93026 0
M  V30 5636 N 508.466 -1.55915 -0.229846 0
M  V30 5637 C 509.396 -1.94754 -1.28815 0
M  V30 5638 C 510.377 -0.814657 -1.49323 0
M  V30 5639 O 511.562 -1.07631 -1.61645 0
M  V30 5640 C 508.692 -2.25705 -2.63959 0
M  V30 5641 C 507.646 -3.41406 -2.5812 0
M  V30 5642 C 506.972 -3.57941 -3.97218 0
M  V30 5643 C 508.272 -4.76616 -2.13623 0
M  V30 5644 H 509.966 -2.83404 -0.965547 0
M  V30 5645 H 507.512 -1.36353 -0.463028 0
M  V30 5646 H 509.465 -2.51467 -3.38146 0
M  V30 5647 H 508.189 -1.339 -2.9789 0
M  V30 5648 H 506.848 -3.1568 -1.86391 0
M  V30 5649 H 506.496 -2.63526 -4.28443 0
M  V30 5650 H 506.196 -4.35757 -3.94195 0
M  V30 5651 H 507.72 -3.86042 -4.73079 0
M  V30 5652 H 509.134 -5.01637 -2.77549 0
M  V30 5653 H 507.531 -5.57655 -2.21677 0
M  V30 5654 H 508.601 -4.7253 -1.08829 0
M  V30 5655 N 509.944 0.496216 -1.49584 0
M  V30 5656 C 511.172 1.27394 -1.63029 0
M  V30 5657 C 511.587 1.86344 -0.303569 0
M  V30 5658 O 510.944 1.68057 0.711547 0
M  V30 5659 C 510.995 2.40077 -2.70269 0
M  V30 5660 O 510.716 1.83549 -3.97796 0
M  V30 5661 C 512.217 3.31372 -2.94462 0
M  V30 5662 H 509.437 0.386211 -0.54871 0
M  V30 5663 H 511.981 0.595163 -1.95648 0
M  V30 5664 H 510.136 3.03775 -2.40415 0
M  V30 5665 H 510.55 2.57561 -4.56905 0
M  V30 5666 H 512.024 4.06707 -3.73221 0
M  V30 5667 H 512.501 3.88654 -2.0456 0
M  V30 5668 H 513.107 2.73435 -3.25751 0
M  V30 5669 N 511.423 1.38739 0.74761 0
M  V30 5670 C 512.353 1.39173 1.87492 0
M  V30 5671 C 513.334 0.256794 1.6815 0
M  V30 5672 O 514.519 0.460762 1.88655 0
M  V30 5673 C 511.649 1.22197 3.25093 0
M  V30 5674 C 510.603 2.32957 3.59047 0
M  V30 5675 C 509.929 2.01082 4.95449 0
M  V30 5676 C 511.229 3.75237 3.6331 0
M  V30 5677 H 512.923 2.3351 1.87386 0
M  V30 5678 H 510.469 1.12399 0.900134 0
M  V30 5679 H 512.422 1.21124 4.03617 0
M  V30 5680 H 511.146 0.243241 3.25693 0
M  V30 5681 H 509.805 2.33226 2.82845 0
M  V30 5682 H 509.453 1.01678 4.92616 0
M  V30 5683 H 509.153 2.75267 5.19136 0
M  V30 5684 H 510.677 2.01638 5.76346 0
M  V30 5685 H 512.091 3.76966 4.31937 0
M  V30 5686 H 510.488 4.48677 3.98509 0
M  V30 5687 H 511.558 4.07122 2.634 0
M  V30 5688 N 512.901 -0.976442 1.23707 0
M  V30 5689 C 514.129 -1.75341 1.09833 0
M  V30 5690 C 514.544 -1.8553 -0.349885 0
M  V30 5691 O 513.901 -1.33732 -1.24185 0
M  V30 5692 C 513.952 -3.17833 1.72233 0
M  V30 5693 O 513.673 -3.08167 3.11391 0
M  V30 5694 C 515.174 -4.11906 1.63853 0
M  V30 5695 H 512.394 -0.550137 0.384175 0
M  V30 5696 H 514.938 -1.2265 1.63638 0
M  V30 5697 H 513.093 -3.67538 1.22452 0
M  V30 5698 H 513.507 -3.97897 3.41729 0
M  V30 5699 H 514.981 -5.09579 2.12211 0
M  V30 5700 H 515.458 -4.35109 0.598092 0
M  V30 5701 H 516.064 -3.68107 2.13019 0
M  V30 5702 N 514.379 -1.04941 -1.1758 0
M  V30 5703 C 515.604 -0.778253 -1.92245 0
M  V30 5704 C 516.029 0.659707 -1.76152 0
M  V30 5705 O 515.387 1.45803 -1.07755 0
M  V30 5706 C 515.435 -1.16051 -3.41416 0
M  V30 5707 O 514.539 -0.291153 -4.11371 0
M  V30 5708 H 513.88 -0.285619 -0.599431 0
M  V30 5709 H 516.41 -1.40159 -1.49052 0
M  V30 5710 H 516.42 -1.12619 -3.92149 0
M  V30 5711 H 515.095 -2.208 -3.52449 0
M  V30 5712 H 513.672 -0.385851 -3.70898 0
M  V30 5713 N 515.857 1.33968 -0.830081 0
M  V30 5714 C 517.268 1.80439 -0.479455 0
M  V30 5715 C 517.619 1.68756 1.00079 0
M  V30 5716 O 516.744 1.23171 1.77927 0
M  V30 5717 C 517.339 3.27611 -0.863505 0
M  V30 5718 C 515.898 3.72133 -0.565145 0
M  V30 5719 C 515.045 2.55549 -1.07657 0
M  V30 5720 H 517.996 1.21614 -1.0196 0
M  V30 5721 H 518.017 3.8012 -0.170083 0
M  V30 5722 H 517.529 3.36082 -1.94089 0
M  V30 5723 H 515.63 3.69196 0.502536 0
M  V30 5724 H 515.743 4.65963 -1.11422 0
M  V30 5725 H 514.107 2.49788 -0.497807 0
M  V30 5726 H 514.89 2.66786 -2.16055 0
M  V30 5727 N 517.335 0.585699 1.46312 0
M  V30 5728 C 518.245 -0.148236 2.34131 0
M  V30 5729 C 519.261 -0.882972 1.49932 0
M  V30 5730 O 520.437 -0.845484 1.82794 0
M  V30 5731 C 517.502 -1.14714 3.27172 0
M  V30 5732 C 516.563 -0.416746 4.27272 0
M  V30 5733 C 515.796 -1.36806 5.15868 0
M  V30 5734 O 516.019 -2.60475 5.07454 0
M  V30 5735 O 514.953 -0.877018 5.95476 0
M  V30 5736 H 518.779 0.572882 2.98248 0
M  V30 5737 H 516.364 0.346082 1.45336 0
M  V30 5738 H 518.246 -1.72303 3.84564 0
M  V30 5739 H 516.921 -1.84967 2.65648 0
M  V30 5740 H 515.828 0.201061 3.73559 0
M  V30 5741 H 517.161 0.244872 4.9159 0
M  V30 5742 N 518.813 -1.54241 0.323641 0
M  V30 5743 C 520.043 -2.04687 -0.280464 0
M  V30 5744 C 520.451 -1.19939 -1.46326 0
M  V30 5745 O 519.794 -0.222872 -1.82343 0
M  V30 5746 C 519.856 -3.50978 -0.778123 0
M  V30 5747 C 519.52 -4.56127 0.282371 0
M  V30 5748 C 520.517 -5.07726 1.11847 0
M  V30 5749 C 518.202 -5.00451 0.430582 0
M  V30 5750 C 520.196 -6.02212 2.08851 0
M  V30 5751 C 517.883 -5.94752 1.40404 0
M  V30 5752 C 518.881 -6.45519 2.23147 0
M  V30 5753 O 518.569 -7.37968 3.1884 0
M  V30 5754 H 518.301 -0.673192 -0.0615473 0
M  V30 5755 H 520.855 -1.99999 0.467921 0
M  V30 5756 H 519.085 -3.53064 -1.57742 0
M  V30 5757 H 520.774 -3.84499 -1.30058 0
M  V30 5758 H 521.54 -4.74261 1.01496 0
M  V30 5759 H 517.419 -4.6055 -0.203569 0
M  V30 5760 H 520.963 -6.41761 2.73474 0
M  V30 5761 H 516.86 -6.27633 1.5082 0
M  V30 5762 H 517.628 -7.55841 3.14079 0
M  V30 5763 N 520.291 -0.0518155 -1.57515 0
M  V30 5764 C 521.568 0.661727 -1.84067 0
M  V30 5765 C 521.948 1.88999 -0.940351 0
M  V30 5766 O 521.296 2.285 -0.00155404 0
M  V30 5767 C 521.506 1.01841 -3.3381 0
M  V30 5768 C 522.854 1.40043 -4.00841 0
M  V30 5769 O 523.878 1.11073 -3.38439 0
M  V30 5770 O 522.737 1.94111 -5.10865 0
M  V30 5771 H 519.831 0.326702 -0.759733 0
M  V30 5772 H 522.377 -0.0812277 -1.69505 0
M  V30 5773 H 521.149 0.145202 -3.91031 0
M  V30 5774 H 520.772 1.81879 -3.53562 0
M  V30 5775 N 521.769 1.56035 0.221574 0
M  V30 5776 C 523.016 1.79047 0.94597 0
M  V30 5777 C 523.344 0.62057 1.84334 0
M  V30 5778 O 522.599 -0.395053 1.91671 0
M  V30 5779 C 522.898 3.07813 1.8162 0
M  V30 5780 C 522.564 4.3797 1.07206 0
M  V30 5781 C 521.226 4.73334 0.866508 0
M  V30 5782 C 523.578 5.18326 0.546565 0
M  V30 5783 C 520.906 5.8657 0.123549 0
M  V30 5784 C 523.258 6.32335 -0.18305 0
M  V30 5785 C 521.922 6.66301 -0.399861 0
M  V30 5786 H 521.192 0.655178 0.346155 0
M  V30 5787 H 523.839 1.90299 0.214146 0
M  V30 5788 H 522.144 2.91682 2.61589 0
M  V30 5789 H 523.841 3.2282 2.37884 0
M  V30 5790 H 520.431 4.10202 1.24226 0
M  V30 5791 H 524.615 4.9144 0.692847 0
M  V30 5792 H 519.871 6.11376 -0.0546591 0
M  V30 5793 H 524.045 6.9383 -0.59775 0
M  V30 5794 H 521.672 7.53889 -0.977489 0
M  V30 5795 N 523.247 -0.488276 1.49845 0
M  V30 5796 C 524.195 -1.60917 1.67954 0
M  V30 5797 C 525.189 -1.6038 0.54539 0
M  V30 5798 O 526.395 -1.64736 0.7254 0
M  V30 5799 H 522.77 -0.533658 0.529824 0
M  V30 5800 H 524.741 -1.428 2.62013 0
M  V30 5801 C 523.49 -2.98975 1.77509 0
M  V30 5802 H 522.813 -3.00099 2.6416 0
M  V30 5803 H 524.253 -3.76906 1.9421 0
M  V30 5804 C 522.712 -3.3282 0.522745 0
M  V30 5805 O 523.242 -4.00208 -0.345866 0
M  V30 5806 N 521.448 -2.8808 0.381882 0
M  V30 5807 H 520.995 -2.33415 1.08974 0
M  V30 5808 H 520.953 -3.11091 -0.454929 0
M  V30 5809 N 524.725 -1.39134 -0.740242 0
M  V30 5810 C 525.672 -1.37434 -1.8542 0
M  V30 5811 C 526.642 -0.234822 -1.64432 0
M  V30 5812 O 527.827 -0.429125 -1.85912 0
M  V30 5813 C 524.967 -1.21844 -3.22875 0
M  V30 5814 C 524.08 -2.45296 -3.55603 0
M  V30 5815 C 523.215 -2.22334 -4.82432 0
M  V30 5816 C 522.254 -3.41488 -5.07988 0
M  V30 5817 N 521.391 -3.17877 -6.26018 0
M  V30 5818 H 526.231 -2.3266 -1.86207 0
M  V30 5819 H 523.768 -1.15578 -0.909946 0
M  V30 5820 H 525.726 -1.10818 -4.02213 0
M  V30 5821 H 524.356 -0.3025 -3.21379 0
M  V30 5822 H 523.408 -2.66945 -2.71006 0
M  V30 5823 H 524.72 -3.34063 -3.7041 0
M  V30 5824 H 523.874 -2.0852 -5.69741 0
M  V30 5825 H 522.613 -1.30954 -4.6979 0
M  V30 5826 H 521.618 -3.55807 -4.19144 0
M  V30 5827 H 522.843 -4.33763 -5.22519 0
M  V30 5828 H 520.789 -2.29156 -6.14673 0
M  V30 5829 H 520.706 -4.00198 -6.41387 0
M  V30 5830 H 521.974 -3.07746 -7.16179 0
M  V30 5831 N 526.204 0.969867 -1.24223 0
M  V30 5832 C 527.453 1.70687 -1.07466 0
M  V30 5833 C 527.766 1.91736 0.386861 0
M  V30 5834 O 528.972 2.62986 0.674581 0
M  V30 5835 C 527.428 3.07217 -1.87472 0
M  V30 5836 C 527.036 2.94018 -3.3802 0
M  V30 5837 C 528.78 3.84804 -1.79237 0
M  V30 5838 C 526.687 4.25844 -4.10379 0
M  V30 5839 H 525.617 0.640067 -0.398536 0
M  V30 5840 H 528.268 1.08092 -1.48285 0
M  V30 5841 H 526.65 3.70628 -1.39466 0
M  V30 5842 H 527.824 2.39632 -3.9359 0
M  V30 5843 H 526.139 2.29898 -3.47183 0
M  V30 5844 H 528.736 4.82417 -2.30603 0
M  V30 5845 H 529.079 4.09356 -0.757197 0
M  V30 5846 H 529.612 3.28115 -2.24912 0
M  V30 5847 H 526.351 4.06486 -5.14246 0
M  V30 5848 H 525.871 4.80054 -3.59594 0
M  V30 5849 H 527.55 4.94475 -4.17257 0
M  V30 5850 N 527.682 1.05563 1.17022 0
M  V30 5851 C 528.592 0.670758 2.24807 0
M  V30 5852 C 529.608 -0.309865 1.71219 0
M  V30 5853 O 530.784 -0.161025 2.00755 0
M  V30 5854 C 527.849 0.055337 3.46656 0
M  V30 5855 C 526.91 1.08688 4.15314 0
M  V30 5856 C 526.143 0.500736 5.31346 0
M  V30 5857 O 526.366 -0.688718 5.66227 0
M  V30 5858 O 525.3 1.23683 5.89055 0
M  V30 5859 H 529.126 1.56914 2.60023 0
M  V30 5860 H 526.711 0.827428 1.24395 0
M  V30 5861 H 528.593 -0.286492 4.20425 0
M  V30 5862 H 527.268 -0.816638 3.13229 0
M  V30 5863 H 526.175 1.48077 3.43546 0
M  V30 5864 H 527.508 1.93014 4.52777 0
M  V30 5865 N 529.16 -1.33526 0.837174 0
M  V30 5866 C 530.108 -2.31168 0.257698 0
M  V30 5867 C 531.102 -1.5806 -0.609388 0
M  V30 5868 O 532.308 -1.72941 -0.499139 0
M  V30 5869 H 528.683 -0.74922 0.0646058 0
M  V30 5870 H 530.654 -2.77552 1.09578 0
M  V30 5871 C 529.403 -3.4326 -0.553887 0
M  V30 5872 H 528.726 -3.99665 0.104008 0
M  V30 5873 H 530.166 -4.13782 -0.925219 0
M  V30 5874 C 528.625 -2.88965 -1.73207 0
M  V30 5875 O 529.155 -2.85013 -2.83073 0
M  V30 5876 N 527.361 -2.45596 -1.55342 0
M  V30 5877 H 526.908 -2.49009 -0.659705 0
M  V30 5878 H 526.866 -2.0962 -2.34322 0
M  V30 5879 N 530.638 -0.59345 -1.46 0
M  V30 5880 C 531.887 -0.0808084 -2.01538 0
M  V30 5881 C 532.2 1.29112 -1.46934 0
M  V30 5882 O 533.406 1.8957 -1.94359 0
M  V30 5883 C 531.862 -0.0938311 -3.59778 0
M  V30 5884 C 531.47 -1.46474 -4.23379 0
M  V30 5885 C 533.214 0.364306 -4.22934 0
M  V30 5886 C 531.121 -1.4349 -5.73729 0
M  V30 5887 H 530.051 -0.0264407 -0.753536 0
M  V30 5888 H 532.702 -0.746689 -1.67621 0
M  V30 5889 H 531.084 0.638427 -3.9082 0
M  V30 5890 H 532.258 -2.21758 -4.03931 0
M  V30 5891 H 530.573 -1.86379 -3.7236 0
M  V30 5892 H 533.17 0.405584 -5.3316 0
M  V30 5893 H 533.513 1.38409 -3.92618 0
M  V30 5894 H 534.046 -0.31423 -3.96557 0
M  V30 5895 H 530.785 -2.43184 -6.08722 0
M  V30 5896 H 530.305 -0.724431 -5.95409 0
M  V30 5897 H 531.984 -1.15243 -6.36654 0
M  V30 5898 N 532.116 1.54067 -0.331816 0
M  V30 5899 C 533.393 1.92915 0.322955 0
M  V30 5900 C 533.773 1.26225 1.69205 0
M  V30 5901 O 533.121 0.408919 2.24811 0
M  V30 5902 C 533.331 3.46619 0.406946 0
M  V30 5903 C 534.679 4.19386 0.663339 0
M  V30 5904 O 535.703 3.5282 0.489536 0
M  V30 5905 O 534.562 5.37288 0.999193 0
M  V30 5906 H 531.656 0.805808 0.186016 0
M  V30 5907 H 534.202 1.65342 -0.382135 0
M  V30 5908 H 532.974 3.87354 -0.554287 0
M  V30 5909 H 532.597 3.80324 1.15929 0
M  V30 5910 N 533.594 0.0601682 1.57485 0
M  V30 5911 C 534.557 -0.896373 2.10945 0
M  V30 5912 C 535.557 -1.23402 1.03095 0
M  V30 5913 O 536.747 -1.16921 1.29132 0
M  V30 5914 C 533.879 -2.20346 2.60116 0
M  V30 5915 H 535.072 -0.432778 2.96761 0
M  V30 5916 H 532.625 -0.188372 1.55161 0
M  V30 5917 H 533.36 -2.71268 1.7772 0
M  V30 5918 H 533.145 -1.9714 3.38937 0
M  V30 5919 H 534.635 -2.88846 3.01592 0
M  V30 5920 N 535.072 -1.5615 -0.213296 0
M  V30 5921 C 536.319 -1.79546 -0.936462 0
M  V30 5922 C 536.647 -0.630337 -1.84003 0
M  V30 5923 O 535.902 0.384883 -1.91878 0
M  V30 5924 C 536.201 -3.08772 -1.79985 0
M  V30 5925 C 535.867 -4.38532 -1.04882 0
M  V30 5926 C 534.529 -4.73787 -0.841393 0
M  V30 5927 C 536.881 -5.18609 -0.51907 0
M  V30 5928 C 534.209 -5.86627 -0.0924403 0
M  V30 5929 C 536.561 -6.32229 0.216581 0
M  V30 5930 C 535.225 -6.6608 0.435191 0
M  V30 5931 H 534.495 -0.657004 -0.342676 0
M  V30 5932 H 537.142 -1.9041 -0.204051 0
M  V30 5933 H 535.447 -2.93065 -2.60038 0
M  V30 5934 H 537.144 -3.24077 -2.36168 0
M  V30 5935 H 533.734 -4.10855 -1.22048 0
M  V30 5936 H 537.918 -4.91801 -0.666775 0
M  V30 5937 H 533.174 -6.11338 0.087081 0
M  V30 5938 H 537.348 -6.93503 0.634538 0
M  V30 5939 H 534.975 -7.5336 1.01746 0
M  V30 5940 N 536.55 0.480323 -1.50102 0
M  V30 5941 C 537.497 1.57946 -1.6829 0
M  V30 5942 C 538.467 1.57611 -0.524223 0
M  V30 5943 O 539.652 1.75282 -0.753709 0
M  V30 5944 C 536.792 2.95978 -1.77457 0
M  V30 5945 C 535.905 3.06173 -3.04766 0
M  V30 5946 C 535.04 4.35063 -3.04784 0
M  V30 5947 C 534.079 4.38966 -4.26586 0
M  V30 5948 N 533.216 5.59314 -4.24396 0
M  V30 5949 H 538.056 1.41743 -2.62131 0
M  V30 5950 H 535.593 0.689304 -1.2995 0
M  V30 5951 H 537.551 3.76011 -1.80752 0
M  V30 5952 H 536.181 3.10837 -0.870637 0
M  V30 5953 H 535.233 2.19071 -3.10986 0
M  V30 5954 H 536.545 3.04916 -3.9475 0
M  V30 5955 H 535.699 5.23436 -3.06757 0
M  V30 5956 H 534.438 4.38915 -2.12614 0
M  V30 5957 H 533.443 3.48992 -4.24835 0
M  V30 5958 H 534.668 4.36813 -5.19972 0
M  V30 5959 H 532.614 5.63969 -3.35074 0
M  V30 5960 H 532.531 5.5976 -5.08138 0
M  V30 5961 H 533.799 6.49837 -4.30502 0
M  V30 5962 N 538.028 1.39524 0.732853 0
M  V30 5963 C 538.938 1.40695 1.87729 0
M  V30 5964 C 539.954 0.301496 1.71368 0
M  V30 5965 O 541.13 0.543313 1.93933 0
M  V30 5966 C 538.195 1.25098 3.23344 0
M  V30 5967 C 537.256 2.45634 3.52083 0
M  V30 5968 C 536.489 2.30772 4.81228 0
M  V30 5969 O 536.712 1.31233 5.55098 0
M  V30 5970 O 535.646 3.19799 5.09914 0
M  V30 5971 H 539.472 2.37168 1.89697 0
M  V30 5972 H 537.057 1.20663 0.880959 0
M  V30 5973 H 538.939 1.18541 4.04383 0
M  V30 5974 H 537.614 0.317209 3.22142 0
M  V30 5975 H 536.521 2.57767 2.71122 0
M  V30 5976 H 537.854 3.37712 3.58066 0
M  V30 5977 N 539.506 -0.963266 1.24736 0
M  V30 5978 C 540.453 -2.05857 1.04363 0
M  V30 5979 C 541.423 -1.6604 -0.0444951 0
M  V30 5980 O 542.608 -1.90477 0.110999 0
M  V30 5981 C 539.748 -3.38745 0.659235 0
M  V30 5982 C 538.861 -3.9173 1.82131 0
M  V30 5983 C 537.996 -5.12906 1.38208 0
M  V30 5984 C 537.035 -5.58098 2.51382 0
M  V30 5985 N 536.172 -6.7049 2.08295 0
M  V30 5986 H 541.012 -2.22616 1.98107 0
M  V30 5987 H 538.549 -1.09103 0.986661 0
M  V30 5988 H 540.507 -4.15107 0.417371 0
M  V30 5989 H 539.137 -3.21898 -0.241201 0
M  V30 5990 H 538.189 -3.11966 2.17672 0
M  V30 5991 H 539.501 -4.21225 2.67153 0
M  V30 5992 H 538.655 -5.96657 1.09935 0
M  V30 5993 H 537.394 -4.85105 0.502456 0
M  V30 5994 H 536.399 -4.72917 2.80409 0
M  V30 5995 H 537.624 -5.87911 3.39909 0
M  V30 5996 H 535.57 -6.44416 1.22737 0
M  V30 5997 H 535.487 -6.99458 2.86869 0
M  V30 5998 H 536.755 -7.57672 1.83175 0
M  V30 5999 N 540.985 -1.06182 -1.16461 0
M  V30 6000 C 542.231 -0.788825 -1.87481 0
M  V30 6001 C 542.586 0.677298 -1.80085 0
M  V30 6002 O 541.879 1.48976 -1.20486 0
M  V30 6003 C 542.073 -1.21633 -3.36066 0
M  V30 6004 C 541.902 -2.72247 -3.57927 0
M  V30 6005 C 540.672 -3.39696 -3.74079 0
M  V30 6006 C 542.87 -3.70461 -3.56739 0
M  V30 6007 N 540.852 -4.79072 -3.83879 0
M  V30 6008 C 542.223 -4.95616 -3.72511 0
M  V30 6009 C 544.278 -3.63788 -3.39945 0
M  V30 6010 C 542.981 -6.14895 -3.73225 0
M  V30 6011 C 545.007 -4.82517 -3.41953 0
M  V30 6012 C 544.369 -6.065 -3.58242 0
M  V30 6013 H 540.468 -0.341034 -0.703719 0
M  V30 6014 H 543.052 -1.35575 -1.39741 0
M  V30 6015 H 541.223 -0.67725 -3.8245 0
M  V30 6016 H 542.955 -0.892119 -3.94745 0
M  V30 6017 H 539.71 -2.90097 -3.74354 0
M  V30 6018 H 540.134 -5.51573 -3.92551 0
M  V30 6019 H 544.776 -2.68888 -3.26281 0
M  V30 6020 H 542.494 -7.10129 -3.85672 0
M  V30 6021 H 546.08 -4.79017 -3.30203 0
M  V30 6022 H 544.96 -6.96833 -3.59712 0
M  V30 6023 N 542.463 1.3308 -0.844243 0
M  V30 6024 C 543.373 2.32876 -0.283922 0
M  V30 6025 C 544.389 1.63589 0.592846 0
M  V30 6026 O 545.565 1.95205 0.495693 0
M  V30 6027 C 542.63 3.42667 0.527283 0
M  V30 6028 C 541.691 4.27664 -0.374394 0
M  V30 6029 C 540.924 5.32212 0.39819 0
M  V30 6030 O 541.147 5.46635 1.62932 0
M  V30 6031 O 540.081 6.01458 -0.2306 0
M  V30 6032 H 543.907 2.82671 -1.11045 0
M  V30 6033 H 541.492 1.36518 -0.606903 0
M  V30 6034 H 543.374 4.09652 0.988078 0
M  V30 6035 H 542.049 2.95079 1.33078 0
M  V30 6036 H 540.956 3.63526 -0.883144 0
M  V30 6037 H 542.289 4.78749 -1.1428 0
M  V30 6038 N 543.941 0.601185 1.45683 0
M  V30 6039 C 545.189 0.0936957 2.01883 0
M  V30 6040 C 545.51 -1.2779 1.47291 0
M  V30 6041 O 544.78 -1.84279 0.664691 0
M  V30 6042 H 543.36 0.0316466 0.746329 0
M  V30 6043 H 546.022 0.781137 1.78562 0
M  V30 6044 H 545.118 0.0386297 3.12076 0
M  V30 6045 N 545.419 -1.53889 0.339982 0
M  V30 6046 C 546.366 -2.24902 -0.518452 0
M  V30 6047 C 547.336 -1.24593 -1.09844 0
M  V30 6048 O 548.521 -1.53317 -1.13572 0
M  V30 6049 C 545.661 -3.02262 -1.66529 0
M  V30 6050 C 544.774 -4.17418 -1.11295 0
M  V30 6051 C 543.909 -4.82273 -2.2268 0
M  V30 6052 C 542.948 -5.89503 -1.6478 0
M  V30 6053 N 542.085 -6.48153 -2.69893 0
M  V30 6054 H 546.925 -2.97853 0.0936579 0
M  V30 6055 H 544.462 -1.46986 0.0579924 0
M  V30 6056 H 546.42 -3.45371 -2.3404 0
M  V30 6057 H 545.05 -2.31614 -2.24844 0
M  V30 6058 H 544.102 -3.78976 -0.328886 0
M  V30 6059 H 545.414 -4.94554 -0.649414 0
M  V30 6060 H 544.568 -5.28435 -2.98063 0
M  V30 6061 H 543.307 -4.04552 -2.72376 0
M  V30 6062 H 542.312 -5.42728 -0.879004 0
M  V30 6063 H 543.537 -6.6913 -1.1594 0
M  V30 6064 H 541.483 -5.73298 -3.1885 0
M  V30 6065 H 541.4 -7.20752 -2.28151 0
M  V30 6066 H 542.668 -6.98968 -3.45056 0
M  V30 6067 N 546.897 -0.0685191 -1.57451 0
M  V30 6068 C 548.143 0.602239 -1.93652 0
M  V30 6069 C 548.476 1.6946 -0.948526 0
M  V30 6070 O 547.751 1.94487 0.022782 0
M  V30 6071 C 548.034 1.18223 -3.4014 0
M  V30 6072 C 547.887 0.0967431 -4.49696 0
M  V30 6073 C 549.206 2.08872 -3.87377 0
M  V30 6074 H 546.325 0.217453 -0.70419 0
M  V30 6075 H 548.967 -0.133821 -1.89528 0
M  V30 6076 H 547.117 1.80953 -3.43785 0
M  V30 6077 H 548.789 -0.536155 -4.58174 0
M  V30 6078 H 547.032 -0.573063 -4.29998 0
M  V30 6079 H 547.703 0.542894 -5.49324 0
M  V30 6080 H 550.179 1.56081 -3.85717 0
M  V30 6081 H 549.055 2.46389 -4.90493 0
M  V30 6082 H 549.316 2.99572 -3.25129 0
M  V30 6083 N 548.375 1.56261 0.205012 0
M  V30 6084 C 549.624 1.79236 0.925058 0
M  V30 6085 C 549.937 0.640011 1.84833 0
M  V30 6086 O 551.143 0.753809 2.60826 0
M  V30 6087 C 549.599 3.17475 1.69522 0
M  V30 6088 C 549.207 4.40482 0.817269 0
M  V30 6089 C 550.951 3.49766 2.4055 0
M  V30 6090 C 548.858 5.69744 1.58573 0
M  V30 6091 H 547.788 0.668287 0.349153 0
M  V30 6092 H 550.439 1.82629 0.178544 0
M  V30 6093 H 548.821 3.08304 2.48526 0
M  V30 6094 H 549.995 4.60752 0.0665988 0
M  V30 6095 H 548.31 4.15827 0.218316 0
M  V30 6096 H 550.907 4.43573 2.98575 0
M  V30 6097 H 551.25 2.73041 3.14252 0
M  V30 6098 H 551.783 3.60341 1.68522 0
M  V30 6099 H 548.522 6.49407 0.891679 0
M  V30 6100 H 548.042 5.53509 2.31059 0
M  V30 6101 H 549.721 6.1051 2.14212 0
M  V30 6102 N 549.853 -0.472356 1.50355 0
M  V30 6103 C 551.081 -1.24784 1.65035 0
M  V30 6104 C 551.496 -1.85837 0.333176 0
M  V30 6105 O 550.853 -1.69168 -0.68472 0
M  V30 6106 C 550.904 -2.35747 2.74054 0
M  V30 6107 O 550.625 -1.77197 4.00665 0
M  V30 6108 C 552.126 -3.26645 2.99696 0
M  V30 6109 H 549.346 -0.377432 0.554785 0
M  V30 6110 H 551.89 -0.563962 1.9657 0
M  V30 6111 H 550.045 -2.99912 2.45217 0
M  V30 6112 H 550.459 -2.5026 4.60945 0
M  V30 6113 H 551.933 -4.00718 3.79644 0
M  V30 6114 H 552.41 -3.8535 2.10718 0
M  V30 6115 H 553.016 -2.68218 3.3006 0
M  V30 6116 N 551.331 -1.39911 -0.725443 0
M  V30 6117 C 552.561 -1.40744 -1.51244 0
M  V30 6118 C 552.969 -0.00275403 -1.892 0
M  V30 6119 O 552.312 0.981299 -1.55294 0
M  V30 6120 C 552.374 -2.22527 -2.82351 0
M  V30 6121 C 552.038 -3.71053 -2.66774 0
M  V30 6122 C 553.035 -4.63916 -2.34686 0
M  V30 6123 C 550.72 -4.14753 -2.83347 0
M  V30 6124 C 552.714 -5.98463 -2.19366 0
M  V30 6125 C 550.401 -5.49372 -2.67644 0
M  V30 6126 C 551.399 -6.41042 -2.357 0
M  V30 6127 O 551.087 -7.73181 -2.20107 0
M  V30 6128 H 550.819 -0.482314 -0.473655 0
M  V30 6129 H 553.373 -1.84472 -0.903284 0
M  V30 6130 H 551.603 -1.73563 -3.45562 0
M  V30 6131 H 553.292 -2.15421 -3.44018 0
M  V30 6132 H 554.058 -4.31453 -2.21525 0
M  V30 6133 H 549.937 -3.43728 -3.072 0
M  V30 6134 H 553.481 -6.69979 -1.94354 0
M  V30 6135 H 549.378 -5.81424 -2.80387 0
M  V30 6136 H 550.146 -7.84008 -2.35103 0
M  V30 6137 N 552.809 0.956637 -1.25245 0
M  V30 6138 C 554.22 1.51569 -1.09012 0
M  V30 6139 C 554.571 1.93322 0.334813 0
M  V30 6140 O 553.696 1.78421 1.22454 0
M  V30 6141 C 554.291 2.75444 -1.97271 0
M  V30 6142 C 552.85 3.27669 -1.8523 0
M  V30 6143 C 551.997 2.00517 -1.91542 0
M  V30 6144 H 554.948 0.773746 -1.3856 0
M  V30 6145 H 554.969 3.4919 -1.51151 0
M  V30 6146 H 554.481 2.45024 -3.00973 0
M  V30 6147 H 552.582 3.62914 -0.844045 0
M  V30 6148 H 552.695 3.9582 -2.69932 0
M  V30 6149 H 551.059 2.15727 -1.35404 0
M  V30 6150 H 551.842 1.72448 -2.96844 0
M  V30 6151 N 554.287 1.06798 1.15896 0
M  V30 6152 C 555.235 0.677525 2.22514 0
M  V30 6153 C 556.229 -0.308994 1.66558 0
M  V30 6154 O 557.435 -0.173308 1.79164 0
M  V30 6155 H 553.81 0.200994 0.724642 0
M  V30 6156 H 555.781 1.5865 2.52731 0
M  V30 6157 C 554.53 0.0854153 3.47595 0
M  V30 6158 H 553.853 0.835645 3.90969 0
M  V30 6159 H 555.293 -0.150199 4.23734 0
M  V30 6160 C 553.752 -1.1724 3.15843 0
M  V30 6161 O 554.282 -2.25965 3.32119 0
M  V30 6162 N 552.488 -1.07636 2.69931 0
M  V30 6163 H 552.035 -0.191559 2.56887 0
M  V30 6164 H 551.993 -1.91876 2.4906 0
M  V30 6165 N 555.766 -1.3263 0.851289 0
M  V30 6166 C 557.013 -1.97368 0.453023 0
M  V30 6167 C 557.341 -1.67384 -0.990596 0
M  V30 6168 O 556.596 -0.952665 -1.70947 0
M  V30 6169 C 556.895 -3.51713 0.635015 0
M  V30 6170 C 556.561 -4.01676 2.04859 0
M  V30 6171 C 555.223 -4.15031 2.43522 0
M  V30 6172 C 557.575 -4.28206 2.97135 0
M  V30 6173 C 554.903 -4.52257 3.73739 0
M  V30 6174 C 557.255 -4.66889 4.26846 0
M  V30 6175 C 555.919 -4.7845 4.65448 0
M  V30 6176 H 555.189 -0.722219 0.165773 0
M  V30 6177 H 557.836 -1.58092 1.0807 0
M  V30 6178 H 556.141 -3.91726 -0.0759081 0
M  V30 6179 H 557.838 -3.99823 0.306964 0
M  V30 6180 H 554.428 -3.91764 1.73836 0
M  V30 6181 H 558.612 -4.174 2.68498 0
M  V30 6182 H 553.868 -4.59402 4.03435 0
M  V30 6183 H 558.042 -4.86372 4.98413 0
M  V30 6184 H 555.669 -5.07052 5.66395 0
M  V30 6185 N 557.244 -0.608902 -1.45362 0
M  V30 6186 C 558.493 -0.10218 -2.01441 0
M  V30 6187 C 558.806 1.27546 -1.48295 0
M  V30 6188 O 560.012 1.87498 -1.96359 0
M  V30 6189 C 558.468 -0.131985 -3.59658 0
M  V30 6190 C 558.076 -1.50956 -4.21801 0
M  V30 6191 C 559.82 0.319427 -4.23296 0
M  V30 6192 C 557.727 -1.49568 -5.72174 0
M  V30 6193 H 556.657 -0.0344314 -0.753213 0
M  V30 6194 H 559.308 -0.764426 -1.6682 0
M  V30 6195 H 557.69 0.596939 -3.91475 0
M  V30 6196 H 558.864 -2.26029 -4.01556 0
M  V30 6197 H 557.179 -1.90318 -3.70362 0
M  V30 6198 H 559.776 0.349013 -5.3356 0
M  V30 6199 H 560.119 1.34237 -3.94064 0
M  V30 6200 H 560.652 -0.356273 -3.96201 0
M  V30 6201 H 557.391 -2.49626 -6.06108 0
M  V30 6202 H 556.911 -0.787542 -5.94607 0
M  V30 6203 H 558.59 -1.21989 -6.35396 0
M  V30 6204 N 558.722 1.53707 -0.348139 0
M  V30 6205 C 559.947 2.05877 0.250883 0
M  V30 6206 C 560.372 1.22115 1.43072 0
M  V30 6207 O 559.73 0.235986 1.79758 0
M  V30 6208 C 559.778 3.54886 0.639416 0
M  V30 6209 O 558.882 3.73948 1.73888 0
M  V30 6210 H 558.223 0.662754 0.040653 0
M  V30 6211 H 560.753 1.98303 -0.503685 0
M  V30 6212 H 560.763 3.97601 0.915295 0
M  V30 6213 H 559.438 4.153 -0.223386 0
M  V30 6214 H 558.015 3.43134 1.45991 0
M  V30 6215 N 560.2 0.0768682 1.57412 0
M  V30 6216 C 561.428 -0.59997 1.9801 0
M  V30 6217 C 561.843 -1.62842 0.955408 0
M  V30 6218 O 561.2 -1.8241 -0.057314 0
M  V30 6219 C 561.251 -1.26401 3.38681 0
M  V30 6220 O 560.972 -0.276723 4.37225 0
M  V30 6221 C 562.473 -2.0282 3.94182 0
M  V30 6222 H 559.693 -0.162239 0.651091 0
M  V30 6223 H 562.237 0.150771 2.03943 0
M  V30 6224 H 560.392 -1.96581 3.33819 0
M  V30 6225 H 560.806 -0.753744 5.19056 0
M  V30 6226 H 562.28 -2.44667 4.94815 0
M  V30 6227 H 562.757 -2.88678 3.31001 0
M  V30 6228 H 563.363 -1.37496 4.02461 0
M  V30 6229 N 561.678 -1.56367 -0.196722 0
M  V30 6230 C 562.903 -1.84991 -0.937714 0
M  V30 6231 C 563.328 -0.660244 -1.76132 0
M  V30 6232 O 562.686 0.390967 -1.77034 0
M  V30 6233 C 562.734 -3.11828 -1.81096 0
M  V30 6234 O 561.838 -2.92266 -2.90955 0
M  V30 6235 H 561.179 -0.609193 -0.264159 0
M  V30 6236 H 563.709 -2.03595 -0.202529 0
M  V30 6237 H 563.719 -3.42579 -2.21594 0
M  V30 6238 H 562.394 -3.98037 -1.2058 0
M  V30 6239 H 560.971 -2.72809 -2.54224 0
M  V30 6240 N 563.156 0.464375 -1.50603 0
M  V30 6241 C 564.405 1.21277 -1.61167 0
M  V30 6242 C 564.718 1.92953 -0.320704 0
M  V30 6243 O 565.924 2.69778 -0.30534 0
M  V30 6244 C 564.38 2.20403 -2.84518 0
M  V30 6245 C 563.988 1.54499 -4.20516 0
M  V30 6246 C 565.732 2.95843 -3.0443 0
M  V30 6247 C 563.639 2.51951 -5.35047 0
M  V30 6248 H 562.569 0.456367 -0.600204 0
M  V30 6249 H 565.22 0.48254 -1.77042 0
M  V30 6250 H 563.602 2.96746 -2.62217 0
M  V30 6251 H 564.776 0.83899 -4.53098 0
M  V30 6252 H 563.091 0.913152 -4.06264 0
M  V30 6253 H 565.688 3.6879 -3.87167 0
M  V30 6254 H 566.031 3.55622 -2.16423 0
M  V30 6255 H 566.564 2.26611 -3.26944 0
M  V30 6256 H 563.303 1.96901 -6.25228 0
M  V30 6257 H 562.823 3.20683 -5.06875 0
M  V30 6258 H 564.502 3.13643 -5.65895 0
M  V30 6259 N 564.634 1.40294 0.718013 0
M  V30 6260 C 565.882 1.38167 1.47494 0
M  V30 6261 C 566.203 -0.01607 1.94993 0
M  V30 6262 O 565.473 -0.970396 1.70177 0
M  V30 6263 H 564.053 0.508505 0.547203 0
M  V30 6264 H 566.715 1.75324 0.851322 0
M  V30 6265 H 565.811 2.05503 2.34894 0
M  V30 6266 N 566.112 -0.949982 1.2575 0
M  V30 6267 C 567.337 -1.73503 1.13628 0
M  V30 6268 C 567.762 -1.85601 -0.30559 0
M  V30 6269 O 567.12 -1.33984 -1.22139 0
M  V30 6270 C 567.168 -3.1243 1.80055 0
M  V30 6271 O 566.272 -3.97916 1.08336 0
M  V30 6272 H 565.613 -0.532665 0.396439 0
M  V30 6273 H 568.143 -1.19043 1.66403 0
M  V30 6274 H 568.153 -3.62866 1.86527 0
M  V30 6275 H 566.828 -3.02941 2.84956 0
M  V30 6276 H 565.405 -3.56375 1.09777 0
M  V30 6277 N 567.59 -1.07411 -1.15328 0
M  V30 6278 C 568.836 -0.798831 -1.86404 0
M  V30 6279 C 569.169 0.673433 -1.8215 0
M  V30 6280 O 568.444 1.49428 -1.24505 0
M  V30 6281 C 568.727 -1.30846 -3.35487 0
M  V30 6282 C 568.58 -2.84532 -3.4837 0
M  V30 6283 C 569.899 -0.925486 -4.30259 0
M  V30 6284 H 567.018 -0.291659 -0.676834 0
M  V30 6285 H 569.66 -1.332 -1.35491 0
M  V30 6286 H 567.81 -0.854916 -3.78977 0
M  V30 6287 H 569.482 -3.3818 -3.13739 0
M  V30 6288 H 567.725 -3.22699 -2.8991 0
M  V30 6289 H 568.396 -3.15259 -4.53118 0
M  V30 6290 H 570.872 -1.3163 -3.94731 0
M  V30 6291 H 569.748 -1.3094 -5.33053 0
M  V30 6292 H 570.009 0.168525 -4.41779 0
M  V30 6293 N 569.068 1.32177 -0.85831 0
M  V30 6294 C 570.016 2.30729 -0.294442 0
M  V30 6295 C 571.01 1.59009 0.584165 0
M  V30 6296 O 572.216 1.73713 0.471562 0
M  V30 6297 H 568.591 0.748097 -0.0765171 0
M  V30 6298 H 570.562 2.75774 -1.1398 0
M  V30 6299 C 569.311 3.44098 0.499208 0
M  V30 6300 H 568.634 3.99449 -0.167579 0
M  V30 6301 H 570.074 4.15202 0.859273 0
M  V30 6302 C 568.533 2.91684 1.68588 0
M  V30 6303 O 569.063 2.89481 2.78503 0
M  V30 6304 N 567.269 2.48036 1.51415 0
M  V30 6305 H 566.816 2.50027 0.620006 0
M  V30 6306 H 566.774 2.13322 2.30957 0
M  V30 6307 N 570.547 0.616602 1.45037 0
M  V30 6308 C 571.48 -0.145984 2.27733 0
M  V30 6309 C 572.458 -0.865108 1.37676 0
M  V30 6310 O 573.642 -0.872152 1.6711 0
M  V30 6311 C 570.769 -1.2122 3.16265 0
M  V30 6312 C 569.815 -0.595218 4.22326 0
M  V30 6313 S 570.648 0.603744 5.32086 0
M  V30 6314 C 571.804 -0.462842 6.24186 0
M  V30 6315 H 572.037 0.555591 2.92062 0
M  V30 6316 H 569.57 0.404364 1.49011 0
M  V30 6317 H 571.528 -1.82247 3.67827 0
M  V30 6318 H 570.189 -1.88589 2.51183 0
M  V30 6319 H 569.382 -1.39775 4.8423 0
M  V30 6320 H 568.984 -0.0598965 3.73952 0
M  V30 6321 H 571.276 -1.33945 6.64127 0
M  V30 6322 H 572.219 0.120259 7.07998 0
M  V30 6323 H 572.627 -0.782219 5.59054 0
M  V30 6324 N 572.025 -1.5352 0.356285 0
M  V30 6325 C 573.25 -2.06007 -0.239961 0
M  V30 6326 C 573.675 -1.22872 -1.42422 0
M  V30 6327 O 573.033 -0.245516 -1.7963 0
M  V30 6328 C 573.081 -3.5522 -0.620587 0
M  V30 6329 O 572.185 -3.74864 -1.71902 0
M  V30 6330 H 571.526 -0.662961 -0.0371377 0
M  V30 6331 H 574.056 -1.98033 0.514194 0
M  V30 6332 H 574.066 -3.98081 -0.894197 0
M  V30 6333 H 572.741 -4.15175 0.245407 0
M  V30 6334 H 571.318 -3.43904 -1.44169 0
M  V30 6335 N 573.503 -0.0852151 -1.57369 0
M  V30 6336 C 574.466 0.8627 -2.12344 0
M  V30 6337 C 575.466 1.21746 -1.05046 0
M  V30 6338 O 576.656 1.14852 -1.30976 0
M  V30 6339 C 573.788 2.1618 -2.63589 0
M  V30 6340 H 574.981 0.385511 -2.97412 0
M  V30 6341 H 572.534 0.163663 -1.55441 0
M  V30 6342 H 573.269 2.68406 -1.82013 0
M  V30 6343 H 573.054 1.91723 -3.4203 0
M  V30 6344 H 574.544 2.84011 -3.06149 0
M  V30 6345 N 574.981 1.5647 0.188427 0
M  V30 6346 C 576.228 1.81013 0.907779 0
M  V30 6347 C 576.556 0.65953 1.82977 0
M  V30 6348 O 575.811 -0.354308 1.92466 0
M  V30 6349 C 576.11 3.11596 1.7505 0
M  V30 6350 C 575.776 4.40145 0.978922 0
M  V30 6351 C 574.438 4.75066 0.765912 0
M  V30 6352 C 576.79 5.19369 0.436498 0
M  V30 6353 C 574.118 5.867 -0.00089868 0
M  V30 6354 C 576.47 6.31805 -0.317136 0
M  V30 6355 C 575.134 6.65303 -0.541103 0
M  V30 6356 H 574.404 0.662373 0.33218 0
M  V30 6357 H 577.051 1.9071 0.173732 0
M  V30 6358 H 575.356 2.97165 2.55343 0
M  V30 6359 H 577.053 3.27793 2.30983 0
M  V30 6360 H 573.643 4.12745 1.15497 0
M  V30 6361 H 577.827 4.92799 0.588449 0
M  V30 6362 H 573.083 6.11122 -0.184329 0
M  V30 6363 H 577.257 6.92406 -0.744788 0
M  V30 6364 H 574.884 7.51646 -1.13718 0
M  V30 6365 N 576.459 -0.456382 1.50847 0
M  V30 6366 C 577.422 -1.53493 1.70213 0
M  V30 6367 C 578.422 -1.50264 0.572481 0
M  V30 6368 O 579.612 -1.52623 0.839751 0
M  V30 6369 C 576.744 -2.93091 1.741 0
M  V30 6370 H 577.937 -1.37633 2.66453 0
M  V30 6371 H 575.49 -0.683776 1.4055 0
M  V30 6372 H 576.225 -3.14378 0.796063 0
M  V30 6373 H 576.01 -2.9684 2.5618 0
M  V30 6374 H 577.5 -3.71368 1.90987 0
M  V30 6375 N 577.937 -1.40673 -0.710563 0
M  V30 6376 C 578.884 -1.41336 -1.82463 0
M  V30 6377 C 579.854 -0.269648 -1.63897 0
M  V30 6378 O 581.039 -0.468463 -1.8496 0
M  V30 6379 C 578.179 -1.28665 -3.20218 0
M  V30 6380 C 577.292 -2.52784 -3.5032 0
M  V30 6381 C 576.427 -2.32517 -4.77608 0
M  V30 6382 C 575.466 -3.52187 -5.0063 0
M  V30 6383 N 574.603 -3.31084 -6.19135 0
M  V30 6384 H 579.443 -2.36558 -1.8123 0
M  V30 6385 H 576.98 -1.17483 -0.885226 0
M  V30 6386 H 578.938 -1.19324 -3.99772 0
M  V30 6387 H 577.568 -0.370602 -3.20666 0
M  V30 6388 H 576.62 -2.72634 -2.65283 0
M  V30 6389 H 577.932 -3.41845 -3.63241 0
M  V30 6390 H 577.086 -2.20558 -5.65189 0
M  V30 6391 H 575.825 -1.40889 -4.66906 0
M  V30 6392 H 574.83 -3.64617 -4.11502 0
M  V30 6393 H 576.055 -4.44749 -5.13201 0
M  V30 6394 H 574.001 -2.42143 -6.09674 0
M  V30 6395 H 573.918 -4.13713 -6.32754 0
M  V30 6396 H 575.186 -3.22868 -7.0949 0
M  V30 6397 N 579.415 0.9433 -1.26252 0
M  V30 6398 C 580.831 1.21644 -1.03319 0
M  V30 6399 C 581.031 2.0003 0.242983 0
M  V30 6400 O 580.087 2.33838 0.952688 0
M  V30 6401 C 581.4 1.97978 -2.2633 0
M  V30 6402 C 582.948 2.10978 -2.31209 0
M  V30 6403 C 583.423 2.90713 -3.53907 0
M  V30 6404 N 584.914 2.98287 -3.54371 0
M  V30 6405 C 585.649 3.60406 -4.45976 0
M  V30 6406 N 585.145 4.24043 -5.47868 0
M  V30 6407 N 586.938 3.57658 -4.33633 0
M  V30 6408 H 579.089 0.419221 -2.08222 0
M  V30 6409 H 581.352 0.247995 -0.914988 0
M  V30 6410 H 581.058 1.47788 -3.19142 0
M  V30 6411 H 580.932 2.9865 -2.30408 0
M  V30 6412 H 583.319 2.6036 -1.38913 0
M  V30 6413 H 583.4 1.09575 -2.31143 0
M  V30 6414 H 583.044 2.42018 -4.46531 0
M  V30 6415 H 582.974 3.92367 -3.5122 0
M  V30 6416 H 585.465 2.53044 -2.80673 0
M  V30 6417 H 585.778 4.69334 -6.13959 0
M  V30 6418 H 584.123 4.22637 -5.51728 0
M  V30 6419 H 587.314 3.07134 -3.53251 0
M  V30 6420 H 587.487 4.05782 -5.05218 0
M  V30 6421 N 580.893 1.08022 1.14757 0
M  V30 6422 C 581.84 0.706657 2.19716 0
M  V30 6423 C 582.81 -0.30525 1.63271 0
M  V30 6424 O 583.995 -0.19015 1.8985 0
M  V30 6425 C 581.135 0.117914 3.44898 0
M  V30 6426 C 580.248 1.18212 4.15512 0
M  V30 6427 C 579.383 0.557659 5.28265 0
M  V30 6428 C 578.422 1.60418 5.90705 0
M  V30 6429 N 577.559 1.0018 6.94916 0
M  V30 6430 H 582.399 1.60603 2.51019 0
M  V30 6431 H 579.936 0.802664 1.23271 0
M  V30 6432 H 581.894 -0.241112 4.16503 0
M  V30 6433 H 580.524 -0.744788 3.1409 0
M  V30 6434 H 579.576 1.65863 3.42335 0
M  V30 6435 H 580.888 1.97533 4.5802 0
M  V30 6436 H 580.042 0.146654 6.06523 0
M  V30 6437 H 578.781 -0.267249 4.86967 0
M  V30 6438 H 577.786 2.02489 5.11154 0
M  V30 6439 H 579.011 2.43149 6.34078 0
M  V30 6440 H 576.957 0.197917 6.55701 0
M  V30 6441 H 576.874 1.73216 7.35889 0
M  V30 6442 H 578.142 0.616523 7.77058 0
M  V30 6443 N 582.371 -1.3172 0.865308 0
M  V30 6444 C 583.62 -1.96145 0.470098 0
M  V30 6445 C 583.933 -1.69182 -0.981674 0
M  V30 6446 O 585.139 -2.27431 -1.48281 0
M  V30 6447 C 583.595 -3.51129 0.789732 0
M  V30 6448 C 583.203 -3.86938 2.25795 0
M  V30 6449 C 584.947 -4.2197 0.462765 0
M  V30 6450 C 582.854 -5.35012 2.52024 0
M  V30 6451 H 581.784 -0.734105 0.172065 0
M  V30 6452 H 584.435 -1.49959 1.05757 0
M  V30 6453 H 582.817 -3.95781 0.131571 0
M  V30 6454 H 583.991 -3.5326 2.95879 0
M  V30 6455 H 582.306 -3.29149 2.55049 0
M  V30 6456 H 584.903 -5.30904 0.636019 0
M  V30 6457 H 585.246 -4.12005 -0.59645 0
M  V30 6458 H 585.779 -3.82936 1.07727 0
M  V30 6459 H 582.518 -5.50008 3.56611 0
M  V30 6460 H 582.038 -5.70058 1.8653 0
M  V30 6461 H 583.717 -6.0222 2.36515 0
M  V30 6462 N 583.85 -0.624285 -1.44708 0
M  V30 6463 C 585.099 -0.123539 -2.01321 0
M  V30 6464 C 585.412 1.25966 -1.49639 0
M  V30 6465 O 586.618 1.85405 -1.98336 0
M  V30 6466 C 585.074 -0.170124 -3.59498 0
M  V30 6467 C 584.682 -1.55421 -4.20176 0
M  V30 6468 C 586.426 0.274513 -4.23611 0
M  V30 6469 C 584.332 -1.55628 -5.70556 0
M  V30 6470 H 583.263 -0.0424183 -0.752806 0
M  V30 6471 H 585.913 -0.782076 -1.65999 0
M  V30 6472 H 584.296 0.555385 -3.92086 0
M  V30 6473 H 585.47 -2.30276 -3.99136 0
M  V30 6474 H 583.784 -1.94235 -3.68323 0
M  V30 6475 H 586.382 0.292402 -5.339 0
M  V30 6476 H 586.725 1.3005 -3.95465 0
M  V30 6477 H 587.258 -0.398275 -3.95801 0
M  V30 6478 H 583.997 -2.56041 -6.03426 0
M  V30 6479 H 583.517 -0.850563 -5.93739 0
M  V30 6480 H 585.196 -1.28721 -6.34066 0
M  V30 6481 N 585.328 1.53329 -0.364422 0
M  V30 6482 C 586.258 2.28627 0.474543 0
M  V30 6483 C 587.239 1.31009 1.08492 0
M  V30 6484 O 588.424 1.59878 1.10239 0
M  V30 6485 C 585.554 3.07465 1.61501 0
M  V30 6486 C 584.508 4.1276 1.13194 0
M  V30 6487 C 583.834 4.79674 2.36255 0
M  V30 6488 C 585.134 5.21847 0.217507 0
M  V30 6489 H 586.828 2.99005 -0.153656 0
M  V30 6490 H 584.374 1.43803 -0.0753406 0
M  V30 6491 H 586.327 3.58889 2.20855 0
M  V30 6492 H 585.051 2.34775 2.27042 0
M  V30 6493 H 583.71 3.62281 0.56109 0
M  V30 6494 H 583.358 4.03557 3.00251 0
M  V30 6495 H 583.058 5.50827 2.04606 0
M  V30 6496 H 584.582 5.33892 2.96297 0
M  V30 6497 H 585.996 5.6878 0.718493 0
M  V30 6498 H 584.393 6.00099 -0.00806408 0
M  V30 6499 H 585.463 4.7921 -0.740653 0
M  V30 6500 N 586.806 0.0935595 1.57322 0
M  V30 6501 C 588.222 -0.263091 1.57417 0
M  V30 6502 C 588.422 -1.68526 1.1046 0
M  V30 6503 O 587.478 -2.40139 0.780357 0
M  V30 6504 C 588.791 -0.0529201 3.00653 0
M  V30 6505 C 590.339 -0.120788 3.12767 0
M  V30 6506 C 590.814 0.0613707 4.57959 0
M  V30 6507 N 592.305 0.00648534 4.632 0
M  V30 6508 C 593.04 0.122699 5.73269 0
M  V30 6509 N 592.536 0.29366 6.92177 0
M  V30 6510 N 594.329 0.0640787 5.62063 0
M  V30 6511 H 586.48 1.02277 1.86154 0
M  V30 6512 H 588.743 0.4007 0.859153 0
M  V30 6513 H 588.449 0.929279 3.39201 0
M  V30 6514 H 588.323 -0.795899 3.68708 0
M  V30 6515 H 590.71 -1.09349 2.74093 0
M  V30 6516 H 590.791 0.653656 2.47307 0
M  V30 6517 H 590.435 1.03093 4.97327 0
M  V30 6518 H 590.365 -0.732748 5.21477 0
M  V30 6519 H 592.856 -0.123173 3.77699 0
M  V30 6520 H 593.169 0.37389 7.71895 0
M  V30 6521 H 591.514 0.329307 6.94219 0
M  V30 6522 H 594.705 -0.0683396 4.6805 0
M  V30 6523 H 594.878 0.158097 6.47807 0
M  V30 6524 N 588.284 -1.56567 -0.180126 0
M  V30 6525 C 589.533 -1.80685 -0.896426 0
M  V30 6526 C 589.846 -0.669335 -1.83791 0
M  V30 6527 O 591.052 -0.795209 -2.59593 0
M  V30 6528 C 589.508 -3.20132 -1.6445 0
M  V30 6529 C 589.116 -4.41727 -0.747088 0
M  V30 6530 C 590.86 -3.53549 -2.34955 0
M  V30 6531 C 588.767 -5.72195 -1.49489 0
M  V30 6532 H 587.697 -0.673758 -0.338477 0
M  V30 6533 H 590.348 -1.8289 -0.149467 0
M  V30 6534 H 588.73 -3.12218 -2.43589 0
M  V30 6535 H 589.904 -4.608 0.00671129 0
M  V30 6536 H 588.219 -4.16122 -0.152134 0
M  V30 6537 H 590.816 -4.48267 -2.91481 0
M  V30 6538 H 591.159 -2.78006 -3.09868 0
M  V30 6539 H 591.692 -3.62976 -1.62768 0
M  V30 6540 H 588.431 -6.50743 -0.788251 0
M  V30 6541 H 587.951 -5.57115 -2.22224 0
M  V30 6542 H 589.63 -6.1384 -2.04472 0
M  V30 6543 N 589.762 0.448376 -1.51087 0
M  V30 6544 C 590.71 1.56407 -1.72161 0
M  V30 6545 C 591.704 1.58878 -0.587721 0
M  V30 6546 O 592.91 1.62755 -0.768822 0
M  V30 6547 H 589.285 0.519423 -0.543786 0
M  V30 6548 H 591.256 1.35803 -2.65707 0
M  V30 6549 C 590.005 2.94163 -1.85373 0
M  V30 6550 H 589.328 2.9299 -2.72024 0
M  V30 6551 H 590.768 3.71625 -2.04135 0
M  V30 6552 C 589.227 3.31317 -0.610803 0
M  V30 6553 O 589.757 4.00985 0.239636 0
M  V30 6554 N 587.963 2.86966 -0.458127 0
M  V30 6555 H 587.51 2.30443 -1.15124 0
M  V30 6556 H 587.468 3.12188 0.372289 0
M  V30 6557 N 591.24 1.41047 0.703093 0
M  V30 6558 C 592.489 1.39301 1.4587 0
M  V30 6559 C 592.802 0.00267077 1.956 0
M  V30 6560 O 594.008 -0.137414 2.71152 0
M  V30 6561 C 592.464 2.44891 2.63735 0
M  V30 6562 C 592.072 3.89796 2.20824 0
M  V30 6563 C 593.816 2.5227 3.41409 0
M  V30 6564 C 591.723 4.86955 3.35602 0
M  V30 6565 H 590.653 0.518005 0.547893 0
M  V30 6566 H 593.304 1.66839 0.764009 0
M  V30 6567 H 591.686 2.10472 3.35436 0
M  V30 6568 H 592.86 4.33424 1.56461 0
M  V30 6569 H 591.175 3.86008 1.56163 0
M  V30 6570 H 593.772 3.22044 4.26839 0
M  V30 6571 H 594.115 1.55714 3.86081 0
M  V30 6572 H 594.648 2.85742 2.7676 0
M  V30 6573 H 591.387 5.84888 2.9595 0
M  V30 6574 H 590.907 4.47982 3.98839 0
M  V30 6575 H 592.586 5.07361 4.01489 0
M  V30 6576 N 592.718 -0.936591 1.26751 0
M  V30 6577 C 594.129 -1.49816 1.1141 0
M  V30 6578 C 594.48 -1.9383 -0.304015 0
M  V30 6579 O 593.605 -1.80346 -1.196 0
M  V30 6580 C 594.2 -2.72271 2.01629 0
M  V30 6581 C 592.759 -3.2468 1.9042 0
M  V30 6582 C 591.906 -1.97444 1.94708 0
M  V30 6583 H 594.857 -0.751604 1.39773 0
M  V30 6584 H 594.878 -3.46741 1.56688 0
M  V30 6585 H 594.39 -2.40205 3.04833 0
M  V30 6586 H 592.491 -3.61525 0.901674 0
M  V30 6587 H 592.604 -3.91476 2.76195 0
M  V30 6588 H 590.968 -2.13545 1.38818 0
M  V30 6589 H 591.751 -1.67703 2.9955 0
M  V30 6590 N 594.196 -1.08629 -1.14182 0
M  V30 6591 C 595.143 -0.718299 -2.19338 0
M  V30 6592 C 596.113 0.296587 -1.63431 0
M  V30 6593 O 597.298 0.180079 -1.89948 0
M  V30 6594 C 594.438 -0.136203 -3.44831 0
M  V30 6595 C 593.551 -1.20414 -4.14879 0
M  V30 6596 C 592.686 -0.585666 -5.27962 0
M  V30 6597 C 591.725 -1.63548 -5.89846 0
M  V30 6598 N 590.862 -1.03864 -6.94375 0
M  V30 6599 H 595.702 -1.61932 -2.50164 0
M  V30 6600 H 593.239 -0.80919 -1.22844 0
M  V30 6601 H 595.197 0.219021 -4.16625 0
M  V30 6602 H 593.827 0.728121 -3.14481 0
M  V30 6603 H 592.879 -1.67676 -3.41451 0
M  V30 6604 H 594.191 -1.99959 -4.56966 0
M  V30 6605 H 593.345 -0.178818 -6.06436 0
M  V30 6606 H 592.084 0.24142 -4.87102 0
M  V30 6607 H 591.089 -2.05197 -5.10073 0
M  V30 6608 H 592.314 -2.46509 -6.3278 0
M  V30 6609 H 590.26 -0.232687 -6.55587 0
M  V30 6610 H 590.177 -1.77116 -7.3496 0
M  V30 6611 H 591.445 -0.657724 -7.7672 0
M  V30 6612 N 595.674 1.31259 -0.872281 0
M  V30 6613 C 596.951 1.91362 -0.404943 0
M  V30 6614 C 597.331 1.79362 1.11321 0
M  V30 6615 O 596.679 1.20277 1.94283 0
M  V30 6616 C 596.889 3.3749 -0.888893 0
M  V30 6617 C 598.237 4.14593 -0.916384 0
M  V30 6618 O 599.261 3.46282 -0.834701 0
M  V30 6619 O 598.12 5.3661 -1.03498 0
M  V30 6620 H 595.214 0.818016 -0.121569 0
M  V30 6621 H 597.76 1.39912 -0.960346 0
M  V30 6622 H 596.532 3.40249 -1.93251 0
M  V30 6623 H 596.155 3.96375 -0.311932 0
M  V30 6624 N 597.152 0.631951 1.44375 0
M  V30 6625 C 598.377 0.142146 2.06912 0
M  V30 6626 C 598.802 -1.17456 1.4692 0
M  V30 6627 O 598.16 -1.72074 0.570975 0
M  V30 6628 C 598.208 0.0417952 3.60576 0
M  V30 6629 O 597.312 -1.00194 4.00044 0
M  V30 6630 H 596.653 0.0851491 0.658518 0
M  V30 6631 H 599.183 0.868863 1.85235 0
M  V30 6632 H 599.193 -0.148517 4.0773 0
M  V30 6633 H 597.868 1.0031 4.03622 0
M  V30 6634 H 596.445 -0.786131 3.64519 0
M  V30 6635 N 598.631 -1.53133 0.372548 0
M  V30 6636 C 600.042 -1.86404 -0.105155 0
M  V30 6637 C 600.393 -1.29289 -1.47576 0
M  V30 6638 O 599.518 -0.617646 -2.07398 0
M  V30 6639 C 600.113 -3.38223 -0.197588 0
M  V30 6640 C 598.672 -3.71266 -0.619556 0
M  V30 6641 C 597.819 -2.76353 0.228919 0
M  V30 6642 H 600.77 -1.47282 0.591077 0
M  V30 6643 H 600.791 -3.66577 -1.01987 0
M  V30 6644 H 600.303 -3.79763 0.800099 0
M  V30 6645 H 598.404 -3.35287 -1.62522 0
M  V30 6646 H 598.517 -4.77515 -0.389332 0
M  V30 6647 H 596.881 -2.52888 -0.303271 0
M  V30 6648 H 597.664 -3.20728 1.22428 0
M  V30 6649 N 600.109 -0.101901 -1.5727 0
M  V30 6650 C 601.357 0.559091 -1.94213 0
M  V30 6651 C 601.678 1.68297 -0.984948 0
M  V30 6652 O 600.948 1.95863 -0.0381975 0
M  V30 6653 H 599.528 0.20952 -0.717015 0
M  V30 6654 H 602.19 -0.166831 -1.94185 0
M  V30 6655 H 601.286 0.96485 -2.96811 0
M  V30 6656 N 601.587 1.56661 0.17182 0
M  V30 6657 C 602.55 1.9549 1.19651 0
M  V30 6658 C 603.55 0.838501 1.37207 0
M  V30 6659 O 604.74 1.10556 1.34622 0
M  V30 6660 C 601.872 2.24927 2.56166 0
M  V30 6661 H 603.065 2.87184 0.864007 0
M  V30 6662 H 600.618 1.50711 0.41425 0
M  V30 6663 H 601.353 1.35944 2.94431 0
M  V30 6664 H 601.138 3.06301 2.4479 0
M  V30 6665 H 602.628 2.55891 3.30014 0
M  V30 6666 N 603.065 -0.440357 1.51323 0
M  V30 6667 C 604.295 -1.21079 1.67402 0
M  V30 6668 C 604.703 -1.85555 0.369599 0
M  V30 6669 O 604.046 -1.71375 -0.661525 0
M  V30 6670 C 604.108 -2.33839 2.73056 0
M  V30 6671 C 603.772 -1.89755 4.15743 0
M  V30 6672 C 604.769 -1.40268 5.0062 0
M  V30 6673 C 602.454 -1.97539 4.61826 0
M  V30 6674 C 604.448 -0.991474 6.29642 0
M  V30 6675 C 602.135 -1.56029 5.90845 0
M  V30 6676 C 603.133 -1.06915 6.7458 0
M  V30 6677 O 602.821 -0.659933 8.01187 0
M  V30 6678 H 602.553 -0.371133 0.56501 0
M  V30 6679 H 605.107 -0.528409 1.98487 0
M  V30 6680 H 603.337 -3.05345 2.37279 0
M  V30 6681 H 605.026 -2.95713 2.78044 0
M  V30 6682 H 605.792 -1.33652 4.66221 0
M  V30 6683 H 601.671 -2.34713 3.96776 0
M  V30 6684 H 605.215 -0.607425 6.9495 0
M  V30 6685 H 601.112 -1.62315 6.24759 0
M  V30 6686 H 601.88 -0.786052 8.14717 0
M  V30 6687 N 604.543 -1.41418 -0.695603 0
M  V30 6688 C 605.473 -1.46035 -1.82197 0
M  V30 6689 C 606.454 -0.319025 -1.67082 0
M  V30 6690 O 607.639 -0.530462 -1.86815 0
M  V30 6691 C 604.769 -1.34179 -3.20333 0
M  V30 6692 C 603.723 -2.46123 -3.50154 0
M  V30 6693 C 603.049 -2.19332 -4.87645 0
M  V30 6694 C 604.349 -3.88463 -3.49133 0
M  V30 6695 H 606.043 -2.40303 -1.78591 0
M  V30 6696 H 603.589 -1.15663 -0.857797 0
M  V30 6697 H 605.542 -1.36021 -3.98844 0
M  V30 6698 H 604.266 -0.363952 -3.24566 0
M  V30 6699 H 602.925 -2.43563 -2.73994 0
M  V30 6700 H 602.573 -1.19891 -4.88503 0
M  V30 6701 H 602.273 -2.94344 -5.08562 0
M  V30 6702 H 603.797 -2.22889 -5.68465 0
M  V30 6703 H 605.211 -3.92738 -4.17648 0
M  V30 6704 H 603.608 -4.63158 -3.81582 0
M  V30 6705 H 604.678 -4.16617 -2.48109 0
M  V30 6706 N 606.021 0.929856 -1.27246 0
M  V30 6707 C 607.246 1.71674 -1.16374 0
M  V30 6708 C 607.671 1.86064 0.276024 0
M  V30 6709 O 607.029 1.3591 1.19992 0
M  V30 6710 C 607.077 3.09526 -1.85003 0
M  V30 6711 O 606.181 3.96142 -1.14653 0
M  V30 6712 H 605.522 0.52629 -0.404863 0
M  V30 6713 H 608.052 1.16381 -1.68276 0
M  V30 6714 H 608.062 3.59852 -1.92276 0
M  V30 6715 H 606.737 2.98369 -2.89739 0
M  V30 6716 H 605.314 3.54584 -1.15433 0
M  V30 6717 N 607.499 1.09233 1.13605 0
M  V30 6718 C 608.462 0.733553 2.17144 0
M  V30 6719 C 609.462 -0.235873 1.59061 0
M  V30 6720 O 610.652 -0.0143167 1.74194 0
M  V30 6721 C 607.784 0.084471 3.40795 0
M  V30 6722 H 608.977 1.65049 2.50397 0
M  V30 6723 H 606.53 0.891264 1.28399 0
M  V30 6724 H 607.265 -0.843795 3.1313 0
M  V30 6725 H 607.05 0.781985 3.84223 0
M  V30 6726 H 608.54 -0.151216 4.17326 0
M  V30 6727 N 608.977 -1.30795 0.87923 0
M  V30 6728 C 610.226 -1.95636 0.490875 0
M  V30 6729 C 610.539 -1.70214 -0.963674 0
M  V30 6730 O 611.745 -2.28991 -1.45861 0
M  V30 6731 C 610.201 -3.50271 0.826929 0
M  V30 6732 C 609.809 -3.84521 2.29886 0
M  V30 6733 C 611.553 -4.21456 0.507494 0
M  V30 6734 C 609.46 -5.32309 2.57685 0
M  V30 6735 H 608.39 -0.732238 0.179841 0
M  V30 6736 H 611.041 -1.48829 1.07341 0
M  V30 6737 H 609.423 -3.9562 0.173542 0
M  V30 6738 H 610.597 -3.50102 2.99609 0
M  V30 6739 H 608.912 -3.26425 2.58526 0
M  V30 6740 H 611.509 -5.30199 0.692293 0
M  V30 6741 H 611.852 -4.12614 -0.552718 0
M  V30 6742 H 612.385 -3.81772 1.11782 0
M  V30 6743 H 609.124 -5.46195 3.62424 0
M  V30 6744 H 608.644 -5.68048 1.92566 0
M  V30 6745 H 610.323 -5.99678 2.42889 0
M  V30 6746 N 610.455 -0.639598 -1.44038 0
M  V30 6747 C 611.866 -0.228866 -1.85292 0
M  V30 6748 C 612.217 1.22161 -1.53529 0
M  V30 6749 O 611.342 1.93064 -0.977518 0
M  V30 6750 C 611.937 -0.408592 -3.36327 0
M  V30 6751 C 610.496 -0.0522953 -3.76364 0
M  V30 6752 C 609.643 -0.717959 -2.67844 0
M  V30 6753 H 612.594 -0.844194 -1.34384 0
M  V30 6754 H 612.615 0.349968 -3.78887 0
M  V30 6755 H 612.127 -1.46435 -3.59414 0
M  V30 6756 H 610.228 1.0014 -3.58891 0
M  V30 6757 H 610.341 -0.468261 -4.76806 0
M  V30 6758 H 608.705 -0.152459 -2.54243 0
M  V30 6759 H 609.488 -1.77648 -2.93762 0
M  V30 6760 N 611.933 1.52934 -0.380664 0
M  V30 6761 C 613.181 2.01069 0.203874 0
M  V30 6762 C 613.502 1.26922 1.4804 0
M  V30 6763 O 612.772 0.386787 1.92044 0
M  V30 6764 H 611.352 0.742882 0.0783279 0
M  V30 6765 H 614.014 1.88099 -0.510368 0
M  V30 6766 H 613.11 3.09258 0.42021 0
M  V30 6767 N 613.412 0.11024 1.57214 0
M  V30 6768 C 614.642 -0.557025 1.98949 0
M  V30 6769 C 615.05 -1.61317 0.988606 0
M  V30 6770 O 614.393 -1.83679 -0.0279159 0
M  V30 6771 C 614.455 -1.24956 3.37085 0
M  V30 6772 C 614.119 -0.342398 4.55716 0
M  V30 6773 C 615.116 0.415511 5.18237 0
M  V30 6774 C 612.801 -0.256029 5.01647 0
M  V30 6775 C 614.795 1.24761 6.25071 0
M  V30 6776 C 612.482 0.579713 6.08344 0
M  V30 6777 C 613.48 1.33017 6.69922 0
M  V30 6778 O 613.168 2.15205 7.74559 0
M  V30 6779 H 612.9 -0.152792 0.658506 0
M  V30 6780 H 615.454 0.19076 2.04512 0
M  V30 6781 H 613.684 -2.04424 3.2825 0
M  V30 6782 H 615.373 -1.81286 3.63167 0
M  V30 6783 H 616.139 0.358605 4.83672 0
M  V30 6784 H 612.018 -0.829831 4.5347 0
M  V30 6785 H 615.562 1.83386 6.73064 0
M  V30 6786 H 611.459 0.638044 6.42339 0
M  V30 6787 H 612.227 2.08052 7.91617 0
M  V30 6788 N 614.89 -1.56749 -0.16351 0
M  V30 6789 C 615.853 -1.96121 -1.18613 0
M  V30 6790 C 616.853 -0.845765 -1.36761 0
M  V30 6791 O 618.043 -1.11268 -1.34033 0
M  V30 6792 C 615.175 -2.26282 -2.54969 0
M  V30 6793 H 616.368 -2.87639 -0.848764 0
M  V30 6794 H 613.921 -1.50928 -0.406251 0
M  V30 6795 H 614.656 -1.37504 -2.93706 0
M  V30 6796 H 614.441 -3.07595 -2.43162 0
M  V30 6797 H 615.931 -2.57638 -3.28653 0
M  V30 6798 N 616.368 0.432326 -1.51554 0
M  V30 6799 C 617.616 1.17901 -1.64146 0
M  V30 6800 C 617.937 1.91604 -0.362367 0
M  V30 6801 O 617.207 1.85764 0.621968 0
M  V30 6802 H 615.787 0.438206 -0.604966 0
M  V30 6803 H 618.449 0.495172 -1.88505 0
M  V30 6804 H 617.545 1.90584 -2.47152 0
M  V30 6805 N 617.846 1.41785 0.688094 0
M  V30 6806 C 618.756 1.46596 1.83158 0
M  V30 6807 C 619.772 0.355862 1.70322 0
M  V30 6808 O 620.948 0.604737 1.92106 0
M  V30 6809 C 618.013 1.35322 3.192 0
M  V30 6810 C 617.074 2.56711 3.4409 0
M  V30 6811 C 616.307 2.45965 4.73642 0
M  V30 6812 O 616.53 1.48827 5.50642 0
M  V30 6813 O 615.464 3.35859 4.99482 0
M  V30 6814 H 619.29 2.43083 1.82056 0
M  V30 6815 H 616.875 1.23404 0.842126 0
M  V30 6816 H 618.757 1.31347 4.00407 0
M  V30 6817 H 617.432 0.419536 3.2097 0
M  V30 6818 H 616.339 2.66262 2.62784 0
M  V30 6819 H 617.672 3.48933 3.47141 0
M  V30 6820 N 619.324 -0.923095 1.27737 0
M  V30 6821 C 620.554 -1.70277 1.17001 0
M  V30 6822 C 620.962 -1.87188 -0.275199 0
M  V30 6823 O 620.305 -1.39195 -1.19877 0
M  V30 6824 C 620.367 -3.11976 1.78637 0
M  V30 6825 C 620.031 -3.18386 3.27841 0
M  V30 6826 C 621.028 -3.00287 4.2441 0
M  V30 6827 C 618.713 -3.41198 3.68632 0
M  V30 6828 C 620.707 -3.04896 5.59747 0
M  V30 6829 C 618.394 -3.4544 5.04097 0
M  V30 6830 C 619.392 -3.27309 5.99465 0
M  V30 6831 O 619.08 -3.31295 7.32461 0
M  V30 6832 H 618.812 -0.539366 0.407505 0
M  V30 6833 H 621.366 -1.16446 1.69202 0
M  V30 6834 H 619.596 -3.67308 1.20919 0
M  V30 6835 H 621.285 -3.7193 1.6255 0
M  V30 6836 H 622.051 -2.825 3.94232 0
M  V30 6837 H 617.93 -3.54359 2.94873 0
M  V30 6838 H 621.474 -2.90662 6.34162 0
M  V30 6839 H 617.371 -3.62753 5.33929 0
M  V30 6840 H 618.139 -3.47719 7.40968 0
M  V30 6841 N 620.802 -1.09834 -1.13024 0
M  V30 6842 C 621.712 -0.753731 -2.22162 0
M  V30 6843 C 622.728 0.246105 -1.72251 0
M  V30 6844 O 623.904 0.0864051 -2.01215 0
M  V30 6845 C 620.969 -0.183958 -3.46212 0
M  V30 6846 C 620.03 -1.24028 -4.10993 0
M  V30 6847 C 619.263 -0.697597 -5.29121 0
M  V30 6848 O 619.486 0.478092 -5.68393 0
M  V30 6849 O 618.42 -1.4546 -5.84059 0
M  V30 6850 H 622.246 -1.66456 -2.5402 0
M  V30 6851 H 619.831 -0.873026 -1.21238 0
M  V30 6852 H 621.713 0.130257 -4.21199 0
M  V30 6853 H 620.388 0.699823 -3.16045 0
M  V30 6854 H 619.295 -1.60725 -3.37814 0
M  V30 6855 H 620.628 -2.09685 -4.45301 0
M  V30 6856 N 622.28 1.30327 -0.886154 0
M  V30 6857 C 623.526 1.96388 -0.505941 0
M  V30 6858 C 623.859 1.69784 0.942712 0
M  V30 6859 O 623.134 1.00322 1.6663 0
M  V30 6860 C 623.417 3.51488 -0.782826 0
M  V30 6861 C 623.27 3.87603 -2.28219 0
M  V30 6862 C 624.589 4.39331 -0.260128 0
M  V30 6863 H 621.708 0.713327 -0.185292 0
M  V30 6864 H 624.35 1.54178 -1.11036 0
M  V30 6865 H 622.5 3.87572 -0.268399 0
M  V30 6866 H 624.172 3.61537 -2.86512 0
M  V30 6867 H 622.415 3.3563 -2.74837 0
M  V30 6868 H 623.086 4.95806 -2.42653 0
M  V30 6869 H 625.562 4.10162 -0.700444 0
M  V30 6870 H 624.438 5.46769 -0.483179 0
M  V30 6871 H 624.699 4.34072 0.838674 0
M  V30 6872 N 623.758 0.647228 1.43697 0
M  V30 6873 C 624.688 -0.0345631 2.33474 0
M  V30 6874 C 625.669 -0.818193 1.4913 0
M  V30 6875 O 626.854 -0.780867 1.77809 0
M  V30 6876 C 623.984 -1.00576 3.32418 0
M  V30 6877 C 622.938 -0.33266 4.26705 0
M  V30 6878 C 622.264 -1.41489 5.1564 0
M  V30 6879 C 623.564 0.771204 5.16575 0
M  V30 6880 H 625.258 0.715163 2.90733 0
M  V30 6881 H 622.804 0.345364 1.39797 0
M  V30 6882 H 624.757 -1.49159 3.94119 0
M  V30 6883 H 623.481 -1.78657 2.73403 0
M  V30 6884 H 622.14 0.13267 3.6636 0
M  V30 6885 H 621.788 -2.18698 4.52968 0
M  V30 6886 H 621.488 -0.969799 5.79542 0
M  V30 6887 H 623.012 -1.9022 5.80214 0
M  V30 6888 H 624.426 0.36779 5.72119 0
M  V30 6889 H 622.823 1.1404 5.89165 0
M  V30 6890 H 623.893 1.63169 4.56622 0
M  V30 6891 N 625.236 -1.5273 0.388769 0
M  V30 6892 C 626.166 -2.29353 -0.438111 0
M  V30 6893 C 627.147 -1.32719 -1.06394 0
M  V30 6894 O 628.332 -1.61612 -1.07681 0
M  V30 6895 C 625.462 -3.09995 -1.56589 0
M  V30 6896 C 624.416 -4.14509 -1.06613 0
M  V30 6897 C 623.742 -4.83372 -2.28594 0
M  V30 6898 C 625.042 -5.22127 -0.134459 0
M  V30 6899 H 626.736 -2.98723 0.201206 0
M  V30 6900 H 624.282 -1.43665 0.0982089 0
M  V30 6901 H 626.235 -3.62357 -2.15118 0
M  V30 6902 H 624.959 -2.38357 -2.23279 0
M  V30 6903 H 623.618 -3.63128 -0.503383 0
M  V30 6904 H 623.266 -4.08283 -2.93792 0
M  V30 6905 H 622.966 -5.54012 -1.95817 0
M  V30 6906 H 624.49 -5.38538 -2.87766 0
M  V30 6907 H 625.904 -5.69851 -0.627914 0
M  V30 6908 H 624.301 -6.00011 0.103534 0
M  V30 6909 H 625.371 -4.77971 0.816798 0
M  V30 6910 N 626.714 -0.118576 -1.57153 0
M  V30 6911 C 627.662 0.849114 -2.16547 0
M  V30 6912 C 628.656 1.27567 -1.11458 0
M  V30 6913 O 629.862 1.24746 -1.29763 0
M  V30 6914 H 626.237 0.291935 -0.693021 0
M  V30 6915 H 628.208 0.323693 -2.96639 0
M  V30 6916 C 626.957 2.08951 -2.77912 0
M  V30 6917 H 626.28 1.77021 -3.58474 0
M  V30 6918 H 627.72 2.74666 -3.23008 0
M  V30 6919 C 626.179 2.87899 -1.74974 0
M  V30 6920 O 626.709 3.83268 -1.20285 0
M  V30 6921 N 624.915 2.51884 -1.44924 0
M  V30 6922 H 624.462 1.74397 -1.89587 0
M  V30 6923 H 624.42 3.05003 -0.762921 0
M  V30 6924 N 628.193 1.56834 0.155195 0
M  V30 6925 C 629.143 1.94061 1.19684 0
M  V30 6926 C 630.127 0.810851 1.38975 0
M  V30 6927 O 631.319 1.07422 1.40675 0
M  V30 6928 C 628.448 2.31778 2.53247 0
M  V30 6929 C 627.534 3.51305 2.37583 0
M  V30 6930 N 627.925 4.68081 1.9166 0
M  V30 6931 C 626.223 3.56228 2.6836 0
M  V30 6932 C 626.924 5.50193 1.88845 0
M  V30 6933 N 625.9 4.91676 2.31852 0
M  V30 6934 H 629.702 2.81826 0.833747 0
M  V30 6935 H 627.216 1.58284 0.363328 0
M  V30 6936 H 629.213 2.56649 3.28538 0
M  V30 6937 H 627.873 1.4536 2.90346 0
M  V30 6938 H 628.884 4.91993 1.6175 0
M  V30 6939 H 625.561 2.8033 3.09389 0
M  V30 6940 H 626.951 6.53801 1.54901 0
M  V30 6941 N 629.671 -0.424282 1.51781 0
M  V30 6942 C 630.919 -1.17028 1.64769 0
M  V30 6943 C 631.24 -1.91409 0.372523 0
M  V30 6944 O 630.51 -1.86091 -0.612108 0
M  V30 6945 H 629.09 -0.434992 0.607282 0
M  V30 6946 H 631.752 -0.485169 1.88765 0
M  V30 6947 H 630.848 -1.8927 2.4816 0
M  V30 6948 N 631.149 -1.42148 -0.680565 0
M  V30 6949 C 632.374 -1.45901 -1.47403 0
M  V30 6950 C 632.799 -0.0700985 -1.87969 0
M  V30 6951 O 632.157 0.930145 -1.55621 0
M  V30 6952 C 632.205 -2.38661 -2.70321 0
M  V30 6953 O 631.309 -1.85399 -3.68376 0
M  V30 6954 H 630.65 -0.494565 -0.443059 0
M  V30 6955 H 633.18 -1.86774 -0.835251 0
M  V30 6956 H 633.19 -2.55046 -3.18458 0
M  V30 6957 H 631.865 -3.39571 -2.40134 0
M  V30 6958 H 630.442 -1.78541 -3.2738 0
M  V30 6959 N 632.627 0.916307 -1.28225 0
M  V30 6960 C 633.574 2.01841 -1.11932 0
M  V30 6961 C 634.544 1.66091 -0.0171604 0
M  V30 6962 O 635.729 1.89934 -0.181617 0
M  V30 6963 C 632.869 3.36065 -0.784504 0
M  V30 6964 C 631.982 3.847 -1.96544 0
M  V30 6965 C 631.117 5.07423 -1.57149 0
M  V30 6966 C 630.156 5.48384 -2.71922 0
M  V30 6967 N 629.293 6.62298 -2.33037 0
M  V30 6968 H 634.133 2.1511 -2.06232 0
M  V30 6969 H 631.67 1.05366 -1.02647 0
M  V30 6970 H 633.628 4.13272 -0.571148 0
M  V30 6971 H 632.258 3.22571 0.121565 0
M  V30 6972 H 631.31 3.03673 -2.291 0
M  V30 6973 H 632.622 4.1102 -2.82603 0
M  V30 6974 H 631.776 5.92165 -1.32004 0
M  V30 6975 H 630.515 4.82906 -0.682153 0
M  V30 6976 H 629.52 4.62184 -2.97768 0
M  V30 6977 H 630.745 5.7489 -3.61494 0
M  V30 6978 H 628.691 6.39416 -1.4657 0
M  V30 6979 H 628.608 6.8833 -3.12631 0
M  V30 6980 H 629.876 7.50352 -2.11169 0
M  V30 6981 N 634.105 1.10431 1.1244 0
M  V30 6982 C 635.352 0.846717 1.83948 0
M  V30 6983 C 635.68 -0.627709 1.84093 0
M  V30 6984 O 634.935 -1.47876 1.28184 0
M  V30 6985 C 635.234 1.34022 3.3132 0
M  V30 6986 C 634.9 2.82606 3.51347 0
M  V30 6987 C 633.562 3.23182 3.56521 0
M  V30 6988 C 635.914 3.78356 3.58464 0
M  V30 6989 C 633.242 4.58258 3.66356 0
M  V30 6990 C 635.594 5.13234 3.69829 0
M  V30 6991 C 634.258 5.53384 3.73259 0
M  V30 6992 H 633.528 0.309836 0.673114 0
M  V30 6993 H 636.175 1.38091 1.32677 0
M  V30 6994 H 634.48 0.726047 3.85014 0
M  V30 6995 H 636.177 1.11739 3.85118 0
M  V30 6996 H 632.767 2.50212 3.47983 0
M  V30 6997 H 636.951 3.48115 3.53737 0
M  V30 6998 H 632.207 4.88787 3.67284 0
M  V30 6999 H 636.381 5.87272 3.74279 0
M  V30 7000 H 634.008 6.58045 3.80633 0
M  V30 7001 N 635.583 -1.29855 0.893053 0
M  V30 7002 C 636.53 -2.27909 0.364161 0
M  V30 7003 C 637.5 -1.56726 -0.550093 0
M  V30 7004 O 638.685 -1.84747 -0.47677 0
M  V30 7005 C 635.825 -3.42678 -0.408178 0
M  V30 7006 C 634.938 -4.28659 0.536212 0
M  V30 7007 C 634.073 -5.30599 -0.252521 0
M  V30 7008 C 633.112 -6.08234 0.686822 0
M  V30 7009 N 632.249 -7.02068 -0.0670902 0
M  V30 7010 H 637.089 -2.72531 1.20544 0
M  V30 7011 H 634.626 -1.34047 0.605779 0
M  V30 7012 H 636.584 -4.07986 -0.871962 0
M  V30 7013 H 635.214 -2.99103 -1.21397 0
M  V30 7014 H 634.266 -3.63584 1.1185 0
M  V30 7015 H 635.578 -4.8274 1.25552 0
M  V30 7016 H 634.732 -6.01694 -0.777801 0
M  V30 7017 H 633.471 -4.77233 -1.005 0
M  V30 7018 H 632.476 -5.3601 1.22366 0
M  V30 7019 H 633.701 -6.63689 1.43852 0
M  V30 7020 H 631.647 -6.5108 -0.801955 0
M  V30 7021 H 631.564 -7.53675 0.59243 0
M  V30 7022 H 632.832 -7.77392 -0.572851 0
M  V30 7023 N 637.061 -0.65484 -1.43351 0
M  V30 7024 C 638.31 -0.166215 -2.01014 0
M  V30 7025 C 638.623 1.22764 -1.52278 0
M  V30 7026 O 639.829 1.81156 -2.02224 0
M  V30 7027 C 638.285 -0.246341 -3.59056 0
M  V30 7028 C 637.893 -1.64299 -4.16785 0
M  V30 7029 C 639.637 0.184597 -4.24098 0
M  V30 7030 C 637.544 -1.67695 -5.67126 0
M  V30 7031 H 636.474 -0.0583769 -0.751737 0
M  V30 7032 H 639.125 -0.817111 -1.64303 0
M  V30 7033 H 637.507 0.472092 -3.93176 0
M  V30 7034 H 638.681 -2.3869 -3.94162 0
M  V30 7035 H 636.996 -2.02004 -3.6412 0
M  V30 7036 H 639.593 0.179088 -5.344 0
M  V30 7037 H 639.936 1.21632 -3.98135 0
M  V30 7038 H 640.469 -0.482141 -3.94867 0
M  V30 7039 H 637.208 -2.68783 -5.9786 0
M  V30 7040 H 636.728 -0.976313 -5.91801 0
M  V30 7041 H 638.407 -1.42142 -6.31193 0
M  V30 7042 N 638.539 1.52521 -0.396863 0
M  V30 7043 C 639.487 2.28217 0.44943 0
M  V30 7044 C 640.481 1.32416 1.05652 0
M  V30 7045 O 641.687 1.49925 0.996124 0
M  V30 7046 H 638.062 0.733966 0.1637 0
M  V30 7047 H 640.033 2.97658 -0.210367 0
M  V30 7048 C 638.782 3.10713 1.56054 0
M  V30 7049 H 638.105 3.84291 1.10273 0
M  V30 7050 H 639.545 3.66803 2.12677 0
M  V30 7051 C 638.004 2.23499 2.52091 0
M  V30 7052 O 638.534 1.8669 3.55682 0
M  V30 7053 N 636.74 1.8751 2.2201 0
M  V30 7054 H 636.287 2.17643 1.37802 0
M  V30 7055 H 636.245 1.29448 2.86514 0
M  V30 7056 N 640.017 0.126909 1.57088 0
M  V30 7057 C 640.964 -0.82036 2.15728 0
M  V30 7058 C 641.934 -1.25811 1.08447 0
M  V30 7059 O 643.119 -1.33422 1.36393 0
M  V30 7060 C 640.259 -2.06199 2.76724 0
M  V30 7061 C 639.372 -1.67188 3.98337 0
M  V30 7062 C 638.507 -2.86378 4.47393 0
M  V30 7063 C 637.546 -2.43644 5.61519 0
M  V30 7064 N 636.683 -3.55775 6.05284 0
M  V30 7065 H 641.523 -0.313472 2.96347 0
M  V30 7066 H 639.06 -0.14303 1.46403 0
M  V30 7067 H 641.018 -2.78959 3.10222 0
M  V30 7068 H 639.648 -2.54333 1.98782 0
M  V30 7069 H 638.7 -0.842714 3.70948 0
M  V30 7070 H 640.012 -1.31789 4.81075 0
M  V30 7071 H 639.166 -3.67353 4.82842 0
M  V30 7072 H 637.905 -3.25009 3.63621 0
M  V30 7073 H 636.91 -1.61104 5.25667 0
M  V30 7074 H 638.135 -2.06122 6.47063 0
M  V30 7075 H 636.081 -3.94065 5.24451 0
M  V30 7076 H 635.998 -3.24325 6.82898 0
M  V30 7077 H 637.266 -4.37166 6.45373 0
M  V30 7078 N 641.495 -1.56914 -0.146875 0
M  V30 7079 C 642.741 -1.83628 -0.860741 0
M  V30 7080 C 643.074 -0.708528 -1.80813 0
M  V30 7081 O 642.349 0.287838 -1.92358 0
M  V30 7082 C 642.632 -3.20836 -1.63511 0
M  V30 7083 C 642.485 -4.44174 -0.709199 0
M  V30 7084 C 643.804 -3.55268 -2.59756 0
M  V30 7085 H 640.923 -0.667949 -0.311468 0
M  V30 7086 H 643.565 -1.89582 -0.125936 0
M  V30 7087 H 641.715 -3.15891 -2.26153 0
M  V30 7088 H 643.387 -4.61205 -0.0937781 0
M  V30 7089 H 641.63 -4.33796 -0.0187856 0
M  V30 7090 H 642.301 -5.36785 -1.28707 0
M  V30 7091 H 644.777 -3.60824 -2.07232 0
M  V30 7092 H 643.653 -4.52303 -3.10987 0
M  V30 7093 H 643.914 -2.81231 -3.41118 0
M  V30 7094 N 642.974 0.416227 -1.52004 0
M  V30 7095 C 644.251 1.17637 -1.56272 0
M  V30 7096 C 644.631 2.08352 -0.339493 0
M  V30 7097 O 643.979 2.1833 0.674124 0
M  V30 7098 C 644.189 1.95986 -2.88774 0
M  V30 7099 C 645.537 2.52299 -3.41512 0
M  V30 7100 O 646.561 2.06174 -2.90467 0
M  V30 7101 O 645.42 3.3648 -4.30631 0
M  V30 7102 H 642.514 0.536726 -0.629169 0
M  V30 7103 H 645.06 0.423583 -1.64329 0
M  V30 7104 H 643.832 1.29487 -3.69254 0
M  V30 7105 H 643.455 2.78285 -2.83978 0
M  V30 7106 N 644.452 1.42507 0.673017 0
M  V30 7107 C 645.677 1.4668 1.46627 0
M  V30 7108 C 646.102 0.080066 1.8793 0
M  V30 7109 O 645.46 -0.921879 1.56112 0
M  V30 7110 C 645.508 2.40091 2.69051 0
M  V30 7111 O 644.612 1.8735 3.67387 0
M  V30 7112 H 643.953 0.496908 0.44043 0
M  V30 7113 H 646.483 1.87215 0.825334 0
M  V30 7114 H 646.493 2.56731 3.17101 0
M  V30 7115 H 645.168 3.4084 2.3833 0
M  V30 7116 H 643.745 1.80274 3.26429 0
M  V30 7117 N 645.93 -0.909495 1.28709 0
M  V30 7118 C 647.16 -1.69027 1.188 0
M  V30 7119 C 647.568 -1.87469 -0.255329 0
M  V30 7120 O 646.911 -1.40458 -1.18394 0
M  V30 7121 C 646.973 -3.10064 1.81936 0
M  V30 7122 C 646.637 -3.14891 3.31199 0
M  V30 7123 C 647.634 -2.95768 4.27571 0
M  V30 7124 C 645.319 -3.37269 3.7223 0
M  V30 7125 C 647.313 -2.98942 5.6295 0
M  V30 7126 C 645 -3.40074 5.07733 0
M  V30 7127 C 645.998 -3.20932 6.02903 0
M  V30 7128 O 645.686 -3.23507 7.35934 0
M  V30 7129 H 645.418 -0.535014 0.413203 0
M  V30 7130 H 647.972 -1.14645 1.70428 0
M  V30 7131 H 646.202 -3.66005 1.24808 0
M  V30 7132 H 647.891 -3.70185 1.66486 0
M  V30 7133 H 648.657 -2.78302 3.97206 0
M  V30 7134 H 644.536 -3.51212 2.98615 0
M  V30 7135 H 648.08 -2.83919 6.37209 0
M  V30 7136 H 643.977 -3.5707 5.37747 0
M  V30 7137 H 644.745 -3.3984 7.44615 0
M  V30 7138 N 647.408 -1.11026 -1.11852 0
M  V30 7139 C 648.355 -0.764662 -2.17765 0
M  V30 7140 C 649.325 0.261854 -1.64023 0
M  V30 7141 O 650.51 0.139748 -1.90288 0
M  V30 7142 C 647.65 -0.209317 -3.44465 0
M  V30 7143 C 646.763 -1.29187 -4.12231 0
M  V30 7144 C 645.898 -0.697523 -5.266 0
M  V30 7145 C 644.937 -1.76023 -5.86244 0
M  V30 7146 N 644.074 -1.18569 -6.92016 0
M  V30 7147 H 648.914 -1.67202 -2.46673 0
M  V30 7148 H 646.451 -0.835065 -1.21099 0
M  V30 7149 H 648.409 0.130599 -4.16996 0
M  V30 7150 H 647.039 0.661251 -3.15955 0
M  V30 7151 H 646.091 -1.74881 -3.37818 0
M  V30 7152 H 647.403 -2.09607 -4.52622 0
M  V30 7153 H 646.557 -0.307412 -6.05921 0
M  V30 7154 H 645.296 0.138044 -4.87505 0
M  V30 7155 H 644.301 -2.1597 -5.05606 0
M  V30 7156 H 645.526 -2.59875 -6.27409 0
M  V30 7157 H 643.472 -0.371695 -6.54946 0
M  V30 7158 H 643.389 -1.92666 -7.31038 0
M  V30 7159 H 644.657 -0.82233 -7.7515 0
M  V30 7160 N 648.886 1.2938 -0.899927 0
M  V30 7161 C 650.163 1.9046 -0.445443 0
M  V30 7162 C 650.543 1.81683 1.07492 0
M  V30 7163 O 649.891 1.24371 1.91688 0
M  V30 7164 C 650.101 3.35529 -0.960279 0
M  V30 7165 C 651.449 4.12556 -1.00412 0
M  V30 7166 O 652.473 3.44434 -0.907965 0
M  V30 7167 O 651.332 5.34294 -1.14857 0
M  V30 7168 H 648.426 0.815253 -0.138893 0
M  V30 7169 H 650.972 1.37844 -0.989808 0
M  V30 7170 H 649.744 3.36074 -2.00425 0
M  V30 7171 H 649.367 3.95624 -0.395939 0
M  V30 7172 N 650.364 0.662433 1.43002 0
M  V30 7173 C 651.612 0.179237 2.01304 0
M  V30 7174 C 651.933 -1.21428 1.52579 0
M  V30 7175 O 651.203 -1.81294 0.742252 0
M  V30 7176 H 649.783 0.0632725 0.744316 0
M  V30 7177 H 652.445 0.856169 1.75088 0
M  V30 7178 H 651.541 0.170957 3.11631 0
M  V30 7179 N 651.842 -1.52309 0.404946 0
M  V30 7180 C 653.07 -2.06185 -0.171818 0
M  V30 7181 C 653.485 -1.27536 -1.39212 0
M  V30 7182 O 652.842 -0.326112 -1.79563 0
M  V30 7183 C 652.893 -3.57647 -0.526417 0
M  V30 7184 O 652.614 -4.3332 0.645417 0
M  V30 7185 C 654.115 -4.27925 -1.15736 0
M  V30 7186 H 651.335 -0.670632 -0.0222328 0
M  V30 7187 H 653.879 -1.96259 0.574692 0
M  V30 7188 H 652.034 -3.67595 -1.22282 0
M  V30 7189 H 652.448 -5.23328 0.35042 0
M  V30 7190 H 653.922 -5.35093 -1.35572 0
M  V30 7191 H 654.399 -3.84134 -2.12926 0
M  V30 7192 H 655.005 -4.22335 -0.501281 0
M  V30 7193 N 653.32 -0.135238 -1.57019 0
M  V30 7194 C 654.566 0.519563 -1.96032 0
M  V30 7195 C 654.899 1.65284 -1.01955 0
M  V30 7196 O 654.174 1.94408 -0.059727 0
M  V30 7197 C 654.457 1.0369 -3.44848 0
M  V30 7198 C 654.31 -0.0940754 -4.49702 0
M  V30 7199 C 655.629 1.92254 -3.95887 0
M  V30 7200 H 652.748 0.18739 -0.712779 0
M  V30 7201 H 655.39 -0.214086 -1.8879 0
M  V30 7202 H 653.54 1.66209 -3.5115 0
M  V30 7203 H 655.212 -0.73 -4.55487 0
M  V30 7204 H 653.455 -0.754924 -4.27181 0
M  V30 7205 H 654.126 0.309419 -5.51132 0
M  V30 7206 H 656.602 1.39581 -3.9199 0
M  V30 7207 H 655.478 2.25364 -5.00502 0
M  V30 7208 H 655.739 2.85513 -3.37543 0
M  V30 7209 N 654.798 1.5699 0.138552 0
M  V30 7210 C 656.026 1.87976 0.864437 0
M  V30 7211 C 656.441 0.724372 1.74351 0
M  V30 7212 O 655.798 -0.305575 1.79924 0
M  V30 7213 C 655.849 3.18276 1.71414 0
M  V30 7214 O 655.57 4.29365 0.870487 0
M  V30 7215 C 657.071 3.62834 2.54688 0
M  V30 7216 H 654.291 0.622878 0.249528 0
M  V30 7217 H 656.835 2.04094 0.128805 0
M  V30 7218 H 654.99 3.03886 2.40274 0
M  V30 7219 H 655.404 5.03924 1.45466 0
M  V30 7220 H 656.878 4.5682 3.0987 0
M  V30 7221 H 657.355 2.88533 3.31127 0
M  V30 7222 H 657.961 3.79946 1.91105 0
M  V30 7223 N 656.276 -0.40816 1.52223 0
M  V30 7224 C 657.223 -1.49737 1.75635 0
M  V30 7225 C 658.193 -1.5493 0.598824 0
M  V30 7226 O 659.378 -1.71487 0.83648 0
M  V30 7227 C 656.518 -2.87174 1.91376 0
M  V30 7228 C 655.631 -2.91283 3.19027 0
M  V30 7229 C 654.766 -4.20026 3.25195 0
M  V30 7230 C 653.805 -4.18113 4.47044 0
M  V30 7231 N 652.942 -5.38429 4.50598 0
M  V30 7232 H 657.782 -1.29075 2.68596 0
M  V30 7233 H 655.319 -0.626518 1.33091 0
M  V30 7234 H 657.277 -3.66959 1.98486 0
M  V30 7235 H 655.907 -3.06329 1.01795 0
M  V30 7236 H 654.959 -2.03984 3.21084 0
M  V30 7237 H 656.271 -2.85734 4.08849 0
M  V30 7238 H 655.425 -5.08204 3.31382 0
M  V30 7239 H 654.164 -4.28271 2.33313 0
M  V30 7240 H 653.169 -3.28325 4.41002 0
M  V30 7241 H 654.394 -4.11507 5.40221 0
M  V30 7242 H 652.34 -5.4734 3.616 0
M  V30 7243 H 652.257 -5.34879 5.34266 0
M  V30 7244 H 653.525 -6.28557 4.61016 0
M  V30 7245 N 657.755 -1.42862 -0.66545 0
M  V30 7246 C 658.685 -1.49867 -1.79059 0
M  V30 7247 C 659.666 -0.354394 -1.66367 0
M  V30 7248 O 660.851 -0.569969 -1.85647 0
M  V30 7249 C 657.981 -1.40943 -3.17415 0
M  V30 7250 C 656.935 -2.53495 -3.44854 0
M  V30 7251 C 656.261 -2.29626 -4.82883 0
M  V30 7252 C 657.561 -3.95781 -3.40815 0
M  V30 7253 H 659.255 -2.44037 -1.73453 0
M  V30 7254 H 656.801 -1.17456 -0.833071 0
M  V30 7255 H 658.754 -1.4445 -3.95869 0
M  V30 7256 H 657.478 -0.432716 -3.23721 0
M  V30 7257 H 656.137 -2.4932 -2.68766 0
M  V30 7258 H 655.785 -1.30226 -4.8585 0
M  V30 7259 H 655.485 -3.05065 -5.02204 0
M  V30 7260 H 657.009 -2.34897 -5.63609 0
M  V30 7261 H 658.423 -4.01508 -4.09224 0
M  V30 7262 H 656.82 -4.71148 -3.71672 0
M  V30 7263 H 657.89 -4.21786 -2.39216 0
M  V30 7264 N 659.233 0.902656 -1.29189 0
M  V30 7265 C 660.482 1.6475 -1.16362 0
M  V30 7266 C 660.795 1.93517 0.284682 0
M  V30 7267 O 662.001 2.66192 0.534229 0
M  V30 7268 C 660.457 2.96848 -2.03493 0
M  V30 7269 C 660.065 2.75687 -3.5313 0
M  V30 7270 C 661.809 3.74762 -1.99383 0
M  V30 7271 C 659.716 4.03492 -4.32375 0
M  V30 7272 H 658.646 0.618041 -0.431904 0
M  V30 7273 H 661.297 1.0008 -1.53806 0
M  V30 7274 H 659.679 3.62715 -1.58916 0
M  V30 7275 H 660.853 2.18431 -4.05739 0
M  V30 7276 H 659.168 2.11171 -3.58881 0
M  V30 7277 H 661.765 4.69515 -2.5585 0
M  V30 7278 H 662.108 4.04767 -0.973123 0
M  V30 7279 H 662.641 3.15732 -2.41988 0
M  V30 7280 H 659.38 3.78656 -5.3507 0
M  V30 7281 H 658.9 4.60318 -3.84535 0
M  V30 7282 H 660.579 4.71662 -4.42881 0
M  V30 7283 N 660.711 1.11618 1.11262 0
M  V30 7284 C 661.641 0.79846 2.19424 0
M  V30 7285 C 662.622 -0.234003 1.68483 0
M  V30 7286 O 663.807 -0.0970704 1.93957 0
M  V30 7287 C 660.937 0.242892 3.4645 0
M  V30 7288 C 659.891 1.20744 4.10615 0
M  V30 7289 C 659.217 0.512494 5.32238 0
M  V30 7290 C 660.517 2.55884 4.55325 0
M  V30 7291 H 662.211 1.70286 2.46258 0
M  V30 7292 H 659.757 0.820195 1.18359 0
M  V30 7293 H 661.71 0.00840447 4.21399 0
M  V30 7294 H 660.434 -0.696811 3.1908 0
M  V30 7295 H 659.093 1.42759 3.37662 0
M  V30 7296 H 658.741 -0.432075 5.01141 0
M  V30 7297 H 658.441 1.15583 5.7612 0
M  V30 7298 H 659.965 0.286842 6.09926 0
M  V30 7299 H 661.379 2.37946 5.21588 0
M  V30 7300 H 659.776 3.16216 5.10027 0
M  V30 7301 H 660.846 3.14968 3.68678 0
M  V30 7302 N 662.189 -1.289 0.906776 0
M  V30 7303 C 663.466 -1.90221 0.455537 0
M  V30 7304 C 663.846 -1.82251 -1.06527 0
M  V30 7305 O 663.194 -1.25385 -1.91026 0
M  V30 7306 C 663.404 -3.35015 0.97806 0
M  V30 7307 C 664.752 -4.12018 1.02598 0
M  V30 7308 O 665.776 -3.43947 0.926218 0
M  V30 7309 O 664.635 -5.33677 1.17689 0
M  V30 7310 H 661.729 -0.814505 0.143214 0
M  V30 7311 H 664.275 -1.37317 0.997104 0
M  V30 7312 H 663.047 -3.35006 2.02204 0
M  V30 7313 H 662.67 -3.95408 0.416914 0
M  V30 7314 N 663.667 -0.670007 -1.42649 0
M  V30 7315 C 664.63 0.00204659 -2.292 0
M  V30 7316 C 665.63 0.733817 -1.4308 0
M  V30 7317 O 666.82 0.57254 -1.64522 0
M  V30 7318 C 663.952 1.01359 -3.25483 0
M  V30 7319 H 665.145 -0.759696 -2.90118 0
M  V30 7320 H 662.698 -0.432105 -1.50208 0
M  V30 7321 H 663.433 1.80399 -2.69493 0
M  V30 7322 H 663.218 0.492323 -3.88997 0
M  V30 7323 H 664.708 1.4824 -3.90403 0
M  V30 7324 N 665.145 1.52092 -0.413018 0
M  V30 7325 C 666.373 2.06274 0.160881 0
M  V30 7326 C 666.788 1.28273 1.38533 0
M  V30 7327 O 666.145 0.33563 1.79387 0
M  V30 7328 C 666.196 3.57921 0.507443 0
M  V30 7329 O 665.917 4.32971 -0.668388 0
M  V30 7330 C 667.418 4.28533 1.13465 0
M  V30 7331 H 664.638 0.67074 0.0186759 0
M  V30 7332 H 667.182 1.95951 -0.585092 0
M  V30 7333 H 665.337 3.68238 1.20331 0
M  V30 7334 H 665.751 5.23135 -0.378169 0
M  V30 7335 H 667.225 5.35804 1.32732 0
M  V30 7336 H 667.702 3.85258 2.10886 0
M  V30 7337 H 668.308 4.22595 0.478876 0
M  V30 7338 N 666.623 0.143563 1.56945 0
M  V30 7339 C 667.553 -0.7936 2.196 0
M  V30 7340 C 668.534 -1.25955 1.14321 0
M  V30 7341 O 669.719 -1.31773 1.42651 0
M  V30 7342 C 666.849 -2.03424 2.81489 0
M  V30 7343 C 665.803 -1.70519 3.92565 0
M  V30 7344 C 665.129 -3.01817 4.41373 0
M  V30 7345 C 666.429 -0.95449 5.13504 0
M  V30 7346 H 668.123 -0.271423 2.98167 0
M  V30 7347 H 665.669 -0.12911 1.4342 0
M  V30 7348 H 667.622 -2.69463 3.23987 0
M  V30 7349 H 666.346 -2.58008 2.00248 0
M  V30 7350 H 665.005 -1.06859 3.5068 0
M  V30 7351 H 664.653 -3.54386 3.56959 0
M  V30 7352 H 664.353 -2.80565 5.16292 0
M  V30 7353 H 665.877 -3.68934 4.86539 0
M  V30 7354 H 667.291 -1.5169 5.52868 0
M  V30 7355 H 665.688 -0.842035 5.94163 0
M  V30 7356 H 666.758 0.0544033 4.84869 0
M  V30 7357 N 668.101 -1.57061 -0.130224 0
M  V30 7358 C 669.35 -1.83446 -0.838488 0
M  V30 7359 C 669.663 -0.727468 -1.81569 0
M  V30 7360 O 670.869 -0.877394 -2.56932 0
M  V30 7361 C 669.325 -3.25201 -1.54182 0
M  V30 7362 C 668.933 -4.4388 -0.606178 0
M  V30 7363 C 670.677 -3.60844 -2.23588 0
M  V30 7364 C 668.584 -5.76661 -1.31209 0
M  V30 7365 H 667.514 -0.684185 -0.316871 0
M  V30 7366 H 670.165 -1.83273 -0.0912059 0
M  V30 7367 H 668.547 -3.1981 -2.33533 0
M  V30 7368 H 669.721 -4.60545 0.153308 0
M  V30 7369 H 668.036 -4.16395 -0.0196705 0
M  V30 7370 H 670.633 -4.57313 -2.77072 0
M  V30 7371 H 670.976 -2.87724 -3.00867 0
M  V30 7372 H 671.509 -3.67971 -1.51137 0
M  V30 7373 H 668.248 -6.52922 -0.580823 0
M  V30 7374 H 667.768 -5.63902 -2.04387 0
M  V30 7375 H 669.447 -6.20035 -1.8484 0
M  V30 7376 N 669.579 0.400081 -1.52437 0
M  V30 7377 C 670.527 1.50851 -1.7705 0
M  V30 7378 C 671.521 1.56928 -0.637969 0
M  V30 7379 O 672.727 1.60226 -0.820212 0
M  V30 7380 H 669.102 0.50186 -0.560036 0
M  V30 7381 H 671.073 1.27281 -2.69893 0
M  V30 7382 C 669.822 2.88117 -1.94638 0
M  V30 7383 H 669.145 2.84187 -2.81208 0
M  V30 7384 H 670.585 3.64942 -2.15855 0
M  V30 7385 C 669.044 3.29206 -0.715899 0
M  V30 7386 O 669.574 4.01544 0.111944 0
M  V30 7387 N 667.78 2.85363 -0.549191 0
M  V30 7388 H 667.327 2.26664 -1.22397 0
M  V30 7389 H 667.285 3.13214 0.27278 0
M  V30 7390 O 671.096 1.51991 0.545992 0
M  V30 7391 H 671.787 1.51962 1.20114 0
M  V30 END ATOM
M  V30 BEGIN BOND
M  V30 END BOND
M  V30 END CTAB
M  END
$$$$
