133090
  -OEChem-10051720503D

 51 54  0     1  0  0  0  0  0999 V2000
   -0.4088    1.4986    0.5029 O   0  0  0  0  0  0  0  0  0  0  0  0
    1.4981   -0.8703    1.9113 O   0  0  0  0  0  0  0  0  0  0  0  0
    1.9321   -0.7822   -0.3513 N   0  0  0  0  0  0  0  0  0  0  0  0
   -3.0711   -0.9136   -0.1274 N   0  0  0  0  0  0  0  0  0  0  0  0
    3.3710   -0.7552   -0.2170 C   0  0  1  0  0  0  0  0  0  0  0  0
    4.0554   -1.4718   -1.3936 C   0  0  0  0  0  0  0  0  0  0  0  0
    3.8677    0.6681   -0.0622 C   0  0  0  0  0  0  0  0  0  0  0  0
   -0.3487   -0.8931    0.4470 C   0  0  0  0  0  0  0  0  0  0  0  0
    1.0810   -0.8392    0.7500 C   0  0  0  0  0  0  0  0  0  0  0  0
   -1.0185   -2.1116    0.2714 C   0  0  0  0  0  0  0  0  0  0  0  0
    3.5384   -2.8912   -1.5936 C   0  0  0  0  0  0  0  0  0  0  0  0
   -1.0390    0.3052    0.3354 C   0  0  0  0  0  0  0  0  0  0  0  0
   -2.3985   -2.0749   -0.0185 C   0  0  0  0  0  0  0  0  0  0  0  0
   -2.3876    0.2403    0.0492 C   0  0  0  0  0  0  0  0  0  0  0  0
    4.9610    0.9156    0.7481 C   0  0  0  0  0  0  0  0  0  0  0  0
    3.2164    1.6860   -0.7352 C   0  0  0  0  0  0  0  0  0  0  0  0
   -0.3480   -3.3420    0.3778 C   0  0  0  0  0  0  0  0  0  0  0  0
   -3.1969    1.4307   -0.0885 C   0  0  0  0  0  0  0  0  0  0  0  0
   -3.0634   -3.2856   -0.1929 C   0  0  0  0  0  0  0  0  0  0  0  0
    5.4185    2.2256    0.8906 C   0  0  0  0  0  0  0  0  0  0  0  0
    3.6740    2.9960   -0.5927 C   0  0  0  0  0  0  0  0  0  0  0  0
   -1.0377   -4.5376    0.1986 C   0  0  0  0  0  0  0  0  0  0  0  0
    4.7751    3.2657    0.2201 C   0  0  0  0  0  0  0  0  0  0  0  0
   -2.3971   -4.5090   -0.0870 C   0  0  0  0  0  0  0  0  0  0  0  0
   -3.3386    2.0382   -1.3367 C   0  0  0  0  0  0  0  0  0  0  0  0
   -3.8375    1.9728    1.0264 C   0  0  0  0  0  0  0  0  0  0  0  0
   -4.1195    3.1863   -1.4699 C   0  0  0  0  0  0  0  0  0  0  0  0
   -4.6185    3.1209    0.8930 C   0  0  0  0  0  0  0  0  0  0  0  0
   -4.7594    3.7275   -0.3551 C   0  0  0  0  0  0  0  0  0  0  0  0
    3.6153   -1.3056    0.7016 H   0  0  0  0  0  0  0  0  0  0  0  0
    3.8973   -0.9112   -2.3241 H   0  0  0  0  0  0  0  0  0  0  0  0
    5.1393   -1.5043   -1.2276 H   0  0  0  0  0  0  0  0  0  0  0  0
    1.5291   -0.7225   -1.2827 H   0  0  0  0  0  0  0  0  0  0  0  0
    3.6489   -3.4812   -0.6782 H   0  0  0  0  0  0  0  0  0  0  0  0
    4.1072   -3.3878   -2.3864 H   0  0  0  0  0  0  0  0  0  0  0  0
    2.4844   -2.9015   -1.8876 H   0  0  0  0  0  0  0  0  0  0  0  0
    5.4698    0.1120    1.2723 H   0  0  0  0  0  0  0  0  0  0  0  0
    2.3683    1.5043   -1.3880 H   0  0  0  0  0  0  0  0  0  0  0  0
    0.7145   -3.3986    0.6005 H   0  0  0  0  0  0  0  0  0  0  0  0
   -4.1285   -3.2902   -0.4176 H   0  0  0  0  0  0  0  0  0  0  0  0
    6.2763    2.4356    1.5228 H   0  0  0  0  0  0  0  0  0  0  0  0
    3.1756    3.8057   -1.1176 H   0  0  0  0  0  0  0  0  0  0  0  0
   -0.5166   -5.4864    0.2815 H   0  0  0  0  0  0  0  0  0  0  0  0
    5.1319    4.2855    0.3301 H   0  0  0  0  0  0  0  0  0  0  0  0
   -2.9432   -5.4372   -0.2283 H   0  0  0  0  0  0  0  0  0  0  0  0
   -2.8466    1.6286   -2.2159 H   0  0  0  0  0  0  0  0  0  0  0  0
   -3.7381    1.5118    2.0064 H   0  0  0  0  0  0  0  0  0  0  0  0
    0.5302    1.3716    0.7113 H   0  0  0  0  0  0  0  0  0  0  0  0
   -4.2294    3.6587   -2.4417 H   0  0  0  0  0  0  0  0  0  0  0  0
   -5.1170    3.5425    1.7610 H   0  0  0  0  0  0  0  0  0  0  0  0
   -5.3674    4.6215   -0.4588 H   0  0  0  0  0  0  0  0  0  0  0  0
  1 12  1  0  0  0  0
  1 48  1  0  0  0  0
  2  9  2  0  0  0  0
  3  5  1  0  0  0  0
  3  9  1  0  0  0  0
  3 33  1  0  0  0  0
  4 13  1  0  0  0  0
  4 14  2  0  0  0  0
  5  6  1  0  0  0  0
  5  7  1  0  0  0  0
  5 30  1  0  0  0  0
  6 11  1  0  0  0  0
  6 31  1  0  0  0  0
  6 32  1  0  0  0  0
  7 15  2  0  0  0  0
  7 16  1  0  0  0  0
  8  9  1  0  0  0  0
  8 10  1  0  0  0  0
  8 12  2  0  0  0  0
 10 13  1  0  0  0  0
 10 17  2  0  0  0  0
 11 34  1  0  0  0  0
 11 35  1  0  0  0  0
 11 36  1  0  0  0  0
 12 14  1  0  0  0  0
 13 19  2  0  0  0  0
 14 18  1  0  0  0  0
 15 20  1  0  0  0  0
 15 37  1  0  0  0  0
 16 21  2  0  0  0  0
 16 38  1  0  0  0  0
 17 22  1  0  0  0  0
 17 39  1  0  0  0  0
 18 25  2  0  0  0  0
 18 26  1  0  0  0  0
 19 24  1  0  0  0  0
 19 40  1  0  0  0  0
 20 23  2  0  0  0  0
 20 41  1  0  0  0  0
 21 23  1  0  0  0  0
 21 42  1  0  0  0  0
 22 24  2  0  0  0  0
 22 43  1  0  0  0  0
 23 44  1  0  0  0  0
 24 45  1  0  0  0  0
 25 27  1  0  0  0  0
 25 46  1  0  0  0  0
 26 28  2  0  0  0  0
 26 47  1  0  0  0  0
 27 29  2  0  0  0  0
 27 49  1  0  0  0  0
 28 29  1  0  0  0  0
 28 50  1  0  0  0  0
 29 51  1  0  0  0  0
M  END
> <DATABASE_ID>
DB06429

> <DATABASE_NAME>
drugbank

> <ORIGINAL_SOURCE>
PUBCHEM

> <ORIGINAL_SOURCE_URL>
https://pubchem.ncbi.nlm.nih.gov/rest/pug/compound/inchikey/BIAVGWDGIJKWRM-UHFFFAOYSA-N/SDF?record_type=3d

> <SMILES>
CCC(NC(=O)C1=C(O)C(=NC2=CC=CC=C12)C1=CC=CC=C1)C1=CC=CC=C1

> <INCHI_IDENTIFIER>
InChI=1S/C25H22N2O2/c1-2-20(17-11-5-3-6-12-17)27-25(29)22-19-15-9-10-16-21(19)26-23(24(22)28)18-13-7-4-8-14-18/h3-16,20,28H,2H2,1H3,(H,27,29)

> <INCHI_KEY>
BIAVGWDGIJKWRM-UHFFFAOYSA-N

> <FORMULA>
C25H22N2O2

> <MOLECULAR_WEIGHT>
382.4544

> <EXACT_MASS>
382.168127958

> <JCHEM_ACCEPTOR_COUNT>
3

> <JCHEM_AVERAGE_POLARIZABILITY>
42.570311366153966

> <JCHEM_BIOAVAILABILITY>
1

> <JCHEM_DONOR_COUNT>
2

> <JCHEM_FORMAL_CHARGE>
0

> <JCHEM_GHOSE_FILTER>
0

> <JCHEM_IUPAC>
3-hydroxy-2-phenyl-N-(1-phenylpropyl)quinoline-4-carboxamide

> <ALOGPS_LOGP>
4.98

> <JCHEM_LOGP>
6.248297734333334

> <ALOGPS_LOGS>
-5.48

> <JCHEM_MDDR_LIKE_RULE>
0

> <JCHEM_NUMBER_OF_RINGS>
4

> <JCHEM_PHYSIOLOGICAL_CHARGE>
0

> <JCHEM_PKA>
15.515713461216176

> <JCHEM_PKA_STRONGEST_ACIDIC>
8.034209443738815

> <JCHEM_PKA_STRONGEST_BASIC>
2.728094938114494

> <JCHEM_POLAR_SURFACE_AREA>
62.22

> <JCHEM_REFRACTIVITY>
114.25490000000005

> <JCHEM_ROTATABLE_BOND_COUNT>
5

> <JCHEM_RULE_OF_FIVE>
0

> <ALOGPS_SOLUBILITY>
1.27e-03 g/l

> <JCHEM_TRADITIONAL_IUPAC>
talnetant

> <JCHEM_VEBER_RULE>
0

> <DRUGBANK_ID>
DB06429

> <DRUG_GROUPS>
investigational

> <GENERIC_NAME>
Talnetant

> <SALTS>
Talnetant hydrochloride

$$$$