drugbank_target|P29803 Pyruvate dehydrogenase E1 component subunit alpha, testis-specific form, mitochondrial (DB00157)
 OpenBabel12092119353D

  0  0  0     0  0            999 V3000
M  V30 BEGIN CTAB
M  V30 COUNTS 6006 6061 0 0 0
M  V30 BEGIN ATOM
M  V30 1 H -0.908 1.98254 -0.117106 0
M  V30 2 N 0 1.576 0 0
M  V30 3 C 0.933 2.03868 1.02534 0
M  V30 4 C 1.911 0.928543 1.3348 0
M  V30 5 O 3.095 1.19667 1.45644 0
M  V30 6 C 0.222 2.43627 2.35294 0
M  V30 7 C -0.732 3.65373 2.2001 0
M  V30 8 S 0.101 5.13292 1.52614 0
M  V30 9 C 1.257 5.56322 2.86805 0
M  V30 10 H 1.49 2.90518 0.631377 0
M  V30 11 H -0.977 1.52953 0.210867 0
M  V30 12 H 0.981 2.67203 3.11629 0
M  V30 13 H -0.358 1.57376 2.7183 0
M  V30 14 H -1.165 3.90944 3.18086 0
M  V30 15 H -1.563 3.418 1.51819 0
M  V30 16 H 0.729 5.58782 3.83104 0
M  V30 17 H 1.672 6.56266 2.65933 0
M  V30 18 H 2.08 4.83886 2.90714 0
M  V30 19 N 1.4781 -0.272755 1.55222 0
M  V30 20 C 2.4081 -1.34136 1.91127 0
M  V30 21 C 3.3891 -1.51513 0.773168 0
M  V30 22 O 4.5741 -1.64552 1.03132 0
M  V30 23 C 1.7041 -2.70083 2.1834 0
M  V30 24 C 0.6581 -2.67437 3.34158 0
M  V30 25 C -0.0159 -4.06938 3.46851 0
M  V30 26 C 1.2841 -2.26686 4.70543 0
M  V30 27 H 2.9781 -1.04333 2.80633 0
M  V30 28 H 0.5241 -0.500454 1.35024 0
M  V30 29 H 2.4771 -3.44952 2.42046 0
M  V30 30 H 1.2011 -3.01469 1.25634 0
M  V30 31 H -0.1399 -1.95026 3.1042 0
M  V30 32 H -0.4919 -4.35547 2.51611 0
M  V30 33 H -0.7919 -4.06062 4.2472 0
M  V30 34 H 0.7321 -4.83545 3.72849 0
M  V30 35 H 2.1461 -2.91277 4.93792 0
M  V30 36 H 0.5431 -2.36971 5.5133 0
M  V30 37 H 1.6131 -1.21818 4.69349 0
M  V30 38 N 2.9562 -1.48159 -0.537278 0
M  V30 39 C 3.9192 -1.61665 -1.62472 0
M  V30 40 C 4.9192 -0.490395 -1.5314 0
M  V30 41 O 6.1092 -0.755998 -1.5694 0
M  V30 42 C 3.2412 -1.57997 -3.02076 0
M  V30 43 H 4.4342 -2.58621 -1.51839 0
M  V30 44 H 1.9872 -1.36647 -0.758771 0
M  V30 45 H 2.7222 -0.624913 -3.18222 0
M  V30 46 H 2.5072 -2.39755 -3.10258 0
M  V30 47 H 3.9972 -1.70627 -3.81151 0
M  V30 48 N 4.4343 0.785586 -1.36625 0
M  V30 49 C 5.3973 1.87999 -1.31107 0
M  V30 50 C 6.3973 1.59316 -0.217959 0
M  V30 51 O 7.5873 1.67656 -0.472977 0
M  V30 52 C 4.7193 3.24861 -1.03334 0
M  V30 53 H 5.9123 1.94307 -2.2844 0
M  V30 54 H 3.4653 0.983813 -1.21453 0
M  V30 55 H 4.2003 3.24235 -0.0647432 0
M  V30 56 H 3.9853 3.4707 -1.82441 0
M  V30 57 H 5.4753 4.04929 -1.02088 0
M  V30 58 N 5.9124 1.20967 1.01018 0
M  V30 59 C 7.1594 1.02374 1.74716 0
M  V30 60 C 7.4874 -0.443375 1.89379 0
M  V30 61 O 6.7424 -1.34535 1.42123 0
M  V30 62 C 7.0414 1.65997 3.16512 0
M  V30 63 C 6.7074 3.15831 3.2181 0
M  V30 64 C 5.3694 3.56719 3.22963 0
M  V30 65 C 7.7214 4.11816 3.19464 0
M  V30 66 C 5.0494 4.92107 3.19449 0
M  V30 67 C 7.4014 5.47158 3.17491 0
M  V30 68 C 6.0654 5.87451 3.16951 0
M  V30 69 H 5.3354 0.374614 0.639332 0
M  V30 70 H 7.9824 1.50485 1.18434 0
M  V30 71 H 6.2874 1.10166 3.75993 0
M  V30 72 H 7.9844 1.49119 3.72242 0
M  V30 73 H 4.5744 2.83263 3.21652 0
M  V30 74 H 8.7584 3.81257 3.17737 0
M  V30 75 H 4.0144 5.22579 3.17366 0
M  V30 76 H 8.1884 6.21274 3.14629 0
M  V30 77 H 5.8154 6.92329 3.13983 0
M  V30 78 N 7.3905 -1.2043 1.01659 0
M  V30 79 C 8.6395 -1.89118 0.701237 0
M  V30 80 C 8.9525 -1.79705 -0.772358 0
M  V30 81 O 10.1585 -2.43528 -1.20026 0
M  V30 82 C 8.6145 -3.39168 1.20388 0
M  V30 83 C 8.2225 -3.57166 2.70438 0
M  V30 84 C 9.9665 -4.1341 0.963953 0
M  V30 85 C 7.8735 -5.01042 3.14183 0
M  V30 86 H 6.8035 -0.708267 0.2586 0
M  V30 87 H 9.4545 -1.36239 1.22927 0
M  V30 88 H 7.8365 -3.91369 0.603824 0
M  V30 89 H 9.0105 -3.15351 3.35992 0
M  V30 90 H 7.3255 -2.96294 2.92572 0
M  V30 91 H 9.9225 -5.19491 1.26621 0
M  V30 92 H 10.2655 -4.16181 -0.099578 0
M  V30 93 H 10.7985 -3.67309 1.52738 0
M  V30 94 H 7.5375 -5.03426 4.19812 0
M  V30 95 H 7.0575 -5.43668 2.53348 0
M  V30 96 H 8.7365 -5.69623 3.0682 0
M  V30 97 N 8.8686 -0.792821 -1.36206 0
M  V30 98 C 10.0936 -0.377701 -2.03932 0
M  V30 99 C 10.5186 0.998947 -1.59382 0
M  V30 100 O 9.8766 1.64421 -0.763903 0
M  V30 101 C 9.9246 -0.453635 -3.57735 0
M  V30 102 O 9.0286 0.538151 -4.08874 0
M  V30 103 H 8.3696 -0.159855 -0.644471 0
M  V30 104 H 10.8996 -1.07488 -1.7409 0
M  V30 105 H 10.9096 -0.318464 -4.06755 0
M  V30 106 H 9.5846 -1.45784 -3.89512 0
M  V30 107 H 8.1616 0.364359 -3.71116 0
M  V30 108 N 10.3467 1.47872 -0.545128 0
M  V30 109 C 11.7627 1.5829 -0.204032 0
M  V30 110 C 11.9627 1.54529 1.29317 0
M  V30 111 O 11.0187 1.44232 2.07252 0
M  V30 112 C 12.3317 2.89304 -0.819987 0
M  V30 113 C 13.8797 3.02864 -0.790105 0
M  V30 114 C 14.3547 4.3656 -1.38491 0
M  V30 115 N 15.8457 4.43165 -1.34755 0
M  V30 116 C 16.5807 5.45153 -1.77753 0
M  V30 117 N 16.0767 6.54016 -2.2855 0
M  V30 118 N 17.8697 5.36125 -1.68897 0
M  V30 119 H 10.0207 1.4856 -1.51802 0
M  V30 120 H 12.2837 0.706305 -0.632327 0
M  V30 121 H 11.9897 2.97757 -1.87173 0
M  V30 122 H 11.8637 3.75957 -0.305915 0
M  V30 123 H 14.2507 2.94014 0.252913 0
M  V30 124 H 14.3317 2.17782 -1.34181 0
M  V30 125 H 13.9757 4.46164 -2.42693 0
M  V30 126 H 13.9057 5.20353 -0.808754 0
M  V30 127 H 16.3967 3.65083 -0.975855 0
M  V30 128 H 16.7097 7.27994 -2.59314 0
M  V30 129 H 15.0547 6.54938 -2.32553 0
M  V30 130 H 18.2457 4.49975 -1.28998 0
M  V30 131 H 18.4187 6.15472 -2.02726 0
M  V30 132 N 11.8248 0.280983 1.55075 0
M  V30 133 C 13.0708 -0.33461 2.00021 0
M  V30 134 C 13.4038 -1.55063 1.16915 0
M  V30 135 O 12.6788 -1.93006 0.240646 0
M  V30 136 C 12.9618 -0.711007 3.53011 0
M  V30 137 C 12.8148 0.512766 4.46868 0
M  V30 138 C 14.1338 -1.54522 4.12081 0
M  V30 139 H 11.2528 -0.120147 0.727141 0
M  V30 140 H 13.8948 0.389097 1.85973 0
M  V30 141 H 12.0448 -1.32761 3.65112 0
M  V30 142 H 13.7168 1.15131 4.46702 0
M  V30 143 H 11.9598 1.14975 4.18286 0
M  V30 144 H 12.6308 0.205556 5.51617 0
M  V30 145 H 15.1068 -1.02442 4.03293 0
M  V30 146 H 13.9828 -1.77739 5.19327 0
M  V30 147 H 14.2438 -2.52813 3.62682 0
M  V30 148 N 13.3029 -1.57598 0.00835791 0
M  V30 149 C 14.2329 -2.1198 -0.979113 0
M  V30 150 C 15.2139 -1.03091 -1.35301 0
M  V30 151 O 16.3989 -1.30818 -1.43528 0
M  V30 152 C 13.5289 -2.62995 -2.26828 0
M  V30 153 C 12.4829 -3.76485 -2.03576 0
M  V30 154 C 11.8089 -4.13846 -3.38579 0
M  V30 155 C 13.1089 -5.0342 -1.39161 0
M  V30 156 H 14.8029 -2.94738 -0.526281 0
M  V30 157 H 12.3489 -1.41783 -0.251704 0
M  V30 158 H 14.3019 -2.99669 -2.96271 0
M  V30 159 H 13.0259 -1.7737 -2.7424 0
M  V30 160 H 11.6849 -3.40217 -1.36557 0
M  V30 161 H 11.3329 -3.25232 -3.83709 0
M  V30 162 H 11.0329 -4.90312 -3.23834 0
M  V30 163 H 12.5569 -4.53086 -4.09323 0
M  V30 164 H 13.9709 -5.37812 -1.98573 0
M  V30 165 H 12.3679 -5.84746 -1.34878 0
M  V30 166 H 13.4379 -4.83548 -0.361868 0
M  V30 167 N 14.781 0.264519 -1.55364 0
M  V30 168 C 16.197 0.61215 -1.47394 0
M  V30 169 C 16.397 1.89134 -0.695018 0
M  V30 170 O 15.453 2.51563 -0.217275 0
M  V30 171 C 16.766 0.731235 -2.91674 0
M  V30 172 C 18.314 0.82473 -3.01939 0
M  V30 173 C 18.789 0.975522 -4.4749 0
M  V30 174 N 20.28 1.04083 -4.51354 0
M  V30 175 C 21.015 1.17646 -5.61201 0
M  V30 176 N 20.511 1.27874 -6.80896 0
M  V30 177 N 22.304 1.20823 -5.48961 0
M  V30 178 H 14.455 -0.575456 -2.04456 0
M  V30 179 H 16.718 -0.196099 -0.927496 0
M  V30 180 H 16.424 -0.138392 -3.51428 0
M  V30 181 H 16.298 1.60883 -3.41169 0
M  V30 182 H 18.685 1.68482 -2.42276 0
M  V30 183 H 18.766 -0.0776479 -2.55682 0
M  V30 184 H 18.41 0.120058 -5.07758 0
M  V30 185 H 18.34 1.89268 -4.91412 0
M  V30 186 H 20.831 0.973846 -3.65136 0
M  V30 187 H 21.144 1.38081 -7.60364 0
M  V30 188 H 19.489 1.24863 -6.83692 0
M  V30 189 H 22.68 1.12469 -4.54388 0
M  V30 190 H 22.853 1.31049 -6.3461 0
M  V30 191 N 16.2591 1.48442 0.529413 0
M  V30 192 C 17.6751 1.34575 0.858004 0
M  V30 193 C 17.8751 0.3572 1.98309 0
M  V30 194 O 16.9311 -0.221379 2.51528 0
M  V30 195 C 18.2441 2.74617 1.22499 0
M  V30 196 C 19.7921 2.83109 1.33484 0
M  V30 197 C 20.2671 4.23854 1.73526 0
M  V30 198 N 21.7581 4.2653 1.80628 0
M  V30 199 C 22.4931 5.32372 2.12997 0
M  V30 200 N 21.9891 6.48491 2.43786 0
M  V30 201 N 23.7821 5.19766 2.14008 0
M  V30 202 H 15.9331 2.1133 -0.212925 0
M  V30 203 H 18.1961 0.947439 -0.0326199 0
M  V30 204 H 17.9021 3.4852 0.471905 0
M  V30 205 H 17.7761 3.08177 2.17501 0
M  V30 206 H 20.1631 2.09462 2.0787 0
M  V30 207 H 20.2441 2.53168 0.366027 0
M  V30 208 H 19.8881 4.98018 0.997013 0
M  V30 209 H 19.8181 4.5124 2.71459 0
M  V30 210 H 22.3091 3.42772 1.59108 0
M  V30 211 H 22.6221 7.24993 2.67592 0
M  V30 212 H 20.9671 6.51765 2.41304 0
M  V30 213 H 24.1581 4.28066 1.89412 0
M  V30 214 H 24.3311 6.02354 2.38902 0
M  V30 215 N 17.7372 -0.778329 1.37039 0
M  V30 216 C 18.9832 -1.53892 1.32079 0
M  V30 217 C 19.3162 -1.9396 -0.0965386 0
M  V30 218 O 18.5912 -1.63568 -1.05242 0
M  V30 219 C 18.8742 -2.80847 2.25382 0
M  V30 220 C 18.7272 -2.47076 3.75864 0
M  V30 221 C 20.0462 -3.82741 2.1725 0
M  V30 222 H 17.1652 -0.558303 0.48111 0
M  V30 223 H 19.8072 -0.893397 1.67685 0
M  V30 224 H 17.9572 -3.35931 1.95148 0
M  V30 225 H 19.6292 -1.97957 4.16666 0
M  V30 226 H 17.8722 -1.79863 3.94755 0
M  V30 227 H 18.5432 -3.37798 4.36574 0
M  V30 228 H 21.0192 -3.37133 2.43887 0
M  V30 229 H 19.8952 -4.69303 2.84686 0
M  V30 230 H 20.1562 -4.2652 1.16331 0
M  V30 231 N 19.2153 -1.21501 -1.00376 0
M  V30 232 C 20.1783 -0.976927 -2.07337 0
M  V30 233 C 21.1783 0.0525322 -1.60714 0
M  V30 234 O 22.3683 -0.184869 -1.73216 0
M  V30 235 C 19.5003 -0.473423 -3.37597 0
M  V30 236 H 20.6933 -1.92587 -2.29892 0
M  V30 237 H 18.2463 -1.03217 -1.17371 0
M  V30 238 H 18.9813 0.480379 -3.20722 0
M  V30 239 H 18.7663 -1.216 -3.72768 0
M  V30 240 H 20.2563 -0.32675 -4.1632 0
M  V30 241 N 20.6934 1.19889 -1.02296 0
M  V30 242 C 21.6254 2.22334 -0.556787 0
M  V30 243 C 22.6384 1.58674 0.364199 0
M  V30 244 O 23.8274 1.77768 0.161533 0
M  V30 245 C 20.9274 3.38257 0.208694 0
M  V30 246 C 20.1004 4.31504 -0.71577 0
M  V30 247 C 19.1594 5.262 0.00325597 0
M  V30 248 O 18.1854 5.65798 -0.621357 0
M  V30 249 N 19.3874 5.66303 1.27599 0
M  V30 250 H 22.1524 2.62957 -1.43784 0
M  V30 251 H 19.7134 1.34495 -0.901261 0
M  V30 252 H 21.7054 3.98616 0.699111 0
M  V30 253 H 20.2754 2.96472 0.991102 0
M  V30 254 H 19.4954 3.69016 -1.38638 0
M  V30 255 H 20.7834 4.9072 -1.34428 0
M  V30 256 H 20.1814 5.36155 1.80429 0
M  V30 257 H 18.7384 6.28942 1.71102 0
M  V30 258 N 22.1715 0.800033 1.35784 0
M  V30 259 C 23.1185 0.203848 2.29898 0
M  V30 260 C 24.0885 -0.658375 1.52495 0
M  V30 261 O 25.2735 -0.604832 1.8096 0
M  V30 262 C 22.4135 -0.64688 3.38983 0
M  V30 263 C 21.5265 0.235054 4.3136 0
M  V30 264 C 20.6615 -0.623054 5.27533 0
M  V30 265 C 19.7005 0.259682 6.11549 0
M  V30 266 N 18.8375 -0.558019 6.99879 0
M  V30 267 H 23.6775 1.01186 2.80295 0
M  V30 268 H 21.2145 0.51053 1.37957 0
M  V30 269 H 23.1725 -1.15521 4.00887 0
M  V30 270 H 21.8025 -1.42021 2.89879 0
M  V30 271 H 20.8545 0.861438 3.70518 0
M  V30 272 H 22.1665 0.914768 4.9034 0
M  V30 273 H 21.3205 -1.19678 5.94779 0
M  V30 274 H 20.0595 -1.33636 4.69034 0
M  V30 275 H 19.0645 0.845726 5.43256 0
M  V30 276 H 20.2895 0.970748 6.72126 0
M  V30 277 H 18.2355 -1.25542 6.43875 0
M  V30 278 H 18.1525 0.0637872 7.55973 0
M  V30 279 H 19.4205 -1.11523 7.71481 0
M  V30 280 N 23.6496 -1.47581 0.552962 0
M  V30 281 C 24.8746 -2.07378 0.0300593 0
M  V30 282 C 25.2996 -1.40355 -1.25229 0
M  V30 283 O 24.6576 -0.477099 -1.7491 0
M  V30 284 C 24.7056 -3.60274 -0.153231 0
M  V30 285 O 23.8096 -3.94041 -1.21678 0
M  V30 286 H 23.1506 -0.662158 0.0494182 0
M  V30 287 H 25.6806 -1.89662 0.767434 0
M  V30 288 H 25.6906 -4.0633 -0.368761 0
M  V30 289 H 24.3656 -4.08455 0.783397 0
M  V30 290 H 22.9426 -3.59735 -0.982079 0
M  V30 291 N 25.1277 -0.289203 -1.54924 0
M  V30 292 C 26.0907 0.579144 -2.21762 0
M  V30 293 C 27.0907 1.07047 -1.1999 0
M  V30 294 O 28.2807 0.968384 -1.44803 0
M  V30 295 C 25.4127 1.80055 -2.8947 0
M  V30 296 H 26.6057 -0.00464908 -2.999 0
M  V30 297 H 24.1587 -0.0399306 -1.56249 0
M  V30 298 H 24.8937 2.42449 -2.15381 0
M  V30 299 H 24.6787 1.45602 -3.64064 0
M  V30 300 H 26.1687 2.41773 -3.40493 0
M  V30 301 N 26.6058 1.57591 -0.0167156 0
M  V30 302 C 28.0218 1.55946 0.339557 0
M  V30 303 C 28.2218 1.02109 1.73713 0
M  V30 304 O 27.2778 0.662303 2.43659 0
M  V30 305 C 28.5908 3.00037 0.199499 0
M  V30 306 C 30.1388 3.11805 0.273193 0
M  V30 307 C 30.6138 4.57713 0.162068 0
M  V30 308 N 32.1048 4.6268 0.219444 0
M  V30 309 C 32.8398 5.73185 0.157054 0
M  V30 310 N 32.3358 6.92786 0.0442936 0
M  V30 311 N 34.1288 5.61707 0.21014 0
M  V30 312 H 26.2798 1.90921 -0.930758 0
M  V30 313 H 28.5428 0.877674 -0.358319 0
M  V30 314 H 28.2488 3.4333 -0.76273 0
M  V30 315 H 28.1228 3.64387 0.974786 0
M  V30 316 H 30.5098 2.68433 1.22587 0
M  V30 317 H 30.5908 2.50201 -0.532256 0
M  V30 318 H 30.2348 5.01763 -0.78714 0
M  V30 319 H 30.1648 5.17283 0.986222 0
M  V30 320 H 32.6558 3.76649 0.307246 0
M  V30 321 H 32.9688 7.728 0.00304069 0
M  V30 322 H 31.3138 6.94999 0.00968457 0
M  V30 323 H 34.5048 4.6716 0.296546 0
M  V30 324 H 34.6778 6.47807 0.158054 0
M  V30 325 N 28.0839 -0.256276 1.55502 0
M  V30 326 C 29.4999 -0.604325 1.47716 0
M  V30 327 C 29.6999 -1.88763 0.705039 0
M  V30 328 O 28.7559 -2.51445 0.230613 0
M  V30 329 C 30.0689 -0.715756 2.92057 0
M  V30 330 C 31.6169 -0.808706 3.02372 0
M  V30 331 C 32.0919 -0.951777 4.48001 0
M  V30 332 N 33.5829 -1.01688 4.519 0
M  V30 333 C 34.3179 -1.14668 5.61817 0
M  V30 334 N 33.8139 -1.24261 6.81565 0
M  V30 335 N 35.6069 -1.1791 5.49594 0
M  V30 336 H 27.7579 0.586291 2.04148 0
M  V30 337 H 30.0209 0.201015 0.926443 0
M  V30 338 H 29.7269 0.157027 3.51349 0
M  V30 339 H 29.6009 -1.59071 3.42018 0
M  V30 340 H 31.9879 -1.67195 2.43166 0
M  V30 341 H 32.0689 0.0912063 2.55637 0
M  V30 342 H 31.7129 -0.0931291 5.07815 0
M  V30 343 H 31.6429 -1.86659 4.92408 0
M  V30 344 H 34.1339 -0.954468 3.65648 0
M  V30 345 H 34.4469 -1.34046 7.61086 0
M  V30 346 H 32.7919 -1.21236 6.84344 0
M  V30 347 H 35.9829 -1.10057 4.54978 0
M  V30 348 H 36.1559 -1.27681 6.35296 0
M  V30 349 N 29.562 -1.4872 -0.521534 0
M  V30 350 C 30.808 -1.574 -1.27879 0
M  V30 351 C 31.141 -0.250817 -1.92573 0
M  V30 352 O 30.416 0.743934 -1.79711 0
M  V30 353 C 30.699 -2.71843 -2.36164 0
M  V30 354 C 30.552 -4.13893 -1.76105 0
M  V30 355 C 31.871 -2.82008 -3.37875 0
M  V30 356 H 28.99 -0.572941 -0.463581 0
M  V30 357 H 31.632 -1.80927 -0.580119 0
M  V30 358 H 29.782 -2.51914 -2.95756 0
M  V30 359 H 31.454 -4.45284 -1.20499 0
M  V30 360 H 29.697 -4.20498 -1.06601 0
M  V30 361 H 30.368 -4.89804 -2.5455 0
M  V30 362 H 32.844 -3.00086 -2.88249 0
M  V30 363 H 31.72 -3.63796 -4.11028 0
M  V30 364 H 31.981 -1.90511 -3.98946 0
M  V30 365 N 31.0401 0.771051 -1.3745 0
M  V30 366 C 31.9701 1.89827 -1.3597 0
M  V30 367 C 32.9511 1.68562 -0.228216 0
M  V30 368 O 34.1361 1.8941 -0.428675 0
M  V30 369 C 31.2661 3.2712 -1.16662 0
M  V30 370 C 30.2201 3.6295 -2.2683 0
M  V30 371 C 29.5461 4.98791 -1.92644 0
M  V30 372 C 30.8461 3.69627 -3.69017 0
M  V30 373 H 32.5401 1.91323 -2.30295 0
M  V30 374 H 30.0861 0.919082 -1.10855 0
M  V30 375 H 32.0391 4.05615 -1.14256 0
M  V30 376 H 30.7631 3.26059 -0.187926 0
M  V30 377 H 29.4221 2.86763 -2.28392 0
M  V30 378 H 29.0701 4.94271 -0.933021 0
M  V30 379 H 28.7701 5.23733 -2.66416 0
M  V30 380 H 30.2941 5.79685 -1.91826 0
M  V30 381 H 31.7081 4.38273 -3.69581 0
M  V30 382 H 30.1051 4.06067 -4.41848 0
M  V30 383 H 31.1751 2.70273 -4.02592 0
M  V30 384 N 32.5182 1.22032 0.997298 0
M  V30 385 C 33.7642 1.04376 1.73878 0
M  V30 386 C 34.0972 -0.420716 1.89588 0
M  V30 387 O 33.3722 -1.31202 1.43583 0
M  V30 388 C 33.6552 1.75047 3.14691 0
M  V30 389 C 33.5082 3.29062 3.06656 0
M  V30 390 C 34.8272 1.49928 4.13775 0
M  V30 391 H 31.9462 0.380578 0.631133 0
M  V30 392 H 34.5882 1.50312 1.16217 0
M  V30 393 H 32.7382 1.35996 3.63919 0
M  V30 394 H 34.4102 3.7753 2.65083 0
M  V30 395 H 32.6532 3.58967 2.43568 0
M  V30 396 H 33.3242 3.73683 4.06282 0
M  V30 397 H 35.8002 1.83842 3.73285 0
M  V30 398 H 34.6762 2.01878 5.10428 0
M  V30 399 H 34.9372 0.430929 4.39995 0
M  V30 400 N 33.9963 -1.19345 1.0293 0
M  V30 401 C 34.9593 -2.20793 0.615069 0
M  V30 402 C 35.9593 -1.57553 -0.321533 0
M  V30 403 O 37.1493 -1.73862 -0.108483 0
M  V30 404 C 34.2813 -3.40754 -0.0999222 0
M  V30 405 H 35.4743 -2.58955 1.51269 0
M  V30 406 H 33.0273 -1.3303 0.820534 0
M  V30 407 H 33.7623 -3.0811 -1.01187 0
M  V30 408 H 33.5473 -3.87889 0.57309 0
M  V30 409 H 35.0373 -4.15898 -0.376645 0
M  V30 410 N 35.4744 -0.807222 -1.35358 0
M  V30 411 C 36.6994 -0.399309 -2.0352 0
M  V30 412 C 37.1244 0.981986 -1.60433 0
M  V30 413 O 36.4824 1.63601 -0.781299 0
M  V30 414 C 36.5304 -0.491552 -3.57234 0
M  V30 415 O 35.6344 0.494754 -4.09421 0
M  V30 416 H 34.9754 -0.166682 -0.642739 0
M  V30 417 H 37.5054 -1.09328 -1.72941 0
M  V30 418 H 37.5154 -0.361588 -4.06395 0
M  V30 419 H 36.1904 -1.49907 -3.87944 0
M  V30 420 H 34.7674 0.324977 -3.71481 0
M  V30 421 N 36.9525 1.47285 -0.560781 0
M  V30 422 C 38.3685 1.58065 -0.22081 0
M  V30 423 C 38.5685 1.55892 1.27671 0
M  V30 424 O 37.6245 1.46422 2.0571 0
M  V30 425 C 38.9375 2.88418 -0.850625 0
M  V30 426 C 40.4855 3.02009 -0.822184 0
M  V30 427 C 40.9605 4.35066 -1.43113 0
M  V30 428 N 42.4515 4.41711 -1.39448 0
M  V30 429 C 43.1865 5.43237 -1.83525 0
M  V30 430 N 42.6825 6.51555 -2.35474 0
M  V30 431 N 44.4755 5.34304 -1.74574 0
M  V30 432 H 36.6265 1.46941 -1.53369 0
M  V30 433 H 38.8895 0.699558 -0.639783 0
M  V30 434 H 38.5955 2.95755 -1.9032 0
M  V30 435 H 38.4695 3.75612 -0.345773 0
M  V30 436 H 40.8565 2.94266 0.221714 0
M  V30 437 H 40.9375 2.16347 -1.36483 0
M  V30 438 H 40.5815 4.43565 -2.47412 0
M  V30 439 H 40.5115 5.19465 -0.863899 0
M  V30 440 H 43.0025 3.64027 -1.01452 0
M  V30 441 H 43.3155 7.25203 -2.67021 0
M  V30 442 H 41.6605 6.52435 -2.39487 0
M  V30 443 H 44.8515 4.48581 -1.33763 0
M  V30 444 H 45.0245 6.13288 -2.09242 0
M  V30 445 N 38.4306 0.297415 1.54768 0
M  V30 446 C 39.3786 -0.596051 2.24833 0
M  V30 447 C 40.3726 -1.13992 1.25308 0
M  V30 448 O 41.5786 -1.09098 1.4317 0
M  V30 449 H 37.9536 -0.210814 0.721846 0
M  V30 450 H 39.9246 0.0174667 2.98395 0
M  V30 451 C 38.6736 -1.75818 2.99972 0
M  V30 452 H 37.9966 -1.3489 3.76357 0
M  V30 453 H 39.4366 -2.35949 3.52284 0
M  V30 454 C 37.8956 -2.66014 2.06732 0
M  V30 455 O 38.4256 -3.67009 1.63302 0
M  V30 456 N 36.6316 -2.33669 1.72763 0
M  V30 457 H 36.1786 -1.51586 2.08277 0
M  V30 458 H 36.1366 -2.94285 1.10652 0
M  V30 459 N 39.9087 -1.5758 0.0250728 0
M  V30 460 C 41.1337 -1.96337 -0.668317 0
M  V30 461 C 41.5587 -0.901314 -1.651 0
M  V30 462 O 40.9167 0.138187 -1.80773 0
M  V30 463 C 40.9647 -3.34191 -1.35457 0
M  V30 464 O 40.0687 -3.30269 -2.46974 0
M  V30 465 H 39.4097 -0.640281 -0.175887 0
M  V30 466 H 41.9397 -2.0442 0.0857224 0
M  V30 467 H 41.9497 -3.70331 -1.71228 0
M  V30 468 H 40.6247 -4.11036 -0.634218 0
M  V30 469 H 39.2017 -3.05841 -2.13344 0
M  V30 470 N 41.3868 0.248026 -1.55636 0
M  V30 471 C 42.6118 0.998028 -1.81808 0
M  V30 472 C 43.0368 1.78207 -0.601979 0
M  V30 473 O 42.3948 1.75653 0.448961 0
M  V30 474 C 42.4428 1.9125 -3.05705 0
M  V30 475 O 41.5468 3.00406 -2.82542 0
M  V30 476 H 40.8878 0.284045 -0.600179 0
M  V30 477 H 43.4178 0.269357 -2.02819 0
M  V30 478 H 43.4278 2.32737 -3.35108 0
M  V30 479 H 42.1028 1.33602 -3.93857 0
M  V30 480 H 40.6798 2.63056 -2.64303 0
M  V30 481 N 42.8649 1.48995 0.513639 0
M  V30 482 C 43.8129 1.65199 1.63744 0
M  V30 483 C 44.8069 0.51809 1.61283 0
M  V30 484 O 46.0129 0.697335 1.65943 0
M  V30 485 H 42.3879 0.52069 0.542574 0
M  V30 486 H 44.3589 2.59552 1.47226 0
M  V30 487 C 43.1079 1.72409 3.01945 0
M  V30 488 H 42.4309 2.59029 3.04539 0
M  V30 489 H 43.8709 1.87785 3.80148 0
M  V30 490 C 42.3299 0.46618 3.33659 0
M  V30 491 O 42.8599 -0.413744 3.99564 0
M  V30 492 N 41.0659 0.332931 2.88687 0
M  V30 493 H 40.6129 1.04996 2.35231 0
M  V30 494 H 40.5709 -0.507665 3.10274 0
M  V30 495 N 44.343 -0.763751 1.37857 0
M  V30 496 C 45.62 -1.51244 1.24035 0
M  V30 497 C 46 -2.10472 -0.162649 0
M  V30 498 O 45.348 -1.96206 -1.17112 0
M  V30 499 C 45.558 -2.58694 2.34261 0
M  V30 500 C 46.906 -3.25878 2.72193 0
M  V30 501 O 47.93 -2.68993 2.33497 0
M  V30 502 O 46.789 -4.2874 3.38887 0
M  V30 503 H 43.883 -0.670243 0.484462 0
M  V30 504 H 46.429 -0.800031 1.49658 0
M  V30 505 H 45.201 -2.13105 3.2818 0
M  V30 506 H 44.824 -3.37527 2.10146 0
M  V30 507 N 45.8211 -1.22559 -0.990812 0
M  V30 508 C 46.7841 -0.998863 -2.0629 0
M  V30 509 C 47.7841 0.0354834 -1.60761 0
M  V30 510 O 48.9741 -0.203231 -1.7301 0
M  V30 511 C 46.1061 -0.509203 -3.37076 0
M  V30 512 H 47.2991 -1.95014 -2.27837 0
M  V30 513 H 44.8521 -1.04456 -1.16269 0
M  V30 514 H 45.5871 0.446335 -3.21214 0
M  V30 515 H 45.3721 -1.25547 -3.71457 0
M  V30 516 H 46.8621 -0.370888 -4.1595 0
M  V30 517 N 47.2992 1.18797 -1.03562 0
M  V30 518 C 48.5272 1.92599 -0.755869 0
M  V30 519 C 48.9422 1.75886 0.686271 0
M  V30 520 O 48.2992 1.08517 1.46732 0
M  V30 521 C 48.3502 3.44159 -1.10619 0
M  V30 522 O 48.0712 3.60341 -2.4917 0
M  V30 523 C 49.5722 4.3507 -0.850214 0
M  V30 524 H 46.7922 0.611587 -0.276048 0
M  V30 525 H 49.3362 1.50742 -1.38192 0
M  V30 526 H 47.4912 3.83823 -0.525194 0
M  V30 527 H 47.9052 4.54128 -2.62427 0
M  V30 528 H 49.3792 5.39989 -1.14523 0
M  V30 529 H 49.8562 4.38673 0.215176 0
M  V30 530 H 50.4622 4.01097 -1.41426 0
M  V30 531 N 48.7773 0.814389 1.34928 0
M  V30 532 C 50.0243 0.398423 1.98542 0
M  V30 533 C 50.3523 -1.03638 1.64589 0
M  V30 534 O 49.6073 -1.73509 0.90516 0
M  V30 535 C 49.9063 0.537781 3.53331 0
M  V30 536 C 49.5723 1.93704 4.07172 0
M  V30 537 C 48.2343 2.31984 4.21589 0
M  V30 538 C 50.5863 2.85213 4.36237 0
M  V30 539 C 47.9143 3.61125 4.62391 0
M  V30 540 C 50.2663 4.13809 4.78482 0
M  V30 541 C 48.9303 4.52077 4.91104 0
M  V30 542 H 48.2003 0.145793 0.726516 0
M  V30 543 H 50.8473 1.03669 1.61012 0
M  V30 544 H 49.1523 -0.183906 3.91368 0
M  V30 545 H 50.8493 0.196588 4.00518 0
M  V30 546 H 47.4393 1.62966 3.96409 0
M  V30 547 H 51.6233 2.56885 4.24645 0
M  V30 548 H 46.8793 3.90612 4.70353 0
M  V30 549 H 51.0533 4.84811 4.99932 0
M  V30 550 H 48.6803 5.52196 5.22478 0
M  V30 551 N 50.2554 -1.46986 0.568584 0
M  V30 552 C 51.1654 -2.33942 -0.17555 0
M  V30 553 C 52.1814 -1.48891 -0.90041 0
M  V30 554 O 53.3574 -1.81794 -0.86676 0
M  V30 555 C 50.4224 -3.25811 -1.18524 0
M  V30 556 C 49.4834 -4.26757 -0.466582 0
M  V30 557 C 48.7164 -5.14236 -1.42817 0
M  V30 558 O 48.9394 -5.04379 -2.66379 0
M  V30 559 O 47.8734 -5.94412 -0.946453 0
M  V30 560 H 51.6994 -2.98896 0.538036 0
M  V30 561 H 49.2844 -1.4573 0.329097 0
M  V30 562 H 51.1664 -3.82527 -1.76779 0
M  V30 563 H 49.8414 -2.63471 -1.88055 0
M  V30 564 H 48.7484 -3.73769 0.157451 0
M  V30 565 H 50.0814 -4.91843 0.187485 0
M  V30 566 N 51.7335 -0.305618 -1.54608 0
M  V30 567 C 52.9825 0.303098 -1.9941 0
M  V30 568 C 53.2955 1.54648 -1.19764 0
M  V30 569 O 54.5015 2.23007 -1.54855 0
M  V30 570 C 52.9575 0.590588 -3.55021 0
M  V30 571 C 52.5655 -0.634719 -4.43481 0
M  V30 572 C 54.3095 1.16025 -4.08336 0
M  V30 573 C 52.2165 -0.320126 -5.90533 0
M  V30 574 H 51.1465 0.117031 -0.744862 0
M  V30 575 H 53.7975 -0.415045 -1.78745 0
M  V30 576 H 52.1795 1.36845 -3.71604 0
M  V30 577 H 53.3535 -1.41079 -4.38672 0
M  V30 578 H 51.6685 -1.12333 -4.00962 0
M  V30 579 H 54.2655 1.40994 -5.15776 0
M  V30 580 H 54.6085 2.10397 -3.5922 0
M  V30 581 H 55.1415 0.443985 -3.95315 0
M  V30 582 H 51.8805 -1.23254 -6.43808 0
M  V30 583 H 51.4005 0.418579 -5.98338 0
M  V30 584 H 53.0795 0.0766241 -6.46955 0
M  V30 585 N 53.2116 1.57565 -0.0334293 0
M  V30 586 C 54.1586 2.10478 0.946981 0
M  V30 587 C 55.1286 1.00787 1.32027 0
M  V30 588 O 56.3136 1.28232 1.41284 0
M  V30 589 C 53.4536 2.63994 2.22263 0
M  V30 590 C 52.5666 3.87709 1.90541 0
M  V30 591 C 51.7016 4.29604 3.12433 0
M  V30 592 C 50.7406 5.46065 2.76549 0
M  V30 593 N 49.8776 5.83096 3.9108 0
M  V30 594 H 54.7176 2.93963 0.488846 0
M  V30 595 H 52.2546 1.45296 0.22969 0
M  V30 596 H 54.2126 2.93114 2.96884 0
M  V30 597 H 52.8426 1.83333 2.65685 0
M  V30 598 H 51.8946 3.65291 1.06144 0
M  V30 599 H 53.2066 4.72403 1.60116 0
M  V30 600 H 52.3606 4.60182 3.9537 0
M  V30 601 H 51.0996 3.43685 3.46023 0
M  V30 602 H 50.1046 5.15176 1.92026 0
M  V30 603 H 51.3296 6.33685 2.44171 0
M  V30 604 H 49.2756 5.00132 4.24504 0
M  V30 605 H 49.1926 6.6244 3.64293 0
M  V30 606 H 50.4606 6.18282 4.74708 0
M  V30 607 N 54.6897 -0.239769 1.55765 0
M  V30 608 C 55.6367 -1.29696 1.90913 0
M  V30 609 C 56.6067 -1.47478 0.764164 0
M  V30 610 O 57.7917 -1.61345 1.01845 0
M  V30 611 C 54.9317 -2.64598 2.21544 0
M  V30 612 C 54.0447 -2.54765 3.48882 0
M  V30 613 C 53.1797 -3.82069 3.69049 0
M  V30 614 C 52.2187 -3.66883 4.89963 0
M  V30 615 N 51.3557 -4.86094 5.06614 0
M  V30 616 H 56.1957 -0.990224 2.81067 0
M  V30 617 H 53.7327 -0.477684 1.39128 0
M  V30 618 H 55.6907 -3.43132 2.3731 0
M  V30 619 H 54.3207 -2.93405 1.34585 0
M  V30 620 H 53.3727 -1.67763 3.41409 0
M  V30 621 H 54.6847 -2.39457 4.37563 0
M  V30 622 H 53.8387 -4.69046 3.84812 0
M  V30 623 H 52.5777 -4.00282 2.78614 0
M  V30 624 H 51.5827 -2.78289 4.74168 0
M  V30 625 H 52.8077 -3.50157 5.81865 0
M  V30 626 H 50.7537 -5.04655 4.19117 0
M  V30 627 H 50.6707 -4.73443 5.89396 0
M  V30 628 H 51.9387 -5.74549 5.26795 0
M  V30 629 N 56.1678 -1.49265 -0.50573 0
M  V30 630 C 57.4078 -1.60128 -1.27038 0
M  V30 631 C 57.7718 -0.279557 -1.89954 0
M  V30 632 O 58.9728 -0.263329 -2.67507 0
M  V30 633 C 57.2438 -2.72507 -2.31246 0
M  V30 634 S 58.8028 -3.0329 -3.17113 0
M  V30 635 H 55.6208 -0.564863 -0.4318 0
M  V30 636 H 58.2228 -1.86902 -0.573397 0
M  V30 637 H 56.9268 -3.67068 -1.83546 0
M  V30 638 H 56.4578 -2.4771 -3.05619 0
M  V30 639 H 58.4728 -2.44448 -4.31809 0
M  V30 640 N 57.6459 0.756429 -1.3826 0
M  V30 641 C 58.9229 1.50584 -1.24835 0
M  V30 642 C 59.3029 2.10556 0.151485 0
M  V30 643 O 58.6509 1.96825 1.1607 0
M  V30 644 C 58.8609 2.57448 -2.3563 0
M  V30 645 C 60.2089 3.24429 -2.73917 0
M  V30 646 O 61.2329 2.67751 -2.34921 0
M  V30 647 O 60.0919 4.26937 -3.41156 0
M  V30 648 H 57.1859 0.667664 -0.48801 0
M  V30 649 H 59.7319 0.792083 -1.5008 0
M  V30 650 H 58.5039 2.11362 -3.29305 0
M  V30 651 H 58.1269 3.36408 -2.11933 0
M  V30 652 N 59.124 1.23083 0.984299 0
M  V30 653 C 60.054 1.03292 2.09411 0
M  V30 654 C 61.035 -0.048923 1.7003 0
M  V30 655 O 62.22 0.114967 1.93859 0
M  V30 656 C 59.35 0.619155 3.41736 0
M  V30 657 C 58.304 1.64791 3.95004 0
M  V30 658 C 57.63 1.0897 5.23478 0
M  V30 659 C 58.93 3.03999 4.24714 0
M  V30 660 H 60.624 1.96119 2.26225 0
M  V30 661 H 58.17 0.944344 1.08711 0
M  V30 662 H 60.123 0.467777 4.18796 0
M  V30 663 H 58.847 -0.344786 3.24775 0
M  V30 664 H 57.506 1.78721 3.20085 0
M  V30 665 H 57.154 0.11686 5.02864 0
M  V30 666 H 56.854 1.77704 5.60085 0
M  V30 667 H 58.378 0.950093 6.03163 0
M  V30 668 H 59.792 2.93393 4.92538 0
M  V30 669 H 58.189 3.69936 4.72512 0
M  V30 670 H 59.259 3.53285 3.32142 0
M  V30 671 N 60.6021 -1.18246 1.0419 0
M  V30 672 C 61.8321 -1.91916 0.764961 0
M  V30 673 C 62.2401 -1.76485 -0.681898 0
M  V30 674 O 61.5831 -1.09275 -1.47664 0
M  V30 675 C 61.6451 -3.4373 1.05309 0
M  V30 676 C 61.3091 -3.8294 2.4941 0
M  V30 677 C 62.3061 -3.86621 3.47592 0
M  V30 678 C 59.9911 -4.142 2.84155 0
M  V30 679 C 61.9851 -4.21013 4.78568 0
M  V30 680 C 59.6721 -4.48262 4.15337 0
M  V30 681 C 60.6701 -4.51645 5.12353 0
M  V30 682 O 60.3581 -4.84911 6.41183 0
M  V30 683 H 60.0901 -0.61606 0.278292 0
M  V30 684 H 62.6441 -1.50947 1.39299 0
M  V30 685 H 60.8741 -3.84946 0.367933 0
M  V30 686 H 62.5631 -3.9865 0.763752 0
M  V30 687 H 63.3291 -3.62607 3.22089 0
M  V30 688 H 59.2081 -4.10743 2.09311 0
M  V30 689 H 62.7521 -4.23568 5.54289 0
M  V30 690 H 58.6491 -4.71737 4.40607 0
M  V30 691 H 59.4171 -5.02809 6.45852 0
M  V30 692 N 62.0802 -0.821533 -1.34494 0
M  V30 693 C 63.0102 -0.257138 -2.3208 0
M  V30 694 C 63.9912 0.625645 -1.58176 0
M  V30 695 O 65.1762 0.552811 -1.86166 0
M  V30 696 C 62.3062 0.582958 -3.42372 0
M  V30 697 C 61.2602 -0.202571 -4.2752 0
M  V30 698 C 60.5862 0.760179 -5.29269 0
M  V30 699 C 61.8862 -1.40998 -5.02908 0
M  V30 700 H 63.5802 -1.07247 -2.79532 0
M  V30 701 H 61.1262 -0.517163 -1.34393 0
M  V30 702 H 63.0792 0.987972 -4.09655 0
M  V30 703 H 61.8032 1.43133 -2.93565 0
M  V30 704 H 60.4622 -0.588936 -3.61838 0
M  V30 705 H 60.1102 1.60447 -4.76724 0
M  V30 706 H 59.8102 0.238809 -5.87115 0
M  V30 707 H 61.3342 1.16308 -5.9942 0
M  V30 708 H 62.7482 -1.07905 -5.63054 0
M  V30 709 H 61.1452 -1.86689 -5.70322 0
M  V30 710 H 62.2152 -2.1889 -4.32684 0
M  V30 711 N 63.5583 1.46682 -0.576371 0
M  V30 712 C 64.4883 2.33028 0.148397 0
M  V30 713 C 65.4693 1.44961 0.889956 0
M  V30 714 O 66.6543 1.73789 0.866662 0
M  V30 715 C 63.7843 3.27117 1.1667 0
M  V30 716 C 62.7383 4.24575 0.540386 0
M  V30 717 C 62.0643 5.08126 1.6647 0
M  V30 718 C 63.3643 5.19722 -0.518331 0
M  V30 719 H 65.0583 2.93875 -0.572509 0
M  V30 720 H 62.6043 1.41315 -0.276768 0
M  V30 721 H 64.5573 3.86374 1.68204 0
M  V30 722 H 63.2813 2.64364 1.9178 0
M  V30 723 H 61.9403 3.66571 0.0461769 0
M  V30 724 H 61.5883 4.41762 2.40531 0
M  V30 725 H 61.2883 5.74122 1.25131 0
M  V30 726 H 62.8123 5.70246 2.18293 0
M  V30 727 H 64.2263 5.73232 -0.0883058 0
M  V30 728 H 62.6233 5.94026 -0.851679 0
M  V30 729 H 63.6933 4.64037 -1.40703 0
M  V30 730 N 65.0364 0.313813 1.54444 0
M  V30 731 C 65.9464 -0.565714 2.27677 0
M  V30 732 C 66.9624 -1.13754 1.31666 0
M  V30 733 O 68.1384 -1.15959 1.64668 0
M  V30 734 C 65.2034 -1.71528 3.01296 0
M  V30 735 C 64.2644 -1.17624 4.12872 0
M  V30 736 C 63.4974 -2.27102 4.8297 0
M  V30 737 O 63.7204 -3.47256 4.52514 0
M  V30 738 O 62.6544 -1.9307 5.70094 0
M  V30 739 H 66.4804 0.0287296 3.03686 0
M  V30 740 H 64.0654 0.0798312 1.49187 0
M  V30 741 H 65.9474 -2.38476 3.4743 0
M  V30 742 H 64.6224 -2.29608 2.2817 0
M  V30 743 H 63.5294 -0.472124 3.71109 0
M  V30 744 H 64.8624 -0.640695 4.88012 0
M  V30 745 N 66.5145 -1.57545 0.0417849 0
M  V30 746 C 67.4245 -2.14451 -0.951213 0
M  V30 747 C 68.4405 -1.09992 -1.34825 0
M  V30 748 O 69.6165 -1.42114 -1.42708 0
M  V30 749 C 66.6815 -2.67063 -2.21084 0
M  V30 750 C 65.7425 -3.86284 -1.87304 0
M  V30 751 C 64.9755 -4.36378 -3.07261 0
M  V30 752 O 65.1985 -3.85587 -4.20332 0
M  V30 753 O 64.1325 -5.28077 -2.88822 0
M  V30 754 H 67.9585 -2.99601 -0.497287 0
M  V30 755 H 65.5435 -1.48317 -0.179567 0
M  V30 756 H 67.4255 -3.00914 -2.95006 0
M  V30 757 H 66.1005 -1.84989 -2.65633 0
M  V30 758 H 65.0075 -3.57338 -1.10727 0
M  V30 759 H 66.3405 -4.6956 -1.47562 0
M  V30 760 N 67.9926 0.231505 -1.5589 0
M  V30 761 C 69.2406 0.955461 -1.78088 0
M  V30 762 C 69.5616 1.85262 -0.608533 0
M  V30 763 O 68.8316 1.92277 0.375035 0
M  V30 764 H 67.4116 0.355787 -0.656829 0
M  V30 765 H 70.0736 0.245751 -1.93344 0
M  V30 766 H 69.1696 1.56814 -2.69844 0
M  V30 767 N 69.4707 1.49531 0.497807 0
M  V30 768 C 70.8817 1.52344 1.07927 0
M  V30 769 C 71.2327 0.311469 1.93712 0
M  V30 770 O 70.3577 -0.578405 2.08527 0
M  V30 771 C 70.9527 2.76062 1.96405 0
M  V30 772 C 69.5117 2.81643 2.49709 0
M  V30 773 C 68.6587 2.46299 1.27404 0
M  V30 774 H 71.6097 1.56182 0.281576 0
M  V30 775 H 71.6307 2.56405 2.81135 0
M  V30 776 H 71.1427 3.64254 1.33943 0
M  V30 777 H 69.2437 1.97739 3.15801 0
M  V30 778 H 69.3567 3.83891 2.86643 0
M  V30 779 H 67.7207 1.98148 1.60029 0
M  V30 780 H 68.5037 3.36769 0.66645 0
M  V30 781 N 70.9488 -0.749086 1.3866 0
M  V30 782 C 72.3598 -1.32664 1.31366 0
M  V30 783 C 72.7108 -1.96179 -0.028484 0
M  V30 784 O 71.8358 -1.9537 -0.93057 0
M  V30 785 C 72.4308 -2.41219 2.37905 0
M  V30 786 C 70.9898 -2.94684 2.34176 0
M  V30 787 C 70.1368 -1.68108 2.20533 0
M  V30 788 H 73.0878 -0.547628 1.48952 0
M  V30 789 H 73.1088 -3.21268 2.0388 0
M  V30 790 H 72.6208 -1.94962 3.35576 0
M  V30 791 H 70.7218 -3.45258 1.401 0
M  V30 792 H 70.8348 -3.48757 3.2849 0
M  V30 793 H 69.1988 -1.91907 1.67463 0
M  V30 794 H 69.9818 -1.23923 3.20153 0
M  V30 795 N 72.4269 -1.23603 -0.977757 0
M  V30 796 C 73.6729 -1.07129 -1.72195 0
M  V30 797 C 74.0059 0.390501 -1.90233 0
M  V30 798 O 73.2809 1.28902 -1.45653 0
M  V30 799 C 73.5639 -1.80031 -3.11867 0
M  V30 800 C 73.4169 -3.33899 -3.01383 0
M  V30 801 C 74.7359 -1.56492 -4.11337 0
M  V30 802 H 71.8549 -0.390571 -0.624999 0
M  V30 803 H 74.4969 -1.52142 -1.13811 0
M  V30 804 H 72.6469 -1.41768 -3.6171 0
M  V30 805 H 74.3189 -3.81699 -2.59043 0
M  V30 806 H 72.5619 -3.62796 -2.37827 0
M  V30 807 H 73.2329 -3.801 -4.00285 0
M  V30 808 H 75.7089 -1.89757 -3.70313 0
M  V30 809 H 74.5849 -2.09973 -5.07151 0
M  V30 810 H 74.8459 -0.500874 -4.39254 0
M  V30 811 N 73.905 1.17692 -1.04816 0
M  V30 812 C 75.133 1.91786 -0.776254 0
M  V30 813 C 75.548 1.76604 0.667577 0
M  V30 814 O 74.905 1.10067 1.45573 0
M  V30 815 C 74.956 3.42967 -1.14263 0
M  V30 816 O 74.677 3.57678 -2.52978 0
M  V30 817 C 76.178 4.34144 -0.896311 0
M  V30 818 H 73.398 0.608624 -0.282519 0
M  V30 819 H 75.942 1.49268 -1.39783 0
M  V30 820 H 74.097 3.83245 -0.565874 0
M  V30 821 H 74.511 4.51319 -2.67229 0
M  V30 822 H 75.985 5.38744 -1.20244 0
M  V30 823 H 76.462 4.38876 0.168636 0
M  V30 824 H 77.068 3.99574 -1.45672 0
M  V30 825 N 75.3831 0.828654 1.34056 0
M  V30 826 C 76.6111 0.43262 2.02326 0
M  V30 827 C 77.0261 -0.963147 1.62385 0
M  V30 828 O 76.3831 -1.62425 0.832121 0
M  V30 829 C 76.4341 0.53182 3.57567 0
M  V30 830 O 76.1551 1.87258 3.96063 0
M  V30 831 C 77.6561 0.131422 4.43105 0
M  V30 832 H 74.8761 0.172923 0.648335 0
M  V30 833 H 77.4201 1.1184 1.71208 0
M  V30 834 H 75.5751 -0.105938 3.87255 0
M  V30 835 H 75.9891 1.85087 4.90758 0
M  V30 836 H 77.4631 0.251904 5.51425 0
M  V30 837 H 77.9401 -0.925645 4.29335 0
M  V30 838 H 78.5461 0.743207 4.18756 0
M  V30 839 N 76.8612 -1.46375 0.584142 0
M  V30 840 C 78.1072 -2.02678 0.0703716 0
M  V30 841 C 78.4402 -1.4545 -1.28678 0
M  V30 842 O 77.7152 -0.62014 -1.84349 0
M  V30 843 C 77.9982 -3.60099 0.00614674 0
M  V30 844 C 77.8512 -4.27709 1.3923 0
M  V30 845 C 79.1702 -4.34598 -0.693742 0
M  V30 846 H 76.2892 -0.736504 0.027047 0
M  V30 847 H 78.9312 -1.74501 0.751615 0
M  V30 848 H 77.0812 -3.84236 -0.574009 0
M  V30 849 H 78.7532 -4.14832 2.01773 0
M  V30 850 H 76.9962 -3.87016 1.95962 0
M  V30 851 H 77.6672 -5.36478 1.29982 0
M  V30 852 H 80.1432 -4.15615 -0.200869 0
M  V30 853 H 79.0192 -5.44318 -0.707714 0
M  V30 854 H 79.2802 -4.05759 -1.75533 0
M  V30 855 N 78.3393 -0.321999 -1.54275 0
M  V30 856 C 79.2693 0.537411 -2.27231 0
M  V30 857 C 80.2503 1.12064 -1.27968 0
M  V30 858 O 81.4353 1.14606 -1.56777 0
M  V30 859 C 78.5653 1.69919 -3.02894 0
M  V30 860 C 77.5193 1.24534 -4.09482 0
M  V30 861 C 76.8453 2.49394 -4.72977 0
M  V30 862 C 78.1453 0.361335 -5.21049 0
M  V30 863 H 79.8393 -0.0711406 -2.99315 0
M  V30 864 H 77.3853 -0.0356555 -1.43956 0
M  V30 865 H 79.3383 2.30668 -3.52662 0
M  V30 866 H 78.0623 2.33431 -2.28424 0
M  V30 867 H 76.7213 0.660782 -3.60596 0
M  V30 868 H 76.3693 3.11265 -3.95124 0
M  V30 869 H 76.0693 2.19718 -5.44975 0
M  V30 870 H 77.5933 3.10908 -5.25517 0
M  V30 871 H 79.0073 0.875072 -5.66582 0
M  V30 872 H 77.4043 0.157428 -5.99893 0
M  V30 873 H 78.4743 -0.60822 -4.8107 0
M  V30 874 N 79.8174 1.5752 -0.0501392 0
M  V30 875 C 81.0454 1.96963 0.633492 0
M  V30 876 C 81.4604 0.927631 1.6444 0
M  V30 877 O 80.8174 -0.0882665 1.82286 0
M  V30 878 C 80.8684 3.36487 1.32132 0
M  V30 879 O 80.5894 4.36693 0.350894 0
M  V30 880 C 82.0904 3.90682 2.09481 0
M  V30 881 H 79.3104 0.648244 0.173266 0
M  V30 882 H 81.8544 2.0417 -0.116134 0
M  V30 883 H 80.0094 3.30434 2.02218 0
M  V30 884 H 80.4234 5.17702 0.841735 0
M  V30 885 H 81.8974 4.90591 2.5303 0
M  V30 886 H 82.3744 3.26053 2.94255 0
M  V30 887 H 82.9804 4.00069 1.44307 0
M  V30 888 N 81.2955 -0.223234 1.56011 0
M  V30 889 C 82.7115 -0.572856 1.48965 0
M  V30 890 C 82.9115 -1.87225 0.74492 0
M  V30 891 O 81.9675 -2.50899 0.283896 0
M  V30 892 C 83.2805 -0.653646 2.9351 0
M  V30 893 C 84.8285 -0.744386 3.0402 0
M  V30 894 C 85.3035 -0.856535 4.49919 0
M  V30 895 N 86.7945 -0.9208 4.53955 0
M  V30 896 C 87.5295 -1.02726 5.64123 0
M  V30 897 N 87.0255 -1.09777 6.84047 0
M  V30 898 N 88.8185 -1.06226 5.51971 0
M  V30 899 H 80.9695 0.629462 2.02858 0
M  V30 900 H 83.2325 0.220621 0.921971 0
M  V30 901 H 82.9385 0.231518 3.50937 0
M  V30 902 H 82.8125 -1.51781 3.45315 0
M  V30 903 H 85.1995 -1.61999 2.46658 0
M  V30 904 H 85.2805 0.14541 2.55386 0
M  V30 905 H 84.9245 0.0146069 5.07898 0
M  V30 906 H 84.8545 -1.76172 4.96257 0
M  V30 907 H 87.3455 -0.876694 3.6759 0
M  V30 908 H 87.6585 -1.17872 7.63758 0
M  V30 909 H 86.0035 -1.06693 6.86762 0
M  V30 910 H 89.1945 -1.00382 4.5721 0
M  V30 911 H 89.3675 -1.14177 6.37862 0
M  V30 912 N 82.7736 -1.49793 -0.48987 0
M  V30 913 C 83.7366 -1.66752 -1.57246 0
M  V30 914 C 84.7366 -0.538867 -1.51502 0
M  V30 915 O 85.9266 -0.805545 -1.54456 0
M  V30 916 C 83.0586 -1.67528 -2.96896 0
M  V30 917 H 84.2516 -2.63321 -1.43534 0
M  V30 918 H 81.8046 -1.38992 -0.714914 0
M  V30 919 H 82.5396 -0.725837 -3.16073 0
M  V30 920 H 82.3246 -2.49504 -3.02473 0
M  V30 921 H 83.8146 -1.82667 -3.7553 0
M  V30 922 N 84.2517 0.741722 -1.39055 0
M  V30 923 C 85.1617 1.88621 -1.39496 0
M  V30 924 C 86.1777 1.71557 -0.290578 0
M  V30 925 O 87.3537 1.94275 -0.530954 0
M  V30 926 C 84.4187 3.24134 -1.23037 0
M  V30 927 C 83.4797 3.5364 -2.43387 0
M  V30 928 C 82.7127 4.82687 -2.27703 0
M  V30 929 O 82.9357 5.55922 -1.27696 0
M  V30 930 O 81.8697 5.1194 -3.16545 0
M  V30 931 H 85.6957 1.91203 -2.35956 0
M  V30 932 H 83.2807 0.888625 -1.20099 0
M  V30 933 H 85.1627 4.0513 -1.15964 0
M  V30 934 H 83.8377 3.22337 -0.296691 0
M  V30 935 H 82.7447 2.72758 -2.56035 0
M  V30 936 H 84.0777 3.60209 -3.35425 0
M  V30 937 N 85.7298 1.2412 0.971189 0
M  V30 938 C 86.9778 1.07668 1.71032 0
M  V30 939 C 87.2988 -0.385797 1.91146 0
M  V30 940 O 86.5688 -1.27569 1.4867 0
M  V30 941 H 85.1488 0.395429 0.633755 0
M  V30 942 H 87.8108 1.55984 1.16855 0
M  V30 943 H 86.9068 1.57195 2.69622 0
M  V30 944 N 87.2079 -1.17134 1.05439 0
M  V30 945 C 88.1379 -2.2342 0.678649 0
M  V30 946 C 89.1189 -1.66971 -0.32476 0
M  V30 947 O 90.3039 -1.93149 -0.201802 0
M  V30 948 C 87.4339 -3.47256 0.0552099 0
M  V30 949 C 86.3879 -4.16543 0.98365 0
M  V30 950 C 85.7139 -5.34231 0.223961 0
M  V30 951 C 87.0139 -4.68495 2.3089 0
M  V30 952 H 88.7079 -2.55105 1.56722 0
M  V30 953 H 86.2539 -1.2262 0.754998 0
M  V30 954 H 88.2069 -4.20828 -0.21946 0
M  V30 955 H 86.9309 -3.14846 -0.868319 0
M  V30 956 H 85.5899 -3.44887 1.24293 0
M  V30 957 H 85.2379 -4.98071 -0.702412 0
M  V30 958 H 84.9379 -5.81527 0.842627 0
M  V30 959 H 86.4619 -6.10585 -0.0433671 0
M  V30 960 H 87.8759 -5.33691 2.09396 0
M  V30 961 H 86.2729 -5.26379 2.88176 0
M  V30 962 H 87.3429 -3.85169 2.94572 0
M  V30 963 N 88.686 -0.835752 -1.33615 0
M  V30 964 C 89.633 -0.26473 -2.29277 0
M  V30 965 C 90.603 0.617712 -1.54187 0
M  V30 966 O 91.788 0.556641 -1.825 0
M  V30 967 C 88.928 0.556777 -3.40579 0
M  V30 968 C 88.041 -0.349339 -4.30585 0
M  V30 969 C 87.176 0.482969 -5.29 0
M  V30 970 C 86.215 -0.421732 -6.10645 0
M  V30 971 N 85.352 0.372262 -7.01112 0
M  V30 972 H 90.192 -1.08582 -2.77514 0
M  V30 973 H 87.729 -0.546927 -1.36554 0
M  V30 974 H 89.687 1.04852 -4.03809 0
M  V30 975 H 88.317 1.34286 -2.93542 0
M  V30 976 H 87.369 -0.959372 -3.68104 0
M  V30 977 H 88.681 -1.04445 -4.87742 0
M  V30 978 H 87.835 1.03866 -5.97743 0
M  V30 979 H 86.574 1.21153 -4.72412 0
M  V30 980 H 85.579 -0.989464 -5.40823 0
M  V30 981 H 86.804 -1.14861 -6.69316 0
M  V30 982 H 84.75 1.08426 -6.46977 0
M  V30 983 H 84.667 -0.264198 -7.55538 0
M  V30 984 H 85.935 0.910293 -7.74167 0
M  V30 985 N 90.1641 1.46063 -0.591896 0
M  V30 986 C 91.3941 2.06418 -0.0867676 0
M  V30 987 C 91.8021 1.43975 1.22751 0
M  V30 988 O 91.1451 0.542531 1.75506 0
M  V30 989 C 91.2071 3.59213 0.143725 0
M  V30 990 C 90.8711 4.439 -1.08635 0
M  V30 991 C 91.8681 4.79864 -2.00067 0
M  V30 992 C 89.5531 4.84896 -1.31077 0
M  V30 993 C 91.5471 5.55661 -3.12282 0
M  V30 994 C 89.2341 5.6045 -2.43596 0
M  V30 995 C 90.2321 5.95747 -3.34027 0
M  V30 996 O 89.9201 6.69772 -4.4459 0
M  V30 997 H 89.6521 0.673443 -0.0587447 0
M  V30 998 H 92.2061 1.88539 -0.814994 0
M  V30 999 H 90.4361 3.75433 0.926668 0
M  V30 1000 H 92.1251 4.01463 0.5985 0
M  V30 1001 H 92.8911 4.48763 -1.83947 0
M  V30 1002 H 88.7701 4.56867 -0.61594 0
M  V30 1003 H 92.3141 5.8313 -3.82891 0
M  V30 1004 H 88.2111 5.90965 -2.59674 0
M  V30 1005 H 88.9791 6.88207 -4.43073 0
M  V30 1006 N 91.6422 0.330177 1.54103 0
M  V30 1007 C 92.8722 -0.271784 2.04805 0
M  V30 1008 C 93.2802 -1.45816 1.20559 0
M  V30 1009 O 92.6232 -1.82247 0.2306 0
M  V30 1010 C 92.6852 -0.763238 3.51305 0
M  V30 1011 C 92.3492 0.301705 4.56003 0
M  V30 1012 C 93.3462 1.13999 5.07248 0
M  V30 1013 C 91.0312 0.451793 5.00264 0
M  V30 1014 C 93.0252 2.11402 6.01322 0
M  V30 1015 C 90.7122 1.42924 5.94151 0
M  V30 1016 C 91.7102 2.25882 6.44567 0
M  V30 1017 O 91.3982 3.21965 7.3661 0
M  V30 1018 H 91.1302 -0.058693 0.673447 0
M  V30 1019 H 93.6842 0.476395 1.99799 0
M  V30 1020 H 91.9142 -1.56244 3.5373 0
M  V30 1021 H 93.6032 -1.28427 3.85047 0
M  V30 1022 H 94.3692 1.03505 4.73827 0
M  V30 1023 H 90.2482 -0.184044 4.60632 0
M  V30 1024 H 93.7922 2.76192 6.40596 0
M  V30 1025 H 89.6892 1.53479 6.26988 0
M  V30 1026 H 90.4572 3.17281 7.54503 0
M  V30 1027 N 93.1203 -1.57491 0.0584922 0
M  V30 1028 C 94.5363 -1.56792 -0.298091 0
M  V30 1029 C 94.7363 -1.06679 -1.70944 0
M  V30 1030 O 93.7923 -0.726672 -2.41818 0
M  V30 1031 C 95.1053 -3.00461 -0.119879 0
M  V30 1032 C 96.6533 -3.1242 -0.190428 0
M  V30 1033 C 97.1283 -4.57982 -0.0406567 0
M  V30 1034 N 98.6193 -4.63099 -0.0966958 0
M  V30 1035 C 99.3543 -5.734 -0.00502943 0
M  V30 1036 N 98.8503 -6.9266 0.139402 0
M  V30 1037 N 100.643 -5.62067 -0.0611391 0
M  V30 1038 H 92.7943 -1.88386 0.98105 0
M  V30 1039 H 95.0573 -0.867865 0.381463 0
M  V30 1040 H 94.7633 -3.41187 0.85349 0
M  V30 1041 H 94.6373 -3.66843 -0.877833 0
M  V30 1042 H 97.0243 -2.71589 -1.15427 0
M  V30 1043 H 97.1053 -2.48702 0.598405 0
M  V30 1044 H 96.7493 -4.995 0.919897 0
M  V30 1045 H 96.6793 -5.19715 -0.848727 0
M  V30 1046 H 99.1703 -3.77331 -0.207277 0
M  V30 1047 H 99.4833 -7.72536 0.201855 0
M  V30 1048 H 97.8283 -6.94781 0.174586 0
M  V30 1049 H 101.019 -4.67782 -0.172583 0
M  V30 1050 H 101.192 -6.47999 0.0137562 0
M  V30 1051 N 94.5984 0.214957 -1.56127 0
M  V30 1052 C 95.5314 1.29382 -1.87977 0
M  V30 1053 C 96.5094 1.44897 -0.737807 0
M  V30 1054 O 97.6934 1.60605 -0.986833 0
M  V30 1055 C 94.8204 2.66325 -2.09258 0
M  V30 1056 C 93.8664 2.67789 -3.31951 0
M  V30 1057 S 94.6994 2.21198 -4.8768 0
M  V30 1058 C 95.8554 3.60003 -5.12004 0
M  V30 1059 H 96.0884 1.02173 -2.79192 0
M  V30 1060 H 93.6214 0.417516 -1.48648 0
M  V30 1061 H 95.5794 3.45162 -2.22201 0
M  V30 1062 H 94.2404 2.90755 -1.18829 0
M  V30 1063 H 93.4334 3.68436 -3.43906 0
M  V30 1064 H 93.0354 1.9702 -3.17898 0
M  V30 1065 H 95.3274 4.55739 -5.01307 0
M  V30 1066 H 96.2704 3.52959 -6.13861 0
M  V30 1067 H 96.6784 3.53996 -4.39712 0
M  V30 1068 N 96.0765 1.50051 0.48192 0
M  V30 1069 C 97.0095 1.62749 1.59963 0
M  V30 1070 C 97.9875 0.475903 1.5548 0
M  V30 1071 O 99.1715 0.693986 1.7526 0
M  V30 1072 C 96.2985 1.60008 2.98522 0
M  V30 1073 C 95.3445 2.80596 3.21198 0
M  V30 1074 S 96.1775 4.42038 3.02262 0
M  V30 1075 C 97.3335 4.41973 4.43182 0
M  V30 1076 H 97.5665 2.57296 1.4895 0
M  V30 1077 H 95.0995 1.39179 0.668477 0
M  V30 1078 H 97.0575 1.59112 3.78409 0
M  V30 1079 H 95.7185 0.667153 3.06933 0
M  V30 1080 H 94.9115 2.74952 4.22395 0
M  V30 1081 H 94.5135 2.79003 2.49065 0
M  V30 1082 H 96.8055 4.14868 5.35622 0
M  V30 1083 H 97.7485 5.43512 4.53873 0
M  V30 1084 H 98.1565 3.71812 4.24755 0
M  V30 1085 N 97.5546 -0.734337 1.39446 0
M  V30 1086 C 98.4846 -1.86155 1.40955 0
M  V30 1087 C 99.4656 -1.67898 0.272827 0
M  V30 1088 O 100.651 -1.88207 0.478743 0
M  V30 1089 C 97.7806 -3.23912 1.25294 0
M  V30 1090 C 96.7346 -3.56808 2.36373 0
M  V30 1091 C 96.0606 -4.93508 2.058 0
M  V30 1092 C 97.3606 -3.59713 3.78687 0
M  V30 1093 H 99.0546 -1.8515 2.35287 0
M  V30 1094 H 96.6006 -0.889367 1.13253 0
M  V30 1095 H 98.5536 -4.02443 1.2497 0
M  V30 1096 H 97.2776 -3.25446 0.274308 0
M  V30 1097 H 95.9366 -2.80606 2.35914 0
M  V30 1098 H 95.5846 -4.91623 1.06374 0
M  V30 1099 H 95.2846 -5.16486 2.80208 0
M  V30 1100 H 96.8086 -5.74396 2.07128 0
M  V30 1101 H 98.2226 -4.2832 3.81071 0
M  V30 1102 H 96.6196 -3.94209 4.52459 0
M  V30 1103 H 97.6896 -2.59504 4.09617 0
M  V30 1104 N 99.0327 -1.24633 -0.964593 0
M  V30 1105 C 100.261 -1.11501 -1.74285 0
M  V30 1106 C 100.676 0.332165 -1.85855 0
M  V30 1107 O 100.033 1.22903 -1.34911 0
M  V30 1108 C 100.084 -1.75258 -3.16175 0
M  V30 1109 O 99.8047 -3.14318 -3.05182 0
M  V30 1110 C 101.306 -1.67776 -4.10324 0
M  V30 1111 H 98.5257 -0.389407 -0.546446 0
M  V30 1112 H 101.07 -1.64801 -1.21083 0
M  V30 1113 H 99.2247 -1.25954 -3.66353 0
M  V30 1114 H 99.6387 -3.4551 -3.94618 0
M  V30 1115 H 101.113 -2.17064 -5.0753 0
M  V30 1116 H 101.59 -0.639584 -4.34518 0
M  V30 1117 H 102.196 -2.16522 -3.66058 0
M  V30 1118 N 100.511 1.16574 -1.06058 0
M  V30 1119 C 101.757 1.87324 -0.777022 0
M  V30 1120 C 102.09 1.81351 0.694645 0
M  V30 1121 O 101.365 1.22753 1.50871 0
M  V30 1122 C 101.648 3.36991 -1.26922 0
M  V30 1123 C 101.501 3.51667 -2.80447 0
M  V30 1124 C 102.82 4.3131 -0.87521 0
M  V30 1125 H 99.9388 0.680191 -0.28374 0
M  V30 1126 H 102.581 1.37036 -1.3161 0
M  V30 1127 H 100.731 3.79949 -0.81063 0
M  V30 1128 H 102.403 3.17664 -3.34495 0
M  V30 1129 H 100.646 2.93656 -3.19294 0
M  V30 1130 H 101.317 4.56766 -3.0995 0
M  V30 1131 H 103.793 3.9624 -1.27014 0
M  V30 1132 H 102.669 5.34545 -1.2471 0
M  V30 1133 H 102.93 4.41552 0.220071 0
M  V30 1134 N 101.989 0.842826 1.3317 0
M  V30 1135 C 103.405 0.531128 1.50503 0
M  V30 1136 C 103.605 -0.940734 1.78192 0
M  V30 1137 O 102.661 -1.72436 1.84451 0
M  V30 1138 C 103.974 1.40789 2.65705 0
M  V30 1139 C 105.522 1.40708 2.79589 0
M  V30 1140 C 105.997 2.26878 3.97857 0
M  V30 1141 N 107.488 2.24609 4.05099 0
M  V30 1142 C 108.223 2.88019 4.95815 0
M  V30 1143 N 107.719 3.60496 5.9162 0
M  V30 1144 N 109.512 2.77469 4.88843 0
M  V30 1145 H 101.663 1.79557 1.1346 0
M  V30 1146 H 103.926 0.766267 0.558156 0
M  V30 1147 H 103.632 2.454 2.51936 0
M  V30 1148 H 103.506 1.08677 3.61205 0
M  V30 1149 H 105.893 0.368668 2.92788 0
M  V30 1150 H 105.974 1.76829 1.84838 0
M  V30 1151 H 105.618 3.3078 3.85418 0
M  V30 1152 H 105.548 1.88096 4.91861 0
M  V30 1153 H 108.039 1.71906 3.36536 0
M  V30 1154 H 108.352 4.06076 6.57512 0
M  V30 1155 H 106.697 3.64604 5.91683 0
M  V30 1156 H 109.888 2.20406 4.12963 0
M  V30 1157 H 110.061 3.2717 5.59342 0
M  V30 1158 N 103.467 -1.45747 0.599634 0
M  V30 1159 C 104.883 -1.57424 0.26264 0
M  V30 1160 C 105.083 -1.59222 -1.23493 0
M  V30 1161 O 104.139 -1.51825 -2.01756 0
M  V30 1162 C 105.452 -2.86061 0.926795 0
M  V30 1163 C 107 -2.99722 0.901967 0
M  V30 1164 C 107.475 -4.31119 1.54598 0
M  V30 1165 N 108.966 -4.37858 1.5111 0
M  V30 1166 C 109.701 -5.3818 1.97863 0
M  V30 1167 N 109.197 -6.45083 2.52666 0
M  V30 1168 N 110.99 -5.29487 1.88679 0
M  V30 1169 H 103.141 -1.42823 1.57211 0
M  V30 1170 H 105.404 -0.68235 0.658105 0
M  V30 1171 H 105.11 -2.90605 1.98095 0
M  V30 1172 H 104.984 -3.74563 0.445238 0
M  V30 1173 H 107.371 -2.9475 -0.143617 0
M  V30 1174 H 107.452 -2.12652 1.42171 0
M  V30 1175 H 107.096 -4.36849 2.59085 0
M  V30 1176 H 107.026 -5.16992 1.00132 0
M  V30 1177 H 109.517 -3.61209 1.11068 0
M  V30 1178 H 109.83 -7.17869 2.86155 0
M  V30 1179 H 108.175 -6.45856 2.56701 0
M  V30 1180 H 111.366 -4.44877 1.4561 0
M  V30 1181 H 111.539 -6.07524 2.25429 0
M  V30 1182 N 104.945 -0.338344 -1.53925 0
M  V30 1183 C 105.878 0.563758 -2.21127 0
M  V30 1184 C 106.856 1.10433 -1.19345 0
M  V30 1185 O 108.04 1.16557 -1.48144 0
M  V30 1186 C 105.167 1.77505 -2.88461 0
M  V30 1187 C 104.213 1.3644 -4.04087 0
M  V30 1188 S 105.046 0.388593 -5.34088 0
M  V30 1189 C 106.202 1.60683 -6.04923 0
M  V30 1190 H 106.435 -0.00704546 -2.97299 0
M  V30 1191 H 103.968 -0.122418 -1.53914 0
M  V30 1192 H 105.926 2.46999 -3.27875 0
M  V30 1193 H 104.587 2.31706 -2.12064 0
M  V30 1194 H 103.78 2.26739 -4.50117 0
M  V30 1195 H 103.382 0.748998 -3.66423 0
M  V30 1196 H 105.674 2.54209 -6.28 0
M  V30 1197 H 106.617 1.18842 -6.98056 0
M  V30 1198 H 107.025 1.80052 -5.35015 0
M  V30 1199 N 106.423 1.57458 -0.0668435 0
M  V30 1200 C 107.333 2.15937 0.916975 0
M  V30 1201 C 108.349 1.12123 1.33058 0
M  V30 1202 O 109.525 1.44366 1.40429 0
M  V30 1203 C 106.59 2.70547 2.16807 0
M  V30 1204 C 105.651 3.89215 1.81135 0
M  V30 1205 C 104.884 4.41211 3.0028 0
M  V30 1206 O 105.107 3.92225 4.14144 0
M  V30 1207 O 104.041 5.32605 2.80384 0
M  V30 1208 H 107.867 3.00354 0.449561 0
M  V30 1209 H 105.452 1.48584 0.155949 0
M  V30 1210 H 107.334 3.0557 2.90181 0
M  V30 1211 H 106.009 1.89192 2.62656 0
M  V30 1212 H 104.916 3.59054 1.05028 0
M  V30 1213 H 106.249 4.71848 1.40073 0
M  V30 1214 N 107.901 -0.206675 1.56239 0
M  V30 1215 C 108.831 -1.25909 1.96645 0
M  V30 1216 C 109.812 -1.48097 0.836734 0
M  V30 1217 O 110.997 -1.6003 1.10019 0
M  V30 1218 C 108.127 -2.6058 2.29599 0
M  V30 1219 C 107.081 -2.53024 3.452 0
M  V30 1220 C 106.407 -3.91861 3.63798 0
M  V30 1221 C 107.707 -2.06524 4.79734 0
M  V30 1222 H 109.401 -0.923369 2.84806 0
M  V30 1223 H 106.947 -0.442735 1.37025 0
M  V30 1224 H 108.9 -3.34375 2.56459 0
M  V30 1225 H 107.624 -2.95869 1.38307 0
M  V30 1226 H 106.283 -1.81684 3.18412 0
M  V30 1227 H 105.931 -4.24483 2.69857 0
M  V30 1228 H 105.631 -3.87683 4.4156 0
M  V30 1229 H 107.155 -4.67296 3.93022 0
M  V30 1230 H 108.569 -2.70072 5.05702 0
M  V30 1231 H 106.966 -2.13374 5.60885 0
M  V30 1232 H 108.036 -1.01802 4.74093 0
M  V30 1233 N 109.379 -1.50304 -0.473955 0
M  V30 1234 C 110.326 -1.68959 -1.57231 0
M  V30 1235 C 111.296 -0.530899 -1.57387 0
M  V30 1236 O 112.481 -0.761133 -1.74961 0
M  V30 1237 C 109.621 -1.7871 -2.95223 0
M  V30 1238 C 108.734 -3.06061 -3.04878 0
M  V30 1239 C 107.869 -3.06626 -4.33767 0
M  V30 1240 C 106.908 -4.28443 -4.37154 0
M  V30 1241 N 106.045 -4.26763 -5.5751 0
M  V30 1242 H 110.885 -2.6273 -1.40631 0
M  V30 1243 H 108.422 -1.30241 -0.683789 0
M  V30 1244 H 110.38 -1.82344 -3.75242 0
M  V30 1245 H 109.01 -0.883806 -3.10465 0
M  V30 1246 H 108.062 -3.11911 -2.17751 0
M  V30 1247 H 109.374 -3.96039 -3.0324 0
M  V30 1248 H 108.528 -3.08973 -5.22131 0
M  V30 1249 H 107.267 -2.14473 -4.3801 0
M  V30 1250 H 106.272 -4.2631 -3.47188 0
M  V30 1251 H 107.497 -5.2182 -4.34605 0
M  V30 1252 H 105.443 -3.37462 -5.62544 0
M  V30 1253 H 105.36 -5.10507 -5.57601 0
M  V30 1254 H 106.628 -4.33253 -6.48006 0
M  V30 1255 N 110.857 0.726932 -1.39834 0
M  V30 1256 C 111.82 1.82269 -1.38962 0
M  V30 1257 C 112.82 1.58248 -0.285334 0
M  V30 1258 O 114.01 1.65499 -0.54366 0
M  V30 1259 C 111.142 3.20186 -1.17019 0
M  V30 1260 H 112.335 1.84443 -2.36476 0
M  V30 1261 H 109.888 0.931416 -1.25516 0
M  V30 1262 H 110.623 3.23669 -0.202204 0
M  V30 1263 H 110.408 3.3902 -1.96998 0
M  V30 1264 H 111.898 4.00235 -1.1917 0
M  V30 1265 N 112.336 1.25143 0.95797 0
M  V30 1266 C 113.613 1.00472 1.67823 0
M  V30 1267 C 113.993 -0.470056 2.058 0
M  V30 1268 O 113.341 -1.44663 1.76875 0
M  V30 1269 C 113.551 1.9372 2.90299 0
M  V30 1270 C 114.899 2.21371 3.62326 0
M  V30 1271 O 115.923 1.91451 3.00375 0
M  V30 1272 O 114.782 2.72231 4.7387 0
M  V30 1273 H 111.876 0.380752 0.734137 0
M  V30 1274 H 114.422 1.36283 1.01119 0
M  V30 1275 H 113.194 2.93316 2.59001 0
M  V30 1276 H 112.817 1.58286 3.64735 0
M  V30 1277 N 113.814 -1.1601 1.06675 0
M  V30 1278 C 114.746 -2.20115 0.638921 0
M  V30 1279 C 115.759 -1.59916 -0.305057 0
M  V30 1280 O 116.948 -1.78245 -0.0954446 0
M  V30 1281 C 114.048 -3.38798 -0.0830083 0
M  V30 1282 C 113.221 -4.2855 0.875426 0
M  V30 1283 C 112.28 -5.25849 0.192042 0
M  V30 1284 O 111.306 -5.63102 0.830921 0
M  V30 1285 N 112.508 -5.70648 -1.06493 0
M  V30 1286 H 115.273 -2.57439 1.53444 0
M  V30 1287 H 112.834 -1.31057 0.950557 0
M  V30 1288 H 114.826 -4.00936 -0.550685 0
M  V30 1289 H 113.396 -2.99947 -0.880386 0
M  V30 1290 H 112.616 -3.63617 1.52238 0
M  V30 1291 H 113.904 -4.85393 1.52548 0
M  V30 1292 H 113.302 -5.42482 -1.60405 0
M  V30 1293 H 111.859 -6.34859 -1.47641 0
M  V30 1294 N 115.292 -0.849877 -1.32721 0
M  V30 1295 C 116.222 -0.306308 -2.31482 0
M  V30 1296 C 117.203 0.591952 -1.59468 0
M  V30 1297 O 118.388 0.513199 -1.87296 0
M  V30 1298 C 115.518 0.510204 -3.43532 0
M  V30 1299 C 114.472 -0.293209 -4.26994 0
M  V30 1300 C 113.798 0.647743 -5.30762 0
M  V30 1301 C 115.098 -1.51634 -4.99804 0
M  V30 1302 H 116.792 -1.13153 -2.77195 0
M  V30 1303 H 114.338 -0.545553 -1.33266 0
M  V30 1304 H 116.291 0.900856 -4.11658 0
M  V30 1305 H 115.015 1.36874 -2.96535 0
M  V30 1306 H 113.674 -0.665555 -3.60508 0
M  V30 1307 H 113.322 1.50299 -4.8002 0
M  V30 1308 H 113.022 0.11422 -5.87489 0
M  V30 1309 H 114.546 1.03567 -6.01753 0
M  V30 1310 H 115.96 -1.19824 -5.60638 0
M  V30 1311 H 114.357 -1.98745 -5.66234 0
M  V30 1312 H 115.427 -2.28018 -4.27943 0
M  V30 1313 N 116.77 1.45427 -0.607355 0
M  V30 1314 C 118 2.06314 -0.108656 0
M  V30 1315 C 118.408 1.45269 1.21217 0
M  V30 1316 O 117.751 0.561115 1.74921 0
M  V30 1317 C 117.813 3.59345 0.105618 0
M  V30 1318 C 117.477 4.42723 -1.13337 0
M  V30 1319 C 118.474 4.77715 -2.05145 0
M  V30 1320 C 116.159 4.83478 -1.36213 0
M  V30 1321 C 118.153 5.52317 -3.18158 0
M  V30 1322 C 115.84 5.57835 -2.49527 0
M  V30 1323 C 116.838 5.92171 -3.40327 0
M  V30 1324 O 116.526 6.65019 -4.51669 0
M  V30 1325 H 116.258 0.672782 -0.0658842 0
M  V30 1326 H 118.812 1.87664 -0.834945 0
M  V30 1327 H 117.042 3.76394 0.886796 0
M  V30 1328 H 118.731 4.02076 0.555886 0
M  V30 1329 H 119.497 4.46787 -1.88697 0
M  V30 1330 H 115.376 4.56188 -0.664362 0
M  V30 1331 H 118.92 5.79036 -3.89054 0
M  V30 1332 H 114.817 5.88177 -2.65928 0
M  V30 1333 H 115.585 6.83469 -4.50348 0
M  V30 1334 N 118.248 0.346503 1.53744 0
M  V30 1335 C 119.195 -0.508914 2.25119 0
M  V30 1336 C 120.165 -1.09315 1.25058 0
M  V30 1337 O 121.35 -1.12921 1.53797 0
M  V30 1338 C 118.49 -1.65246 3.02965 0
M  V30 1339 C 117.603 -1.09525 4.17886 0
M  V30 1340 C 116.738 -2.20634 4.83212 0
M  V30 1341 C 115.777 -1.62279 5.90196 0
M  V30 1342 N 114.914 -2.67143 6.49291 0
M  V30 1343 H 119.754 0.106283 2.9781 0
M  V30 1344 H 117.291 0.0642227 1.4696 0
M  V30 1345 H 119.249 -2.32574 3.4636 0
M  V30 1346 H 117.879 -2.2386 2.32565 0
M  V30 1347 H 116.931 -0.312818 3.79112 0
M  V30 1348 H 118.243 -0.628444 4.94825 0
M  V30 1349 H 117.397 -2.95821 5.29693 0
M  V30 1350 H 116.136 -2.70659 4.05703 0
M  V30 1351 H 115.141 -0.855989 5.43096 0
M  V30 1352 H 116.366 -1.13102 6.69615 0
M  V30 1353 H 114.312 -3.16417 5.74645 0
M  V30 1354 H 114.229 -2.25093 7.21713 0
M  V30 1355 H 115.497 -3.4209 7.00425 0
M  V30 1356 N 119.726 -1.57421 0.075193 0
M  V30 1357 C 120.658 -2.09904 -0.920483 0
M  V30 1358 C 121.671 -1.03191 -1.25918 0
M  V30 1359 O 122.86 -1.30695 -1.21577 0
M  V30 1360 C 119.96 -2.54726 -2.23534 0
M  V30 1361 C 119.133 -3.8505 -2.07498 0
M  V30 1362 C 118.192 -4.15929 -3.22319 0
M  V30 1363 O 117.218 -4.85474 -2.9716 0
M  V30 1364 N 118.42 -3.69745 -4.47514 0
M  V30 1365 H 121.185 -2.95954 -0.472359 0
M  V30 1366 H 118.746 -1.61523 -0.110444 0
M  V30 1367 H 120.738 -2.72443 -2.9926 0
M  V30 1368 H 119.308 -1.73795 -2.59835 0
M  V30 1369 H 118.528 -3.76679 -1.16219 0
M  V30 1370 H 119.816 -4.70348 -1.94038 0
M  V30 1371 H 119.214 -3.13569 -4.7084 0
M  V30 1372 H 117.771 -3.92655 -5.20255 0
M  V30 1373 N 121.204 0.198386 -1.56346 0
M  V30 1374 C 122.151 1.24589 -1.94284 0
M  V30 1375 C 123.121 1.454 -0.802997 0
M  V30 1376 O 124.306 1.58588 -1.06087 0
M  V30 1377 C 121.446 2.58631 -2.28482 0
M  V30 1378 C 120.559 2.45426 -3.55514 0
M  V30 1379 C 119.694 3.7215 -3.79049 0
M  V30 1380 C 118.733 3.53763 -4.99518 0
M  V30 1381 N 117.87 4.72491 -5.19323 0
M  V30 1382 H 122.71 0.915356 -2.83593 0
M  V30 1383 H 120.247 0.440629 -1.40346 0
M  V30 1384 H 122.205 3.3672 -2.46324 0
M  V30 1385 H 120.835 2.89734 -1.42317 0
M  V30 1386 H 119.887 1.58652 -3.45737 0
M  V30 1387 H 121.199 2.27772 -4.43758 0
M  V30 1388 H 120.353 4.58679 -3.97113 0
M  V30 1389 H 119.092 3.92754 -2.89129 0
M  V30 1390 H 118.097 2.65619 -4.8138 0
M  V30 1391 H 119.322 3.34607 -5.90944 0
M  V30 1392 H 117.268 4.93365 -4.3235 0
M  V30 1393 H 117.185 4.5765 -6.01741 0
M  V30 1394 H 118.453 5.6038 -5.41843 0
M  V30 1395 N 122.682 1.50554 0.465978 0
M  V30 1396 C 123.929 1.61798 1.21768 0
M  V30 1397 C 124.257 0.320696 1.91838 0
M  V30 1398 O 123.512 -0.693724 1.82992 0
M  V30 1399 C 123.811 2.75152 2.28093 0
M  V30 1400 C 123.477 4.15454 1.75239 0
M  V30 1401 C 122.139 4.53628 1.60546 0
M  V30 1402 C 124.491 5.03121 1.36083 0
M  V30 1403 C 121.819 5.77204 1.05128 0
M  V30 1404 C 124.171 6.27249 0.821056 0
M  V30 1405 C 122.835 6.64221 0.660795 0
M  V30 1406 H 122.105 0.592063 0.445582 0
M  V30 1407 H 124.752 1.84503 0.512927 0
M  V30 1408 H 123.057 2.46556 3.04496 0
M  V30 1409 H 124.754 2.81055 2.86023 0
M  V30 1410 H 121.344 3.85341 1.87644 0
M  V30 1411 H 125.528 4.74257 1.46267 0
M  V30 1412 H 120.784 6.0452 0.91462 0
M  V30 1413 H 124.958 6.94537 0.509018 0
M  V30 1414 H 122.585 7.59854 0.229226 0
M  V30 1415 N 124.16 -0.719506 1.40217 0
M  V30 1416 C 125.409 -1.47486 1.37589 0
M  V30 1417 C 125.722 -1.9559 -0.0201568 0
M  V30 1418 O 126.928 -2.70973 -0.169049 0
M  V30 1419 C 125.384 -2.66575 2.41796 0
M  V30 1420 C 124.992 -2.25358 3.87192 0
M  V30 1421 C 126.736 -3.4433 2.48269 0
M  V30 1422 C 124.643 -3.41262 4.83005 0
M  V30 1423 H 123.573 -0.553901 0.511576 0
M  V30 1424 H 126.224 -0.783427 1.65936 0
M  V30 1425 H 124.606 -3.3787 2.06543 0
M  V30 1426 H 125.78 -1.61509 4.31569 0
M  V30 1427 H 124.095 -1.60657 3.84159 0
M  V30 1428 H 126.692 -4.30569 3.17041 0
M  V30 1429 H 127.035 -3.87872 1.51198 0
M  V30 1430 H 127.568 -2.80076 2.82493 0
M  V30 1431 H 124.307 -3.02755 5.81394 0
M  V30 1432 H 123.827 -4.0404 4.43297 0
M  V30 1433 H 125.506 -4.07383 5.02641 0
M  V30 1434 N 125.638 -1.25649 -0.95132 0
M  V30 1435 C 127.054 -1.02542 -1.223 0
M  V30 1436 C 127.254 0.255715 -1.99871 0
M  V30 1437 O 126.31 0.967558 -2.33226 0
M  V30 1438 C 127.623 -2.25065 -1.99415 0
M  V30 1439 C 129.171 -2.29861 -2.12446 0
M  V30 1440 C 129.646 -3.52048 -2.92961 0
M  V30 1441 N 131.137 -3.52465 -3.00538 0
M  V30 1442 C 131.872 -4.43672 -3.63239 0
M  V30 1443 N 131.368 -5.45157 -4.27523 0
M  V30 1444 N 133.161 -4.31346 -3.60412 0
M  V30 1445 H 125.312 -2.07951 -0.432471 0
M  V30 1446 H 127.575 -0.91339 -0.253816 0
M  V30 1447 H 127.281 -3.18194 -1.49817 0
M  V30 1448 H 127.155 -2.28502 -3.00111 0
M  V30 1449 H 129.542 -1.37252 -2.61239 0
M  V30 1450 H 129.623 -2.3044 -1.11044 0
M  V30 1451 H 129.267 -4.44981 -2.44856 0
M  V30 1452 H 129.197 -3.48715 -3.94596 0
M  V30 1453 H 131.688 -2.79056 -2.54826 0
M  V30 1454 H 132.001 -6.10958 -4.73234 0
M  V30 1455 H 130.346 -5.49025 -4.26141 0
M  V30 1456 H 133.537 -3.51288 -3.09377 0
M  V30 1457 H 133.71 -5.02624 -4.0899 0
M  V30 1458 N 127.117 1.15442 -1.07289 0
M  V30 1459 C 128.365 1.85845 -0.794096 0
M  V30 1460 C 128.686 1.82692 0.681809 0
M  V30 1461 O 127.956 1.26741 1.49377 0
M  V30 1462 H 126.536 0.688089 -0.290763 0
M  V30 1463 H 129.198 1.39947 -1.3565 0
M  V30 1464 H 128.294 2.91001 -1.12804 0
M  V30 1465 N 128.595 0.856903 1.32268 0
M  V30 1466 C 129.842 0.461386 1.97174 0
M  V30 1467 C 130.17 -0.983491 1.67803 0
M  V30 1468 O 129.425 -1.70541 0.959903 0
M  V30 1469 C 129.724 0.649919 3.51441 0
M  V30 1470 C 129.39 2.0656 4.00804 0
M  V30 1471 C 128.052 2.45279 4.13995 0
M  V30 1472 C 130.404 2.98947 4.26943 0
M  V30 1473 C 127.732 3.75653 4.50668 0
M  V30 1474 C 130.084 4.28822 4.65075 0
M  V30 1475 C 128.748 4.67472 4.76472 0
M  V30 1476 H 128.018 0.168833 0.72151 0
M  V30 1477 H 130.665 1.08739 1.57633 0
M  V30 1478 H 128.97 -0.0593018 3.91755 0
M  V30 1479 H 130.667 0.32391 3.9969 0
M  V30 1480 H 127.257 1.75495 3.91024 0
M  V30 1481 H 131.441 2.70265 4.16258 0
M  V30 1482 H 126.697 4.05379 4.57688 0
M  V30 1483 H 130.871 5.0047 4.84255 0
M  V30 1484 H 128.498 5.68539 5.04646 0
M  V30 1485 N 130.073 -1.45103 0.615059 0
M  V30 1486 C 131.313 -2.04069 0.116282 0
M  V30 1487 C 131.677 -1.4721 -1.2326 0
M  V30 1488 O 132.878 -1.97577 -1.82255 0
M  V30 1489 C 131.149 -3.57298 0.085482 0
M  V30 1490 S 132.708 -4.37394 -0.351015 0
M  V30 1491 H 129.526 -0.709006 0.0532183 0
M  V30 1492 H 132.128 -1.77709 0.81484 0
M  V30 1493 H 130.832 -3.9619 1.0706 0
M  V30 1494 H 130.363 -3.88244 -0.634835 0
M  V30 1495 H 132.378 -4.69734 -1.59889 0
M  V30 1496 N 131.551 -0.354651 -1.53558 0
M  V30 1497 C 132.501 0.513179 -2.2215 0
M  V30 1498 C 133.485 1.05734 -1.21281 0
M  V30 1499 O 134.677 0.989202 -1.46778 0
M  V30 1500 C 131.806 1.65798 -3.00609 0
M  V30 1501 C 130.892 1.12722 -4.08845 0
M  V30 1502 N 131.283 0.318563 -5.04796 0
M  V30 1503 C 129.581 1.40307 -4.23356 0
M  V30 1504 C 130.282 0.0292224 -5.81693 0
M  V30 1505 N 129.258 0.623891 -5.40008 0
M  V30 1506 H 133.06 -0.111586 -2.93688 0
M  V30 1507 H 130.574 -0.162091 -1.61589 0
M  V30 1508 H 132.571 2.29176 -3.48258 0
M  V30 1509 H 131.231 2.28591 -2.306 0
M  V30 1510 H 132.242 -0.0413091 -5.17884 0
M  V30 1511 H 128.919 2.03458 -3.6457 0
M  V30 1512 H 130.309 -0.623808 -6.68998 0
M  V30 1513 N 133.029 1.57378 -0.0835403 0
M  V30 1514 C 133.959 2.1641 0.87686 0
M  V30 1515 C 134.94 1.09429 1.30228 0
M  V30 1516 O 136.125 1.37516 1.37124 0
M  V30 1517 C 133.255 2.73517 2.14022 0
M  V30 1518 C 132.209 3.85769 1.85381 0
M  V30 1519 C 131.535 4.29529 3.18448 0
M  V30 1520 C 132.835 5.09486 1.14984 0
M  V30 1521 H 134.529 2.96914 0.385059 0
M  V30 1522 H 132.075 1.42823 0.18377 0
M  V30 1523 H 134.028 3.13463 2.81636 0
M  V30 1524 H 132.752 1.90252 2.65465 0
M  V30 1525 H 131.411 3.46345 1.20169 0
M  V30 1526 H 131.059 3.43169 3.67755 0
M  V30 1527 H 130.759 5.05204 3.00071 0
M  V30 1528 H 132.283 4.72099 3.8724 0
M  V30 1529 H 133.697 5.46674 1.72687 0
M  V30 1530 H 132.094 5.90515 1.06826 0
M  V30 1531 H 133.164 4.84724 0.130749 0
M  V30 1532 N 134.507 -0.190092 1.56449 0
M  V30 1533 C 135.747 -0.916414 1.82705 0
M  V30 1534 C 136.111 -1.80235 0.661763 0
M  V30 1535 O 137.312 -2.56484 0.80433 0
M  V30 1536 C 135.583 -1.70691 3.14005 0
M  V30 1537 S 137.142 -2.48457 3.61683 0
M  V30 1538 H 133.96 -0.307281 0.64117 0
M  V30 1539 H 136.562 -0.179433 1.94675 0
M  V30 1540 H 135.266 -1.04677 3.96826 0
M  V30 1541 H 134.797 -2.48562 3.04927 0
M  V30 1542 H 136.812 -3.72756 3.27517 0
M  V30 1543 N 135.985 -1.50799 -0.457987 0
M  V30 1544 C 137.262 -1.52968 -1.21902 0
M  V30 1545 C 137.642 -0.281906 -2.09209 0
M  V30 1546 O 136.99 0.734076 -2.16388 0
M  V30 1547 C 137.2 -2.8326 -2.03875 0
M  V30 1548 C 138.548 -3.34425 -2.6162 0
M  V30 1549 O 139.572 -2.8467 -2.14106 0
M  V30 1550 O 138.431 -4.21188 -3.48228 0
M  V30 1551 H 135.525 -0.614129 -0.553873 0
M  V30 1552 H 138.071 -1.63098 -0.468739 0
M  V30 1553 H 136.843 -3.65543 -1.39621 0
M  V30 1554 H 136.466 -2.76195 -2.8601 0
M  V30 1555 N 137.463 0.71206 -1.40597 0
M  V30 1556 C 138.711 1.46907 -1.38791 0
M  V30 1557 C 139.032 1.94998 0.00780391 0
M  V30 1558 O 138.302 1.70587 0.963174 0
M  V30 1559 H 136.882 0.545043 -0.51082 0
M  V30 1560 H 139.544 0.843882 -1.75683 0
M  V30 1561 H 138.64 2.34021 -2.06496 0
M  V30 1562 N 138.941 1.26152 0.944643 0
M  V30 1563 C 139.873 1.03199 2.04652 0
M  V30 1564 C 140.886 -0.00642356 1.62799 0
M  V30 1565 O 142.075 0.233263 1.76969 0
M  V30 1566 C 139.175 0.540111 3.34568 0
M  V30 1567 C 138.348 1.64697 4.05208 0
M  V30 1568 C 137.407 1.15374 5.13396 0
M  V30 1569 O 136.433 1.85013 5.38293 0
M  V30 1570 N 137.635 0.00031529 5.805 0
M  V30 1571 H 140.4 1.9808 2.2491 0
M  V30 1572 H 137.961 1.17491 1.11389 0
M  V30 1573 H 139.953 0.194401 4.04233 0
M  V30 1574 H 138.523 -0.315021 3.11009 0
M  V30 1575 H 137.743 2.16379 3.29506 0
M  V30 1576 H 139.031 2.3903 4.49157 0
M  V30 1577 H 138.429 -0.581336 5.62705 0
M  V30 1578 H 136.986 -0.286346 6.51171 0
M  V30 1579 N 140.419 -1.14872 1.07899 0
M  V30 1580 C 141.329 -2.2341 0.715915 0
M  V30 1581 C 142.345 -1.71808 -0.275306 0
M  V30 1582 O 143.521 -2.01039 -0.120545 0
M  V30 1583 C 140.586 -3.46474 0.125168 0
M  V30 1584 C 139.647 -4.13039 1.17034 0
M  V30 1585 C 138.88 -5.30229 0.607688 0
M  V30 1586 O 139.103 -5.675 -0.574497 0
M  V30 1587 O 138.037 -5.86444 1.35526 0
M  V30 1588 H 141.863 -2.56808 1.62121 0
M  V30 1589 H 139.448 -1.22702 0.852322 0
M  V30 1590 H 141.33 -4.20917 -0.201729 0
M  V30 1591 H 140.005 -3.14811 -0.753364 0
M  V30 1592 H 138.912 -3.40493 1.54968 0
M  V30 1593 H 140.245 -4.48796 2.02097 0
M  V30 1594 N 141.898 -0.863906 -1.31812 0
M  V30 1595 C 142.861 -0.320212 -2.26952 0
M  V30 1596 C 143.861 0.525369 -1.51975 0
M  V30 1597 O 145.051 0.335547 -1.70938 0
M  V30 1598 C 142.183 0.545919 -3.365 0
M  V30 1599 H 143.376 -1.16004 -2.76556 0
M  V30 1600 H 140.929 -0.638995 -1.42641 0
M  V30 1601 H 141.664 1.40718 -2.92179 0
M  V30 1602 H 141.449 -0.0594674 -3.92055 0
M  V30 1603 H 142.939 0.918796 -4.07367 0
M  V30 1604 N 143.376 1.44774 -0.622745 0
M  V30 1605 C 144.616 2.04004 -0.127102 0
M  V30 1606 C 144.98 1.47862 1.22478 0
M  V30 1607 O 146.181 1.98541 1.81204 0
M  V30 1608 C 144.452 3.57247 -0.104429 0
M  V30 1609 S 146.011 4.37574 0.327814 0
M  V30 1610 H 142.829 0.708713 -0.0569776 0
M  V30 1611 H 145.431 1.77275 -0.824253 0
M  V30 1612 H 144.135 3.95616 -1.09159 0
M  V30 1613 H 143.666 3.88575 0.614236 0
M  V30 1614 H 145.681 4.70575 1.57395 0
M  V30 1615 N 144.854 0.36279 1.53368 0
M  V30 1616 C 146.094 -0.227882 2.03126 0
M  V30 1617 C 146.458 -1.4622 1.24434 0
M  V30 1618 O 147.659 -2.12831 1.64184 0
M  V30 1619 C 145.93 -0.515427 3.53664 0
M  V30 1620 S 147.489 -1.08017 4.25297 0
M  V30 1621 H 144.307 -0.0665377 0.70788 0
M  V30 1622 H 146.909 0.50501 1.88865 0
M  V30 1623 H 145.613 0.390436 4.08539 0
M  V30 1624 H 145.144 -1.27747 3.72081 0
M  V30 1625 H 147.159 -2.36462 4.36234 0
M  V30 1626 N 146.332 -1.57332 0.0918853 0
M  V30 1627 C 147.578 -1.94524 -0.573425 0
M  V30 1628 C 147.911 -0.973578 -1.68033 0
M  V30 1629 O 147.186 -0.00609226 -1.94499 0
M  V30 1630 C 147.469 -3.41858 -1.13161 0
M  V30 1631 C 147.322 -4.4979 -0.0299747 0
M  V30 1632 C 148.641 -3.90435 -2.03098 0
M  V30 1633 H 145.76 -0.70734 -0.206975 0
M  V30 1634 H 148.402 -1.89309 0.161942 0
M  V30 1635 H 146.552 -3.46433 -1.7583 0
M  V30 1636 H 148.224 -4.57327 0.604112 0
M  V30 1637 H 146.467 -4.291 0.636833 0
M  V30 1638 H 147.138 -5.50069 -0.461287 0
M  V30 1639 H 149.614 -3.87992 -1.50338 0
M  V30 1640 H 148.49 -4.94097 -2.39081 0
M  V30 1641 H 148.751 -3.29541 -2.94712 0
M  V30 1642 N 147.81 0.181792 -1.56548 0
M  V30 1643 C 149.058 0.89832 -1.81038 0
M  V30 1644 C 149.379 1.83232 -0.667164 0
M  V30 1645 O 148.649 1.93372 0.313673 0
M  V30 1646 H 147.229 0.33471 -0.667816 0
M  V30 1647 H 149.891 0.184116 -1.94028 0
M  V30 1648 H 148.987 1.4815 -2.74696 0
M  V30 1649 N 149.288 1.51039 0.449983 0
M  V30 1650 C 150.218 1.74379 1.55288 0
M  V30 1651 C 151.199 0.593236 1.5942 0
M  V30 1652 O 152.384 0.834625 1.7535 0
M  V30 1653 C 149.514 1.85728 2.93466 0
M  V30 1654 C 148.468 3.01078 3.04197 0
M  V30 1655 C 147.794 2.97595 4.44231 0
M  V30 1656 C 149.094 4.41254 2.7945 0
M  V30 1657 H 150.788 2.66725 1.36008 0
M  V30 1658 H 148.334 1.2835 0.652864 0
M  V30 1659 H 150.287 2.0064 3.70569 0
M  V30 1660 H 149.011 0.900207 3.13949 0
M  V30 1661 H 147.67 2.85851 2.29531 0
M  V30 1662 H 147.318 1.99691 4.61663 0
M  V30 1663 H 147.018 3.75046 4.52343 0
M  V30 1664 H 148.542 3.14583 5.23326 0
M  V30 1665 H 149.956 4.56897 3.46292 0
M  V30 1666 H 148.353 5.20315 2.98985 0
M  V30 1667 H 149.423 4.52164 1.75144 0
M  V30 1668 N 150.766 -0.704594 1.40972 0
M  V30 1669 C 151.676 -1.84856 1.44448 0
M  V30 1670 C 152.692 -1.70726 0.335961 0
M  V30 1671 O 153.868 -1.92799 0.582276 0
M  V30 1672 C 150.933 -3.20758 1.31587 0
M  V30 1673 C 149.994 -3.47063 2.52677 0
M  V30 1674 C 149.227 -4.76481 2.4042 0
M  V30 1675 O 149.45 -5.52341 1.42391 0
M  V30 1676 O 148.384 -5.03367 3.30007 0
M  V30 1677 H 152.21 -1.8488 2.40942 0
M  V30 1678 H 149.795 -0.85647 1.22413 0
M  V30 1679 H 151.677 -4.01913 1.26665 0
M  V30 1680 H 150.352 -3.21438 0.382049 0
M  V30 1681 H 149.259 -2.65873 2.63177 0
M  V30 1682 H 150.592 -3.5119 3.44858 0
M  V30 1683 N 152.244 -1.26651 -0.937939 0
M  V30 1684 C 153.207 -1.08546 -2.01867 0
M  V30 1685 C 154.207 -0.0327327 -1.60767 0
M  V30 1686 O 155.397 -0.276427 -1.71993 0
M  V30 1687 C 152.529 -0.651711 -3.34613 0
M  V30 1688 H 153.722 -2.04502 -2.1936 0
M  V30 1689 H 151.275 -1.09294 -1.11734 0
M  V30 1690 H 152.01 0.309696 -3.22818 0
M  V30 1691 H 151.795 -1.41189 -3.65798 0
M  V30 1692 H 153.285 -0.546973 -4.14002 0
M  V30 1693 N 153.722 1.14298 -1.08507 0
M  V30 1694 C 154.97 1.84993 -0.813763 0
M  V30 1695 C 155.291 1.83405 0.662393 0
M  V30 1696 O 154.561 1.28319 1.48024 0
M  V30 1697 H 153.141 0.684966 -0.298045 0
M  V30 1698 H 155.803 1.385 -1.37126 0
M  V30 1699 H 154.899 2.89788 -1.15884 0
M  V30 1700 N 155.201 0.870884 1.31352 0
M  V30 1701 C 156.45 0.478408 1.95944 0
M  V30 1702 C 156.763 -0.974493 1.69597 0
M  V30 1703 O 157.969 -1.47316 2.28058 0
M  V30 1704 C 156.425 0.804609 3.50791 0
M  V30 1705 C 156.033 2.27433 3.85977 0
M  V30 1706 C 157.777 0.480648 4.2177 0
M  V30 1707 C 155.684 2.5429 5.33939 0
M  V30 1708 H 154.614 0.175175 0.733369 0
M  V30 1709 H 157.265 1.06391 1.4951 0
M  V30 1710 H 155.647 0.148347 3.95722 0
M  V30 1711 H 156.821 2.97373 3.52002 0
M  V30 1712 H 155.136 2.56442 3.28065 0
M  V30 1713 H 157.733 0.658519 5.30629 0
M  V30 1714 H 158.076 -0.578979 4.12254 0
M  V30 1715 H 158.609 1.09349 3.82476 0
M  V30 1716 H 155.348 3.58939 5.48491 0
M  V30 1717 H 154.868 1.88945 5.69263 0
M  V30 1718 H 156.547 2.39066 6.01212 0
M  V30 1719 N 156.679 -1.44442 0.630414 0
M  V30 1720 C 157.627 -2.32437 -0.0871428 0
M  V30 1721 C 158.621 -1.47304 -0.836525 0
M  V30 1722 O 159.827 -1.63653 -0.749506 0
M  V30 1723 H 156.202 -0.750533 -0.0469495 0
M  V30 1724 H 158.173 -2.90709 0.673096 0
M  V30 1725 C 156.922 -3.31288 -1.05563 0
M  V30 1726 H 156.245 -3.96805 -0.488426 0
M  V30 1727 H 157.685 -3.9554 -1.52721 0
M  V30 1728 C 156.144 -2.6016 -2.14052 0
M  V30 1729 O 156.674 -2.39997 -3.22124 0
M  V30 1730 N 154.88 -2.19911 -1.89967 0
M  V30 1731 H 154.427 -2.36509 -1.02085 0
M  V30 1732 H 154.385 -1.72646 -2.62756 0
M  V30 1733 N 158.157 -0.370918 -1.53173 0
M  V30 1734 C 159.568 0.107139 -1.86392 0
M  V30 1735 C 159.919 1.47714 -1.29132 0
M  V30 1736 O 159.044 2.07464 -0.615439 0
M  V30 1737 C 159.639 0.201187 -3.38202 0
M  V30 1738 C 158.198 0.623507 -3.712 0
M  V30 1739 C 157.345 -0.225978 -2.76378 0
M  V30 1740 H 160.296 -0.58951 -1.47345 0
M  V30 1741 H 160.317 1.02377 -3.66468 0
M  V30 1742 H 159.829 -0.796058 -3.79848 0
M  V30 1743 H 157.93 1.62879 -3.35114 0
M  V30 1744 H 158.043 0.394414 -4.77474 0
M  V30 1745 H 156.407 0.305962 -2.52856 0
M  V30 1746 H 157.19 -1.22086 -3.20858 0
M  V30 1747 N 159.635 1.57281 -0.100228 0
M  V30 1748 C 160.86 1.99302 0.573881 0
M  V30 1749 C 161.285 0.979059 1.60611 0
M  V30 1750 O 160.643 -0.0517803 1.81226 0
M  V30 1751 C 160.691 3.40274 1.19358 0
M  V30 1752 O 159.795 3.41676 2.30935 0
M  V30 1753 H 159.136 0.647944 0.145138 0
M  V30 1754 H 161.666 2.03779 -0.183156 0
M  V30 1755 H 161.676 3.78078 1.53365 0
M  V30 1756 H 160.351 4.13594 0.437385 0
M  V30 1757 H 158.928 3.15672 1.98509 0
M  V30 1758 N 161.113 -0.173488 1.56642 0
M  V30 1759 C 162.39 -0.917617 1.7274 0
M  V30 1760 C 162.77 -2.00484 0.661027 0
M  V30 1761 O 162.118 -2.26184 -0.32453 0
M  V30 1762 C 162.328 -1.48433 3.15862 0
M  V30 1763 C 163.676 -1.95809 3.76754 0
M  V30 1764 O 164.7 -1.58231 3.19126 0
M  V30 1765 O 163.559 -2.65024 4.77938 0
M  V30 1766 H 160.653 -0.431772 0.705338 0
M  V30 1767 H 163.199 -0.161487 1.6893 0
M  V30 1768 H 161.971 -0.701715 3.84957 0
M  V30 1769 H 161.594 -2.30471 3.23989 0
M  V30 1770 N 162.591 -1.51276 -0.441967 0
M  V30 1771 C 163.541 -1.6864 -1.53442 0
M  V30 1772 C 164.525 -0.540444 -1.51552 0
M  V30 1773 O 165.717 -0.796157 -1.58083 0
M  V30 1774 C 162.846 -1.8106 -2.91672 0
M  V30 1775 C 161.932 -3.01424 -2.98336 0
M  V30 1776 N 162.323 -4.2467 -2.74752 0
M  V30 1777 C 160.621 -3.00584 -3.29493 0
M  V30 1778 C 161.322 -5.05891 -2.87139 0
M  V30 1779 N 160.298 -4.40442 -3.18609 0
M  V30 1780 H 164.1 -2.61598 -1.33954 0
M  V30 1781 H 161.614 -1.4886 -0.6492 0
M  V30 1782 H 163.611 -1.91609 -3.70259 0
M  V30 1783 H 162.271 -0.892795 -3.12185 0
M  V30 1784 H 163.282 -4.53691 -2.49769 0
M  V30 1785 H 159.959 -2.18417 -3.55809 0
M  V30 1786 H 161.349 -6.13983 -2.72899 0
M  V30 1787 N 164.069 0.697108 -1.41344 0
M  V30 1788 C 165.315 1.4593 -1.40827 0
M  V30 1789 C 165.648 1.94193 -0.0167098 0
M  V30 1790 O 164.923 1.69425 0.955263 0
M  V30 1791 C 165.206 2.67229 -2.41373 0
M  V30 1792 C 165.059 2.24741 -3.8963 0
M  V30 1793 C 166.378 3.69423 -2.39196 0
M  V30 1794 H 163.497 0.529303 -0.512842 0
M  V30 1795 H 166.139 0.794112 -1.72609 0
M  V30 1796 H 164.289 3.23982 -2.14401 0
M  V30 1797 H 165.961 1.73327 -4.27499 0
M  V30 1798 H 164.204 1.56542 -4.0457 0
M  V30 1799 H 164.875 3.1177 -4.55525 0
M  V30 1800 H 167.351 3.2234 -2.63128 0
M  V30 1801 H 166.227 4.51907 -3.11563 0
M  V30 1802 H 166.488 4.19012 -1.41001 0
M  V30 1803 N 165.547 1.27147 0.931209 0
M  V30 1804 C 166.796 1.12664 1.67302 0
M  V30 1805 C 167.109 -0.327718 1.92835 0
M  V30 1806 O 168.315 -0.593392 2.64936 0
M  V30 1807 C 166.771 1.9683 3.01307 0
M  V30 1808 C 166.379 3.46901 2.83485 0
M  V30 1809 C 168.123 1.90985 3.79111 0
M  V30 1810 C 166.03 4.23279 4.13024 0
M  V30 1811 H 164.96 0.41803 0.627509 0
M  V30 1812 H 167.611 1.51539 1.03481 0
M  V30 1813 H 165.993 1.50797 3.66164 0
M  V30 1814 H 167.167 4.00773 2.27415 0
M  V30 1815 H 165.482 3.54088 2.19113 0
M  V30 1816 H 168.079 2.45328 4.75098 0
M  V30 1817 H 168.422 0.882718 4.06834 0
M  V30 1818 H 168.955 2.34895 3.21044 0
M  V30 1819 H 165.694 5.26503 3.90481 0
M  V30 1820 H 165.214 3.74186 4.6877 0
M  V30 1821 H 166.893 4.32265 4.81411 0
M  V30 1822 N 167.025 -1.13721 1.09112 0
M  V30 1823 C 168.253 -1.88773 0.846899 0
M  V30 1824 C 168.668 -1.7896 -0.601572 0
M  V30 1825 O 168.025 -1.15394 -1.41388 0
M  V30 1826 C 168.076 -3.3849 1.26913 0
M  V30 1827 O 167.797 -3.48043 2.66079 0
M  V30 1828 C 169.298 -4.30518 1.05682 0
M  V30 1829 H 166.518 -0.59772 0.304914 0
M  V30 1830 H 169.062 -1.43977 1.45227 0
M  V30 1831 H 167.217 -3.80881 0.707723 0
M  V30 1832 H 167.631 -4.4109 2.83795 0
M  V30 1833 H 169.105 -5.3391 1.40156 0
M  V30 1834 H 169.582 -4.392 -0.00563416 0
M  V30 1835 H 170.188 -3.93893 1.60402 0
M  V30 1836 N 168.503 -0.877838 -1.30888 0
M  V30 1837 C 169.728 -0.506629 -2.01117 0
M  V30 1838 C 170.153 0.895564 -1.65412 0
M  V30 1839 O 169.511 1.5923 -0.866922 0
M  V30 1840 C 169.559 -0.680223 -3.54126 0
M  V30 1841 O 168.663 0.277033 -4.11468 0
M  V30 1842 H 168.004 -0.200518 -0.633 0
M  V30 1843 H 170.534 -1.18342 -1.66902 0
M  V30 1844 H 170.544 -0.5765 -4.03907 0
M  V30 1845 H 169.219 -1.70261 -3.79452 0
M  V30 1846 H 167.796 0.127606 -3.72682 0
M  V30 1847 N 169.982 1.44106 -0.638065 0
M  V30 1848 C 171.212 2.06037 -0.152394 0
M  V30 1849 C 171.62 1.47808 1.18108 0
M  V30 1850 O 170.963 0.598092 1.73691 0
M  V30 1851 C 171.025 3.59488 0.0293714 0
M  V30 1852 C 170.689 4.4022 -1.22702 0
M  V30 1853 C 171.686 4.73256 -2.15232 0
M  V30 1854 C 169.371 4.8048 -1.46437 0
M  V30 1855 C 171.365 5.45444 -3.29802 0
M  V30 1856 C 169.052 5.52417 -2.61303 0
M  V30 1857 C 170.05 5.84819 -3.52811 0
M  V30 1858 O 169.738 6.55289 -4.65673 0
M  V30 1859 H 169.47 0.671233 -0.0801401 0
M  V30 1860 H 172.024 1.85851 -0.874563 0
M  V30 1861 H 170.254 3.78191 0.806758 0
M  V30 1862 H 171.943 4.03164 0.470475 0
M  V30 1863 H 172.709 4.42684 -1.98131 0
M  V30 1864 H 168.588 4.54676 -0.760977 0
M  V30 1865 H 172.132 5.70653 -4.01249 0
M  V30 1866 H 168.029 5.82404 -2.78344 0
M  V30 1867 H 168.797 6.73762 -4.64744 0
M  V30 1868 N 171.46 0.379036 1.52974 0
M  V30 1869 C 172.876 0.0285448 1.59574 0
M  V30 1870 C 173.076 -1.45542 1.39355 0
M  V30 1871 O 172.132 -2.2187 1.20541 0
M  V30 1872 C 173.445 0.496535 2.96572 0
M  V30 1873 C 174.993 0.451909 3.0972 0
M  V30 1874 C 175.468 0.895924 4.49152 0
M  V30 1875 N 176.959 0.851522 4.55306 0
M  V30 1876 C 177.694 1.16661 5.61407 0
M  V30 1877 N 177.19 1.55166 6.752 0
M  V30 1878 N 178.983 1.08853 5.51459 0
M  V30 1879 H 171.134 1.34525 1.64367 0
M  V30 1880 H 173.397 0.550733 0.771619 0
M  V30 1881 H 173.103 1.53258 3.16552 0
M  V30 1882 H 172.977 -0.109802 3.7704 0
M  V30 1883 H 175.364 -0.575029 2.89443 0
M  V30 1884 H 175.445 1.09392 2.3123 0
M  V30 1885 H 175.089 1.92104 4.70168 0
M  V30 1886 H 175.019 0.23103 5.26093 0
M  V30 1887 H 177.51 0.568038 3.73606 0
M  V30 1888 H 177.823 1.776 7.52116 0
M  V30 1889 H 176.168 1.59044 6.76557 0
M  V30 1890 H 179.359 0.786803 4.6144 0
M  V30 1891 H 179.532 1.33742 6.34048 0
M  V30 1892 N 172.938 -1.57226 0.108567 0
M  V30 1893 C 173.901 -2.13602 -0.831082 0
M  V30 1894 C 174.901 -1.06841 -1.20173 0
M  V30 1895 O 176.091 -1.32666 -1.12895 0
M  V30 1896 C 173.223 -2.66769 -2.12243 0
M  V30 1897 H 174.416 -2.97951 -0.341317 0
M  V30 1898 H 171.969 -1.55667 -0.14057 0
M  V30 1899 H 172.704 -1.85977 -2.65675 0
M  V30 1900 H 172.489 -3.44839 -1.86625 0
M  V30 1901 H 173.979 -3.10332 -2.79435 0
M  V30 1902 N 174.416 0.165178 -1.56732 0
M  V30 1903 C 175.366 1.20917 -1.93295 0
M  V30 1904 C 176.35 1.39488 -0.801985 0
M  V30 1905 O 177.542 1.41356 -1.06525 0
M  V30 1906 C 174.671 2.54718 -2.3016 0
M  V30 1907 C 173.757 2.39815 -3.49785 0
M  V30 1908 N 174.148 1.94637 -4.66851 0
M  V30 1909 C 172.446 2.70623 -3.54513 0
M  V30 1910 C 173.147 1.92344 -5.4898 0
M  V30 1911 N 172.123 2.34978 -4.9019 0
M  V30 1912 H 175.925 0.851675 -2.81289 0
M  V30 1913 H 173.439 0.373399 -1.58049 0
M  V30 1914 H 175.436 3.30165 -2.54552 0
M  V30 1915 H 174.096 2.91265 -1.43508 0
M  V30 1916 H 175.107 1.6488 -4.90953 0
M  V30 1917 H 171.784 3.11167 -2.78354 0
M  V30 1918 H 173.174 1.5906 -6.52801 0
M  V30 1919 N 175.894 1.51508 0.433938 0
M  V30 1920 C 177.142 1.6402 1.18075 0
M  V30 1921 C 177.463 0.360328 1.91642 0
M  V30 1922 O 176.733 -0.623945 1.85698 0
M  V30 1923 H 175.313 0.6045 0.43885 0
M  V30 1924 H 177.975 1.88452 0.497178 0
M  V30 1925 H 177.071 2.46949 1.90847 0
M  V30 1926 N 177.372 -0.689602 1.41712 0
M  V30 1927 C 178.618 -1.45181 1.41599 0
M  V30 1928 C 178.951 -1.94181 0.0270081 0
M  V30 1929 O 178.226 -1.6993 -0.946265 0
M  V30 1930 C 178.509 -2.65945 2.42787 0
M  V30 1931 C 178.362 -2.22672 3.90816 0
M  V30 1932 C 179.681 -3.68149 2.41151 0
M  V30 1933 H 176.8 -0.526576 0.515642 0
M  V30 1934 H 179.442 -0.784947 1.73028 0
M  V30 1935 H 177.592 -3.2284 2.16116 0
M  V30 1936 H 179.264 -1.71058 4.28412 0
M  V30 1937 H 177.507 -1.54394 4.05395 0
M  V30 1938 H 178.178 -3.0935 4.57172 0
M  V30 1939 H 180.654 -3.2094 2.64834 0
M  V30 1940 H 179.53 -4.50248 3.13955 0
M  V30 1941 H 179.791 -4.18259 1.43221 0
M  V30 1942 N 178.85 -1.27639 -0.924453 0
M  V30 1943 C 180.09 -1.15407 -1.68703 0
M  V30 1944 C 180.454 0.294581 -1.89727 0
M  V30 1945 O 181.655 0.539385 -2.63333 0
M  V30 1946 C 179.926 -1.9195 -3.0148 0
M  V30 1947 S 181.485 -1.95969 -3.92609 0
M  V30 1948 H 178.303 -0.411937 -0.579507 0
M  V30 1949 H 180.905 -1.61592 -1.10038 0
M  V30 1950 H 179.609 -2.96387 -2.83871 0
M  V30 1951 H 179.14 -1.46272 -3.65196 0
M  V30 1952 H 181.155 -1.05846 -4.84779 0
M  V30 1953 N 180.328 1.1314 -1.09713 0
M  V30 1954 C 181.558 1.88048 -0.855656 0
M  V30 1955 C 181.966 1.79537 0.596919 0
M  V30 1956 O 181.309 1.16196 1.42282 0
M  V30 1957 C 181.371 3.38314 -1.21589 0
M  V30 1958 C 181.035 3.70605 -2.67397 0
M  V30 1959 C 182.032 3.69596 -3.65643 0
M  V30 1960 C 179.717 4.0017 -3.03593 0
M  V30 1961 C 181.711 3.977 -4.9811 0
M  V30 1962 C 179.398 4.27935 -4.36251 0
M  V30 1963 C 180.396 4.26685 -5.33318 0
M  V30 1964 O 180.084 4.53767 -6.63589 0
M  V30 1965 H 179.816 0.60208 -0.307368 0
M  V30 1966 H 182.37 1.44128 -1.46343 0
M  V30 1967 H 180.6 3.82752 -0.551177 0
M  V30 1968 H 182.289 3.94552 -0.953083 0
M  V30 1969 H 183.055 3.46826 -3.39023 0
M  V30 1970 H 178.934 4.00289 -2.2867 0
M  V30 1971 H 182.478 3.9664 -5.73866 0
M  V30 1972 H 178.375 4.50178 -4.62613 0
M  V30 1973 H 179.143 4.71422 -6.69107 0
M  V30 1974 N 181.806 0.884767 1.30421 0
M  V30 1975 C 183.034 0.518044 2.0031 0
M  V30 1976 C 183.449 -0.893408 1.66324 0
M  V30 1977 O 182.806 -1.5875 0.900262 0
M  V30 1978 C 182.857 0.682997 3.54989 0
M  V30 1979 O 182.578 2.03888 3.87764 0
M  V30 1980 C 184.079 0.31924 4.42149 0
M  V30 1981 H 181.299 0.200265 0.640418 0
M  V30 1982 H 183.843 1.19001 1.6631 0
M  V30 1983 H 181.998 0.0584052 3.87356 0
M  V30 1984 H 182.412 2.05735 4.82466 0
M  V30 1985 H 183.886 0.485555 5.4986 0
M  V30 1986 H 184.363 -0.742717 4.32875 0
M  V30 1987 H 184.969 0.920147 4.15227 0
M  V30 1988 N 183.284 -1.43765 0.645699 0
M  V30 1989 C 184.7 -1.56509 0.312591 0
M  V30 1990 C 184.9 -1.6307 -1.18365 0
M  V30 1991 O 183.956 -1.58167 -1.96824 0
M  V30 1992 C 185.269 -2.82968 1.01733 0
M  V30 1993 C 186.817 -2.96701 0.996865 0
M  V30 1994 C 187.292 -4.25982 1.68236 0
M  V30 1995 N 188.783 -4.32829 1.64964 0
M  V30 1996 C 189.518 -5.31613 2.14885 0
M  V30 1997 N 189.014 -6.36718 2.73061 0
M  V30 1998 N 190.807 -5.23217 2.05428 0
M  V30 1999 H 182.958 -1.3775 1.61675 0
M  V30 2000 H 185.221 -0.661067 0.679481 0
M  V30 2001 H 184.927 -2.84156 2.0724 0
M  V30 2002 H 184.801 -3.72957 0.564177 0
M  V30 2003 H 187.188 -2.95058 -0.0497719 0
M  V30 2004 H 187.269 -2.08022 1.48865 0
M  V30 2005 H 186.913 -4.28386 2.72852 0
M  V30 2006 H 186.843 -5.13545 1.16529 0
M  V30 2007 H 189.334 -3.57493 1.22503 0
M  V30 2008 H 189.647 -7.08401 3.08848 0
M  V30 2009 H 187.992 -6.37362 2.77118 0
M  V30 2010 H 191.183 -4.40019 1.59689 0
M  V30 2011 H 191.356 -6.00045 2.44643 0
M  V30 2012 N 184.763 -0.387143 -1.52771 0
M  V30 2013 C 186.011 0.195349 -2.01154 0
M  V30 2014 C 186.332 1.475 -1.27549 0
M  V30 2015 O 185.602 1.91878 -0.394924 0
M  V30 2016 H 184.182 0.075178 -0.743207 0
M  V30 2017 H 186.844 -0.518337 -1.87881 0
M  V30 2018 H 185.94 0.407096 -3.09434 0
M  V30 2019 N 186.241 1.57166 -0.116904 0
M  V30 2020 C 187.171 2.18222 0.830759 0
M  V30 2021 C 188.152 1.12167 1.27877 0
M  V30 2022 O 189.337 1.40394 1.34176 0
M  V30 2023 C 186.467 2.77996 2.08172 0
M  V30 2024 C 185.421 3.89614 1.77157 0
M  V30 2025 C 184.747 4.36187 3.09265 0
M  V30 2026 C 186.047 5.1181 1.04151 0
M  V30 2027 H 187.741 2.97664 0.321992 0
M  V30 2028 H 185.287 1.4318 0.153434 0
M  V30 2029 H 187.24 3.19366 2.74924 0
M  V30 2030 H 185.964 1.9584 2.6137 0
M  V30 2031 H 184.623 3.48816 1.12796 0
M  V30 2032 H 184.271 3.50893 3.60393 0
M  V30 2033 H 183.971 5.11455 2.89288 0
M  V30 2034 H 185.495 4.80207 3.77139 0
M  V30 2035 H 186.909 5.50214 1.61052 0
M  V30 2036 H 185.306 5.92648 0.942762 0
M  V30 2037 H 186.376 4.84892 0.0279022 0
M  V30 2038 N 187.719 -0.156864 1.56817 0
M  V30 2039 C 188.944 -0.890331 1.87318 0
M  V30 2040 C 189.369 -1.74394 0.704855 0
M  V30 2041 O 188.727 -1.77972 -0.345786 0
M  V30 2042 C 188.775 -1.73102 3.16336 0
M  V30 2043 O 187.879 -2.83422 2.99576 0
M  V30 2044 H 187.22 -0.24857 0.615718 0
M  V30 2045 H 189.75 -0.150649 2.04045 0
M  V30 2046 H 189.76 -2.12803 3.48107 0
M  V30 2047 H 188.435 -1.10412 4.00976 0
M  V30 2048 H 187.012 -2.47199 2.7919 0
M  V30 2049 N 189.197 -1.51736 -0.425897 0
M  V30 2050 C 190.443 -1.65214 -1.1761 0
M  V30 2051 C 190.776 -0.372778 -1.90589 0
M  V30 2052 O 190.051 0.628139 -1.84078 0
M  V30 2053 C 190.334 -2.86312 -2.18398 0
M  V30 2054 C 190.187 -4.24254 -1.49426 0
M  V30 2055 C 191.506 -3.02925 -3.19256 0
M  V30 2056 H 188.625 -0.601263 -0.426206 0
M  V30 2057 H 191.267 -1.8425 -0.463882 0
M  V30 2058 H 189.417 -2.70213 -2.79137 0
M  V30 2059 H 191.089 -4.52046 -0.919362 0
M  V30 2060 H 189.332 -4.26426 -0.796432 0
M  V30 2061 H 190.003 -5.05001 -2.22885 0
M  V30 2062 H 192.479 -3.1781 -2.68581 0
M  V30 2063 H 191.355 -3.89199 -3.8706 0
M  V30 2064 H 191.616 -2.15497 -3.86023 0
M  V30 2065 N 190.675 0.682077 -1.42076 0
M  V30 2066 C 192.091 0.994324 -1.24841 0
M  V30 2067 C 192.291 2.0096 -0.147389 0
M  V30 2068 O 191.347 2.47822 0.483782 0
M  V30 2069 C 192.66 1.50607 -2.60265 0
M  V30 2070 C 194.208 1.62421 -2.6756 0
M  V30 2071 C 194.683 2.16994 -4.03333 0
M  V30 2072 N 196.174 2.24337 -4.0525 0
M  V30 2073 C 196.909 2.67621 -5.07116 0
M  V30 2074 N 196.405 3.1041 -6.19368 0
M  V30 2075 N 198.198 2.67305 -4.94474 0
M  V30 2076 H 190.349 0.00973908 -2.12398 0
M  V30 2077 H 192.612 0.0668593 -0.945639 0
M  V30 2078 H 192.318 0.834583 -3.41654 0
M  V30 2079 H 192.192 2.48602 -2.83684 0
M  V30 2080 H 194.579 2.28678 -1.86521 0
M  V30 2081 H 194.66 0.629352 -2.47937 0
M  V30 2082 H 194.304 1.51349 -4.84826 0
M  V30 2083 H 194.234 3.17258 -4.20304 0
M  V30 2084 H 196.725 1.94158 -3.24209 0
M  V30 2085 H 197.038 3.42103 -6.92954 0
M  V30 2086 H 195.383 3.08286 -6.22884 0
M  V30 2087 H 198.574 2.33233 -4.05857 0
M  V30 2088 H 198.747 3.00718 -5.73997 0
M  V30 2089 N 192.153 1.28127 0.917671 0
M  V30 2090 C 193.378 1.18007 1.70555 0
M  V30 2091 C 193.803 -0.258257 1.86319 0
M  V30 2092 O 193.161 -1.1869 1.37049 0
M  V30 2093 C 193.209 1.87948 3.07746 0
M  V30 2094 O 192.313 1.18427 3.9503 0
M  V30 2095 H 191.654 0.409867 0.522403 0
M  V30 2096 H 194.184 1.69379 1.1477 0
M  V30 2097 H 194.194 1.95701 3.58001 0
M  V30 2098 H 192.869 2.92573 2.95591 0
M  V30 2099 H 191.446 1.18811 3.53466 0
M  V30 2100 N 193.631 -1.12557 1.10312 0
M  V30 2101 C 194.88 -1.83395 0.839588 0
M  V30 2102 C 195.193 -1.84939 -0.636929 0
M  V30 2103 O 196.399 -2.51761 -1.01631 0
M  V30 2104 C 194.855 -3.29303 1.45215 0
M  V30 2105 C 194.463 -3.36122 2.96186 0
M  V30 2106 C 196.207 -4.05121 1.26796 0
M  V30 2107 C 194.114 -4.76357 3.50483 0
M  V30 2108 H 193.044 -0.687133 0.310425 0
M  V30 2109 H 195.695 -1.26746 1.32694 0
M  V30 2110 H 194.077 -3.85812 0.892469 0
M  V30 2111 H 195.251 -2.89559 3.58458 0
M  V30 2112 H 193.566 -2.73776 3.13745 0
M  V30 2113 H 196.163 -5.08668 1.64806 0
M  V30 2114 H 196.506 -4.15773 0.209409 0
M  V30 2115 H 197.039 -3.54967 1.79563 0
M  V30 2116 H 193.778 -4.70899 4.55998 0
M  V30 2117 H 193.298 -5.23377 2.92978 0
M  V30 2118 H 194.977 -5.45294 3.48228 0
M  V30 2119 N 195.109 -0.891671 -1.2995 0
M  V30 2120 C 196.039 -0.379797 -2.30391 0
M  V30 2121 C 197.02 0.540919 -1.6127 0
M  V30 2122 O 198.205 0.453352 -1.88834 0
M  V30 2123 C 195.335 0.400654 -3.44981 0
M  V30 2124 C 194.289 -0.428905 -4.25846 0
M  V30 2125 C 193.615 0.478557 -5.32554 0
M  V30 2126 C 194.915 -1.67458 -4.94727 0
M  V30 2127 H 196.609 -1.21914 -2.73454 0
M  V30 2128 H 194.155 -0.587675 -1.31462 0
M  V30 2129 H 196.108 0.769434 -4.14316 0
M  V30 2130 H 194.832 1.27371 -3.0074 0
M  V30 2131 H 193.491 -0.779911 -3.58208 0
M  V30 2132 H 193.139 1.34951 -4.84559 0
M  V30 2133 H 192.839 -0.0727433 -5.87555 0
M  V30 2134 H 194.363 0.843705 -6.04743 0
M  V30 2135 H 195.777 -1.376 -5.56542 0
M  V30 2136 H 194.174 -2.16659 -5.59624 0
M  V30 2137 H 195.244 -2.41518 -4.20473 0
M  V30 2138 N 196.587 1.43421 -0.653314 0
M  V30 2139 C 197.55 2.29182 0.0287951 0
M  V30 2140 C 198.55 1.42213 0.750465 0
M  V30 2141 O 199.74 1.63843 0.591701 0
M  V30 2142 C 196.872 3.24278 1.05151 0
M  V30 2143 H 198.065 2.90985 -0.725786 0
M  V30 2144 H 195.618 1.50702 -0.414545 0
M  V30 2145 H 196.353 2.6737 1.83532 0
M  V30 2146 H 196.138 3.88396 0.537687 0
M  V30 2147 H 197.628 3.88647 1.52786 0
M  V30 2148 N 198.065 0.39524 1.52563 0
M  V30 2149 C 198.975 -0.444232 2.30356 0
M  V30 2150 C 199.991 -1.06615 1.37511 0
M  V30 2151 O 201.167 -1.07067 1.70583 0
M  V30 2152 C 198.232 -1.55315 3.09964 0
M  V30 2153 C 197.293 -0.955734 4.18526 0
M  V30 2154 C 196.526 -2.01181 4.9433 0
M  V30 2155 O 196.749 -3.22781 4.70285 0
M  V30 2156 O 195.683 -1.62579 5.79527 0
M  V30 2157 H 199.509 0.189667 3.03107 0
M  V30 2158 H 197.094 0.1588 1.48554 0
M  V30 2159 H 198.976 -2.19724 3.59582 0
M  V30 2160 H 197.651 -2.17191 2.4002 0
M  V30 2161 H 196.558 -0.274743 3.7309 0
M  V30 2162 H 197.891 -0.381109 4.90722 0
M  V30 2163 N 199.544 -1.57102 0.125237 0
M  V30 2164 C 200.474 -2.18659 -0.819174 0
M  V30 2165 C 201.455 -1.12843 -1.27281 0
M  V30 2166 O 202.64 -1.41104 -1.33429 0
M  V30 2167 C 199.77 -2.79096 -2.06695 0
M  V30 2168 C 198.724 -3.90548 -1.75088 0
M  V30 2169 C 198.05 -4.37821 -3.06948 0
M  V30 2170 C 199.35 -5.12356 -1.01435 0
M  V30 2171 H 201.044 -2.9783 -0.306202 0
M  V30 2172 H 198.59 -1.4326 -0.145839 0
M  V30 2173 H 200.543 -3.2082 -2.73226 0
M  V30 2174 H 199.267 -1.97223 -2.60328 0
M  V30 2175 H 197.926 -3.49409 -1.10944 0
M  V30 2176 H 197.574 -3.52799 -3.58527 0
M  V30 2177 H 197.274 -5.12982 -2.86571 0
M  V30 2178 H 198.798 -4.822 -3.74587 0
M  V30 2179 H 200.212 -5.5106 -1.58132 0
M  V30 2180 H 198.609 -5.9314 -0.911319 0
M  V30 2181 H 199.679 -4.849 -0.00218681 0
M  V30 2182 N 201.022 0.148545 -1.56898 0
M  V30 2183 C 202.25 0.876389 -1.87422 0
M  V30 2184 C 202.665 1.74809 -0.713256 0
M  V30 2185 O 202.022 1.79725 0.317025 0
M  V30 2186 C 202.073 1.73438 -3.17178 0
M  V30 2187 O 201.794 0.897809 -4.28802 0
M  V30 2188 C 203.295 2.56993 -3.61205 0
M  V30 2189 H 200.515 0.253489 -0.621277 0
M  V30 2190 H 203.059 0.141798 -2.04008 0
M  V30 2191 H 201.214 2.42205 -3.0235 0
M  V30 2192 H 201.628 1.48672 -5.02988 0
M  V30 2193 H 203.102 3.12773 -4.54838 0
M  V30 2194 H 203.579 3.32958 -2.86419 0
M  V30 2195 H 204.185 1.9352 -3.78722 0
M  V30 2196 N 202.5 1.5196 0.417844 0
M  V30 2197 C 203.748 1.65263 1.16329 0
M  V30 2198 C 204.069 0.380634 1.91249 0
M  V30 2199 O 203.339 -0.604214 1.86349 0
M  V30 2200 H 201.919 0.60912 0.432414 0
M  V30 2201 H 204.581 1.88969 0.477162 0
M  V30 2202 H 203.677 2.4896 1.88217 0
M  V30 2203 N 203.978 -0.674533 1.42435 0
M  V30 2204 C 205.394 -0.98769 1.25367 0
M  V30 2205 C 205.594 -2.00879 0.158044 0
M  V30 2206 O 204.65 -2.48075 -0.470633 0
M  V30 2207 C 205.963 -1.49224 2.6106 0
M  V30 2208 C 207.511 -1.61 2.68417 0
M  V30 2209 C 207.986 -2.14852 4.04478 0
M  V30 2210 N 209.477 -2.22185 4.06434 0
M  V30 2211 C 210.212 -2.64928 5.08528 0
M  V30 2212 N 209.708 -3.07121 6.21006 0
M  V30 2213 N 211.501 -2.64679 4.95885 0
M  V30 2214 H 203.652 0.00152503 2.124 0
M  V30 2215 H 205.915 -0.0618434 0.945981 0
M  V30 2216 H 205.621 -0.816453 3.42092 0
M  V30 2217 H 205.495 -2.47094 2.84999 0
M  V30 2218 H 207.882 -2.27686 1.87732 0
M  V30 2219 H 207.963 -0.616195 2.48267 0
M  V30 2220 H 207.607 -1.48775 4.85622 0
M  V30 2221 H 207.537 -3.15024 4.2198 0
M  V30 2222 H 210.028 -1.92435 3.25234 0
M  V30 2223 H 210.341 -3.38423 6.94759 0
M  V30 2224 H 208.686 -3.04978 6.24511 0
M  V30 2225 H 211.877 -2.31078 4.07088 0
M  V30 2226 H 212.05 -2.9767 5.75584 0
M  V30 2227 N 205.456 -1.28612 -0.910864 0
M  V30 2228 C 206.872 -1.06381 -1.18976 0
M  V30 2229 C 207.072 0.191998 -2.00583 0
M  V30 2230 O 206.128 0.892869 -2.36187 0
M  V30 2231 C 207.441 -2.31295 -1.92154 0
M  V30 2232 C 208.989 -2.36503 -2.05025 0
M  V30 2233 C 209.464 -3.61191 -2.81612 0
M  V30 2234 N 210.955 -3.61847 -2.89172 0
M  V30 2235 C 211.69 -4.55004 -3.4894 0
M  V30 2236 N 211.186 -5.58482 -4.09963 0
M  V30 2237 N 212.979 -4.42594 -3.46506 0
M  V30 2238 H 205.13 -2.09221 -0.366094 0
M  V30 2239 H 207.393 -0.921003 -0.224629 0
M  V30 2240 H 207.099 -3.228 -1.39618 0
M  V30 2241 H 206.973 -2.37934 -2.9269 0
M  V30 2242 H 209.36 -1.45494 -2.5674 0
M  V30 2243 H 209.441 -2.33857 -1.03657 0
M  V30 2244 H 209.085 -4.52545 -2.30576 0
M  V30 2245 H 209.015 -3.61092 -3.83302 0
M  V30 2246 H 211.506 -2.87022 -2.45819 0
M  V30 2247 H 211.819 -6.25704 -4.53557 0
M  V30 2248 H 210.164 -5.62305 -4.08459 0
M  V30 2249 H 213.355 -3.60953 -2.98045 0
M  V30 2250 H 213.528 -5.15381 -3.92793 0
M  V30 2251 N 206.934 1.1197 -1.10907 0
M  V30 2252 C 208.182 1.83225 -0.852819 0
M  V30 2253 C 208.503 1.84769 0.623341 0
M  V30 2254 O 207.773 1.3143 1.45269 0
M  V30 2255 H 206.353 0.67849 -0.312507 0
M  V30 2256 H 209.015 1.3556 -1.40033 0
M  V30 2257 H 208.111 2.87265 -1.22005 0
M  V30 2258 N 208.412 0.89855 1.29475 0
M  V30 2259 C 209.66 0.522847 1.9522 0
M  V30 2260 C 209.981 -0.93371 1.71192 0
M  V30 2261 O 209.251 -1.65823 1.04305 0
M  V30 2262 H 207.831 0.190366 0.722336 0
M  V30 2263 H 210.493 1.14459 1.5775 0
M  V30 2264 H 209.589 0.704476 3.04045 0
M  V30 2265 N 209.89 -1.43072 0.660911 0
M  V30 2266 C 211.13 -2.03596 0.181146 0
M  V30 2267 C 211.494 -1.51057 -1.18515 0
M  V30 2268 O 212.695 -2.03275 -1.75877 0
M  V30 2269 C 210.966 -3.56845 0.19911 0
M  V30 2270 S 212.525 -4.38289 -0.211684 0
M  V30 2271 H 209.343 -0.706954 0.0757479 0
M  V30 2272 H 211.945 -1.75027 0.870965 0
M  V30 2273 H 210.649 -3.92583 1.1961 0
M  V30 2274 H 210.18 -3.90067 -0.510996 0
M  V30 2275 H 212.195 -4.74583 -1.44863 0
M  V30 2276 N 211.368 -0.403325 -1.52352 0
M  V30 2277 C 212.331 0.413051 -2.25447 0
M  V30 2278 C 213.331 0.978513 -1.276 0
M  V30 2279 O 214.521 0.858305 -1.51587 0
M  V30 2280 C 211.653 1.58087 -3.02029 0
M  V30 2281 H 212.846 -0.227094 -2.99039 0
M  V30 2282 H 210.399 -0.155722 -1.55522 0
M  V30 2283 H 211.134 2.25804 -2.32772 0
M  V30 2284 H 210.919 1.18195 -3.73861 0
M  V30 2285 H 212.409 2.1585 -3.57489 0
M  V30 2286 N 212.846 1.57033 -0.133567 0
M  V30 2287 C 213.793 2.16074 0.811208 0
M  V30 2288 C 214.763 1.08979 1.2535 0
M  V30 2289 O 215.948 1.36958 1.32843 0
M  V30 2290 C 213.088 2.77595 2.05024 0
M  V30 2291 C 212.201 3.99042 1.65498 0
M  V30 2292 C 211.336 4.48603 2.84479 0
M  V30 2293 C 210.375 5.62547 2.41262 0
M  V30 2294 N 209.512 6.06787 3.53206 0
M  V30 2295 H 214.352 2.96477 0.300906 0
M  V30 2296 H 211.889 1.46462 0.136822 0
M  V30 2297 H 213.847 3.11402 2.77642 0
M  V30 2298 H 212.477 1.99859 2.53488 0
M  V30 2299 H 211.529 3.71302 0.826981 0
M  V30 2300 H 212.841 4.81629 1.29748 0
M  V30 2301 H 211.995 4.84395 3.65303 0
M  V30 2302 H 210.734 3.64995 3.23465 0
M  V30 2303 H 209.739 5.26345 1.58874 0
M  V30 2304 H 210.964 6.47931 2.03377 0
M  V30 2305 H 208.91 5.26117 3.91838 0
M  V30 2306 H 208.827 6.84266 3.21427 0
M  V30 2307 H 210.095 6.4722 4.34427 0
M  V30 2308 N 214.325 -0.140222 1.56975 0
M  V30 2309 C 215.573 -0.850005 1.83356 0
M  V30 2310 C 215.894 -1.81399 0.71551 0
M  V30 2311 O 215.164 -1.94136 -0.262294 0
M  V30 2312 H 213.744 -0.316886 0.676456 0
M  V30 2313 H 216.406 -0.132608 1.94448 0
M  V30 2314 H 215.502 -1.40814 2.78528 0
M  V30 2315 N 215.803 -1.52179 -0.40978 0
M  V30 2316 C 216.75 -1.75475 -1.49924 0
M  V30 2317 C 217.72 -0.597175 -1.54994 0
M  V30 2318 O 218.905 -0.834655 -1.71575 0
M  V30 2319 C 216.045 -1.9107 -2.87378 0
M  V30 2320 C 215.158 -3.18717 -2.91622 0
M  V30 2321 C 214.293 -3.24747 -4.20372 0
M  V30 2322 C 213.332 -4.46598 -4.18588 0
M  V30 2323 N 212.469 -4.50025 -5.38908 0
M  V30 2324 H 217.309 -2.68458 -1.29361 0
M  V30 2325 H 214.846 -1.33024 -0.627934 0
M  V30 2326 H 216.804 -1.98096 -3.6717 0
M  V30 2327 H 215.434 -1.01469 -3.06437 0
M  V30 2328 H 214.486 -3.20866 -2.04326 0
M  V30 2329 H 215.798 -4.08544 -2.86169 0
M  V30 2330 H 214.952 -3.30841 -5.08556 0
M  V30 2331 H 213.691 -2.32857 -4.28519 0
M  V30 2332 H 212.696 -4.40652 -3.28794 0
M  V30 2333 H 213.921 -5.39783 -4.12081 0
M  V30 2334 H 211.867 -3.61017 -5.47725 0
M  V30 2335 H 211.784 -5.33697 -5.35447 0
M  V30 2336 H 213.052 -4.60347 -6.29048 0
M  V30 2337 N 217.281 0.66697 -1.42791 0
M  V30 2338 C 218.529 1.42417 -1.43394 0
M  V30 2339 C 218.85 1.94925 -0.0542373 0
M  V30 2340 O 218.12 1.73564 0.908415 0
M  V30 2341 H 216.7 0.528515 -0.527902 0
M  V30 2342 H 219.362 0.787562 -1.78279 0
M  V30 2343 H 218.458 2.27333 -2.13837 0
M  V30 2344 N 218.759 1.29093 0.90403 0
M  V30 2345 C 220.007 1.16583 1.65085 0
M  V30 2346 C 220.328 -0.283933 1.92922 0
M  V30 2347 O 219.598 -1.19509 1.55224 0
M  V30 2348 H 218.178 0.428467 0.611903 0
M  V30 2349 H 220.84 1.61959 1.08422 0
M  V30 2350 H 219.936 1.71266 2.6091 0
M  V30 2351 N 220.237 -1.11381 1.11499 0
M  V30 2352 C 221.462 -1.87475 0.887019 0
M  V30 2353 C 221.887 -1.79639 -0.557796 0
M  V30 2354 O 221.245 -1.15924 -1.39396 0
M  V30 2355 C 221.293 -3.34213 1.35403 0
M  V30 2356 O 220.397 -4.0903 0.526146 0
M  V30 2357 H 219.738 -0.582099 0.319463 0
M  V30 2358 H 222.268 -1.40785 1.48461 0
M  V30 2359 H 222.278 -3.8506 1.34881 0
M  V30 2360 H 220.953 -3.39232 2.40612 0
M  V30 2361 H 219.53 -3.68082 0.597522 0
M  V30 2362 N 221.715 -0.905404 -1.28997 0
M  V30 2363 C 222.648 -0.331959 -2.25773 0
M  V30 2364 C 223.626 0.559099 -1.52685 0
M  V30 2365 O 224.81 0.50463 -1.8162 0
M  V30 2366 C 221.937 0.526276 -3.34586 0
M  V30 2367 C 220.983 -0.298249 -4.25456 0
M  V30 2368 S 221.816 -1.69968 -5.0781 0
M  V30 2369 C 222.972 -0.848519 -6.20122 0
M  V30 2370 H 223.205 -1.15222 -2.74064 0
M  V30 2371 H 220.738 -0.706112 -1.37308 0
M  V30 2372 H 222.696 1.01565 -3.97737 0
M  V30 2373 H 221.357 1.32084 -2.84978 0
M  V30 2374 H 220.55 0.357607 -5.0273 0
M  V30 2375 H 220.152 -0.720968 -3.66985 0
M  V30 2376 H 222.444 -0.0744325 -6.77459 0
M  V30 2377 H 223.387 -1.59353 -6.89937 0
M  V30 2378 H 223.795 -0.400383 -5.63078 0
M  V30 2379 N 223.193 1.4272 -0.668489 0
M  V30 2380 C 224.143 2.27971 0.0363806 0
M  V30 2381 C 225.127 1.40741 0.779794 0
M  V30 2382 O 226.319 1.64245 0.659745 0
M  V30 2383 C 223.448 3.28673 0.991398 0
M  V30 2384 C 222.534 4.23388 0.245658 0
M  V30 2385 N 222.925 5.00267 -0.746069 0
M  V30 2386 C 221.223 4.43355 0.484988 0
M  V30 2387 C 221.924 5.69396 -1.19009 0
M  V30 2388 N 220.9 5.41095 -0.521287 0
M  V30 2389 H 224.702 2.84833 -0.724394 0
M  V30 2390 H 222.216 1.54607 -0.497028 0
M  V30 2391 H 224.213 3.88543 1.51129 0
M  V30 2392 H 222.873 2.73373 1.75207 0
M  V30 2393 H 223.884 5.05525 -1.12537 0
M  V30 2394 H 220.561 3.99104 1.22565 0
M  V30 2395 H 221.951 6.41083 -2.01153 0
M  V30 2396 N 224.671 0.411399 1.52136 0
M  V30 2397 C 225.604 -0.457614 2.23565 0
M  V30 2398 C 226.582 -1.04613 1.24478 0
M  V30 2399 O 227.766 -1.09356 1.53536 0
M  V30 2400 C 224.893 -1.6354 2.96602 0
M  V30 2401 C 223.939 -1.17005 4.10137 0
M  V30 2402 S 224.772 -0.13333 5.35334 0
M  V30 2403 C 225.928 -1.31638 6.119 0
M  V30 2404 H 226.161 0.148883 2.96927 0
M  V30 2405 H 223.694 0.195713 1.53155 0
M  V30 2406 H 225.652 -2.31074 3.39286 0
M  V30 2407 H 224.313 -2.21324 2.22878 0
M  V30 2408 H 223.506 -2.05005 4.60422 0
M  V30 2409 H 223.108 -0.573319 3.6958 0
M  V30 2410 H 225.4 -2.23957 6.39413 0
M  V30 2411 H 226.343 -0.854014 7.02931 0
M  V30 2412 H 226.751 -1.54321 5.42997 0
M  V30 2413 N 226.149 -1.5696 0.141893 0
M  V30 2414 C 227.379 -2.00031 -0.516828 0
M  V30 2415 C 227.787 -1.02091 -1.59293 0
M  V30 2416 O 227.13 -0.00909657 -1.83698 0
M  V30 2417 C 227.192 -3.39534 -1.1814 0
M  V30 2418 C 226.856 -4.56313 -0.250513 0
M  V30 2419 C 227.853 -5.17295 0.519839 0
M  V30 2420 C 225.538 -5.02061 -0.154907 0
M  V30 2421 C 227.532 -6.2243 1.3733 0
M  V30 2422 C 225.219 -6.07053 0.702161 0
M  V30 2423 C 226.217 -6.67106 1.46487 0
M  V30 2424 O 225.905 -7.70066 2.30767 0
M  V30 2425 H 225.637 -0.661451 -0.139493 0
M  V30 2426 H 228.191 -2.04086 0.231926 0
M  V30 2427 H 226.421 -3.32302 -1.97769 0
M  V30 2428 H 228.11 -3.66745 -1.73933 0
M  V30 2429 H 228.876 -4.82852 0.45598 0
M  V30 2430 H 224.755 -4.5505 -0.7383 0
M  V30 2431 H 228.299 -6.69233 1.96909 0
M  V30 2432 H 224.196 -6.40923 0.76733 0
M  V30 2433 H 224.964 -7.87264 2.23959 0
M  V30 2434 N 227.627 0.131896 -1.57047 0
M  V30 2435 C 228.855 0.856461 -1.88341 0
M  V30 2436 C 229.27 1.74042 -0.731757 0
M  V30 2437 O 228.627 1.80051 0.297945 0
M  V30 2438 C 228.678 1.70064 -3.18999 0
M  V30 2439 O 228.399 0.852278 -4.2973 0
M  V30 2440 C 229.9 2.53148 -3.63911 0
M  V30 2441 H 227.12 0.246885 -0.62393 0
M  V30 2442 H 229.664 0.120152 -2.04147 0
M  V30 2443 H 227.819 2.38984 -3.04902 0
M  V30 2444 H 228.233 1.43329 -5.04537 0
M  V30 2445 H 229.707 3.07931 -4.58129 0
M  V30 2446 H 230.184 3.29901 -2.89935 0
M  V30 2447 H 230.79 1.89492 -3.80753 0
M  V30 2448 N 229.106 1.52395 0.401703 0
M  V30 2449 C 230.053 1.76268 1.48991 0
M  V30 2450 C 231.023 0.605386 1.54675 0
M  V30 2451 O 232.208 0.843742 1.7113 0
M  V30 2452 C 229.348 1.92592 2.86361 0
M  V30 2453 C 228.461 3.20259 2.89928 0
M  V30 2454 C 227.596 3.26972 4.18644 0
M  V30 2455 C 226.635 4.48812 4.16214 0
M  V30 2456 N 225.772 4.52877 5.36514 0
M  V30 2457 H 230.612 2.6914 1.27935 0
M  V30 2458 H 228.149 1.33355 0.620871 0
M  V30 2459 H 230.107 2.0004 3.66115 0
M  V30 2460 H 228.737 1.03093 3.05895 0
M  V30 2461 H 227.789 3.21945 2.02621 0
M  V30 2462 H 229.101 4.10056 2.83999 0
M  V30 2463 H 228.255 3.33533 5.06794 0
M  V30 2464 H 226.994 2.35126 4.27278 0
M  V30 2465 H 225.999 4.4239 3.26453 0
M  V30 2466 H 227.224 5.41961 4.09213 0
M  V30 2467 H 225.17 3.63917 5.45802 0
M  V30 2468 H 225.087 5.36529 5.32609 0
M  V30 2469 H 226.355 4.63676 6.26597 0
M  V30 2470 N 230.584 -0.659388 1.43143 0
M  V30 2471 C 231.532 -1.79374 1.4808 0
M  V30 2472 C 232.526 -1.65639 0.354988 0
M  V30 2473 O 233.732 -1.7206 0.528704 0
M  V30 2474 H 230.107 -0.591705 0.4641 0
M  V30 2475 H 232.078 -1.72329 2.43609 0
M  V30 2476 C 230.827 -3.17606 1.41499 0
M  V30 2477 H 230.15 -3.28809 2.27431 0
M  V30 2478 H 231.59 -3.96951 1.49015 0
M  V30 2479 C 230.049 -3.36642 0.131765 0
M  V30 2480 O 230.579 -3.93461 -0.809386 0
M  V30 2481 N 228.785 -2.90567 0.0439396 0
M  V30 2482 H 228.332 -2.44513 0.810619 0
M  V30 2483 H 228.29 -3.03681 -0.813969 0
M  V30 2484 N 232.062 -1.29571 -0.897171 0
M  V30 2485 C 233.309 -1.17689 -1.6479 0
M  V30 2486 C 233.637 0.27107 -1.92602 0
M  V30 2487 O 232.892 1.21193 -1.53658 0
M  V30 2488 C 233.191 -1.9382 -3.00281 0
M  V30 2489 C 232.857 -3.43522 -2.92068 0
M  V30 2490 C 231.519 -3.84348 -2.89535 0
M  V30 2491 C 233.871 -4.38906 -2.81089 0
M  V30 2492 C 231.199 -5.18869 -2.73846 0
M  V30 2493 C 233.551 -5.73521 -2.66939 0
M  V30 2494 C 232.215 -6.13601 -2.62774 0
M  V30 2495 H 231.485 -0.430654 -0.603008 0
M  V30 2496 H 234.132 -1.60536 -1.04404 0
M  V30 2497 H 232.437 -1.4357 -3.64547 0
M  V30 2498 H 234.134 -1.82028 -3.57305 0
M  V30 2499 H 230.724 -3.11072 -2.94842 0
M  V30 2500 H 234.908 -4.08315 -2.82121 0
M  V30 2501 H 230.164 -5.4903 -2.69027 0
M  V30 2502 H 234.338 -6.47078 -2.57416 0
M  V30 2503 H 231.965 -7.17786 -2.50375 0
M  V30 2504 N 233.54 1.10788 -1.12088 0
M  V30 2505 C 234.77 1.86191 -0.895351 0
M  V30 2506 C 235.178 1.80763 0.558702 0
M  V30 2507 O 234.521 1.19188 1.39785 0
M  V30 2508 C 234.583 3.35659 -1.28737 0
M  V30 2509 C 234.247 3.64849 -2.75198 0
M  V30 2510 C 235.244 3.61757 -3.734 0
M  V30 2511 C 232.929 3.93641 -3.12013 0
M  V30 2512 C 234.923 3.87045 -5.06434 0
M  V30 2513 C 232.61 4.18585 -4.4523 0
M  V30 2514 C 233.608 4.15277 -5.42249 0
M  V30 2515 O 233.296 4.3959 -6.73065 0
M  V30 2516 H 233.028 0.595425 -0.32007 0
M  V30 2517 H 235.582 1.40992 -1.49367 0
M  V30 2518 H 233.812 3.81497 -0.63224 0
M  V30 2519 H 235.501 3.92441 -1.03656 0
M  V30 2520 H 236.267 3.39557 -3.46303 0
M  V30 2521 H 232.146 3.95348 -2.37109 0
M  V30 2522 H 235.69 3.84378 -5.82151 0
M  V30 2523 H 231.587 4.40264 -4.72057 0
M  V30 2524 H 232.355 4.57123 -6.78956 0
M  V30 2525 N 235.018 0.912232 1.28515 0
M  V30 2526 C 236.266 0.543523 1.94654 0
M  V30 2527 C 236.587 -0.9155 1.72173 0
M  V30 2528 O 235.857 -1.64708 1.06058 0
M  V30 2529 H 234.437 0.198017 0.720277 0
M  V30 2530 H 237.099 1.16126 1.56527 0
M  V30 2531 H 236.195 0.736684 3.03281 0
M  V30 2532 N 236.496 -1.42363 0.676048 0
M  V30 2533 C 237.744 -2.01123 0.198437 0
M  V30 2534 C 238.065 -1.53731 -1.19966 0
M  V30 2535 O 237.335 -0.759518 -1.80577 0
M  V30 2536 H 235.915 -0.743678 0.0703721 0
M  V30 2537 H 238.577 -1.74263 0.872837 0
M  V30 2538 H 237.673 -3.11454 0.200686 0
M  V30 2539 N 237.974 -0.419461 -1.51915 0
M  V30 2540 C 238.922 0.415502 -2.28859 0
M  V30 2541 C 239.916 1.03674 -1.3397 0
M  V30 2542 O 241.122 0.973757 -1.51387 0
M  V30 2543 H 237.497 0.152786 -0.736315 0
M  V30 2544 H 239.468 -0.254531 -2.97312 0
M  V30 2545 C 238.217 1.51425 -3.12995 0
M  V30 2546 H 237.54 1.04556 -3.85886 0
M  V30 2547 H 238.98 2.07208 -3.6992 0
M  V30 2548 C 237.439 2.48745 -2.27217 0
M  V30 2549 O 237.969 3.52871 -1.9195 0
M  V30 2550 N 236.175 2.19202 -1.90785 0
M  V30 2551 H 235.722 1.34556 -2.19664 0
M  V30 2552 H 235.68 2.84561 -1.33687 0
M  V30 2553 N 239.452 1.56882 -0.150215 0
M  V30 2554 C 240.7 1.9584 0.499105 0
M  V30 2555 C 241.021 1.03623 1.65188 0
M  V30 2556 O 240.291 0.0984084 1.95653 0
M  V30 2557 H 238.871 0.723119 0.187373 0
M  V30 2558 H 241.533 1.9358 -0.226466 0
M  V30 2559 H 240.629 2.99638 0.873122 0
M  V30 2560 N 240.93 -0.123565 1.57115 0
M  V30 2561 C 242.179 -0.830704 1.83799 0
M  V30 2562 C 242.492 -1.81259 0.735158 0
M  V30 2563 O 243.698 -2.56558 0.888278 0
M  V30 2564 C 242.154 -1.52802 3.25852 0
M  V30 2565 C 241.762 -0.587356 4.44133 0
M  V30 2566 C 243.506 -2.22056 3.61789 0
M  V30 2567 C 241.413 -1.28764 5.77212 0
M  V30 2568 H 240.343 -0.313967 0.685522 0
M  V30 2569 H 242.994 -0.0834359 1.8331 0
M  V30 2570 H 241.376 -2.32175 3.20797 0
M  V30 2571 H 242.55 0.172829 4.60476 0
M  V30 2572 H 240.865 -0.00201892 4.164 0
M  V30 2573 H 243.462 -2.75131 4.58483 0
M  V30 2574 H 243.805 -2.99644 2.88997 0
M  V30 2575 H 244.338 -1.49576 3.68608 0
M  V30 2576 H 241.077 -0.55314 6.53162 0
M  V30 2577 H 240.597 -2.01995 5.64764 0
M  V30 2578 H 242.276 -1.8221 6.20813 0
M  V30 2579 N 242.408 -1.52605 -0.393616 0
M  V30 2580 C 243.654 -1.67672 -1.14079 0
M  V30 2581 C 243.987 -0.413121 -1.89755 0
M  V30 2582 O 243.262 0.588952 -1.85369 0
M  V30 2583 C 243.545 -2.9088 -2.12276 0
M  V30 2584 C 243.398 -4.27329 -1.40394 0
M  V30 2585 C 244.717 -3.09628 -3.12759 0
M  V30 2586 H 241.836 -0.610168 -0.413356 0
M  V30 2587 H 244.478 -1.85193 -0.424696 0
M  V30 2588 H 242.628 -2.76073 -2.73342 0
M  V30 2589 H 244.3 -4.53894 -0.82327 0
M  V30 2590 H 242.543 -4.2802 -0.705801 0
M  V30 2591 H 243.214 -5.09615 -2.12123 0
M  V30 2592 H 245.69 -3.23436 -2.61779 0
M  V30 2593 H 244.566 -3.97322 -3.78717 0
M  V30 2594 H 244.827 -2.23637 -3.81365 0
M  V30 2595 N 243.887 0.651787 -1.4349 0
M  V30 2596 C 245.135 1.40888 -1.44897 0
M  V30 2597 C 245.456 1.94856 -0.0749086 0
M  V30 2598 O 244.726 1.74518 0.889956 0
M  V30 2599 H 243.306 0.522887 -0.533478 0
M  V30 2600 H 245.968 0.768609 -1.79104 0
M  V30 2601 H 245.064 2.25052 -2.16236 0
M  V30 2602 N 245.365 1.30045 0.890287 0
M  V30 2603 C 246.328 1.15963 1.977 0
M  V30 2604 C 247.328 0.0923777 1.60534 0
M  V30 2605 O 248.518 0.340071 1.70848 0
M  V30 2606 C 245.65 0.775451 3.31963 0
M  V30 2607 H 246.843 2.12502 2.11619 0
M  V30 2608 H 244.396 1.13366 1.07601 0
M  V30 2609 H 245.131 -0.189671 3.23745 0
M  V30 2610 H 244.916 1.54668 3.60306 0
M  V30 2611 H 246.406 0.700251 4.11687 0
M  V30 2612 N 246.843 -1.10192 1.12674 0
M  V30 2613 C 247.775 -2.16418 0.754701 0
M  V30 2614 C 248.788 -1.61309 -0.21986 0
M  V30 2615 O 249.977 -1.785 -0.000826841 0
M  V30 2616 C 247.077 -3.38762 0.096698 0
M  V30 2617 C 246.25 -4.23307 1.10136 0
M  V30 2618 C 245.309 -5.24092 0.470513 0
M  V30 2619 O 244.335 -5.57906 1.12824 0
M  V30 2620 N 245.537 -5.75491 -0.760948 0
M  V30 2621 H 248.302 -2.48943 1.66875 0
M  V30 2622 H 245.863 -1.25834 1.01869 0
M  V30 2623 H 247.855 -4.03291 -0.337384 0
M  V30 2624 H 246.425 -3.04192 -0.720153 0
M  V30 2625 H 245.645 -3.55036 1.71299 0
M  V30 2626 H 246.933 -4.76624 1.78064 0
M  V30 2627 H 246.331 -5.50222 -1.31424 0
M  V30 2628 H 244.888 -6.41792 -1.13781 0
M  V30 2629 N 248.321 -0.919034 -1.28029 0
M  V30 2630 C 249.569 -0.553838 -1.94363 0
M  V30 2631 C 249.89 0.906357 -1.72656 0
M  V30 2632 O 249.16 1.64143 -1.0693 0
M  V30 2633 H 247.74 -0.201834 -0.719216 0
M  V30 2634 H 250.402 -1.16954 -1.55909 0
M  V30 2635 H 249.498 -0.752758 -3.02886 0
M  V30 2636 N 249.799 1.42003 -0.683588 0
M  V30 2637 C 251.21 1.84501 -0.285736 0
M  V30 2638 C 251.561 1.57213 1.17382 0
M  V30 2639 O 250.686 1.03642 1.89966 0
M  V30 2640 C 251.281 3.34912 -0.511821 0
M  V30 2641 C 249.84 3.76025 -0.168005 0
M  V30 2642 C 248.987 2.6551 -0.799983 0
M  V30 2643 H 251.938 1.31724 -0.885119 0
M  V30 2644 H 251.959 3.79784 0.233292 0
M  V30 2645 H 251.471 3.54741 -1.57418 0
M  V30 2646 H 249.572 3.61801 0.890567 0
M  V30 2647 H 249.685 4.75141 -0.614661 0
M  V30 2648 H 248.049 2.53654 -0.230568 0
M  V30 2649 H 248.832 2.8816 -1.86597 0
M  V30 2650 N 251.277 0.427512 1.51691 0
M  V30 2651 C 252.207 -0.3796 2.30394 0
M  V30 2652 C 253.188 -1.02982 1.35384 0
M  V30 2653 O 254.373 -1.03534 1.643 0
M  V30 2654 C 251.503 -1.48649 3.1388 0
M  V30 2655 C 250.457 -0.960294 4.17088 0
M  V30 2656 C 249.783 -2.16219 4.89033 0
M  V30 2657 C 251.083 -0.00153679 5.223 0
M  V30 2658 H 252.777 0.277164 2.98114 0
M  V30 2659 H 250.323 0.134739 1.43368 0
M  V30 2660 H 252.276 -2.05826 3.67714 0
M  V30 2661 H 251 -2.1714 2.43962 0
M  V30 2662 H 249.659 -0.410806 3.64291 0
M  V30 2663 H 249.307 -2.83307 4.15628 0
M  V30 2664 H 249.007 -1.81654 5.58816 0
M  V30 2665 H 250.531 -2.73968 5.45687 0
M  V30 2666 H 251.945 -0.482687 5.71264 0
M  V30 2667 H 250.342 0.256199 5.99553 0
M  V30 2668 H 251.412 0.938174 4.75738 0
M  V30 2669 N 252.755 -1.56801 0.158532 0
M  V30 2670 C 254.003 -1.96102 -0.488712 0
M  V30 2671 C 254.324 -1.04498 -1.64636 0
M  V30 2672 O 253.594 -0.108783 -1.95598 0
M  V30 2673 H 252.174 -0.724102 -0.183535 0
M  V30 2674 H 254.836 -1.93457 0.236728 0
M  V30 2675 H 253.932 -3.00097 -0.857219 0
M  V30 2676 N 254.233 0.115231 -1.57178 0
M  V30 2677 C 255.196 1.12526 -1.99676 0
M  V30 2678 C 256.196 1.34095 -0.88742 0
M  V30 2679 O 257.386 1.30548 -1.15337 0
M  V30 2680 C 254.518 2.4789 -2.34015 0
M  V30 2681 H 255.711 0.759912 -2.90113 0
M  V30 2682 H 253.264 0.359648 -1.52106 0
M  V30 2683 H 253.999 2.89339 -1.4647 0
M  V30 2684 H 253.784 2.33588 -3.14927 0
M  V30 2685 H 255.274 3.20575 -2.67622 0
M  V30 2686 N 255.711 1.52812 0.385517 0
M  V30 2687 C 256.959 1.67694 1.12797 0
M  V30 2688 C 257.28 0.421115 1.90399 0
M  V30 2689 O 256.55 -0.564551 1.87589 0
M  V30 2690 H 255.13 0.618155 0.419396 0
M  V30 2691 H 257.792 1.89938 0.436972 0
M  V30 2692 H 256.888 2.52896 1.82894 0
M  V30 2693 N 257.189 -0.644168 1.43834 0
M  V30 2694 C 258.438 -1.39985 1.45214 0
M  V30 2695 C 258.751 -1.95421 0.0835494 0
M  V30 2696 O 259.957 -2.71488 -0.0251748 0
M  V30 2697 C 258.413 -2.53384 2.55587 0
M  V30 2698 C 258.021 -2.04517 3.98594 0
M  V30 2699 C 259.765 -3.30685 2.66172 0
M  V30 2700 C 257.672 -3.1518 5.00416 0
M  V30 2701 H 256.602 -0.526005 0.540218 0
M  V30 2702 H 259.253 -0.694367 1.69855 0
M  V30 2703 H 257.635 -3.26446 2.24163 0
M  V30 2704 H 258.809 -1.38405 4.39523 0
M  V30 2705 H 257.124 -1.40068 3.92135 0
M  V30 2706 H 259.721 -4.13158 3.39418 0
M  V30 2707 H 260.064 -3.79312 1.71546 0
M  V30 2708 H 260.597 -2.64708 2.96942 0
M  V30 2709 H 257.336 -2.71511 5.96625 0
M  V30 2710 H 256.856 -3.79974 4.64091 0
M  V30 2711 H 258.535 -3.80166 5.23529 0
M  V30 2712 N 258.668 -1.30515 -0.883378 0
M  V30 2713 C 259.631 -1.1701 -1.97082 0
M  V30 2714 C 260.631 -0.10089 -1.60483 0
M  V30 2715 O 261.821 -0.349127 -1.70666 0
M  V30 2716 C 258.953 -0.793045 -3.31547 0
M  V30 2717 H 260.146 -2.13622 -2.10489 0
M  V30 2718 H 257.699 -1.13935 -1.06998 0
M  V30 2719 H 258.434 0.172499 -3.23841 0
M  V30 2720 H 258.219 -1.56576 -3.5948 0
M  V30 2721 H 259.709 -0.722073 -4.1131 0
M  V30 2722 N 260.146 1.09593 -1.13257 0
M  V30 2723 C 261.076 2.18214 -0.830946 0
M  V30 2724 C 262.057 1.68812 0.208966 0
M  V30 2725 O 263.242 1.9408 0.0682666 0
M  V30 2726 C 260.372 3.46051 -0.294296 0
M  V30 2727 C 259.326 4.08778 -1.26826 0
M  V30 2728 C 258.652 5.31419 -0.591449 0
M  V30 2729 C 259.952 4.51476 -2.62615 0
M  V30 2730 H 261.646 2.43703 -1.73923 0
M  V30 2731 H 259.192 1.17128 -0.837675 0
M  V30 2732 H 261.145 4.2134 -0.0709606 0
M  V30 2733 H 259.869 3.20079 0.649366 0
M  V30 2734 H 258.528 3.35505 -1.47756 0
M  V30 2735 H 258.176 5.01727 0.357633 0
M  V30 2736 H 257.876 5.74341 -1.24123 0
M  V30 2737 H 259.4 6.09433 -0.377355 0
M  V30 2738 H 260.814 5.17999 -2.45663 0
M  V30 2739 H 259.211 5.05277 -3.23752 0
M  V30 2740 H 260.281 3.63962 -3.20406 0
M  V30 2741 N 261.624 0.925811 1.2754 0
M  V30 2742 C 262.587 0.428129 2.25166 0
M  V30 2743 C 263.587 -0.452261 1.54309 0
M  V30 2744 O 264.777 -0.253608 1.72344 0
M  V30 2745 C 261.909 -0.384749 3.38722 0
M  V30 2746 H 263.102 1.29066 2.70706 0
M  V30 2747 H 260.655 0.706323 1.3943 0
M  V30 2748 H 261.39 -1.26618 2.98561 0
M  V30 2749 H 261.175 0.246454 3.91325 0
M  V30 2750 H 262.665 -0.723389 4.11287 0
M  V30 2751 N 263.102 -1.41638 0.69111 0
M  V30 2752 C 264.342 -2.03166 0.224291 0
M  V30 2753 C 264.706 -1.53537 -1.15284 0
M  V30 2754 O 265.907 -2.0696 -1.71525 0
M  V30 2755 C 264.178 -3.56342 0.274758 0
M  V30 2756 S 265.737 -4.3864 -0.118669 0
M  V30 2757 H 262.555 -0.705188 0.0907263 0
M  V30 2758 H 265.157 -1.7314 0.907895 0
M  V30 2759 H 263.861 -3.89958 1.2791 0
M  V30 2760 H 263.392 -3.91063 -0.428142 0
M  V30 2761 H 265.407 -4.77549 -1.34764 0
M  V30 2762 N 264.58 -0.43555 -1.51462 0
M  V30 2763 C 265.527 0.376797 -2.27703 0
M  V30 2764 C 266.497 1.01838 -1.31219 0
M  V30 2765 O 267.682 1.03762 -1.60119 0
M  V30 2766 C 264.822 1.47301 -3.12084 0
M  V30 2767 C 263.935 0.849744 -4.2356 0
M  V30 2768 C 263.07 1.92086 -4.95254 0
M  V30 2769 C 262.109 1.27593 -5.98654 0
M  V30 2770 N 261.246 2.28833 -6.63762 0
M  V30 2771 H 266.086 -0.279734 -2.96684 0
M  V30 2772 H 263.623 -0.149795 -1.46335 0
M  V30 2773 H 265.581 2.11984 -3.59331 0
M  V30 2774 H 264.211 2.0992 -2.45221 0
M  V30 2775 H 263.263 0.0912529 -3.80291 0
M  V30 2776 H 264.575 0.338878 -4.97648 0
M  V30 2777 H 263.729 2.64435 -5.46039 0
M  V30 2778 H 262.468 2.46545 -4.20793 0
M  V30 2779 H 261.473 0.537893 -5.47162 0
M  V30 2780 H 262.698 0.738693 -6.7507 0
M  V30 2781 H 260.644 2.82375 -5.92115 0
M  V30 2782 H 260.561 1.82632 -7.33608 0
M  V30 2783 H 261.829 3.00671 -7.19178 0
M  V30 2784 N 266.058 1.56714 -0.166846 0
M  V30 2785 C 267.288 2.00828 0.48494 0
M  V30 2786 C 267.696 1.04612 1.57648 0
M  V30 2787 O 267.039 0.0383201 1.8366 0
M  V30 2788 C 267.101 3.4137 1.12723 0
M  V30 2789 C 266.765 4.56654 0.177886 0
M  V30 2790 C 267.762 5.16402 -0.60207 0
M  V30 2791 C 265.447 5.02244 0.0750139 0
M  V30 2792 C 267.441 6.20167 -1.47215 0
M  V30 2793 C 265.128 6.05859 -0.798649 0
M  V30 2794 C 266.126 6.64691 -1.57082 0
M  V30 2795 O 265.814 7.66297 -2.42989 0
M  V30 2796 H 265.546 0.663587 0.128953 0
M  V30 2797 H 268.1 2.03692 -0.264365 0
M  V30 2798 H 266.33 3.35406 1.92457 0
M  V30 2799 H 268.019 3.69466 1.68076 0
M  V30 2800 H 268.785 4.82065 -0.53274 0
M  V30 2801 H 264.664 4.56167 0.665812 0
M  V30 2802 H 268.208 6.66016 -2.07531 0
M  V30 2803 H 264.105 6.39621 -0.869199 0
M  V30 2804 H 264.873 7.83601 -2.36455 0
M  V30 2805 N 267.536 -0.106894 1.57237 0
M  V30 2806 C 268.483 -1.13049 2.01217 0
M  V30 2807 C 269.453 -1.40471 0.886403 0
M  V30 2808 O 270.638 -1.52133 1.15153 0
M  V30 2809 C 267.778 -2.4487 2.43172 0
M  V30 2810 C 266.891 -2.24281 3.69218 0
M  V30 2811 C 266.026 -3.49417 4.00101 0
M  V30 2812 C 265.065 -3.24038 5.19294 0
M  V30 2813 N 264.202 -4.41409 5.45988 0
M  V30 2814 H 269.042 -0.748456 2.88448 0
M  V30 2815 H 266.579 -0.358054 1.42676 0
M  V30 2816 H 268.537 -3.21786 2.65537 0
M  V30 2817 H 267.167 -2.80944 1.58967 0
M  V30 2818 H 266.219 -1.38224 3.54398 0
M  V30 2819 H 267.531 -2.01512 4.56283 0
M  V30 2820 H 266.685 -4.34746 4.2318 0
M  V30 2821 H 265.424 -3.75229 3.11535 0
M  V30 2822 H 264.429 -2.37102 4.96047 0
M  V30 2823 H 265.654 -2.99584 6.09447 0
M  V30 2824 H 263.6 -4.67319 4.60379 0
M  V30 2825 H 263.517 -4.21788 6.274 0
M  V30 2826 H 264.785 -5.27836 5.73593 0
M  V30 2827 N 269.014 -1.53014 -0.377408 0
M  V30 2828 C 270.262 -1.6829 -1.11906 0
M  V30 2829 C 270.583 -0.431206 -1.90173 0
M  V30 2830 O 269.853 0.554595 -1.87886 0
M  V30 2831 H 268.433 -0.620371 -0.416112 0
M  V30 2832 H 271.095 -1.90167 -0.426893 0
M  V30 2833 H 270.191 -2.53862 -1.8155 0
M  V30 2834 N 270.492 0.636531 -1.44174 0
M  V30 2835 C 271.44 1.76995 -1.50915 0
M  V30 2836 C 272.434 1.65053 -0.381295 0
M  V30 2837 O 273.64 1.71197 -0.55601 0
M  V30 2838 H 270.015 0.584247 -0.473455 0
M  V30 2839 H 271.986 1.68432 -2.4632 0
M  V30 2840 C 270.735 3.15314 -1.46534 0
M  V30 2841 H 270.058 3.25149 -2.32633 0
M  V30 2842 H 271.498 3.9453 -1.55312 0
M  V30 2843 C 269.957 3.3639 -0.185305 0
M  V30 2844 O 270.487 3.94699 0.746688 0
M  V30 2845 N 268.693 2.9046 -0.0901606 0
M  V30 2846 H 268.24 2.43193 -0.849416 0
M  V30 2847 H 268.198 3.04937 0.765553 0
M  V30 2848 N 271.97 1.30982 0.876444 0
M  V30 2849 C 273.247 1.10942 1.61094 0
M  V30 2850 C 273.627 -0.338223 2.08373 0
M  V30 2851 O 272.975 -1.33122 1.85717 0
M  V30 2852 C 273.185 2.11789 2.77392 0
M  V30 2853 C 274.533 2.43965 3.47514 0
M  V30 2854 O 275.557 2.10166 2.87591 0
M  V30 2855 O 274.416 3.01817 4.55597 0
M  V30 2856 H 271.51 0.42667 0.708436 0
M  V30 2857 H 274.056 1.42438 0.922474 0
M  V30 2858 H 272.828 3.09194 2.39823 0
M  V30 2859 H 272.451 1.81161 3.5393 0
M  V30 2860 N 273.449 -1.08991 1.13837 0
M  V30 2861 C 274.359 -2.19301 0.833333 0
M  V30 2862 C 275.375 -1.73026 -0.183847 0
M  V30 2863 O 276.551 -2.01395 -0.0138092 0
M  V30 2864 C 273.616 -3.45323 0.308651 0
M  V30 2865 C 272.677 -4.06255 1.38764 0
M  V30 2866 C 271.91 -5.26262 0.887896 0
M  V30 2867 O 272.133 -5.69747 -0.27287 0
M  V30 2868 O 271.067 -5.78435 1.66421 0
M  V30 2869 H 274.893 -2.47854 1.75506 0
M  V30 2870 H 272.478 -1.18012 0.916166 0
M  V30 2871 H 274.36 -4.21394 0.0216739 0
M  V30 2872 H 273.035 -3.18362 -0.585431 0
M  V30 2873 H 271.942 -3.318 1.72799 0
M  V30 2874 H 273.275 -4.37452 2.25602 0
M  V30 2875 N 274.927 -0.932562 -1.27047 0
M  V30 2876 C 276.176 -0.571351 -1.93439 0
M  V30 2877 C 276.489 0.892467 -1.74053 0
M  V30 2878 O 277.695 1.36267 -2.34826 0
M  V30 2879 C 276.151 -0.97106 -3.46552 0
M  V30 2880 C 275.759 -2.4559 -3.74686 0
M  V30 2881 C 277.503 -0.681333 -4.18997 0
M  V30 2882 C 275.41 -2.79475 -5.21198 0
M  V30 2883 H 274.34 -0.209966 -0.724176 0
M  V30 2884 H 276.991 -1.13403 -1.44263 0
M  V30 2885 H 275.373 -0.336983 -3.94564 0
M  V30 2886 H 276.547 -3.13829 -3.37414 0
M  V30 2887 H 274.862 -2.71802 -3.15456 0
M  V30 2888 H 277.459 -0.910939 -5.26883 0
M  V30 2889 H 277.802 0.381628 -4.14547 0
M  V30 2890 H 278.335 -1.27473 -3.76823 0
M  V30 2891 H 275.074 -3.847 -5.30741 0
M  V30 2892 H 274.594 -2.1589 -5.596 0
M  V30 2893 H 276.273 -2.67478 -5.89122 0
M  V30 2894 N 276.405 1.4127 -0.698611 0
M  V30 2895 C 277.645 2.03044 -0.235062 0
M  V30 2896 C 278.009 1.54146 1.14468 0
M  V30 2897 O 279.21 2.07867 1.70425 0
M  V30 2898 C 277.481 3.56192 -0.293651 0
M  V30 2899 S 279.04 4.38696 0.0954053 0
M  V30 2900 H 275.858 0.704697 -0.0944648 0
M  V30 2901 H 278.46 1.72656 -0.917064 0
M  V30 2902 H 277.164 3.89274 -1.29977 0
M  V30 2903 H 276.695 3.91285 0.407397 0
M  V30 2904 H 278.71 4.78257 1.3223 0
M  V30 2905 N 277.883 0.443576 1.51229 0
M  V30 2906 C 278.813 -0.355142 2.30783 0
M  V30 2907 C 279.794 -1.0154 1.36468 0
M  V30 2908 O 280.979 -1.01785 1.65389 0
M  V30 2909 C 278.109 -1.45312 3.15439 0
M  V30 2910 C 277.063 -0.916002 4.18083 0
M  V30 2911 C 276.389 -2.1102 4.91299 0
M  V30 2912 C 277.689 0.0538602 5.22272 0
M  V30 2913 H 279.383 0.308767 2.97804 0
M  V30 2914 H 276.929 0.149937 1.43217 0
M  V30 2915 H 278.882 -2.01914 3.69876 0
M  V30 2916 H 277.606 -2.14541 2.46252 0
M  V30 2917 H 276.265 -0.372145 3.64706 0
M  V30 2918 H 275.913 -2.78882 4.18609 0
M  V30 2919 H 275.613 -1.75717 5.60712 0
M  V30 2920 H 277.137 -2.68164 5.48562 0
M  V30 2921 H 278.551 -0.422069 5.71744 0
M  V30 2922 H 276.948 0.319776 5.99247 0
M  V30 2923 H 278.018 0.98858 4.74716 0
M  V30 2924 N 279.361 -1.56624 0.175154 0
M  V30 2925 C 280.589 -2.01374 -0.474971 0
M  V30 2926 C 281.004 -1.05537 -1.56548 0
M  V30 2927 O 280.361 -0.0568668 -1.82411 0
M  V30 2928 C 280.412 -3.45923 -1.04975 0
M  V30 2929 O 280.133 -4.381 -0.00276605 0
M  V30 2930 C 281.634 -4.06093 -1.77773 0
M  V30 2931 H 278.854 -0.659962 -0.121206 0
M  V30 2932 H 281.398 -2.02601 0.27801 0
M  V30 2933 H 279.553 -3.45458 -1.75321 0
M  V30 2934 H 279.967 -5.22753 -0.427681 0
M  V30 2935 H 281.441 -5.09147 -2.13245 0
M  V30 2936 H 281.918 -3.48405 -2.67414 0
M  V30 2937 H 282.524 -4.10272 -1.12059 0
M  V30 2938 N 280.839 0.0985539 -1.57292 0
M  V30 2939 C 281.769 1.12064 -2.04851 0
M  V30 2940 C 282.75 1.41981 -0.936767 0
M  V30 2941 O 283.935 1.52071 -1.20781 0
M  V30 2942 C 281.065 2.44144 -2.47004 0
M  V30 2943 C 280.019 2.28643 -3.6181 0
M  V30 2944 C 279.345 3.65869 -3.89929 0
M  V30 2945 C 280.645 1.72986 -4.92822 0
M  V30 2946 H 282.339 0.724979 -2.9049 0
M  V30 2947 H 279.885 0.34729 -1.39749 0
M  V30 2948 H 281.838 3.15914 -2.78884 0
M  V30 2949 H 280.562 2.85639 -1.5836 0
M  V30 2950 H 279.221 1.59318 -3.30172 0
M  V30 2951 H 278.869 4.04885 -2.98458 0
M  V30 2952 H 278.569 3.56344 -4.67218 0
M  V30 2953 H 280.093 4.39112 -4.2428 0
M  V30 2954 H 281.507 2.34593 -5.23105 0
M  V30 2955 H 279.904 1.74229 -5.74251 0
M  V30 2956 H 280.974 0.689007 -4.7998 0
M  V30 2957 N 282.317 1.53212 0.369288 0
M  V30 2958 C 283.547 1.72868 1.13139 0
M  V30 2959 C 283.955 0.455754 1.83629 0
M  V30 2960 O 283.298 -0.580861 1.74275 0
M  V30 2961 C 283.36 2.83667 2.20847 0
M  V30 2962 C 283.024 4.24142 1.70155 0
M  V30 2963 C 284.021 5.06619 1.16763 0
M  V30 2964 C 281.706 4.70539 1.7578 0
M  V30 2965 C 283.7 6.33581 0.696678 0
M  V30 2966 C 281.387 5.97481 1.28297 0
M  V30 2967 C 282.385 6.78833 0.753307 0
M  V30 2968 O 282.073 8.03393 0.285475 0
M  V30 2969 H 281.805 0.581707 0.344373 0
M  V30 2970 H 284.359 2.00736 0.435243 0
M  V30 2971 H 282.589 2.51265 2.93944 0
M  V30 2972 H 284.278 2.91536 2.82421 0
M  V30 2973 H 285.044 4.71948 1.11758 0
M  V30 2974 H 280.923 4.07293 2.15949 0
M  V30 2975 H 284.467 6.97027 0.282581 0
M  V30 2976 H 280.364 6.31651 1.32994 0
M  V30 2977 H 281.132 8.17497 0.405145 0
M  V30 2978 N 283.795 -0.628877 1.44509 0
M  V30 2979 C 285.043 -1.38565 1.4712 0
M  V30 2980 C 285.364 -1.94712 0.105899 0
M  V30 2981 O 284.634 -1.75912 -0.862079 0
M  V30 2982 H 283.214 -0.514333 0.541729 0
M  V30 2983 H 285.876 -0.740018 1.80305 0
M  V30 2984 H 284.972 -2.21583 2.19789 0
M  V30 2985 N 285.273 -1.31445 -0.869486 0
M  V30 2986 C 286.55 -1.11795 -1.60503 0
M  V30 2987 C 286.93 0.327168 -2.08549 0
M  V30 2988 O 286.278 1.32135 -1.8642 0
M  V30 2989 C 286.488 -2.13258 -2.76265 0
M  V30 2990 C 287.836 -2.45805 -3.46215 0
M  V30 2991 O 288.86 -2.11688 -2.86473 0
M  V30 2992 O 287.719 -3.04228 -4.5399 0
M  V30 2993 H 284.813 -0.430421 -0.706163 0
M  V30 2994 H 287.359 -1.42925 -0.914907 0
M  V30 2995 H 286.131 -3.10461 -2.3818 0
M  V30 2996 H 285.754 -1.83035 -3.52964 0
M  V30 2997 N 286.751 1.08385 -1.14413 0
M  V30 2998 C 287.999 1.80419 -0.910679 0
M  V30 2999 C 288.32 1.86658 0.564243 0
M  V30 3000 O 287.59 1.35985 1.41014 0
M  V30 3001 H 286.17 0.668204 -0.333934 0
M  V30 3002 H 288.832 1.31037 -1.44275 0
M  V30 3003 H 287.928 2.83238 -1.31082 0
M  V30 3004 N 288.23 0.939286 1.26551 0
M  V30 3005 C 289.193 0.451987 2.24699 0
M  V30 3006 C 290.193 -0.435869 1.5478 0
M  V30 3007 O 291.383 -0.235314 1.72603 0
M  V30 3008 C 288.515 -0.348801 3.39111 0
M  V30 3009 H 289.708 1.3193 2.69322 0
M  V30 3010 H 287.261 0.721072 1.38673 0
M  V30 3011 H 287.996 -1.23444 2.99887 0
M  V30 3012 H 287.781 0.287945 3.91041 0
M  V30 3013 H 289.271 -0.679726 4.12031 0
M  V30 3014 N 289.708 -1.40897 0.706093 0
M  V30 3015 C 290.671 -2.29131 0.0562841 0
M  V30 3016 C 291.671 -1.44901 -0.697166 0
M  V30 3017 O 292.861 -1.65926 -0.530484 0
M  V30 3018 C 289.993 -3.27957 -0.93043 0
M  V30 3019 H 291.186 -2.88091 0.833284 0
M  V30 3020 H 288.739 -1.4906 0.470192 0
M  V30 3021 H 289.474 -2.73997 -1.73482 0
M  V30 3022 H 289.259 -3.90124 -0.393166 0
M  V30 3023 H 290.749 -3.94049 -1.38256 0
M  V30 3024 N 291.186 -0.45159 -1.50991 0
M  V30 3025 C 292.134 0.366864 -2.29689 0
M  V30 3026 C 293.128 1.00809 -1.36139 0
M  V30 3027 O 294.334 0.941427 -1.53418 0
M  V30 3028 H 290.709 0.137133 -0.739391 0
M  V30 3029 H 292.68 -0.317538 -2.96706 0
M  V30 3030 C 291.429 1.44751 -3.16137 0
M  V30 3031 H 290.752 0.963473 -3.88017 0
M  V30 3032 H 292.192 1.99315 -3.74232 0
M  V30 3033 C 290.651 2.43869 -2.32442 0
M  V30 3034 O 291.181 3.4872 -1.99392 0
M  V30 3035 N 289.387 2.15105 -1.95392 0
M  V30 3036 H 288.934 1.29866 -2.22469 0
M  V30 3037 H 288.892 2.81661 -1.39693 0
M  V30 3038 N 292.664 1.56529 -0.183458 0
M  V30 3039 C 293.596 2.15747 0.773697 0
M  V30 3040 C 294.609 1.1162 1.1851 0
M  V30 3041 O 295.798 1.3876 1.12285 0
M  V30 3042 C 292.898 2.6952 2.05456 0
M  V30 3043 C 292.071 3.98429 1.8048 0
M  V30 3044 C 291.13 4.37145 2.92901 0
M  V30 3045 O 290.156 5.04791 2.6301 0
M  V30 3046 N 291.358 3.99695 4.2098 0
M  V30 3047 H 294.123 2.98505 0.26736 0
M  V30 3048 H 291.684 1.619 -0.0010878 0
M  V30 3049 H 293.676 2.92412 2.79781 0
M  V30 3050 H 292.246 1.91282 2.47245 0
M  V30 3051 H 291.466 3.8379 0.899947 0
M  V30 3052 H 292.754 4.82597 1.61175 0
M  V30 3053 H 292.152 3.4526 4.48121 0
M  V30 3054 H 290.709 4.27562 4.9197 0
M  V30 3055 N 294.142 -0.090211 1.57342 0
M  V30 3056 C 295.39 -0.791241 1.85967 0
M  V30 3057 C 295.711 -1.7903 0.772859 0
M  V30 3058 O 294.981 -1.94872 -0.200398 0
M  V30 3059 H 293.561 -0.295205 0.686195 0
M  V30 3060 H 296.223 -0.0706782 1.94772 0
M  V30 3061 H 295.319 -1.31882 2.82867 0
M  V30 3062 N 295.62 -1.53406 -0.361157 0
M  V30 3063 C 296.552 -1.76446 -1.46286 0
M  V30 3064 C 297.565 -0.645322 -1.49464 0
M  V30 3065 O 298.754 -0.921681 -1.52864 0
M  V30 3066 C 295.854 -1.83332 -2.85031 0
M  V30 3067 C 295.027 -3.13033 -3.05498 0
M  V30 3068 C 294.086 -3.11104 -4.24383 0
M  V30 3069 O 293.112 -3.84888 -4.19344 0
M  V30 3070 N 294.314 -2.32234 -5.32022 0
M  V30 3071 H 297.079 -2.71508 -1.26899 0
M  V30 3072 H 294.64 -1.52238 -0.550915 0
M  V30 3073 H 296.632 -1.79514 -3.62708 0
M  V30 3074 H 295.202 -0.955342 -2.97644 0
M  V30 3075 H 294.422 -3.30119 -2.15442 0
M  V30 3076 H 295.71 -3.9874 -3.16044 0
M  V30 3077 H 295.108 -1.71807 -5.38979 0
M  V30 3078 H 293.665 -2.3423 -6.08259 0
M  V30 3079 N 297.098 0.621204 -1.44841 0
M  V30 3080 C 298.347 1.37658 -1.47422 0
M  V30 3081 C 298.66 1.95264 -0.114629 0
M  V30 3082 O 299.866 2.71494 -0.0180199 0
M  V30 3083 C 298.322 2.49285 -2.59586 0
M  V30 3084 C 297.93 1.98149 -4.01797 0
M  V30 3085 C 299.674 3.26409 -2.71399 0
M  V30 3086 C 297.581 3.07178 -5.05367 0
M  V30 3087 H 296.511 0.517344 -0.548517 0
M  V30 3088 H 299.162 0.667257 -1.70938 0
M  V30 3089 H 297.544 3.22839 -2.29328 0
M  V30 3090 H 298.718 1.31395 -4.41669 0
M  V30 3091 H 297.033 1.33812 -3.94314 0
M  V30 3092 H 299.63 4.07706 -3.45948 0
M  V30 3093 H 299.973 3.76535 -1.77559 0
M  V30 3094 H 300.506 2.5995 -3.01116 0
M  V30 3095 H 297.245 2.61985 -6.00869 0
M  V30 3096 H 296.765 3.72542 -4.70077 0
M  V30 3097 H 298.444 3.71789 -5.29511 0
M  V30 3098 N 298.576 1.31904 0.862503 0
M  V30 3099 C 299.539 1.20131 1.95195 0
M  V30 3100 C 300.539 0.126409 1.60302 0
M  V30 3101 O 301.729 0.376234 1.70089 0
M  V30 3102 C 298.861 0.845691 3.30244 0
M  V30 3103 H 300.054 2.16943 2.07064 0
M  V30 3104 H 297.607 1.15622 1.05172 0
M  V30 3105 H 298.342 -0.120957 3.24074 0
M  V30 3106 H 298.127 1.62276 3.56944 0
M  V30 3107 H 299.617 0.787418 4.10109 0
M  V30 3108 N 300.054 -1.07777 1.14986 0
M  V30 3109 C 300.964 -2.18404 0.856546 0
M  V30 3110 C 301.98 -1.73211 -0.165485 0
M  V30 3111 O 303.156 -2.01399 0.00755219 0
M  V30 3112 C 300.221 -3.44977 0.34526 0
M  V30 3113 C 299.282 -4.0476 1.43065 0
M  V30 3114 C 298.515 -5.25291 0.943663 0
M  V30 3115 O 298.738 -5.70004 -0.212426 0
M  V30 3116 O 297.672 -5.76638 1.72547 0
M  V30 3117 H 301.498 -2.45978 1.78125 0
M  V30 3118 H 299.083 -1.17033 0.928631 0
M  V30 3119 H 300.965 -4.21348 0.0663671 0
M  V30 3120 H 299.64 -3.18965 -0.551631 0
M  V30 3121 H 298.547 -3.29949 1.76309 0
M  V30 3122 H 299.88 -4.35035 2.30229 0
M  V30 3123 N 301.532 -0.945985 -1.26051 0
M  V30 3124 C 302.495 -0.463897 -2.24456 0
M  V30 3125 C 303.495 0.427655 -1.55009 0
M  V30 3126 O 304.685 0.226157 -1.72726 0
M  V30 3127 C 301.817 0.330812 -3.39291 0
M  V30 3128 H 303.01 -1.33357 -2.68619 0
M  V30 3129 H 300.563 -0.728416 -1.38289 0
M  V30 3130 H 301.298 1.21852 -3.00537 0
M  V30 3131 H 301.083 -0.308679 -3.90883 0
M  V30 3132 H 302.573 0.657865 -4.12386 0
M  V30 3133 N 303.011 1.40521 -0.713556 0
M  V30 3134 C 304.258 2.00923 -0.25219 0
M  V30 3135 C 304.586 1.56571 1.15395 0
M  V30 3136 O 303.841 0.775874 1.79663 0
M  V30 3137 C 304.14 3.56317 -0.278 0
M  V30 3138 C 303.806 4.20246 -1.63415 0
M  V30 3139 C 302.468 4.37422 -2.00538 0
M  V30 3140 C 304.82 4.55923 -2.52554 0
M  V30 3141 C 302.148 4.87558 -3.2635 0
M  V30 3142 C 304.5 5.07458 -3.77716 0
M  V30 3143 C 303.164 5.22843 -4.14959 0
M  V30 3144 H 302.434 0.735231 -0.0922829 0
M  V30 3145 H 305.081 1.68161 -0.916188 0
M  V30 3146 H 303.386 3.88976 0.469567 0
M  V30 3147 H 305.083 4.00883 0.0967819 0
M  V30 3148 H 301.673 4.07263 -1.33546 0
M  V30 3149 H 305.857 4.42291 -2.25149 0
M  V30 3150 H 301.113 4.97654 -3.55176 0
M  V30 3151 H 305.287 5.34041 -4.4696 0
M  V30 3152 H 302.914 5.61454 -5.12516 0
M  V30 3153 N 304.489 0.459591 1.5075 0
M  V30 3154 C 305.437 -0.354678 2.2988 0
M  V30 3155 C 306.431 -1.00086 1.36672 0
M  V30 3156 O 307.637 -0.933277 1.53915 0
M  V30 3157 H 304.012 -0.13321 0.740107 0
M  V30 3158 H 305.983 0.333269 2.96533 0
M  V30 3159 C 304.732 -1.43073 3.169 0
M  V30 3160 H 304.055 -0.942882 3.88523 0
M  V30 3161 H 305.495 -1.97328 3.75284 0
M  V30 3162 C 303.954 -2.42633 2.33732 0
M  V30 3163 O 304.484 -3.47658 2.01238 0
M  V30 3164 N 302.69 -2.14066 1.9653 0
M  V30 3165 H 302.237 -1.28685 2.23155 0
M  V30 3166 H 302.195 -2.80917 1.41185 0
M  V30 3167 N 305.967 -1.56429 0.191757 0
M  V30 3168 C 306.9 -2.14829 -0.76967 0
M  V30 3169 C 307.878 -1.08405 -1.2119 0
M  V30 3170 O 309.062 -1.36498 -1.30002 0
M  V30 3171 C 306.189 -2.70446 -2.03903 0
M  V30 3172 C 305.235 -3.89428 -1.7392 0
M  V30 3173 S 306.068 -5.28048 -0.890265 0
M  V30 3174 C 307.224 -5.87085 -2.16984 0
M  V30 3175 H 307.457 -2.96042 -0.273204 0
M  V30 3176 H 304.99 -1.54383 -0.0231975 0
M  V30 3177 H 306.948 -3.03134 -2.76803 0
M  V30 3178 H 305.609 -1.89281 -2.50662 0
M  V30 3179 H 304.802 -4.26742 -2.68155 0
M  V30 3180 H 304.404 -3.57732 -1.09103 0
M  V30 3181 H 306.696 -6.01244 -3.12269 0
M  V30 3182 H 307.639 -6.83747 -1.84108 0
M  V30 3183 H 308.047 -5.15663 -2.29678 0
M  V30 3184 N 307.445 0.0818655 -1.57387 0
M  V30 3185 C 308.408 1.08265 -2.02018 0
M  V30 3186 C 309.408 1.32183 -0.915664 0
M  V30 3187 O 310.598 1.28073 -1.18081 0
M  V30 3188 C 307.73 2.42871 -2.39221 0
M  V30 3189 H 308.923 0.698204 -2.91659 0
M  V30 3190 H 306.476 0.327303 -1.52835 0
M  V30 3191 H 307.211 2.86167 -1.52575 0
M  V30 3192 H 306.996 2.26855 -3.19811 0
M  V30 3193 H 308.486 3.14826 -2.74362 0
M  V30 3194 N 308.923 1.53595 0.353017 0
M  V30 3195 C 309.886 1.80232 1.41594 0
M  V30 3196 C 310.886 0.673081 1.46035 0
M  V30 3197 O 312.076 0.941335 1.46576 0
M  V30 3198 C 309.208 1.93578 2.80607 0
M  V30 3199 H 310.401 2.75174 1.19244 0
M  V30 3200 H 307.954 1.44864 0.586872 0
M  V30 3201 H 308.689 1.00746 3.08254 0
M  V30 3202 H 308.474 2.75724 2.78781 0
M  V30 3203 H 309.964 2.15735 3.57558 0
M  V30 3204 N 310.401 -0.613514 1.45168 0
M  V30 3205 C 311.331 -1.7354 1.56225 0
M  V30 3206 C 312.312 -1.64981 0.41414 0
M  V30 3207 O 313.497 -1.83472 0.636526 0
M  V30 3208 C 310.627 -3.12128 1.52295 0
M  V30 3209 C 309.581 -3.35491 2.65762 0
M  V30 3210 C 308.907 -4.74291 2.46885 0
M  V30 3211 C 310.207 -3.26325 4.0781 0
M  V30 3212 H 311.901 -1.64543 2.50132 0
M  V30 3213 H 309.447 -0.790185 1.20383 0
M  V30 3214 H 311.4 -3.90404 1.58628 0
M  V30 3215 H 310.124 -3.2195 0.549139 0
M  V30 3216 H 308.783 -2.59603 2.58847 0
M  V30 3217 H 308.431 -4.80839 1.47657 0
M  V30 3218 H 308.131 -4.9088 3.22972 0
M  V30 3219 H 309.655 -5.54775 2.55063 0
M  V30 3220 H 311.069 -3.94483 4.16 0
M  V30 3221 H 309.466 -3.54445 4.8424 0
M  V30 3222 H 310.536 -2.23855 4.30136 0
M  V30 3223 N 311.879 -1.3236 -0.855495 0
M  V30 3224 C 313.125 -1.24064 -1.61182 0
M  V30 3225 C 313.48 0.195914 -1.914 0
M  V30 3226 O 312.773 1.13345 -1.54478 0
M  V30 3227 C 312.967 -2.03275 -2.93963 0
M  V30 3228 C 312.796 -3.54486 -2.76712 0
M  V30 3229 C 311.566 -4.23824 -2.75139 0
M  V30 3230 C 313.764 -4.49154 -2.50531 0
M  V30 3231 N 311.746 -5.61095 -2.4909 0
M  V30 3232 C 313.117 -5.74195 -2.3388 0
M  V30 3233 C 315.172 -4.3842 -2.35992 0
M  V30 3234 C 313.875 -6.89716 -2.04168 0
M  V30 3235 C 315.901 -5.53739 -2.0767 0
M  V30 3236 C 315.263 -6.77779 -1.9182 0
M  V30 3237 H 311.362 -0.509139 -0.59355 0
M  V30 3238 H 313.946 -1.66715 -1.00569 0
M  V30 3239 H 312.117 -1.6297 -3.52555 0
M  V30 3240 H 313.849 -1.86881 -3.58967 0
M  V30 3241 H 310.604 -3.75934 -2.88047 0
M  V30 3242 H 311.028 -6.33411 -2.38996 0
M  V30 3243 H 315.67 -3.43172 -2.46967 0
M  V30 3244 H 313.388 -7.84977 -1.9193 0
M  V30 3245 H 316.974 -5.4736 -1.97201 0
M  V30 3246 H 315.854 -7.65504 -1.70217 0
M  V30 3247 N 313.357 1.07166 -1.15556 0
M  V30 3248 C 314.304 2.14417 -0.854055 0
M  V30 3249 C 315.274 1.64965 0.193806 0
M  V30 3250 O 316.459 1.90703 0.0609443 0
M  V30 3251 C 313.599 3.43304 -0.351574 0
M  V30 3252 C 312.712 4.06537 -1.46123 0
M  V30 3253 C 311.847 5.23266 -0.914677 0
M  V30 3254 C 310.886 5.78464 -2.00114 0
M  V30 3255 N 310.023 6.86521 -1.47083 0
M  V30 3256 H 314.863 2.39548 -1.77259 0
M  V30 3257 H 312.4 1.17543 -0.884425 0
M  V30 3258 H 314.358 4.17179 -0.0419409 0
M  V30 3259 H 312.988 3.18419 0.530037 0
M  V30 3260 H 312.04 3.30297 -1.88701 0
M  V30 3261 H 313.352 4.43567 -2.28144 0
M  V30 3262 H 312.506 6.04131 -0.557698 0
M  V30 3263 H 311.245 4.87658 -0.0636583 0
M  V30 3264 H 310.25 4.96243 -2.36692 0
M  V30 3265 H 311.475 6.16126 -2.85597 0
M  V30 3266 H 309.421 6.52849 -0.642198 0
M  V30 3267 H 309.338 7.22446 -2.22729 0
M  V30 3268 H 310.606 7.71087 -1.14215 0
M  V30 3269 N 314.835 0.952656 1.25548 0
M  V30 3270 C 315.765 0.489287 2.28316 0
M  V30 3271 C 316.746 -0.463359 1.63667 0
M  V30 3272 O 317.931 -0.36274 1.90782 0
M  V30 3273 C 315.061 -0.235603 3.465 0
M  V30 3274 C 314.015 0.631593 4.23314 0
M  V30 3275 C 313.341 -0.223923 5.34231 0
M  V30 3276 C 314.641 1.90871 4.86174 0
M  V30 3277 H 316.335 1.34822 2.67326 0
M  V30 3278 H 313.881 0.649728 1.28509 0
M  V30 3279 H 315.834 -0.570882 4.17515 0
M  V30 3280 H 314.558 -1.12877 3.06474 0
M  V30 3281 H 313.217 0.949929 3.54079 0
M  V30 3282 H 312.865 -1.11678 4.90446 0
M  V30 3283 H 312.565 0.35299 5.86539 0
M  V30 3284 H 314.089 -0.554214 6.0808 0
M  V30 3285 H 315.503 1.63997 5.49343 0
M  V30 3286 H 313.9 2.43112 5.4865 0
M  V30 3287 H 314.97 2.61304 4.08471 0
M  V30 3288 N 316.313 -1.40141 0.720998 0
M  V30 3289 C 317.724 -1.83678 0.334553 0
M  V30 3290 C 318.075 -1.6027 -1.13173 0
M  V30 3291 O 317.2 -1.08643 -1.87152 0
M  V30 3292 C 317.795 -3.33437 0.600437 0
M  V30 3293 C 316.354 -3.75447 0.267642 0
M  V30 3294 C 315.501 -2.63296 0.870097 0
M  V30 3295 H 318.452 -1.29331 0.919732 0
M  V30 3296 H 318.473 -3.80269 -0.132517 0
M  V30 3297 H 317.985 -3.50442 1.66768 0
M  V30 3298 H 316.086 -3.64035 -0.794329 0
M  V30 3299 H 316.199 -4.73344 0.74042 0
M  V30 3300 H 314.563 -2.52954 0.297739 0
M  V30 3301 H 315.346 -2.83112 1.94172 0
M  V30 3302 N 317.792 -0.46758 -1.50504 0
M  V30 3303 C 319.032 0.0874114 -2.04213 0
M  V30 3304 C 319.396 1.37301 -1.34211 0
M  V30 3305 O 320.597 2.01015 -1.78456 0
M  V30 3306 C 318.868 0.270571 -3.56374 0
M  V30 3307 S 320.427 0.784623 -4.31728 0
M  V30 3308 H 317.245 0.0176153 -0.710782 0
M  V30 3309 H 319.847 -0.633915 -1.84937 0
M  V30 3310 H 318.551 -0.670942 -4.04878 0
M  V30 3311 H 318.082 1.01811 -3.79997 0
M  V30 3312 H 320.097 2.05849 -4.51487 0
M  V30 3313 N 319.27 1.56325 -0.20005 0
M  V30 3314 C 320.516 1.98012 0.438059 0
M  V30 3315 C 320.849 1.08702 1.60927 0
M  V30 3316 O 320.124 0.140064 1.93995 0
M  V30 3317 C 320.407 3.48841 0.893419 0
M  V30 3318 C 320.26 4.48928 -0.279947 0
M  V30 3319 C 321.579 4.03498 1.75719 0
M  V30 3320 H 318.698 0.719918 0.157757 0
M  V30 3321 H 321.34 1.87743 -0.291968 0
M  V30 3322 H 319.49 3.57723 1.51547 0
M  V30 3323 H 321.162 4.52079 -0.91772 0
M  V30 3324 H 319.405 4.23694 -0.930919 0
M  V30 3325 H 320.076 5.5194 0.0812601 0
M  V30 3326 H 322.552 3.97427 1.23253 0
M  V30 3327 H 321.428 5.09393 2.04476 0
M  V30 3328 H 321.689 3.4906 2.71311 0
M  V30 3329 N 320.748 -0.0735177 1.57428 0
M  V30 3330 C 321.995 -0.772999 1.87166 0
M  V30 3331 C 322.323 -1.77665 0.791551 0
M  V30 3332 O 321.578 -1.94541 -0.212636 0
M  V30 3333 C 321.877 -1.51799 3.23561 0
M  V30 3334 C 321.543 -0.654484 4.46125 0
M  V30 3335 C 320.205 -0.416511 4.79394 0
M  V30 3336 C 322.557 -0.0555862 5.2117 0
M  V30 3337 C 319.885 0.429869 5.85123 0
M  V30 3338 C 322.237 0.778239 6.27795 0
M  V30 3339 C 320.901 1.0261 6.59566 0
M  V30 3340 H 320.171 -0.282861 0.684888 0
M  V30 3341 H 322.818 -0.0338272 1.9147 0
M  V30 3342 H 321.123 -2.32932 3.1504 0
M  V30 3343 H 322.82 -2.06397 3.43804 0
M  V30 3344 H 319.41 -0.850091 4.20085 0
M  V30 3345 H 323.594 -0.226558 4.95783 0
M  V30 3346 H 318.85 0.630665 6.08139 0
M  V30 3347 H 323.024 1.24906 6.85107 0
M  V30 3348 H 320.651 1.68371 7.4132 0
M  V30 3349 N 322.226 -1.5378 -0.344866 0
M  V30 3350 C 323.475 -1.7018 -1.08267 0
M  V30 3351 C 323.788 -0.471 -1.89845 0
M  V30 3352 O 324.994 -0.515917 -2.66553 0
M  V30 3353 C 323.45 -3.00923 -1.97417 0
M  V30 3354 C 323.058 -4.31335 -1.21053 0
M  V30 3355 C 324.802 -3.26688 -2.71063 0
M  V30 3356 C 322.709 -5.53153 -2.09225 0
M  V30 3357 H 321.639 -0.634138 -0.407903 0
M  V30 3358 H 324.29 -1.8028 -0.342246 0
M  V30 3359 H 322.672 -2.84676 -2.75274 0
M  V30 3360 H 323.846 -4.58281 -0.481159 0
M  V30 3361 H 322.161 -4.12173 -0.591813 0
M  V30 3362 H 324.758 -4.1489 -3.37299 0
M  V30 3363 H 325.101 -2.43639 -3.37558 0
M  V30 3364 H 325.634 -3.43705 -2.0028 0
M  V30 3365 H 322.373 -6.38741 -1.47274 0
M  V30 3366 H 321.893 -5.30458 -2.79955 0
M  V30 3367 H 323.572 -5.88744 -2.68308 0
M  V30 3368 N 323.704 0.605807 -1.45491 0
M  V30 3369 C 324.944 1.37606 -1.51142 0
M  V30 3370 C 325.308 1.91413 -0.150075 0
M  V30 3371 O 326.509 2.68677 -0.0812828 0
M  V30 3372 C 324.78 2.49197 -2.56195 0
M  V30 3373 S 326.339 3.36953 -2.81083 0
M  V30 3374 H 323.157 0.469118 -0.534275 0
M  V30 3375 H 325.759 0.698845 -1.82583 0
M  V30 3376 H 324.463 2.0802 -3.53773 0
M  V30 3377 H 323.994 3.21717 -2.26411 0
M  V30 3378 H 326.009 4.47395 -2.14598 0
M  V30 3379 N 325.182 1.32811 0.848464 0
M  V30 3380 C 326.092 1.24278 1.98978 0
M  V30 3381 C 327.108 0.155176 1.73307 0
M  V30 3382 O 328.284 0.376999 1.9784 0
M  V30 3383 C 325.349 0.972444 3.32783 0
M  V30 3384 C 324.41 2.14911 3.71634 0
M  V30 3385 C 323.643 1.89157 4.99054 0
M  V30 3386 O 323.866 0.837165 5.64223 0
M  V30 3387 O 322.8 2.75433 5.35183 0
M  V30 3388 H 326.626 2.20238 2.09115 0
M  V30 3389 H 324.211 1.12762 0.980052 0
M  V30 3390 H 326.093 0.838432 4.12975 0
M  V30 3391 H 324.768 0.043051 3.23671 0
M  V30 3392 H 323.675 2.33862 2.91992 0
M  V30 3393 H 325.008 3.06151 3.85399 0
M  V30 3394 N 326.66 -1.06551 1.16123 0
M  V30 3395 C 327.608 -2.16063 0.861371 0
M  V30 3396 C 328.602 -1.6856 -0.168517 0
M  V30 3397 O 329.808 -1.79986 -0.0227579 0
M  V30 3398 H 326.183 -0.705278 0.260934 0
M  V30 3399 H 328.154 -2.38567 1.79244 0
M  V30 3400 C 326.903 -3.45661 0.376018 0
M  V30 3401 H 326.226 -3.82604 1.15992 0
M  V30 3402 H 327.666 -4.23504 0.204951 0
M  V30 3403 C 326.125 -3.24546 -0.903954 0
M  V30 3404 O 326.655 -3.49865 -1.97377 0
M  V30 3405 N 324.861 -2.77992 -0.846679 0
M  V30 3406 H 324.408 -2.57589 0.0241017 0
M  V30 3407 H 324.366 -2.64244 -1.70359 0
M  V30 3408 N 328.138 -0.959301 -1.25041 0
M  V30 3409 C 329.086 -0.474437 -2.2771 0
M  V30 3410 C 330.08 0.457697 -1.631 0
M  V30 3411 O 331.286 0.333912 -1.76876 0
M  V30 3412 H 327.661 -0.134936 -0.739795 0
M  V30 3413 H 329.632 -1.35251 -2.65988 0
M  V30 3414 C 328.381 0.227884 -3.46952 0
M  V30 3415 H 327.704 -0.480248 -3.96905 0
M  V30 3416 H 329.144 0.531091 -4.20661 0
M  V30 3417 C 327.603 1.452 -3.04004 0
M  V30 3418 O 328.133 2.54949 -3.10426 0
M  V30 3419 N 326.339 1.31502 -2.59144 0
M  V30 3420 H 325.886 0.422065 -2.54119 0
M  V30 3421 H 325.844 2.13521 -2.30773 0
M  V30 3422 N 329.616 1.39756 -0.72842 0
M  V30 3423 C 330.546 2.33289 -0.0991354 0
M  V30 3424 C 331.527 1.53568 0.731489 0
M  V30 3425 O 332.712 1.81987 0.677807 0
M  V30 3426 C 329.842 3.3763 0.813834 0
M  V30 3427 C 328.796 4.2791 0.0878663 0
M  V30 3428 C 328.122 5.22894 1.11741 0
M  V30 3429 C 329.422 5.11314 -1.06563 0
M  V30 3430 H 331.116 2.86163 -0.880408 0
M  V30 3431 H 328.662 1.37591 -0.424819 0
M  V30 3432 H 330.615 4.0201 1.26355 0
M  V30 3433 H 329.339 2.83181 1.62715 0
M  V30 3434 H 327.998 3.65 -0.342159 0
M  V30 3435 H 327.646 4.64744 1.92412 0
M  V30 3436 H 327.346 5.84143 0.636477 0
M  V30 3437 H 328.87 5.90151 1.56697 0
M  V30 3438 H 330.284 5.69076 -0.694671 0
M  V30 3439 H 328.681 5.81671 -1.47577 0
M  V30 3440 H 329.751 4.46534 -1.89038 0
M  V30 3441 N 331.094 0.475555 1.50254 0
M  V30 3442 C 332.324 -0.0753399 2.06463 0
M  V30 3443 C 332.732 -1.33661 1.33908 0
M  V30 3444 O 332.075 -1.79219 0.403257 0
M  V30 3445 C 332.137 -0.424921 3.5698 0
M  V30 3446 C 331.801 0.734965 4.51051 0
M  V30 3447 C 332.798 1.61827 4.94073 0
M  V30 3448 C 330.483 0.926557 4.9368 0
M  V30 3449 C 332.477 2.67754 5.78434 0
M  V30 3450 C 330.164 1.98904 5.77824 0
M  V30 3451 C 331.162 2.8629 6.20103 0
M  V30 3452 O 330.85 3.90708 7.02568 0
M  V30 3453 H 330.582 0.00576308 0.675975 0
M  V30 3454 H 333.136 0.664662 1.94349 0
M  V30 3455 H 331.366 -1.21817 3.67012 0
M  V30 3456 H 333.055 -0.911422 3.95535 0
M  V30 3457 H 333.821 1.48196 4.61804 0
M  V30 3458 H 329.7 0.25584 4.6029 0
M  V30 3459 H 333.244 3.35992 6.11355 0
M  V30 3460 H 329.141 2.12541 6.09505 0
M  V30 3461 H 329.909 3.87751 7.20827 0
M  V30 3462 N 332.573 -1.56217 0.208337 0
M  V30 3463 C 333.821 -1.97558 -0.426076 0
M  V30 3464 C 334.142 -1.09683 -1.61229 0
M  V30 3465 O 333.412 -0.170956 -1.95153 0
M  V30 3466 H 331.992 -0.729575 -0.160405 0
M  V30 3467 H 334.654 -1.92606 0.298155 0
M  V30 3468 H 333.75 -3.02672 -0.761312 0
M  V30 3469 N 334.051 0.0651679 -1.57465 0
M  V30 3470 C 334.984 1.10876 -1.99453 0
M  V30 3471 C 335.962 1.37205 -0.872555 0
M  V30 3472 O 337.146 1.50468 -1.13542 0
M  V30 3473 C 334.273 2.45167 -2.3369 0
M  V30 3474 C 333.319 2.3493 -3.55964 0
M  V30 3475 S 334.152 1.73708 -5.06543 0
M  V30 3476 C 335.308 3.09563 -5.43987 0
M  V30 3477 H 335.541 0.750967 -2.87659 0
M  V30 3478 H 333.074 0.273933 -1.51951 0
M  V30 3479 H 335.032 3.22412 -2.54088 0
M  V30 3480 H 333.693 2.78105 -1.46001 0
M  V30 3481 H 332.886 3.3398 -3.77457 0
M  V30 3482 H 332.488 1.65823 -3.3523 0
M  V30 3483 H 334.78 4.05882 -5.42463 0
M  V30 3484 H 335.723 2.92843 -6.44708 0
M  V30 3485 H 336.131 3.10474 -4.71451 0
M  V30 3486 N 335.529 1.53961 0.336706 0
M  V30 3487 C 336.777 1.71197 1.07405 0
M  V30 3488 C 337.098 0.481475 1.88962 0
M  V30 3489 O 336.368 -0.504585 1.8929 0
M  V30 3490 H 334.948 0.631185 0.399517 0
M  V30 3491 H 337.61 1.91232 0.376323 0
M  V30 3492 H 336.706 2.58587 1.74755 0
M  V30 3493 N 337.007 -0.598083 1.45811 0
M  V30 3494 C 338.235 -1.38322 1.53866 0
M  V30 3495 C 338.65 -1.87992 0.174479 0
M  V30 3496 O 338.007 -1.62756 -0.825627 0
M  V30 3497 C 338.058 -2.58125 2.53089 0
M  V30 3498 O 337.779 -2.10516 3.84206 0
M  V30 3499 C 339.28 -3.50869 2.70935 0
M  V30 3500 H 336.5 -0.423093 0.520801 0
M  V30 3501 H 339.044 -0.728527 1.91083 0
M  V30 3502 H 337.199 -3.19615 2.18917 0
M  V30 3503 H 337.613 -2.88425 4.38077 0
M  V30 3504 H 339.087 -4.31451 3.44317 0
M  V30 3505 H 339.564 -4.01822 1.77301 0
M  V30 3506 H 340.17 -2.95225 3.06141 0
M  V30 3507 N 338.485 -1.33259 -0.841409 0
M  V30 3508 C 339.71 -1.2775 -1.63385 0
M  V30 3509 C 340.135 0.149188 -1.87507 0
M  V30 3510 O 339.493 1.10498 -1.43736 0
M  V30 3511 C 339.541 -2.05571 -2.96265 0
M  V30 3512 O 338.645 -1.41257 -3.87453 0
M  V30 3513 H 337.986 -0.439627 -0.497618 0
M  V30 3514 H 340.516 -1.75782 -1.04699 0
M  V30 3515 H 340.526 -2.16241 -3.45982 0
M  V30 3516 H 339.201 -3.09309 -2.7803 0
M  V30 3517 H 337.778 -1.39217 -3.45938 0
M  V30 3518 N 339.963 1.05934 -1.16686 0
M  V30 3519 C 341.191 1.8249 -0.974929 0
M  V30 3520 C 341.606 1.82679 0.476861 0
M  V30 3521 O 340.963 1.2486 1.33103 0
M  V30 3522 C 341.014 3.28943 -1.49929 0
M  V30 3523 O 340.735 3.28886 -2.89423 0
M  V30 3524 C 342.236 4.22215 -1.35089 0
M  V30 3525 H 339.456 0.575295 -0.345365 0
M  V30 3526 H 342 1.33631 -1.548 0
M  V30 3527 H 340.155 3.751 -0.968423 0
M  V30 3528 H 340.569 4.20493 -3.13506 0
M  V30 3529 H 342.043 5.22987 -1.76603 0
M  V30 3530 H 342.52 4.38195 -0.296935 0
M  V30 3531 H 343.126 3.81907 -1.87155 0
M  V30 3532 N 341.441 0.965919 1.2453 0
M  V30 3533 C 342.351 0.502154 2.29163 0
M  V30 3534 C 343.367 -0.436017 1.68448 0
M  V30 3535 O 344.543 -0.309497 1.99008 0
M  V30 3536 C 341.608 -0.201956 3.46111 0
M  V30 3537 C 340.669 0.775821 4.22232 0
M  V30 3538 C 339.902 0.105217 5.33596 0
M  V30 3539 O 340.125 -1.10683 5.59558 0
M  V30 3540 O 339.059 0.796475 5.96607 0
M  V30 3541 H 342.885 1.37194 2.70946 0
M  V30 3542 H 340.47 0.732875 1.30189 0
M  V30 3543 H 342.352 -0.597564 4.17142 0
M  V30 3544 H 341.027 -1.04673 3.06309 0
M  V30 3545 H 339.934 1.22185 3.53584 0
M  V30 3546 H 341.267 1.58896 4.65846 0
M  V30 3547 N 342.919 -1.39368 0.735821 0
M  V30 3548 C 344.335 -1.54204 0.411492 0
M  V30 3549 C 344.535 -1.70268 -1.07755 0
M  V30 3550 O 343.591 -1.70364 -1.86366 0
M  V30 3551 C 344.904 -2.75925 1.19523 0
M  V30 3552 C 346.452 -2.89761 1.18354 0
M  V30 3553 C 346.927 -4.14421 1.94986 0
M  V30 3554 N 348.418 -4.21462 1.92156 0
M  V30 3555 C 349.153 -5.16871 2.48258 0
M  V30 3556 N 348.649 -6.18063 3.13001 0
M  V30 3557 N 350.442 -5.09093 2.38287 0
M  V30 3558 H 342.593 -1.27189 1.70108 0
M  V30 3559 H 344.856 -0.616517 0.720147 0
M  V30 3560 H 344.562 -2.70401 2.24892 0
M  V30 3561 H 344.436 -3.68614 0.800222 0
M  V30 3562 H 346.823 -2.94777 0.137975 0
M  V30 3563 H 346.904 -1.98133 1.61793 0
M  V30 3564 H 346.548 -4.10166 2.99543 0
M  V30 3565 H 346.478 -5.05095 1.48953 0
M  V30 3566 H 348.969 -3.48979 1.44991 0
M  V30 3567 H 349.282 -6.87326 3.53275 0
M  V30 3568 H 347.627 -6.18448 3.17091 0
M  V30 3569 H 350.818 -4.28973 1.8735 0
M  V30 3570 H 350.991 -5.83272 2.82308 0
M  V30 3571 N 344.397 -0.483516 -1.5 0
M  V30 3572 C 345.36 0.292965 -2.2732 0
M  V30 3573 C 346.36 0.909499 -1.32608 0
M  V30 3574 O 347.55 0.776745 -1.55924 0
M  V30 3575 C 344.682 1.41854 -3.09984 0
M  V30 3576 H 345.875 -0.385289 -2.97415 0
M  V30 3577 H 343.428 -0.237942 -1.54478 0
M  V30 3578 H 344.163 2.13148 -2.44414 0
M  V30 3579 H 343.948 0.982114 -3.79601 0
M  V30 3580 H 345.438 1.96597 -3.68429 0
M  V30 3581 N 345.875 1.56104 -0.216619 0
M  V30 3582 C 346.838 2.18819 0.681962 0
M  V30 3583 C 347.838 1.14866 1.12528 0
M  V30 3584 O 349.028 1.40128 1.03488 0
M  V30 3585 C 346.16 2.80756 1.93362 0
M  V30 3586 H 347.353 2.99595 0.135254 0
M  V30 3587 H 344.906 1.56265 0.0330003 0
M  V30 3588 H 345.641 2.03837 2.52232 0
M  V30 3589 H 345.426 3.56876 1.62426 0
M  V30 3590 H 346.916 3.28844 2.57393 0
M  V30 3591 N 347.353 -0.0568162 1.57498 0
M  V30 3592 C 348.316 -1.05038 2.03715 0
M  V30 3593 C 349.316 -1.30709 0.936577 0
M  V30 3594 O 350.506 -1.26178 1.20103 0
M  V30 3595 C 347.638 -2.39034 2.43055 0
M  V30 3596 H 348.831 -0.651715 2.92733 0
M  V30 3597 H 346.384 -0.302947 1.53336 0
M  V30 3598 H 347.119 -2.83703 1.57108 0
M  V30 3599 H 346.904 -2.21739 3.2338 0
M  V30 3600 H 348.394 -3.10421 2.79336 0
M  V30 3601 N 348.832 -1.54138 -0.328536 0
M  V30 3602 C 350.057 -1.76378 -1.09112 0
M  V30 3603 C 350.482 -0.508596 -1.81094 0
M  V30 3604 O 349.84 0.539598 -1.73084 0
M  V30 3605 C 349.888 -2.95358 -2.06872 0
M  V30 3606 O 348.992 -2.66556 -3.14677 0
M  V30 3607 H 348.333 -0.584614 -0.314838 0
M  V30 3608 H 350.863 -2.01146 -0.374348 0
M  V30 3609 H 350.873 -3.22566 -2.4983 0
M  V30 3610 H 349.548 -3.86385 -1.5388 0
M  V30 3611 H 348.125 -2.50282 -2.7643 0
M  V30 3612 N 350.31 0.590341 -1.46126 0
M  V30 3613 C 351.721 1.17243 -1.45296 0
M  V30 3614 C 352.072 1.95281 -0.189723 0
M  V30 3615 O 351.197 2.04502 0.707674 0
M  V30 3616 C 351.792 2.13284 -2.6324 0
M  V30 3617 C 350.351 2.66832 -2.65476 0
M  V30 3618 C 349.498 1.42557 -2.3785 0
M  V30 3619 H 352.449 0.378692 -1.54116 0
M  V30 3620 H 352.47 2.96619 -2.38323 0
M  V30 3621 H 351.982 1.56459 -3.55165 0
M  V30 3622 H 350.083 3.27548 -1.77603 0
M  V30 3623 H 350.196 3.10088 -3.65215 0
M  V30 3624 H 348.56 1.72107 -1.87753 0
M  V30 3625 H 349.343 0.875741 -3.31942 0
M  V30 3626 N 351.788 1.33704 0.83433 0
M  V30 3627 C 353.065 1.16011 1.57483 0
M  V30 3628 C 353.445 -0.27176 2.09343 0
M  V30 3629 O 352.793 -1.27146 1.89858 0
M  V30 3630 C 353.003 2.20507 2.70514 0
M  V30 3631 C 354.351 2.54898 3.39577 0
M  V30 3632 O 355.375 2.19209 2.80759 0
M  V30 3633 O 354.234 3.16158 4.45765 0
M  V30 3634 H 351.328 0.448992 0.694503 0
M  V30 3635 H 353.874 1.453 0.876691 0
M  V30 3636 H 352.646 3.16667 2.29865 0
M  V30 3637 H 352.269 1.92329 3.47987 0
M  V30 3638 N 353.266 -1.05314 1.17247 0
M  V30 3639 C 354.496 -1.81707 0.983166 0
M  V30 3640 C 354.904 -1.83222 -0.471822 0
M  V30 3641 O 354.247 -1.25721 -1.3394 0
M  V30 3642 C 354.309 -3.29134 1.44606 0
M  V30 3643 C 353.973 -3.51304 2.92292 0
M  V30 3644 C 354.97 -3.4353 3.90235 0
M  V30 3645 C 352.655 -3.78306 3.30439 0
M  V30 3646 C 354.649 -3.62442 5.24323 0
M  V30 3647 C 352.336 -3.96866 4.64694 0
M  V30 3648 C 353.334 -3.88933 5.61445 0
M  V30 3649 O 353.022 -4.06976 6.93272 0
M  V30 3650 H 352.754 -0.579476 0.348114 0
M  V30 3651 H 355.308 -1.33705 1.55924 0
M  V30 3652 H 353.538 -3.78046 0.813537 0
M  V30 3653 H 355.227 -3.87049 1.22262 0
M  V30 3654 H 355.993 -3.22648 3.62109 0
M  V30 3655 H 351.872 -3.83585 2.55702 0
M  V30 3656 H 355.416 -3.56165 5.99827 0
M  V30 3657 H 351.313 -4.1724 4.92525 0
M  V30 3658 H 352.081 -4.24209 6.99992 0
M  V30 3659 N 354.744 -0.972509 -1.24016 0
M  V30 3660 C 355.974 -0.653853 -1.9598 0
M  V30 3661 C 356.382 0.781801 -1.72292 0
M  V30 3662 O 355.725 1.53677 -1.00644 0
M  V30 3663 C 355.787 -0.854608 -3.49194 0
M  V30 3664 C 355.451 -2.27082 -3.96589 0
M  V30 3665 C 356.448 -3.24892 -4.05883 0
M  V30 3666 C 354.133 -2.5998 -4.29786 0
M  V30 3667 C 356.127 -4.53684 -4.47716 0
M  V30 3668 C 353.814 -3.88997 -4.71301 0
M  V30 3669 C 354.812 -4.85661 -4.80232 0
M  V30 3670 O 354.5 -6.12376 -5.20818 0
M  V30 3671 H 354.232 -0.242572 -0.630979 0
M  V30 3672 H 356.786 -1.30431 -1.58673 0
M  V30 3673 H 355.016 -0.146985 -3.86421 0
M  V30 3674 H 356.705 -0.534311 -4.02368 0
M  V30 3675 H 357.471 -3.00805 -3.80449 0
M  V30 3676 H 353.35 -1.85457 -4.22051 0
M  V30 3677 H 356.894 -5.29135 -4.54601 0
M  V30 3678 H 352.791 -4.12882 -4.96184 0
M  V30 3679 H 353.559 -6.16013 -5.38953 0
M  V30 3680 N 356.222 1.38976 -0.743202 0
M  V30 3681 C 357.169 2.30544 -0.10861 0
M  V30 3682 C 358.139 1.49642 0.720869 0
M  V30 3683 O 359.324 1.78304 0.679142 0
M  V30 3684 C 356.464 3.36018 0.786496 0
M  V30 3685 C 355.577 4.31963 -0.0564849 0
M  V30 3686 C 354.712 5.24506 0.840657 0
M  V30 3687 C 353.751 6.121 -0.00658363 0
M  V30 3688 N 352.888 6.96973 0.846943 0
M  V30 3689 H 357.728 2.8424 -0.895088 0
M  V30 3690 H 355.265 1.3995 -0.453048 0
M  V30 3691 H 357.223 3.95768 1.31999 0
M  V30 3692 H 355.853 2.83758 1.53887 0
M  V30 3693 H 354.905 3.73763 -0.707492 0
M  V30 3694 H 356.217 4.93703 -0.711229 0
M  V30 3695 H 355.371 5.89322 1.4417 0
M  V30 3696 H 354.11 4.63107 1.52916 0
M  V30 3697 H 353.115 5.46289 -0.620366 0
M  V30 3698 H 354.34 6.75565 -0.691992 0
M  V30 3699 H 352.286 6.38133 1.52059 0
M  V30 3700 H 352.203 7.5559 0.248864 0
M  V30 3701 H 353.471 7.6621 1.43328 0
M  V30 3702 N 357.7 0.491464 1.49741 0
M  V30 3703 C 359.116 0.146835 1.58923 0
M  V30 3704 C 359.316 -1.34804 1.49767 0
M  V30 3705 O 358.372 -2.12317 1.36667 0
M  V30 3706 C 359.685 0.715157 2.92072 0
M  V30 3707 C 361.233 0.680407 3.05515 0
M  V30 3708 C 361.708 1.22663 4.41269 0
M  V30 3709 N 363.199 1.18691 4.47735 0
M  V30 3710 C 363.934 1.57984 5.51207 0
M  V30 3711 N 363.43 2.04824 6.6183 0
M  V30 3712 N 365.223 1.49459 5.41866 0
M  V30 3713 H 357.374 1.46347 1.53936 0
M  V30 3714 H 359.637 0.606453 0.728642 0
M  V30 3715 H 359.343 1.76317 3.04311 0
M  V30 3716 H 359.217 0.17018 3.76816 0
M  V30 3717 H 361.604 -0.358743 2.92911 0
M  V30 3718 H 361.685 1.26242 2.22478 0
M  V30 3719 H 361.329 2.26451 4.54623 0
M  V30 3720 H 361.259 0.620637 5.2293 0
M  V30 3721 H 363.75 0.843605 3.68364 0
M  V30 3722 H 364.063 2.32901 7.3687 0
M  V30 3723 H 362.408 2.08791 6.62896 0
M  V30 3724 H 365.599 1.12692 4.54333 0
M  V30 3725 H 365.772 1.80406 6.22381 0
M  V30 3726 N 359.178 -1.55987 0.224894 0
M  V30 3727 C 360.426 -1.97998 -0.405099 0
M  V30 3728 C 360.747 -1.11387 -1.60056 0
M  V30 3729 O 360.017 -0.191645 -1.9496 0
M  V30 3730 H 358.597 -0.731235 -0.152658 0
M  V30 3731 H 361.259 -1.92279 0.318567 0
M  V30 3732 H 360.355 -3.03463 -0.729167 0
M  V30 3733 N 360.656 0.0484629 -1.57525 0
M  V30 3734 C 361.604 1.07359 -2.06341 0
M  V30 3735 C 362.598 1.3865 -0.973269 0
M  V30 3736 O 363.804 1.37783 -1.15827 0
M  V30 3737 H 360.179 0.363662 -0.65822 0
M  V30 3738 H 362.15 0.635916 -2.91545 0
M  V30 3739 C 360.899 2.37198 -2.54229 0
M  V30 3740 H 360.222 2.13977 -3.37719 0
M  V30 3741 H 361.662 3.07319 -2.92115 0
M  V30 3742 C 360.121 3.04805 -1.43511 0
M  V30 3743 O 360.651 3.93848 -0.79034 0
M  V30 3744 N 358.857 2.65811 -1.17444 0
M  V30 3745 H 358.404 1.93488 -1.70059 0
M  V30 3746 H 358.362 3.11366 -0.435737 0
M  V30 3747 N 362.134 1.5431 0.320358 0
M  V30 3748 C 363.381 1.72668 1.05792 0
M  V30 3749 C 363.709 0.502084 1.87908 0
M  V30 3750 O 362.964 -0.516149 1.88771 0
M  V30 3751 C 363.263 2.95639 2.00828 0
M  V30 3752 C 362.929 4.30265 1.34843 0
M  V30 3753 C 361.591 4.66865 1.16578 0
M  V30 3754 C 363.943 5.13801 0.875095 0
M  V30 3755 C 361.271 5.84597 0.496336 0
M  V30 3756 C 363.623 6.32219 0.219463 0
M  V30 3757 C 362.287 6.67495 0.0246915 0
M  V30 3758 H 361.557 0.631837 0.387121 0
M  V30 3759 H 364.204 1.88552 0.334735 0
M  V30 3760 H 362.509 2.74456 2.79609 0
M  V30 3761 H 364.206 3.07038 2.57932 0
M  V30 3762 H 360.796 4.01472 1.50061 0
M  V30 3763 H 364.98 4.86039 1.00398 0
M  V30 3764 H 360.236 6.10486 0.334264 0
M  V30 3765 H 364.41 6.96227 -0.155291 0
M  V30 3766 H 362.037 7.5858 -0.496065 0
M  V30 3767 N 363.613 -0.582584 1.46437 0
M  V30 3768 C 364.862 -1.337 1.5102 0
M  V30 3769 C 365.175 -1.94891 0.166359 0
M  V30 3770 O 366.381 -2.71351 0.0899954 0
M  V30 3771 C 364.837 -2.42315 2.66104 0
M  V30 3772 C 364.445 -1.87427 4.06909 0
M  V30 3773 C 366.189 -3.19099 2.79958 0
M  V30 3774 C 364.096 -2.93672 5.13333 0
M  V30 3775 H 363.026 -0.502619 0.562041 0
M  V30 3776 H 365.677 -0.621701 1.72647 0
M  V30 3777 H 364.059 -3.16645 2.37807 0
M  V30 3778 H 365.233 -1.19639 4.44998 0
M  V30 3779 H 363.548 -1.2331 3.97723 0
M  V30 3780 H 366.145 -3.9839 3.56636 0
M  V30 3781 H 366.488 -3.71695 1.87479 0
M  V30 3782 H 367.021 -2.51875 3.07902 0
M  V30 3783 H 363.76 -2.45962 6.07604 0
M  V30 3784 H 363.28 -3.59948 4.79789 0
M  V30 3785 H 364.959 -3.5762 5.39182 0
M  V30 3786 N 365.091 -1.34144 -0.827227 0
M  V30 3787 C 366.502 -1.23557 -1.39966 0
M  V30 3788 C 366.853 0.140731 -1.95695 0
M  V30 3789 O 365.978 1.04087 -1.89723 0
M  V30 3790 C 366.573 -2.23708 -2.54441 0
M  V30 3791 C 365.132 -2.16924 -3.07605 0
M  V30 3792 C 364.279 -2.10549 -1.80456 0
M  V30 3793 H 367.23 -1.45573 -0.631991 0
M  V30 3794 H 367.251 -1.85157 -3.32411 0
M  V30 3795 H 366.763 -3.23866 -2.13851 0
M  V30 3796 H 364.864 -1.20107 -3.52711 0
M  V30 3797 H 364.977 -3.07988 -3.66988 0
M  V30 3798 H 363.341 -1.56203 -2.01178 0
M  V30 3799 H 364.124 -3.12535 -1.42046 0
M  V30 3800 N 366.569 1.04691 -1.17803 0
M  V30 3801 C 367.817 1.7743 -0.967617 0
M  V30 3802 C 368.138 1.88359 0.504574 0
M  V30 3803 O 367.408 1.40402 1.36617 0
M  V30 3804 H 365.988 0.657242 -0.355024 0
M  V30 3805 H 368.65 1.2638 -1.48371 0
M  V30 3806 H 367.746 2.78924 -1.40027 0
M  V30 3807 N 368.047 0.979072 1.23499 0
M  V30 3808 C 368.977 0.537606 2.27227 0
M  V30 3809 C 369.958 -0.428539 1.64613 0
M  V30 3810 O 371.143 -0.322191 1.91509 0
M  V30 3811 C 368.273 -0.162052 3.46922 0
M  V30 3812 C 367.227 0.721242 4.21879 0
M  V30 3813 C 366.553 -0.110555 5.34586 0
M  V30 3814 C 367.853 2.01141 4.82016 0
M  V30 3815 H 369.547 1.40462 2.64406 0
M  V30 3816 H 367.093 0.67684 1.27102 0
M  V30 3817 H 369.046 -0.482192 4.18632 0
M  V30 3818 H 367.77 -1.06351 3.08799 0
M  V30 3819 H 366.429 1.02482 3.51984 0
M  V30 3820 H 366.077 -1.0125 4.92704 0
M  V30 3821 H 365.777 0.477325 5.85658 0
M  V30 3822 H 367.301 -0.425107 6.09118 0
M  V30 3823 H 368.715 1.75612 5.45741 0
M  V30 3824 H 367.112 2.54695 5.43369 0
M  V30 3825 H 368.182 2.69909 4.02836 0
M  V30 3826 N 369.525 -1.3858 0.750561 0
M  V30 3827 C 370.472 -2.30483 0.120835 0
M  V30 3828 C 371.442 -1.50022 -0.712923 0
M  V30 3829 O 372.627 -1.78662 -0.669676 0
M  V30 3830 C 369.767 -3.36431 -0.768666 0
M  V30 3831 C 368.88 -4.31927 0.0793922 0
M  V30 3832 C 368.015 -5.24944 -0.81283 0
M  V30 3833 C 367.054 -6.12088 0.0390447 0
M  V30 3834 N 366.191 -6.97412 -0.809969 0
M  V30 3835 H 371.031 -2.83761 0.91015 0
M  V30 3836 H 368.568 -1.39707 0.460463 0
M  V30 3837 H 370.526 -3.96462 -1.29898 0
M  V30 3838 H 369.156 -2.8457 -1.5238 0
M  V30 3839 H 368.208 -3.73382 0.727303 0
M  V30 3840 H 369.52 -4.93319 0.737401 0
M  V30 3841 H 368.674 -5.90078 -1.41042 0
M  V30 3842 H 367.413 -4.63911 -1.50458 0
M  V30 3843 H 366.418 -5.45952 0.649328 0
M  V30 3844 H 367.643 -6.75189 0.727809 0
M  V30 3845 H 365.589 -6.38931 -1.48672 0
M  V30 3846 H 365.506 -7.55712 -0.208789 0
M  V30 3847 H 366.774 -7.66959 -1.39263 0
M  V30 3848 N 371.003 -0.499398 -1.49478 0
M  V30 3849 C 372.249 0.0457576 -2.02748 0
M  V30 3850 C 372.582 1.36793 -1.37846 0
M  V30 3851 O 371.857 1.87596 -0.513601 0
M  V30 3852 C 372.14 0.199986 -3.59544 0
M  V30 3853 C 371.993 -1.1452 -4.34977 0
M  V30 3854 C 373.312 0.94137 -4.29914 0
M  V30 3855 H 370.431 0.0151552 -0.736844 0
M  V30 3856 H 373.073 -0.650498 -1.78518 0
M  V30 3857 H 371.223 0.793007 -3.8032 0
M  V30 3858 H 372.895 -1.77697 -4.25701 0
M  V30 3859 H 371.138 -1.73488 -3.97598 0
M  V30 3860 H 371.809 -0.990607 -5.43039 0
M  V30 3861 H 374.285 0.43844 -4.13784 0
M  V30 3862 H 373.161 1.01812 -5.39375 0
M  V30 3863 H 373.422 1.98471 -3.95046 0
M  V30 3864 N 372.481 1.55866 -0.233164 0
M  V30 3865 C 373.758 1.90471 0.444988 0
M  V30 3866 C 374.138 1.15209 1.7689 0
M  V30 3867 O 373.486 0.265119 2.26957 0
M  V30 3868 C 373.696 3.4333 0.626559 0
M  V30 3869 C 375.044 4.14319 0.92871 0
M  V30 3870 O 376.068 3.48993 0.712926 0
M  V30 3871 O 374.927 5.29846 1.33887 0
M  V30 3872 H 372.021 0.792347 0.236885 0
M  V30 3873 H 374.567 1.67437 -0.276211 0
M  V30 3874 H 373.339 3.90095 -0.306822 0
M  V30 3875 H 372.962 3.72181 1.39881 0
M  V30 3876 N 373.959 -0.0401083 1.57549 0
M  V30 3877 C 375.207 -0.731677 1.8839 0
M  V30 3878 C 375.528 -1.76481 0.829425 0
M  V30 3879 O 374.798 -1.95411 -0.1383 0
M  V30 3880 H 373.378 -0.273225 0.695239 0
M  V30 3881 H 376.04 -0.00867725 1.94898 0
M  V30 3882 H 375.136 -1.22816 2.86919 0
M  V30 3883 N 375.437 -1.54477 -0.31217 0
M  V30 3884 C 376.37 -1.79519 -1.40884 0
M  V30 3885 C 377.348 -0.645753 -1.49227 0
M  V30 3886 O 378.532 -0.884468 -1.66461 0
M  V30 3887 C 375.659 -1.92194 -2.78889 0
M  V30 3888 C 374.705 -3.14555 -2.88023 0
M  V30 3889 S 375.538 -4.72893 -2.51262 0
M  V30 3890 C 376.694 -4.8849 -3.91317 0
M  V30 3891 H 376.927 -2.72256 -1.19432 0
M  V30 3892 H 374.46 -1.45746 -0.509654 0
M  V30 3893 H 376.418 -2.00182 -3.58382 0
M  V30 3894 H 375.079 -1.00414 -2.97617 0
M  V30 3895 H 374.272 -3.20193 -3.89221 0
M  V30 3896 H 373.874 -3.04955 -2.16514 0
M  V30 3897 H 376.166 -4.71826 -4.86196 0
M  V30 3898 H 377.109 -5.90588 -3.90656 0
M  V30 3899 H 377.517 -4.16715 -3.80801 0
M  V30 3900 N 376.915 0.57481 -1.46744 0
M  V30 3901 C 378.192 1.3352 -1.4294 0
M  V30 3902 C 378.572 2.10775 -0.117009 0
M  V30 3903 O 377.92 2.09966 0.901474 0
M  V30 3904 C 378.13 2.25456 -2.66403 0
M  V30 3905 C 379.478 2.87035 -3.12883 0
M  V30 3906 O 380.502 2.35766 -2.67007 0
M  V30 3907 O 379.361 3.80179 -3.92589 0
M  V30 3908 H 376.455 0.600318 -0.568812 0
M  V30 3909 H 379.001 0.595171 -1.58921 0
M  V30 3910 H 377.773 1.67851 -3.53471 0
M  V30 3911 H 377.396 3.06785 -2.52921 0
M  V30 3912 N 378.394 1.34581 0.820102 0
M  V30 3913 C 379.64 1.27285 1.57881 0
M  V30 3914 C 379.973 -0.156137 1.93571 0
M  V30 3915 O 379.248 -1.10222 1.60254 0
M  V30 3916 C 379.531 2.16639 2.87645 0
M  V30 3917 C 379.384 3.68088 2.58517 0
M  V30 3918 C 380.703 2.05378 3.8924 0
M  V30 3919 H 377.822 0.463714 0.572833 0
M  V30 3920 H 380.464 1.64859 0.944539 0
M  V30 3921 H 378.614 1.84725 3.41773 0
M  V30 3922 H 380.286 4.10382 2.10676 0
M  V30 3923 H 378.529 3.89038 1.91917 0
M  V30 3924 H 379.2 4.2598 3.51063 0
M  V30 3925 H 381.676 2.33404 3.44473 0
M  V30 3926 H 380.552 2.7012 4.77835 0
M  V30 3927 H 380.813 1.0316 4.29896 0
M  V30 3928 N 379.872 -1.04064 1.18357 0
M  V30 3929 C 380.802 -2.14001 0.934113 0
M  V30 3930 C 381.783 -1.69616 -0.128186 0
M  V30 3931 O 382.968 -1.94185 0.0244093 0
M  V30 3932 C 380.098 -3.44253 0.459066 0
M  V30 3933 C 379.052 -4.02261 1.46185 0
M  V30 3934 C 378.378 -5.27992 0.844322 0
M  V30 3935 C 379.678 -4.38432 2.83856 0
M  V30 3936 H 381.372 -2.35127 1.85352 0
M  V30 3937 H 378.918 -1.12998 0.892604 0
M  V30 3938 H 380.871 -4.20522 0.271907 0
M  V30 3939 H 379.595 -3.22813 -0.495912 0
M  V30 3940 H 378.254 -3.28074 1.63595 0
M  V30 3941 H 377.902 -5.02862 -0.117845 0
M  V30 3942 H 377.602 -5.67765 1.51384 0
M  V30 3943 H 379.126 -6.06938 0.667693 0
M  V30 3944 H 380.54 -5.05688 2.70098 0
M  V30 3945 H 378.937 -4.89254 3.47491 0
M  V30 3946 H 380.007 -3.4826 3.37406 0
M  V30 3947 N 381.35 -0.985608 -1.22978 0
M  V30 3948 C 382.59 -0.665487 -1.93263 0
M  V30 3949 C 382.954 0.78706 -1.75127 0
M  V30 3950 O 384.155 1.21826 -2.39608 0
M  V30 3951 C 382.426 -1.0515 -3.41582 0
M  V30 3952 S 383.985 -0.848637 -4.30516 0
M  V30 3953 H 380.803 -0.24355 -0.667985 0
M  V30 3954 H 383.405 -1.26635 -1.48942 0
M  V30 3955 H 382.109 -2.10517 -3.52293 0
M  V30 3956 H 381.64 -0.442134 -3.90908 0
M  V30 3957 H 383.655 0.264717 -4.95493 0
M  V30 3958 N 382.828 1.3818 -0.7579 0
M  V30 3959 C 384.074 2.00316 -0.316453 0
M  V30 3960 C 384.407 1.60026 1.10025 0
M  V30 3961 O 383.682 0.839835 1.75434 0
M  V30 3962 C 383.965 3.57349 -0.444245 0
M  V30 3963 C 383.818 4.07591 -1.90236 0
M  V30 3964 C 385.137 4.3981 0.1598 0
M  V30 3965 H 382.256 0.727741 -0.116459 0
M  V30 3966 H 384.898 1.6406 -0.958352 0
M  V30 3967 H 383.048 3.88365 0.102233 0
M  V30 3968 H 384.72 3.87199 -2.50748 0
M  V30 3969 H 382.963 3.60297 -2.41595 0
M  V30 3970 H 383.634 5.16677 -1.94291 0
M  V30 3971 H 386.11 4.14971 -0.306314 0
M  V30 3972 H 384.986 5.48885 0.0401675 0
M  V30 3973 H 385.247 4.24102 1.24859 0
M  V30 3974 N 384.306 0.507319 1.49211 0
M  V30 3975 C 385.722 0.163682 1.58758 0
M  V30 3976 C 385.922 -1.33208 1.51188 0
M  V30 3977 O 384.978 -2.10855 1.38911 0
M  V30 3978 C 386.291 0.746095 2.91297 0
M  V30 3979 C 387.839 0.712773 3.04776 0
M  V30 3980 C 388.314 1.27336 4.39943 0
M  V30 3981 N 389.805 1.23433 4.46451 0
M  V30 3982 C 390.54 1.63821 5.495 0
M  V30 3983 N 390.036 2.11832 6.5962 0
M  V30 3984 N 391.829 1.55198 5.4025 0
M  V30 3985 H 383.98 1.47972 1.52375 0
M  V30 3986 H 386.243 0.614147 0.722168 0
M  V30 3987 H 385.949 1.79534 3.02424 0
M  V30 3988 H 385.823 0.210137 3.76614 0
M  V30 3989 H 388.21 -0.327656 2.93275 0
M  V30 3990 H 388.291 1.28595 2.21127 0
M  V30 3991 H 387.935 2.3126 4.52196 0
M  V30 3992 H 387.865 0.676066 5.22242 0
M  V30 3993 H 390.356 0.882627 3.67448 0
M  V30 3994 H 390.669 2.40703 7.34358 0
M  V30 3995 H 389.014 2.1581 6.60644 0
M  V30 3996 H 392.205 1.17505 4.53112 0
M  V30 3997 H 392.378 1.86997 6.20432 0
M  V30 3998 N 385.784 -1.5574 0.241426 0
M  V30 3999 C 386.694 -2.2479 -0.671305 0
M  V30 4000 C 387.71 -1.26217 -1.19772 0
M  V30 4001 O 388.886 -1.59079 -1.23514 0
M  V30 4002 C 385.951 -2.92966 -1.85396 0
M  V30 4003 C 385.012 -4.06935 -1.36756 0
M  V30 4004 C 384.245 -4.71851 -2.49384 0
M  V30 4005 O 384.468 -4.35823 -3.67987 0
M  V30 4006 O 383.402 -5.60467 -2.19454 0
M  V30 4007 H 387.228 -3.0349 -0.112966 0
M  V30 4008 H 384.813 -1.49397 0.0101513 0
M  V30 4009 H 386.695 -3.35927 -2.54423 0
M  V30 4010 H 385.37 -2.17211 -2.40002 0
M  V30 4011 H 384.277 -3.68503 -0.644726 0
M  V30 4012 H 385.61 -4.84492 -0.867647 0
M  V30 4013 N 387.262 0.0317525 -1.57568 0
M  V30 4014 C 388.225 1.01783 -2.0536 0
M  V30 4015 C 389.225 1.29203 -0.957253 0
M  V30 4016 O 390.415 1.24251 -1.22095 0
M  V30 4017 C 387.547 2.35137 -2.46827 0
M  V30 4018 H 388.74 0.605062 -2.93733 0
M  V30 4019 H 386.293 0.278514 -1.53799 0
M  V30 4020 H 387.028 2.81168 -1.61602 0
M  V30 4021 H 386.813 2.16566 -3.26866 0
M  V30 4022 H 388.303 3.05938 -2.84239 0
M  V30 4023 N 388.74 1.54641 0.303973 0
M  V30 4024 C 389.968 1.77768 1.05858 0
M  V30 4025 C 390.383 0.535722 1.8104 0
M  V30 4026 O 389.74 -0.494337 1.75677 0
M  V30 4027 C 389.791 2.9834 2.04146 0
M  V30 4028 O 389.512 4.17736 1.32015 0
M  V30 4029 C 391.013 3.33832 2.91669 0
M  V30 4030 H 388.233 0.592961 0.314067 0
M  V30 4031 H 390.777 2.01583 0.344149 0
M  V30 4032 H 388.932 2.76742 2.71096 0
M  V30 4033 H 389.346 4.85693 1.97998 0
M  V30 4034 H 390.82 4.21448 3.56491 0
M  V30 4035 H 391.297 2.51857 3.59812 0
M  V30 4036 H 391.903 3.57579 2.30254 0
M  V30 4037 N 390.218 -0.567019 1.47046 0
M  V30 4038 C 391.165 -1.67489 1.58796 0
M  V30 4039 C 392.135 -1.60399 0.43144 0
M  V30 4040 O 393.32 -1.79378 0.650233 0
M  V30 4041 C 390.46 -3.05821 1.59899 0
M  V30 4042 C 389.573 -3.2342 2.86397 0
M  V30 4043 C 388.708 -4.52093 2.789 0
M  V30 4044 C 387.747 -4.6309 4.00267 0
M  V30 4045 N 386.884 -5.83106 3.91064 0
M  V30 4046 H 391.724 -1.56785 2.53422 0
M  V30 4047 H 389.261 -0.763896 1.2571 0
M  V30 4048 H 391.219 -3.8591 1.58522 0
M  V30 4049 H 389.849 -3.15384 0.687929 0
M  V30 4050 H 388.901 -2.3683 2.97684 0
M  V30 4051 H 390.213 -3.27412 3.76301 0
M  V30 4052 H 389.367 -5.4043 2.75718 0
M  V30 4053 H 388.106 -4.50565 1.86662 0
M  V30 4054 H 387.111 -3.73168 4.03765 0
M  V30 4055 H 388.336 -4.66386 4.93621 0
M  V30 4056 H 386.282 -5.82546 3.01623 0
M  V30 4057 H 386.199 -5.88434 4.74638 0
M  V30 4058 H 387.467 -6.73831 3.91882 0
M  V30 4059 N 391.696 -1.35014 -0.812953 0
M  V30 4060 C 392.943 -1.27931 -1.56971 0
M  V30 4061 C 393.271 0.148034 -1.93936 0
M  V30 4062 O 392.526 1.11175 -1.61054 0
M  V30 4063 C 392.825 -2.12524 -2.87347 0
M  V30 4064 C 392.491 -3.61401 -2.6963 0
M  V30 4065 C 391.153 -4.01983 -2.64506 0
M  V30 4066 C 393.505 -4.55894 -2.52607 0
M  V30 4067 C 390.833 -5.35235 -2.40293 0
M  V30 4068 C 393.185 -5.89336 -2.29925 0
M  V30 4069 C 391.849 -6.2907 -2.23219 0
M  V30 4070 H 391.119 -0.468131 -0.574399 0
M  V30 4071 H 393.766 -1.66851 -0.939836 0
M  V30 4072 H 392.071 -1.66463 -3.54679 0
M  V30 4073 H 393.768 -2.04383 -3.45005 0
M  V30 4074 H 390.358 -3.29193 -2.74463 0
M  V30 4075 H 394.542 -4.25431 -2.55583 0
M  V30 4076 H 389.798 -5.65028 -2.33566 0
M  V30 4077 H 393.972 -6.62139 -2.15743 0
M  V30 4078 H 391.599 -7.32256 -2.04219 0
M  V30 4079 N 393.175 1.03435 -1.18907 0
M  V30 4080 C 394.138 2.09756 -0.923844 0
M  V30 4081 C 395.138 1.60528 0.093416 0
M  V30 4082 O 396.328 1.73631 -0.140727 0
M  V30 4083 C 393.46 3.38692 -0.387354 0
M  V30 4084 H 394.653 2.34719 -1.86674 0
M  V30 4085 H 392.206 1.19959 -1.00197 0
M  V30 4086 H 392.941 3.19396 0.561845 0
M  V30 4087 H 392.726 3.75742 -1.12074 0
M  V30 4088 H 394.216 4.17016 -0.220694 0
M  V30 4089 N 394.653 0.992116 1.22453 0
M  V30 4090 C 395.616 0.546883 2.2258 0
M  V30 4091 C 396.616 -0.369829 1.56489 0
M  V30 4092 O 397.806 -0.161896 1.73446 0
M  V30 4093 C 394.938 -0.204659 3.40285 0
M  V30 4094 H 396.131 1.43234 2.63484 0
M  V30 4095 H 393.684 0.779239 1.3549 0
M  V30 4096 H 394.419 -1.10614 3.04853 0
M  V30 4097 H 394.204 0.45354 3.89468 0
M  V30 4098 H 395.694 -0.504358 4.14543 0
M  V30 4099 N 396.131 -1.37776 0.765217 0
M  V30 4100 C 397.079 -2.32209 0.134798 0
M  V30 4101 C 398.073 -1.54607 -0.692315 0
M  V30 4102 O 399.279 -1.70052 -0.590109 0
M  V30 4103 H 395.654 -0.751591 0.0248005 0
M  V30 4104 H 397.625 -2.8297 0.947119 0
M  V30 4105 C 396.374 -3.39841 -0.735063 0
M  V30 4106 H 395.697 -3.99654 -0.107991 0
M  V30 4107 H 397.137 -4.08296 -1.14326 0
M  V30 4108 C 395.596 -2.79378 -1.88281 0
M  V30 4109 O 396.126 -2.69608 -2.97783 0
M  V30 4110 N 394.332 -2.37016 -1.68142 0
M  V30 4111 H 393.879 -2.45162 -0.790772 0
M  V30 4112 H 393.837 -1.96905 -2.45104 0
M  V30 4113 N 397.609 -0.515225 -1.4894 0
M  V30 4114 C 398.839 0.0205735 -2.0659 0
M  V30 4115 C 399.247 1.30064 -1.37405 0
M  V30 4116 O 398.59 1.78087 -0.450632 0
M  V30 4117 C 398.652 0.330124 -3.57981 0
M  V30 4118 C 398.316 -0.854295 -4.48944 0
M  V30 4119 C 399.313 -1.7487 -4.89609 0
M  V30 4120 C 396.998 -1.05712 -4.9105 0
M  V30 4121 C 398.992 -2.82996 -5.71132 0
M  V30 4122 C 396.679 -2.14154 -5.72347 0
M  V30 4123 C 397.677 -3.0263 -6.12294 0
M  V30 4124 O 397.365 -4.09198 -6.91962 0
M  V30 4125 H 397.097 -0.0236833 -0.675585 0
M  V30 4126 H 399.651 -0.715956 -1.92518 0
M  V30 4127 H 397.881 1.12044 -3.70112 0
M  V30 4128 H 399.57 0.806233 -3.97812 0
M  V30 4129 H 400.336 -1.60388 -4.57712 0
M  V30 4130 H 396.215 -0.377788 -4.59449 0
M  V30 4131 H 399.759 -3.52083 -6.02232 0
M  V30 4132 H 395.656 -2.28626 -6.03656 0
M  V30 4133 H 396.424 -4.06726 -7.10293 0
M  V30 4134 N 399.087 1.5561 -0.249682 0
M  V30 4135 C 400.327 2.00916 0.37579 0
M  V30 4136 C 400.691 1.13409 1.54927 0
M  V30 4137 O 401.892 1.48183 2.24266 0
M  V30 4138 C 400.163 3.48949 0.772633 0
M  V30 4139 S 401.722 4.16261 1.38824 0
M  V30 4140 H 398.54 0.70112 0.118117 0
M  V30 4141 H 401.142 1.92052 -0.365567 0
M  V30 4142 H 399.846 4.103 -0.090683 0
M  V30 4143 H 399.377 3.61745 1.5461 0
M  V30 4144 H 401.392 4.17778 2.67724 0
M  V30 4145 N 400.565 -0.0233959 1.57583 0
M  V30 4146 C 401.981 -0.379134 1.55031 0
M  V30 4147 C 402.181 -1.76255 0.976548 0
M  V30 4148 O 401.237 -2.45266 0.600078 0
M  V30 4149 C 402.55 -0.275792 2.99433 0
M  V30 4150 C 404.098 -0.352458 3.11009 0
M  V30 4151 C 404.573 -0.278501 4.57152 0
M  V30 4152 N 406.064 -0.337123 4.61972 0
M  V30 4153 C 406.799 -0.302876 5.726 0
M  V30 4154 N 406.295 -0.220589 6.92449 0
M  V30 4155 N 408.088 -0.353023 5.6099 0
M  V30 4156 H 400.239 0.881869 1.93227 0
M  V30 4157 H 402.502 0.335867 0.886509 0
M  V30 4158 H 402.208 0.675108 3.4516 0
M  V30 4159 H 402.082 -1.06721 3.61788 0
M  V30 4160 H 404.469 -1.29379 2.65226 0
M  V30 4161 H 404.55 0.468409 2.51475 0
M  V30 4162 H 404.194 0.659189 5.03604 0
M  V30 4163 H 404.124 -1.11755 5.14605 0
M  V30 4164 H 406.615 -0.403002 3.75745 0
M  V30 4165 H 406.928 -0.199713 7.72542 0
M  V30 4166 H 405.273 -0.186555 6.9475 0
M  V30 4167 H 408.464 -0.415339 4.66254 0
M  V30 4168 H 408.637 -0.322866 6.47195 0
M  V30 4169 N 402.043 -1.548 -0.295768 0
M  V30 4170 C 403.268 -1.78653 -1.05346 0
M  V30 4171 C 403.693 -0.546894 -1.79974 0
M  V30 4172 O 403.051 0.502763 -1.7419 0
M  V30 4173 C 403.099 -2.99679 -2.00561 0
M  V30 4174 O 402.203 -2.7317 -3.08953 0
M  V30 4175 H 401.544 -0.59116 -0.302367 0
M  V30 4176 H 404.074 -2.01895 -0.331598 0
M  V30 4177 H 404.084 -3.27793 -2.42932 0
M  V30 4178 H 402.759 -3.89562 -1.4565 0
M  V30 4179 H 401.336 -2.56089 -2.71059 0
M  V30 4180 N 403.521 0.559213 -1.47345 0
M  V30 4181 C 404.769 1.31388 -1.53563 0
M  V30 4182 C 405.09 1.93985 -0.198678 0
M  V30 4183 O 404.36 1.79825 0.777167 0
M  V30 4184 H 402.94 0.487901 -0.565652 0
M  V30 4185 H 405.602 0.65315 -1.8363 0
M  V30 4186 H 404.698 2.10844 -2.30111 0
M  V30 4187 N 404.999 1.35443 0.805782 0
M  V30 4188 C 405.946 1.28431 1.91766 0
M  V30 4189 C 406.916 0.156102 1.65365 0
M  V30 4190 O 408.101 0.339936 1.87747 0
M  V30 4191 C 405.241 1.06301 3.2832 0
M  V30 4192 C 404.354 2.2805 3.66902 0
M  V30 4193 C 403.489 1.99064 4.92491 0
M  V30 4194 C 402.528 3.16863 5.23703 0
M  V30 4195 N 401.665 2.87647 6.40471 0
M  V30 4196 H 406.505 2.23511 1.97096 0
M  V30 4197 H 404.042 1.11105 0.964054 0
M  V30 4198 H 406 0.915012 4.07042 0
M  V30 4199 H 404.63 0.148822 3.22457 0
M  V30 4200 H 403.682 2.53711 2.83434 0
M  V30 4201 H 404.994 3.1601 3.85927 0
M  V30 4202 H 404.148 1.81099 5.7904 0
M  V30 4203 H 402.887 1.0839 4.75503 0
M  V30 4204 H 401.892 3.35404 4.35642 0
M  V30 4205 H 403.117 4.08339 5.4262 0
M  V30 4206 H 401.063 1.99568 6.24907 0
M  V30 4207 H 400.98 3.69141 6.59751 0
M  V30 4208 H 402.248 2.73226 7.30047 0
M  V30 4209 N 406.477 -1.02803 1.19454 0
M  V30 4210 C 407.725 -1.75869 0.995722 0
M  V30 4211 C 408.046 -1.89138 -0.474543 0
M  V30 4212 O 407.316 -1.42558 -1.34366 0
M  V30 4213 H 405.896 -0.651511 0.365435 0
M  V30 4214 H 408.558 -1.24004 1.50363 0
M  V30 4215 H 407.654 -2.76661 1.44447 0
M  V30 4216 N 407.956 -0.998596 -1.21925 0
M  V30 4217 C 409.367 -0.711939 -1.72593 0
M  V30 4218 C 409.718 0.770842 -1.80423 0
M  V30 4219 O 408.843 1.60237 -1.4544 0
M  V30 4220 C 409.438 -1.28567 -3.13458 0
M  V30 4221 C 407.997 -1.04828 -3.61508 0
M  V30 4222 C 407.144 -1.4024 -2.39224 0
M  V30 4223 H 410.095 -1.17027 -1.07193 0
M  V30 4224 H 410.116 -0.667098 -3.74607 0
M  V30 4225 H 409.628 -2.36486 -3.07727 0
M  V30 4226 H 407.729 0.0140383 -3.72597 0
M  V30 4227 H 407.842 -1.71566 -4.47328 0
M  V30 4228 H 406.206 -0.821077 -2.41103 0
M  V30 4229 H 406.989 -2.49176 -2.36149 0
M  V30 4230 N 409.434 1.37368 -0.772513 0
M  V30 4231 C 410.683 1.98918 -0.333861 0
M  V30 4232 C 410.996 1.62017 1.09589 0
M  V30 4233 O 412.202 2.16676 1.63596 0
M  V30 4234 C 410.658 3.55735 -0.545971 0
M  V30 4235 C 410.266 4.01573 -1.98603 0
M  V30 4236 C 412.01 4.24156 -0.170979 0
M  V30 4237 C 409.917 5.51102 -2.1457 0
M  V30 4238 H 408.847 0.744214 -0.121085 0
M  V30 4239 H 411.498 1.56888 -0.95175 0
M  V30 4240 H 409.88 3.95748 0.141387 0
M  V30 4241 H 411.054 3.72803 -2.7084 0
M  V30 4242 H 409.369 3.45937 -2.31769 0
M  V30 4243 H 411.966 5.34024 -0.26878 0
M  V30 4244 H 412.309 4.06917 0.878855 0
M  V30 4245 H 412.842 3.89447 -0.810914 0
M  V30 4246 H 409.581 5.73268 -3.17875 0
M  V30 4247 H 409.101 5.81554 -1.46817 0
M  V30 4248 H 410.78 6.17083 -1.94468 0
M  V30 4249 N 410.912 0.523116 1.48665 0
M  V30 4250 C 411.842 -0.23231 2.32342 0
M  V30 4251 C 412.823 -0.941637 1.41659 0
M  V30 4252 O 414.008 -0.928751 1.70552 0
M  V30 4253 C 411.138 -1.28387 3.22698 0
M  V30 4254 C 410.092 -0.693098 4.22351 0
M  V30 4255 C 409.418 -1.8468 5.01794 0
M  V30 4256 C 410.718 0.33063 5.21252 0
M  V30 4257 H 412.412 0.466192 2.95748 0
M  V30 4258 H 409.958 0.225643 1.42221 0
M  V30 4259 H 411.911 -1.82024 3.80059 0
M  V30 4260 H 410.635 -2.01186 2.57278 0
M  V30 4261 H 409.294 -0.178299 3.66166 0
M  V30 4262 H 408.942 -2.56301 4.32804 0
M  V30 4263 H 408.642 -1.45747 5.69238 0
M  V30 4264 H 410.166 -2.38709 5.62006 0
M  V30 4265 H 411.58 -0.118407 5.73178 0
M  V30 4266 H 409.977 0.636974 5.9671 0
M  V30 4267 H 411.047 1.23883 4.68808 0
M  V30 4268 N 412.39 -1.55475 0.257931 0
M  V30 4269 C 413.323 -2.179 -0.677862 0
M  V30 4270 C 414.301 -1.13448 -1.16483 0
M  V30 4271 O 415.485 -1.41889 -1.24095 0
M  V30 4272 C 412.612 -2.78851 -1.92249 0
M  V30 4273 C 411.658 -3.96454 -1.57246 0
M  V30 4274 S 412.491 -5.31349 -0.665501 0
M  V30 4275 C 413.647 -5.9576 -1.91889 0
M  V30 4276 H 413.88 -2.96934 -0.147396 0
M  V30 4277 H 411.413 -1.54342 0.0423023 0
M  V30 4278 H 413.371 -3.14602 -2.63697 0
M  V30 4279 H 412.032 -1.99742 -2.42409 0
M  V30 4280 H 411.225 -4.37731 -2.49814 0
M  V30 4281 H 410.827 -3.62038 -0.938325 0
M  V30 4282 H 413.119 -6.13947 -2.86487 0
M  V30 4283 H 414.062 -6.9094 -1.54942 0
M  V30 4284 H 414.47 -5.2494 -2.076 0
M  V30 4285 N 413.868 0.0150385 -1.57593 0
M  V30 4286 C 414.778 1.02791 -2.10882 0
M  V30 4287 C 415.794 1.38702 -1.0506 0
M  V30 4288 O 416.97 1.47739 -1.36877 0
M  V30 4289 C 414.035 2.30568 -2.58919 0
M  V30 4290 C 413.096 2.01108 -3.79281 0
M  V30 4291 C 412.329 3.22794 -4.25018 0
M  V30 4292 O 412.552 4.33959 -3.70183 0
M  V30 4293 O 411.486 3.07672 -5.17322 0
M  V30 4294 H 415.312 0.604973 -2.97613 0
M  V30 4295 H 412.897 0.23292 -1.47573 0
M  V30 4296 H 414.779 3.05662 -2.90084 0
M  V30 4297 H 413.454 2.72129 -1.75293 0
M  V30 4298 H 412.361 1.23537 -3.53114 0
M  V30 4299 H 413.694 1.64394 -4.63935 0
M  V30 4300 N 415.346 1.54954 0.287554 0
M  V30 4301 C 416.276 1.89839 1.35954 0
M  V30 4302 C 417.257 0.758675 1.52244 0
M  V30 4303 O 418.442 1.01557 1.65529 0
M  V30 4304 C 415.572 2.15753 2.72154 0
M  V30 4305 C 414.526 3.3159 2.70614 0
M  V30 4306 C 413.852 3.42952 4.10229 0
M  V30 4307 C 415.152 4.68359 2.31165 0
M  V30 4308 H 416.846 2.79625 1.07007 0
M  V30 4309 H 414.392 1.3454 0.513316 0
M  V30 4310 H 416.345 2.38743 3.47246 0
M  V30 4311 H 415.069 1.22752 3.02654 0
M  V30 4312 H 413.728 3.08545 1.97979 0
M  V30 4313 H 413.376 2.47443 4.37928 0
M  V30 4314 H 413.076 4.20826 4.10097 0
M  V30 4315 H 414.6 3.68218 4.87081 0
M  V30 4316 H 416.014 4.9099 2.95976 0
M  V30 4317 H 414.411 5.49044 2.42221 0
M  V30 4318 H 415.481 4.68165 1.26291 0
M  V30 4319 N 416.824 -0.551391 1.4764 0
M  V30 4320 C 417.756 -1.67333 1.56628 0
M  V30 4321 C 418.769 -1.56398 0.452045 0
M  V30 4322 O 419.958 -1.6325 0.721926 0
M  V30 4323 C 417.058 -3.05841 1.45994 0
M  V30 4324 C 416.231 -3.42472 2.72088 0
M  V30 4325 C 415.29 -4.60168 2.55209 0
M  V30 4326 O 414.316 -4.64458 3.2904 0
M  V30 4327 N 415.518 -5.57024 1.63416 0
M  V30 4328 H 418.283 -1.60066 2.53375 0
M  V30 4329 H 415.844 -0.738169 1.44093 0
M  V30 4330 H 417.836 -3.8242 1.32428 0
M  V30 4331 H 416.406 -3.07302 0.573071 0
M  V30 4332 H 415.626 -2.55284 3.00373 0
M  V30 4333 H 416.914 -3.63723 3.55785 0
M  V30 4334 H 416.312 -5.56319 1.02594 0
M  V30 4335 H 414.869 -6.32906 1.558 0
M  V30 4336 N 418.302 -1.35869 -0.798587 0
M  V30 4337 C 419.53 -1.32722 -1.58722 0
M  V30 4338 C 419.945 0.0935631 -1.88568 0
M  V30 4339 O 419.302 1.04784 -1.49421 0
M  V30 4340 C 419.353 -2.13974 -2.91371 0
M  V30 4341 O 419.074 -3.50514 -2.62815 0
M  V30 4342 C 420.575 -2.18504 -3.85708 0
M  V30 4343 H 417.795 -0.45562 -0.492596 0
M  V30 4344 H 420.339 -1.78837 -0.991843 0
M  V30 4345 H 418.494 -1.71438 -3.47402 0
M  V30 4346 H 418.908 -3.92806 -3.47568 0
M  V30 4347 H 420.382 -2.79732 -4.75872 0
M  V30 4348 H 420.859 -1.18597 -4.22885 0
M  V30 4349 H 421.465 -2.61236 -3.35612 0
M  V30 4350 N 419.78 1.02168 -1.19998 0
M  V30 4351 C 421.01 1.79036 -1.031 0
M  V30 4352 C 421.418 1.84409 0.423078 0
M  V30 4353 O 420.761 1.29228 1.30559 0
M  V30 4354 C 420.823 3.25185 -1.53281 0
M  V30 4355 C 420.487 3.43431 -3.01503 0
M  V30 4356 C 421.484 3.33063 -3.99206 0
M  V30 4357 C 419.169 3.69412 -3.40353 0
M  V30 4358 C 421.163 3.48413 -5.33748 0
M  V30 4359 C 418.85 3.84406 -4.75053 0
M  V30 4360 C 419.848 3.7391 -5.71559 0
M  V30 4361 O 419.536 3.88452 -7.03818 0
M  V30 4362 H 419.268 0.570043 -0.363355 0
M  V30 4363 H 421.822 1.29524 -1.59414 0
M  V30 4364 H 420.052 3.75756 -0.913483 0
M  V30 4365 H 421.741 3.83671 -1.32481 0
M  V30 4366 H 422.507 3.12934 -3.70537 0
M  V30 4367 H 418.386 3.76671 -2.65782 0
M  V30 4368 H 421.93 3.40137 -6.09059 0
M  V30 4369 H 417.827 4.04035 -5.03415 0
M  V30 4370 H 418.595 4.055 -7.10993 0
M  V30 4371 N 421.258 1.00505 1.21394 0
M  V30 4372 C 422.674 0.717873 1.42544 0
M  V30 4373 C 422.874 -0.706936 1.88692 0
M  V30 4374 O 421.93 -1.47627 2.04847 0
M  V30 4375 C 423.243 1.73377 2.45684 0
M  V30 4376 C 424.791 1.75059 2.59467 0
M  V30 4377 C 425.266 2.75545 3.6584 0
M  V30 4378 N 426.757 2.74213 3.73311 0
M  V30 4379 C 427.492 3.48626 4.55245 0
M  V30 4380 N 426.988 4.32678 5.41075 0
M  V30 4381 N 428.781 3.37276 4.49668 0
M  V30 4382 H 420.932 1.92506 0.897503 0
M  V30 4383 H 423.195 0.830919 0.456375 0
M  V30 4384 H 422.901 2.75395 2.18748 0
M  V30 4385 H 422.775 1.53647 3.44489 0
M  V30 4386 H 425.162 0.737337 2.8574 0
M  V30 4387 H 425.243 1.98861 1.60897 0
M  V30 4388 H 424.887 3.77028 3.40313 0
M  V30 4389 H 424.817 2.49009 4.64007 0
M  V30 4390 H 427.308 2.13234 3.11993 0
M  V30 4391 H 427.621 4.86253 6.00648 0
M  V30 4392 H 425.966 4.3676 5.40616 0
M  V30 4393 H 429.157 2.71043 3.81646 0
M  V30 4394 H 429.33 3.95524 5.13288 0
M  V30 4395 N 422.737 -1.36956 0.779787 0
M  V30 4396 C 423.967 -2.03459 0.358877 0
M  V30 4397 C 424.375 -1.58939 -1.02641 0
M  V30 4398 O 423.718 -0.769777 -1.66794 0
M  V30 4399 C 423.78 -3.5796 0.332393 0
M  V30 4400 C 423.444 -4.25644 1.66362 0
M  V30 4401 C 424.441 -4.49205 2.61746 0
M  V30 4402 C 422.126 -4.63313 1.94027 0
M  V30 4403 C 424.12 -5.09503 3.82996 0
M  V30 4404 C 421.807 -5.2333 3.15546 0
M  V30 4405 C 422.805 -5.46363 4.0985 0
M  V30 4406 O 422.493 -6.05122 5.29228 0
M  V30 4407 H 422.225 -0.659767 0.147254 0
M  V30 4408 H 424.779 -1.76111 1.05708 0
M  V30 4409 H 423.009 -3.84388 -0.422237 0
M  V30 4410 H 424.698 -4.05852 -0.0625389 0
M  V30 4411 H 425.464 -4.20508 2.41657 0
M  V30 4412 H 421.343 -4.44715 1.21448 0
M  V30 4413 H 424.887 -5.27397 4.56617 0
M  V30 4414 H 420.784 -5.51451 3.35517 0
M  V30 4415 H 421.552 -6.23595 5.30161 0
M  V30 4416 N 424.215 -0.530993 -1.48385 0
M  V30 4417 C 425.165 0.251092 -2.26613 0
M  V30 4418 C 426.149 0.908977 -1.32765 0
M  V30 4419 O 427.341 0.811616 -1.57295 0
M  V30 4420 C 424.47 1.29677 -3.17866 0
M  V30 4421 C 423.556 0.643627 -4.19188 0
M  V30 4422 N 423.947 -0.271223 -5.05072 0
M  V30 4423 C 422.245 0.900711 -4.3681 0
M  V30 4424 C 422.946 -0.648109 -5.78078 0
M  V30 4425 N 421.922 -0.00895987 -5.43599 0
M  V30 4426 H 425.724 -0.452702 -2.90393 0
M  V30 4427 H 423.238 -0.349091 -1.58604 0
M  V30 4428 H 425.235 1.87079 -3.72568 0
M  V30 4429 H 423.895 2.00193 -2.55642 0
M  V30 4430 H 424.906 -0.643883 -5.13882 0
M  V30 4431 H 421.583 1.59636 -3.85775 0
M  V30 4432 H 422.973 -1.39833 -6.57188 0
M  V30 4433 N 425.693 1.55336 -0.266172 0
M  V30 4434 C 426.941 1.99003 0.35246 0
M  V30 4435 C 427.262 1.15591 1.57047 0
M  V30 4436 O 426.532 0.243268 1.94384 0
M  V30 4437 H 425.112 0.735025 0.133217 0
M  V30 4438 H 427.774 1.91367 -0.369434 0
M  V30 4439 H 426.87 3.05289 0.648453 0
M  V30 4440 N 427.171 -0.0066808 1.57599 0
M  V30 4441 C 428.121 -1.0086 2.04478 0
M  V30 4442 C 429.105 -1.30714 0.938231 0
M  V30 4443 O 430.297 -1.29924 1.20203 0
M  V30 4444 C 427.426 -2.30273 2.54615 0
M  V30 4445 C 426.512 -2.03413 3.72134 0
M  V30 4446 N 426.903 -1.46688 4.84062 0
M  V30 4447 C 425.201 -2.33589 3.79937 0
M  V30 4448 C 425.902 -1.36146 5.65543 0
M  V30 4449 N 424.878 -1.84477 5.1134 0
M  V30 4450 H 428.68 -0.564402 2.8843 0
M  V30 4451 H 426.194 -0.212521 1.61003 0
M  V30 4452 H 428.191 -3.02885 2.86472 0
M  V30 4453 H 426.851 -2.75352 1.72079 0
M  V30 4454 H 427.862 -1.14658 5.05049 0
M  V30 4455 H 424.539 -2.81589 3.08243 0
M  V30 4456 H 425.929 -0.925873 6.6549 0
M  V30 4457 N 428.649 -1.55105 -0.279332 0
M  V30 4458 C 429.874 -1.7976 -1.03446 0
M  V30 4459 C 430.299 -0.565952 -1.79384 0
M  V30 4460 O 429.657 0.484259 -1.74713 0
M  V30 4461 C 429.705 -3.0179 -1.97371 0
M  V30 4462 O 428.809 -2.76432 -3.06038 0
M  V30 4463 H 428.15 -0.594334 -0.29608 0
M  V30 4464 H 430.68 -2.02235 -0.310165 0
M  V30 4465 H 430.69 -3.30351 -2.39441 0
M  V30 4466 H 429.365 -3.91085 -1.4151 0
M  V30 4467 H 427.942 -2.58949 -2.68328 0
M  V30 4468 N 430.127 0.543554 -1.4793 0
M  V30 4469 C 431.06 1.66556 -1.55995 0
M  V30 4470 C 432.038 1.57315 -0.411205 0
M  V30 4471 O 433.222 1.7798 -0.620922 0
M  V30 4472 C 430.349 3.04883 -1.47527 0
M  V30 4473 C 429.395 3.32526 -2.67074 0
M  V30 4474 S 430.228 3.20282 -4.29162 0
M  V30 4475 C 431.384 4.61079 -4.23269 0
M  V30 4476 H 431.617 1.59462 -2.50917 0
M  V30 4477 H 429.15 0.725456 -1.36296 0
M  V30 4478 H 431.108 3.84665 -1.43328 0
M  V30 4479 H 429.769 3.09429 -0.539665 0
M  V30 4480 H 428.962 4.33403 -2.5725 0
M  V30 4481 H 428.564 2.60389 -2.68466 0
M  V30 4482 H 430.856 5.52318 -3.92365 0
M  V30 4483 H 431.799 4.75959 -5.24279 0
M  V30 4484 H 432.207 4.39766 -3.5393 0
M  V30 4485 N 431.605 1.3629 0.791371 0
M  V30 4486 C 432.83 1.33726 1.58531 0
M  V30 4487 C 433.255 -0.0794933 1.87932 0
M  V30 4488 O 432.613 -1.05087 1.47738 0
M  V30 4489 C 432.661 2.16425 2.88431 0
M  V30 4490 O 431.765 1.5554 3.81944 0
M  V30 4491 H 431.106 0.457793 0.480959 0
M  V30 4492 H 433.636 1.79547 0.981031 0
M  V30 4493 H 433.646 2.28933 3.37718 0
M  V30 4494 H 432.321 3.19415 2.66359 0
M  V30 4495 H 430.898 1.51961 3.40532 0
M  V30 4496 N 433.083 -1.0153 1.20538 0
M  V30 4497 C 434.36 -1.72327 0.925343 0
M  V30 4498 C 434.74 -2.03383 -0.565547 0
M  V30 4499 O 434.088 -1.69934 -1.52757 0
M  V30 4500 C 434.298 -2.9902 1.79967 0
M  V30 4501 C 435.646 -3.72258 2.04228 0
M  V30 4502 O 436.67 -3.08979 1.77231 0
M  V30 4503 O 435.529 -4.86053 2.4983 0
M  V30 4504 H 432.623 -0.751099 0.346092 0
M  V30 4505 H 435.169 -1.07366 1.31417 0
M  V30 4506 H 433.941 -2.72402 2.80915 0
M  V30 4507 H 433.564 -3.71721 1.41099 0
M  V30 4508 N 434.561 -1.01147 -1.20859 0
M  V30 4509 C 435.972 -0.730205 -1.71828 0
M  V30 4510 C 436.323 0.751662 -1.8123 0
M  V30 4511 O 435.448 1.58686 -1.47132 0
M  V30 4512 C 436.043 -1.31885 -3.12077 0
M  V30 4513 C 434.602 -1.08656 -3.60376 0
M  V30 4514 C 433.749 -1.42769 -2.37723 0
M  V30 4515 H 436.7 -1.18158 -1.05945 0
M  V30 4516 H 436.721 -0.706793 -3.73878 0
M  V30 4517 H 436.233 -2.39737 -3.05201 0
M  V30 4518 H 434.334 -0.0254814 -3.72591 0
M  V30 4519 H 434.447 -1.76301 -4.45483 0
M  V30 4520 H 432.811 -0.846603 -2.40218 0
M  V30 4521 H 433.594 -2.51666 -2.33493 0
M  V30 4522 N 436.039 1.36541 -0.78704 0
M  V30 4523 C 437.287 1.98911 -0.357633 0
M  V30 4524 C 437.608 1.62778 1.07371 0
M  V30 4525 O 436.878 0.900612 1.73971 0
M  V30 4526 H 435.458 0.735734 -0.129246 0
M  V30 4527 H 438.12 1.66776 -1.00855 0
M  V30 4528 H 437.216 3.08874 -0.447549 0
M  V30 4529 N 437.518 0.538854 1.48102 0
M  V30 4530 C 438.764 0.00801365 2.02798 0
M  V30 4531 C 439.097 -1.3309 1.41424 0
M  V30 4532 O 438.372 -1.86169 0.563158 0
M  V30 4533 C 438.655 -0.104589 3.59948 0
M  V30 4534 C 438.508 1.26012 4.31788 0
M  V30 4535 C 439.827 -0.827055 4.32259 0
M  V30 4536 H 436.946 0.00438624 0.736987 0
M  V30 4537 H 439.588 0.6976 1.7673 0
M  V30 4538 H 437.738 -0.691893 3.82289 0
M  V30 4539 H 439.41 1.88922 4.2084 0
M  V30 4540 H 437.653 1.83968 3.92859 0
M  V30 4541 H 438.324 1.13424 5.40221 0
M  V30 4542 H 440.8 -0.328578 4.14801 0
M  V30 4543 H 439.676 -0.87476 5.41885 0
M  V30 4544 H 439.937 -1.87927 4.0017 0
M  V30 4545 N 438.996 -1.55193 0.274407 0
M  V30 4546 C 440.221 -2.04446 -0.348824 0
M  V30 4547 C 440.646 -1.15149 -1.48735 0
M  V30 4548 O 440.004 -0.149952 -1.80679 0
M  V30 4549 C 440.052 -3.51431 -0.808009 0
M  V30 4550 O 439.156 -3.65225 -1.91531 0
M  V30 4551 H 438.497 -0.66006 -0.0722276 0
M  V30 4552 H 441.027 -2.00481 0.408498 0
M  V30 4553 H 441.037 -3.92781 -1.10395 0
M  V30 4554 H 439.712 -4.15892 0.0249865 0
M  V30 4555 H 438.289 -3.35778 -1.62196 0
M  V30 4556 N 440.474 -0.00167713 -1.576 0
M  V30 4557 C 441.704 0.692754 -1.94639 0
M  V30 4558 C 442.112 1.67744 -0.87513 0
M  V30 4559 O 441.455 1.8305 0.154382 0
M  V30 4560 C 441.517 1.47881 -3.27676 0
M  V30 4561 C 441.181 0.655518 -4.52274 0
M  V30 4562 C 442.178 -0.0575214 -5.19868 0
M  V30 4563 C 439.863 0.600994 -4.98692 0
M  V30 4564 C 441.857 -0.814052 -6.3218 0
M  V30 4565 C 439.544 -0.15926 -6.10892 0
M  V30 4566 C 440.542 -0.865515 -6.77494 0
M  V30 4567 O 440.23 -1.61336 -7.87544 0
M  V30 4568 H 439.962 0.197792 -0.646417 0
M  V30 4569 H 442.516 -0.049423 -2.05341 0
M  V30 4570 H 440.746 2.2655 -3.13388 0
M  V30 4571 H 442.435 2.05874 -3.49816 0
M  V30 4572 H 443.201 -0.0245611 -4.84994 0
M  V30 4573 H 439.08 1.14025 -4.46676 0
M  V30 4574 H 442.624 -1.36584 -6.84098 0
M  V30 4575 H 438.521 -0.194035 -6.45208 0
M  V30 4576 H 439.289 -1.53025 -8.04068 0
M  V30 4577 N 441.952 1.55251 0.271103 0
M  V30 4578 C 443.368 1.47133 0.618393 0
M  V30 4579 C 443.568 0.686994 1.89427 0
M  V30 4580 O 442.624 0.206609 2.51653 0
M  V30 4581 C 443.937 2.91361 0.743593 0
M  V30 4582 C 445.485 3.01587 0.837522 0
M  V30 4583 C 445.96 4.47073 0.994483 0
M  V30 4584 N 447.451 4.50909 1.05996 0
M  V30 4585 C 448.186 5.60698 1.20024 0
M  V30 4586 N 447.682 6.80348 1.30759 0
M  V30 4587 N 449.475 5.48444 1.23149 0
M  V30 4588 H 441.626 2.04698 -0.566784 0
M  V30 4589 H 443.889 0.928319 -0.192165 0
M  V30 4590 H 443.595 3.51483 -0.123493 0
M  V30 4591 H 443.469 3.40484 1.62328 0
M  V30 4592 H 445.856 2.4156 1.69507 0
M  V30 4593 H 445.937 2.55713 -0.0668086 0
M  V30 4594 H 445.581 5.07703 0.141582 0
M  V30 4595 H 445.511 4.90605 1.91349 0
M  V30 4596 H 448.002 3.6472 0.989316 0
M  V30 4597 H 448.315 7.59772 1.41303 0
M  V30 4598 H 446.66 6.83156 1.27761 0
M  V30 4599 H 449.851 4.53907 1.14394 0
M  V30 4600 H 450.024 6.34049 1.33738 0
M  V30 4601 N 443.43 -0.535701 1.48216 0
M  V30 4602 C 444.658 -1.31671 1.59594 0
M  V30 4603 C 445.073 -1.87083 0.254056 0
M  V30 4604 O 444.43 -1.66112 -0.755854 0
M  V30 4605 C 444.481 -2.47158 2.63809 0
M  V30 4606 O 444.202 -1.94032 3.92789 0
M  V30 4607 C 445.703 -3.39062 2.85573 0
M  V30 4608 H 442.923 -0.400623 0.538277 0
M  V30 4609 H 445.467 -0.646827 1.94001 0
M  V30 4610 H 443.622 -3.10043 2.32276 0
M  V30 4611 H 444.036 -2.69585 4.49916 0
M  V30 4612 H 445.51 -4.16459 3.62306 0
M  V30 4613 H 445.987 -3.93941 1.94184 0
M  V30 4614 H 446.593 -2.81975 3.18387 0
M  V30 4615 N 444.908 -1.36708 -0.784132 0
M  V30 4616 C 446.324 -1.17237 -1.08294 0
M  V30 4617 C 446.524 -5.93947e-05 -2.015 0
M  V30 4618 O 445.58 0.663686 -2.43622 0
M  V30 4619 C 446.893 -2.48557 -1.69233 0
M  V30 4620 C 448.441 -2.54968 -1.8155 0
M  V30 4621 C 448.916 -3.86388 -2.45904 0
M  V30 4622 N 450.407 -3.87762 -2.53367 0
M  V30 4623 C 451.142 -4.86191 -3.03983 0
M  V30 4624 N 450.638 -5.95015 -3.54866 0
M  V30 4625 N 452.431 -4.73606 -3.02743 0
M  V30 4626 H 444.582 -2.11758 -0.16501 0
M  V30 4627 H 446.845 -0.93822 -0.135822 0
M  V30 4628 H 446.551 -3.34638 -1.08215 0
M  V30 4629 H 446.425 -2.64748 -2.68679 0
M  V30 4630 H 448.812 -1.69302 -2.41704 0
M  V30 4631 H 448.893 -2.42672 -0.80895 0
M  V30 4632 H 448.537 -4.72462 -1.86392 0
M  V30 4633 H 448.467 -3.95982 -3.4714 0
M  V30 4634 H 450.958 -3.09145 -2.17343 0
M  V30 4635 H 451.271 -6.66086 -3.91854 0
M  V30 4636 H 449.616 -5.98676 -3.53003 0
M  V30 4637 H 452.807 -3.87717 -2.62284 0
M  V30 4638 H 452.98 -5.50473 -3.41881 0
M  V30 4639 N 446.386 1.0089 -1.21074 0
M  V30 4640 C 447.296 2.13039 -0.982425 0
M  V30 4641 C 448.312 1.73881 0.0642161 0
M  V30 4642 O 449.488 2.01012 -0.12496 0
M  V30 4643 C 446.553 3.42377 -0.545803 0
M  V30 4644 C 445.614 3.95731 -1.6642 0
M  V30 4645 C 444.847 5.18896 -1.24832 0
M  V30 4646 O 445.07 5.70273 -0.120265 0
M  V30 4647 O 444.004 5.65597 -2.05873 0
M  V30 4648 H 447.83 2.35175 -1.92163 0
M  V30 4649 H 445.415 1.1142 -0.995285 0
M  V30 4650 H 447.297 4.20244 -0.311912 0
M  V30 4651 H 445.972 3.21639 0.364727 0
M  V30 4652 H 444.879 3.19108 -1.95246 0
M  V30 4653 H 446.212 4.20872 -2.55201 0
M  V30 4654 N 447.864 1.01787 1.20321 0
M  V30 4655 C 448.774 0.598898 2.26827 0
M  V30 4656 C 449.79 -0.36418 1.70146 0
M  V30 4657 O 450.966 -0.224812 2.00141 0
M  V30 4658 C 448.031 -0.0549769 3.46656 0
M  V30 4659 C 447.092 0.954205 4.18561 0
M  V30 4660 C 446.325 0.331439 5.3267 0
M  V30 4661 O 446.548 -0.86851 5.63749 0
M  V30 4662 O 445.482 1.0488 5.92692 0
M  V30 4663 H 449.308 1.48562 2.64883 0
M  V30 4664 H 446.893 0.787434 1.26964 0
M  V30 4665 H 448.775 -0.420102 4.19301 0
M  V30 4666 H 447.45 -0.915876 3.10473 0
M  V30 4667 H 446.357 1.37072 3.48083 0
M  V30 4668 H 447.69 1.78511 4.58688 0
M  V30 4669 N 449.342 -1.36122 0.79427 0
M  V30 4670 C 450.591 -1.98361 0.365464 0
M  V30 4671 C 450.904 -1.6374 -1.06997 0
M  V30 4672 O 452.11 -2.19251 -1.60129 0
M  V30 4673 C 450.566 -3.54821 0.602496 0
M  V30 4674 C 450.174 -3.98362 2.04967 0
M  V30 4675 C 451.918 -4.2383 0.238437 0
M  V30 4676 C 449.825 -5.47619 2.2331 0
M  V30 4677 H 448.755 -0.742193 0.13291 0
M  V30 4678 H 451.406 -1.55354 0.976589 0
M  V30 4679 H 449.788 -3.95922 -0.078409 0
M  V30 4680 H 450.962 -3.68447 2.76737 0
M  V30 4681 H 449.277 -3.42206 2.37243 0
M  V30 4682 H 451.874 -5.33529 0.353705 0
M  V30 4683 H 452.217 -4.08264 -0.814006 0
M  V30 4684 H 452.75 -3.88108 0.872769 0
M  V30 4685 H 449.489 -5.68138 3.26955 0
M  V30 4686 H 449.009 -5.79145 1.5605 0
M  V30 4687 H 450.688 -6.13911 2.0426 0
M  V30 4688 N 450.82 -0.546701 -1.47814 0
M  V30 4689 C 451.752 0.244196 -2.27895 0
M  V30 4690 C 452.765 0.88911 -1.36377 0
M  V30 4691 O 453.954 0.764733 -1.61289 0
M  V30 4692 C 451.054 1.36252 -3.10304 0
M  V30 4693 C 450.227 0.816382 -4.29714 0
M  V30 4694 C 449.286 1.81789 -4.93801 0
M  V30 4695 O 448.312 1.36818 -5.52512 0
M  V30 4696 N 449.514 3.15085 -4.87547 0
M  V30 4697 H 452.279 -0.442694 -2.96412 0
M  V30 4698 H 449.84 -0.382095 -1.57327 0
M  V30 4699 H 451.832 2.03102 -3.50045 0
M  V30 4700 H 450.402 1.95281 -2.44099 0
M  V30 4701 H 449.622 -0.0285981 -3.9419 0
M  V30 4702 H 450.91 0.430668 -5.06974 0
M  V30 4703 H 450.308 3.54275 -4.41028 0
M  V30 4704 H 448.865 3.77522 -5.31339 0
M  V30 4705 N 452.299 1.55045 -0.282633 0
M  V30 4706 C 453.209 2.26491 0.61147 0
M  V30 4707 C 454.225 1.29348 1.16384 0
M  V30 4708 O 455.401 1.62298 1.19253 0
M  V30 4709 C 452.466 2.97779 1.77563 0
M  V30 4710 C 451.527 4.10418 1.25919 0
M  V30 4711 C 450.76 4.78297 2.36786 0
M  V30 4712 O 450.983 4.45426 3.56303 0
M  V30 4713 O 449.917 5.66089 2.04517 0
M  V30 4714 H 453.743 3.03683 0.0324615 0
M  V30 4715 H 451.328 1.49317 -0.0497576 0
M  V30 4716 H 453.21 3.42554 2.45427 0
M  V30 4717 H 451.885 2.23498 2.34159 0
M  V30 4718 H 450.792 3.70082 0.546797 0
M  V30 4719 H 452.125 4.86622 0.738887 0
M  V30 4720 N 453.777 0.010035 1.57597 0
M  V30 4721 C 455.023 -0.673697 1.91283 0
M  V30 4722 C 455.356 -1.72863 0.884979 0
M  V30 4723 O 454.631 -1.94268 -0.0949487 0
M  V30 4724 C 454.914 -1.30766 3.35518 0
M  V30 4725 C 454.767 -0.263578 4.49027 0
M  V30 4726 C 456.086 -2.23105 3.79358 0
M  V30 4727 H 453.205 -0.243439 0.695634 0
M  V30 4728 H 455.847 0.0633864 1.89894 0
M  V30 4729 H 453.997 -1.93588 3.36832 0
M  V30 4730 H 455.669 0.365738 4.59848 0
M  V30 4731 H 453.912 0.413077 4.31829 0
M  V30 4732 H 454.583 -0.746398 5.4693 0
M  V30 4733 H 457.059 -1.70289 3.79659 0
M  V30 4734 H 455.935 -2.64424 4.81011 0
M  V30 4735 H 456.196 -3.11433 3.13787 0
M  V30 4736 N 455.255 -1.55392 -0.262866 0
M  V30 4737 C 456.671 -1.47459 -0.610582 0
M  V30 4738 C 456.871 -0.697031 -1.8906 0
M  V30 4739 O 455.927 -0.219952 -2.5154 0
M  V30 4740 C 457.24 -2.91751 -0.728131 0
M  V30 4741 C 458.788 -3.02027 -0.821517 0
M  V30 4742 C 459.263 -4.47594 -0.97076 0
M  V30 4743 N 460.754 -4.51465 -1.03603 0
M  V30 4744 C 461.489 -5.61326 -1.17049 0
M  V30 4745 N 460.985 -6.81032 -1.2715 0
M  V30 4746 N 462.778 -5.49089 -1.20239 0
M  V30 4747 H 454.929 -2.04395 0.577632 0
M  V30 4748 H 457.192 -0.927287 0.197086 0
M  V30 4749 H 456.898 -3.51413 0.142132 0
M  V30 4750 H 456.772 -3.4134 -1.6052 0
M  V30 4751 H 459.159 -2.42456 -1.68224 0
M  V30 4752 H 459.24 -2.55674 0.0803688 0
M  V30 4753 H 458.884 -5.07771 -0.114655 0
M  V30 4754 H 458.814 -4.91613 -1.88745 0
M  V30 4755 H 461.305 -3.6524 -0.96996 0
M  V30 4756 H 461.618 -7.60511 -1.37271 0
M  V30 4757 H 459.963 -6.83824 -1.24136 0
M  V30 4758 H 463.154 -4.54507 -1.11985 0
M  V30 4759 H 463.327 -6.34749 -1.30373 0
M  V30 4760 N 456.733 0.527833 -1.48498 0
M  V30 4761 C 457.958 1.313 -1.60546 0
M  V30 4762 C 458.383 1.86199 -0.26672 0
M  V30 4763 O 457.741 1.64513 0.761918 0
M  V30 4764 C 457.789 2.43818 -2.65678 0
M  V30 4765 O 456.893 3.46916 -2.22987 0
M  V30 4766 H 456.234 0.388784 -0.538277 0
M  V30 4767 H 458.764 0.634896 -1.945 0
M  V30 4768 H 458.774 2.89973 -2.87018 0
M  V30 4769 H 457.449 2.03222 -3.62869 0
M  V30 4770 H 456.026 3.06864 -2.11869 0
M  V30 4771 N 458.211 1.37122 0.776871 0
M  V30 4772 C 459.158 1.3247 1.88998 0
M  V30 4773 C 460.128 0.191143 1.64997 0
M  V30 4774 O 461.313 0.379683 1.86984 0
M  V30 4775 C 458.453 1.13241 3.25992 0
M  V30 4776 C 457.566 2.35782 3.61982 0
M  V30 4777 C 456.701 2.09465 4.88158 0
M  V30 4778 C 455.74 3.279 5.16864 0
M  V30 4779 N 454.877 3.01167 6.34226 0
M  V30 4780 H 459.717 2.27642 1.9231 0
M  V30 4781 H 457.254 1.13125 0.94027 0
M  V30 4782 H 459.212 1.00115 4.0501 0
M  V30 4783 H 457.842 0.217186 3.22069 0
M  V30 4784 H 456.894 2.59666 2.77989 0
M  V30 4785 H 458.206 3.24125 3.79137 0
M  V30 4786 H 457.36 1.93341 5.75069 0
M  V30 4787 H 456.099 1.18452 4.73097 0
M  V30 4788 H 455.104 3.44569 4.2843 0
M  V30 4789 H 456.329 4.19757 5.33836 0
M  V30 4790 H 454.275 2.12779 6.20533 0
M  V30 4791 H 454.192 3.83052 6.51772 0
M  V30 4792 H 455.46 2.88649 7.24087 0
M  V30 4793 N 459.689 -1.00246 1.21608 0
M  V30 4794 C 461.105 -1.26435 0.973975 0
M  V30 4795 C 461.305 -1.98642 -0.338143 0
M  V30 4796 O 460.361 -2.29026 -1.06317 0
M  V30 4797 C 461.674 -2.08551 2.16626 0
M  V30 4798 C 463.222 -2.21769 2.20879 0
M  V30 4799 C 463.697 -3.07267 3.39633 0
M  V30 4800 N 465.188 -3.14855 3.39736 0
M  V30 4801 C 465.923 -3.81274 4.28273 0
M  V30 4802 N 465.419 -4.497 5.27012 0
M  V30 4803 N 467.212 -3.7794 4.16074 0
M  V30 4804 H 459.363 -0.518089 2.05984 0
M  V30 4805 H 461.626 -0.291368 0.902113 0
M  V30 4806 H 461.332 -1.62847 3.11727 0
M  V30 4807 H 461.206 -3.09303 2.15897 0
M  V30 4808 H 463.593 -2.66691 1.26332 0
M  V30 4809 H 463.674 -1.20478 2.25652 0
M  V30 4810 H 463.318 -2.63047 4.34475 0
M  V30 4811 H 463.248 -4.08678 3.321 0
M  V30 4812 H 465.739 -2.66147 2.6828 0
M  V30 4813 H 466.052 -4.98092 5.90867 0
M  V30 4814 H 464.397 -4.48479 5.30935 0
M  V30 4815 H 467.588 -3.23638 3.38195 0
M  V30 4816 H 467.761 -4.29424 4.85282 0
M  V30 4817 N 461.167 -1.02423 -1.1978 0
M  V30 4818 C 462.444 -0.632802 -1.85081 0
M  V30 4819 C 462.824 0.888745 -1.9148 0
M  V30 4820 O 462.172 1.78357 -1.42832 0
M  V30 4821 C 462.382 -1.28947 -3.24305 0
M  V30 4822 C 463.73 -1.40976 -4.00513 0
M  V30 4823 O 464.754 -1.24628 -3.33686 0
M  V30 4824 O 463.613 -1.67467 -5.20209 0
M  V30 4825 H 460.707 -0.219348 -0.79738 0
M  V30 4826 H 463.253 -1.12209 -1.27307 0
M  V30 4827 H 462.025 -2.3288 -3.14456 0
M  V30 4828 H 461.648 -0.787748 -3.89718 0
M  V30 4829 N 462.645 1.35699 -0.801477 0
M  V30 4830 C 464.056 1.81415 -0.441073 0
M  V30 4831 C 464.407 1.66595 1.03636 0
M  V30 4832 O 463.532 1.19369 1.80499 0
M  V30 4833 C 464.127 3.29369 -0.793819 0
M  V30 4834 C 462.686 3.73248 -0.486083 0
M  V30 4835 C 461.833 2.57775 -1.02213 0
M  V30 4836 H 464.784 1.23749 -0.993572 0
M  V30 4837 H 464.805 3.80395 -0.0894158 0
M  V30 4838 H 464.317 3.40123 -1.86917 0
M  V30 4839 H 462.418 3.68046 0.580735 0
M  V30 4840 H 462.531 4.68222 -1.01513 0
M  V30 4841 H 460.895 2.50788 -0.444712 0
M  V30 4842 H 461.678 2.71309 -2.10348 0
M  V30 4843 N 464.123 0.554532 1.47522 0
M  V30 4844 C 465.372 0.0273458 2.01681 0
M  V30 4845 C 465.685 -1.32962 1.43459 0
M  V30 4846 O 466.891 -1.94657 1.89265 0
M  V30 4847 C 465.347 -0.00159057 3.599 0
M  V30 4848 C 464.955 1.35197 4.27113 0
M  V30 4849 C 466.699 -0.476311 4.21819 0
M  V30 4850 C 464.606 1.28229 5.77331 0
M  V30 4851 H 463.536 0.00645269 0.753972 0
M  V30 4852 H 466.187 0.701985 1.69542 0
M  V30 4853 H 464.569 -0.741821 3.8899 0
M  V30 4854 H 465.743 2.1097 4.09668 0
M  V30 4855 H 464.058 1.76441 3.77171 0
M  V30 4856 H 466.655 -0.5468 5.31897 0
M  V30 4857 H 466.998 -1.4877 3.8881 0
M  V30 4858 H 467.531 0.20898 3.97251 0
M  V30 4859 H 464.27 2.26959 6.14955 0
M  V30 4860 H 463.79 0.566314 5.97121 0
M  V30 4861 H 465.469 0.983226 6.39485 0
M  V30 4862 N 465.601 -1.54893 0.290851 0
M  V30 4863 C 466.85 -1.99111 -0.322113 0
M  V30 4864 C 467.163 -1.18283 -1.55784 0
M  V30 4865 O 468.369 -1.5272 -2.24475 0
M  V30 4866 C 466.825 -3.54442 -0.624438 0
M  V30 4867 C 466.433 -4.44066 0.592373 0
M  V30 4868 C 468.177 -4.07211 -1.19916 0
M  V30 4869 C 466.084 -5.90812 0.263762 0
M  V30 4870 H 465.014 -0.743712 -0.124133 0
M  V30 4871 H 467.665 -1.79132 0.39797 0
M  V30 4872 H 466.047 -3.70281 -1.40384 0
M  V30 4873 H 467.221 -4.39999 1.36886 0
M  V30 4874 H 465.536 -4.02015 1.08502 0
M  V30 4875 H 468.133 -5.14407 -1.45909 0
M  V30 4876 H 468.476 -3.57196 -2.13815 0
M  V30 4877 H 469.009 -3.94873 -0.481687 0
M  V30 4878 H 465.748 -6.44955 1.17105 0
M  V30 4879 H 465.268 -5.97911 -0.475655 0
M  V30 4880 H 466.947 -6.46852 -0.138354 0
M  V30 4881 N 467.08 -0.0183926 -1.57589 0
M  V30 4882 C 468.329 0.66185 -1.90532 0
M  V30 4883 C 468.642 1.73904 -0.895366 0
M  V30 4884 O 469.848 2.47518 -1.11566 0
M  V30 4885 C 468.304 1.22844 -3.38286 0
M  V30 4886 C 467.912 0.185103 -4.47617 0
M  V30 4887 C 469.656 1.88581 -3.80312 0
M  V30 4888 C 467.563 0.762723 -5.86461 0
M  V30 4889 H 466.493 0.250972 -0.711006 0
M  V30 4890 H 469.144 -0.0819435 -1.83317 0
M  V30 4891 H 467.526 2.0235 -3.40398 0
M  V30 4892 H 468.7 -0.58671 -4.5705 0
M  V30 4893 H 467.015 -0.372889 -4.14727 0
M  V30 4894 H 469.612 2.32735 -4.81392 0
M  V30 4895 H 469.955 2.72408 -3.14801 0
M  V30 4896 H 470.488 1.15782 -3.80578 0
M  V30 4897 H 467.227 -0.0371713 -6.55489 0
M  V30 4898 H 466.747 1.50327 -5.80656 0
M  V30 4899 H 468.426 1.25576 -6.34697 0
M  V30 4900 N 468.558 1.5553 0.254621 0
M  V30 4901 C 469.488 1.9268 1.31897 0
M  V30 4902 C 470.469 0.790797 1.506 0
M  V30 4903 O 471.654 1.05045 1.63337 0
M  V30 4904 C 468.784 2.21477 2.67517 0
M  V30 4905 C 467.738 3.37256 2.63519 0
M  V30 4906 C 467.064 3.51576 4.02862 0
M  V30 4907 C 468.364 4.73157 2.21179 0
M  V30 4908 H 470.058 2.81832 1.01051 0
M  V30 4909 H 467.604 1.35599 0.484662 0
M  V30 4910 H 469.557 2.46055 3.42104 0
M  V30 4911 H 468.281 1.29144 2.99982 0
M  V30 4912 H 466.94 3.12675 1.9139 0
M  V30 4913 H 466.588 2.56676 4.32581 0
M  V30 4914 H 466.288 4.2943 4.01078 0
M  V30 4915 H 467.812 3.78467 4.79161 0
M  V30 4916 H 469.226 4.97158 2.85494 0
M  V30 4917 H 467.623 5.54058 2.30521 0
M  V30 4918 H 468.693 4.70739 1.16332 0
M  V30 4919 N 470.036 -0.519951 1.48776 0
M  V30 4920 C 470.968 -1.63973 1.60142 0
M  V30 4921 C 471.981 -1.55404 0.485117 0
M  V30 4922 O 473.17 -1.61682 0.756391 0
M  V30 4923 C 470.27 -3.02676 1.52449 0
M  V30 4924 C 469.443 -3.36624 2.79291 0
M  V30 4925 C 468.502 -4.54652 2.64912 0
M  V30 4926 O 467.528 -4.57374 3.38818 0
M  V30 4927 N 468.73 -5.53432 1.75195 0
M  V30 4928 H 471.495 -1.54656 2.56713 0
M  V30 4929 H 469.056 -0.707439 1.45626 0
M  V30 4930 H 471.048 -3.79525 1.4051 0
M  V30 4931 H 469.618 -3.06018 0.638125 0
M  V30 4932 H 468.838 -2.48855 3.0572 0
M  V30 4933 H 470.126 -3.56094 3.6342 0
M  V30 4934 H 469.524 -5.54018 1.14371 0
M  V30 4935 H 468.081 -6.29459 1.69189 0
M  V30 4936 N 471.514 -1.37532 -0.769588 0
M  V30 4937 C 472.791 -1.23392 -1.51768 0
M  V30 4938 C 473.171 0.17157 -2.10402 0
M  V30 4939 O 472.519 1.17943 -1.95708 0
M  V30 4940 C 472.729 -2.33163 -2.59685 0
M  V30 4941 C 474.077 -2.70809 -3.27028 0
M  V30 4942 O 475.101 -2.32355 -2.69981 0
M  V30 4943 O 473.96 -3.37066 -4.30173 0
M  V30 4944 H 471.054 -0.481617 -0.67229 0
M  V30 4945 H 473.6 -1.49318 -0.806368 0
M  V30 4946 H 472.372 -3.27273 -2.14494 0
M  V30 4947 H 471.995 -2.08713 -3.38415 0
M  V30 4948 N 472.992 0.995999 -1.22138 0
M  V30 4949 C 474.408 1.25917 -0.980667 0
M  V30 4950 C 474.608 1.98819 0.327604 0
M  V30 4951 O 473.664 2.29587 1.05101 0
M  V30 4952 C 474.977 2.07399 -2.17729 0
M  V30 4953 C 476.525 2.20594 -2.22052 0
M  V30 4954 C 477 3.05462 -3.41258 0
M  V30 4955 N 478.491 3.13049 -3.41401 0
M  V30 4956 C 479.226 3.78997 -4.30289 0
M  V30 4957 N 478.722 4.46899 -5.2939 0
M  V30 4958 N 480.515 3.75728 -4.18073 0
M  V30 4959 H 472.666 0.507158 -2.06256 0
M  V30 4960 H 474.929 0.28658 -0.903646 0
M  V30 4961 H 474.635 1.61191 -3.12586 0
M  V30 4962 H 474.509 3.08154 -2.17534 0
M  V30 4963 H 476.896 2.66017 -1.27745 0
M  V30 4964 H 476.977 1.1928 -2.26287 0
M  V30 4965 H 476.621 2.60739 -4.35864 0
M  V30 4966 H 476.551 4.06911 -3.34262 0
M  V30 4967 H 479.042 2.64721 -2.69688 0
M  V30 4968 H 479.355 4.94952 -5.935 0
M  V30 4969 H 477.7 4.45657 -5.33306 0
M  V30 4970 H 480.891 3.2184 -3.39907 0
M  V30 4971 H 481.064 4.26845 -4.87553 0
M  V30 4972 N 474.47 1.03057 1.19235 0
M  V30 4973 C 475.403 0.557384 2.21288 0
M  V30 4974 C 476.381 -0.402675 1.57535 0
M  V30 4975 O 477.565 -0.319376 1.85775 0
M  V30 4976 C 474.692 -0.187041 3.38183 0
M  V30 4977 C 473.738 0.72471 4.20298 0
M  V30 4978 S 474.571 2.20187 4.88137 0
M  V30 4979 C 475.727 1.46801 6.08441 0
M  V30 4980 H 475.96 1.42207 2.61083 0
M  V30 4981 H 473.493 0.840651 1.29508 0
M  V30 4982 H 475.451 -0.610405 4.05936 0
M  V30 4983 H 474.112 -1.02748 2.96819 0
M  V30 4984 H 473.305 0.149911 5.03777 0
M  V30 4985 H 472.907 1.08647 3.57871 0
M  V30 4986 H 475.199 0.755522 6.73274 0
M  V30 4987 H 476.142 2.27946 6.70407 0
M  V30 4988 H 476.55 0.964762 5.56195 0
M  V30 4989 N 475.948 -1.35272 0.808662 0
M  V30 4990 C 477.194 -1.99003 0.390581 0
M  V30 4991 C 477.527 -1.63999 -1.0401 0
M  V30 4992 O 476.802 -0.904368 -1.72196 0
M  V30 4993 C 477.085 -3.55454 0.576566 0
M  V30 4994 C 476.938 -4.00249 2.05233 0
M  V30 4995 C 478.257 -4.401 0.00354277 0
M  V30 4996 H 475.376 -0.722917 0.143388 0
M  V30 4997 H 478.018 -1.6039 1.01858 0
M  V30 4998 H 476.168 -3.88477 0.0419766 0
M  V30 4999 H 477.84 -3.77626 2.64946 0
M  V30 5000 H 476.083 -3.51082 2.54801 0
M  V30 5001 H 476.754 -5.0911 2.13333 0
M  V30 5002 H 479.23 -4.13548 0.460117 0
M  V30 5003 H 478.106 -5.48656 0.163575 0
M  V30 5004 H 478.367 -4.28444 -1.09032 0
M  V30 5005 N 477.426 -0.562348 -1.47226 0
M  V30 5006 C 478.374 0.195476 -2.31777 0
M  V30 5007 C 479.368 0.90433 -1.43242 0
M  V30 5008 O 480.574 0.825031 -1.59979 0
M  V30 5009 H 476.949 0.0819095 -0.747526 0
M  V30 5010 H 478.92 -0.536753 -2.93533 0
M  V30 5011 C 477.669 1.20902 -3.26003 0
M  V30 5012 H 476.992 0.672997 -3.94095 0
M  V30 5013 H 478.432 1.71006 -3.87986 0
M  V30 5014 C 476.891 2.25955 -2.49891 0
M  V30 5015 O 477.421 3.32969 -2.2471 0
M  V30 5016 N 475.627 2.00019 -2.1081 0
M  V30 5017 H 475.174 1.13006 -2.31489 0
M  V30 5018 H 475.132 2.70523 -1.60201 0
M  V30 5019 N 478.904 1.54736 -0.299062 0
M  V30 5020 C 480.129 2.04975 0.316254 0
M  V30 5021 C 480.554 1.17501 1.46885 0
M  V30 5022 O 479.912 0.178678 1.80417 0
M  V30 5023 C 479.96 3.52672 0.751997 0
M  V30 5024 O 479.064 3.68226 1.85697 0
M  V30 5025 H 478.405 0.661126 0.0617175 0
M  V30 5026 H 480.935 1.99805 -0.440341 0
M  V30 5027 H 480.945 3.94488 1.04133 0
M  V30 5028 H 479.62 4.158 -0.0911482 0
M  V30 5029 H 478.197 3.38316 1.56834 0
M  V30 5030 N 480.382 0.0267497 1.57577 0
M  V30 5031 C 481.329 -0.955894 2.10075 0
M  V30 5032 C 482.299 -1.32453 1.00226 0
M  V30 5033 O 483.484 -1.41826 1.27632 0
M  V30 5034 C 480.624 -2.2338 2.6305 0
M  V30 5035 C 479.737 -1.92183 3.86898 0
M  V30 5036 C 478.872 -3.14251 4.28275 0
M  V30 5037 C 477.911 -2.78862 5.44888 0
M  V30 5038 N 477.048 -3.93548 5.81433 0
M  V30 5039 H 481.888 -0.501303 2.93753 0
M  V30 5040 H 479.425 -0.235847 1.45197 0
M  V30 5041 H 481.383 -2.98124 2.91853 0
M  V30 5042 H 480.013 -2.6646 1.82205 0
M  V30 5043 H 479.065 -1.07692 3.64838 0
M  V30 5044 H 480.377 -1.62117 4.7172 0
M  V30 5045 H 479.531 -3.97317 4.58502 0
M  V30 5046 H 478.27 -3.47476 3.42215 0
M  V30 5047 H 477.275 -1.94208 5.14357 0
M  V30 5048 H 478.5 -2.46855 6.32645 0
M  V30 5049 H 476.446 -4.2662 4.98328 0
M  V30 5050 H 476.363 -3.67098 6.6089 0
M  V30 5051 H 477.631 -4.77325 6.16264 0
M  V30 5052 N 481.861 -1.55662 -0.24637 0
M  V30 5053 C 482.791 -1.93377 -1.30873 0
M  V30 5054 C 483.772 -0.798773 -1.50179 0
M  V30 5055 O 484.957 -1.0591 -1.62778 0
M  V30 5056 C 482.087 -2.22893 -2.66338 0
M  V30 5057 C 481.041 -3.38649 -2.61727 0
M  V30 5058 C 480.367 -3.53708 -4.00992 0
M  V30 5059 C 481.667 -4.74323 -2.18666 0
M  V30 5060 H 483.361 -2.82363 -0.995552 0
M  V30 5061 H 480.907 -1.35854 -0.477464 0
M  V30 5062 H 482.86 -2.47866 -3.40794 0
M  V30 5063 H 481.584 -1.30733 -2.99293 0
M  V30 5064 H 480.243 -3.13685 -1.89729 0
M  V30 5065 H 479.891 -2.58967 -4.31214 0
M  V30 5066 H 479.591 -4.31551 -3.98795 0
M  V30 5067 H 481.115 -3.81003 -4.77147 0
M  V30 5068 H 482.529 -4.98665 -2.82854 0
M  V30 5069 H 480.926 -5.55273 -2.27579 0
M  V30 5070 H 481.996 -4.71349 -1.13834 0
M  V30 5071 N 483.339 0.512053 -1.4905 0
M  V30 5072 C 484.302 1.59704 -1.64399 0
M  V30 5073 C 485.302 1.52285 -0.516317 0
M  V30 5074 O 486.492 1.55635 -0.782527 0
M  V30 5075 C 483.624 2.9935 -1.63102 0
M  V30 5076 H 484.817 1.47428 -2.61161 0
M  V30 5077 H 482.37 0.735469 -1.37915 0
M  V30 5078 H 483.105 3.17116 -0.678836 0
M  V30 5079 H 482.89 3.06144 -2.44986 0
M  V30 5080 H 484.38 3.782 -1.77072 0
M  V30 5081 N 484.817 1.37938 0.762283 0
M  V30 5082 C 486.045 1.36883 1.55147 0
M  V30 5083 C 486.46 -0.0435348 1.8875 0
M  V30 5084 O 485.817 -1.00786 1.52146 0
M  V30 5085 C 485.868 2.21624 2.85596 0
M  V30 5086 O 485.589 3.57358 2.5343 0
M  V30 5087 C 487.09 2.28653 3.7978 0
M  V30 5088 H 484.31 0.468521 0.480343 0
M  V30 5089 H 486.854 1.81404 0.944079 0
M  V30 5090 H 485.009 1.80588 3.42734 0
M  V30 5091 H 485.423 4.01883 3.37032 0
M  V30 5092 H 486.897 2.9225 4.68288 0
M  V30 5093 H 487.374 1.29767 4.19592 0
M  V30 5094 H 487.98 2.70043 3.28568 0
M  V30 5095 N 486.295 -0.989507 1.22664 0
M  V30 5096 C 487.541 -1.7321 1.05481 0
M  V30 5097 C 487.874 -1.89852 -0.408635 0
M  V30 5098 O 487.149 -1.44416 -1.30285 0
M  V30 5099 C 487.432 -3.1357 1.77047 0
M  V30 5100 C 487.285 -3.04555 3.31008 0
M  V30 5101 C 488.604 -4.12812 1.5256 0
M  V30 5102 H 485.723 -0.628697 0.384589 0
M  V30 5103 H 488.365 -1.15258 1.51049 0
M  V30 5104 H 486.515 -3.63046 1.3831 0
M  V30 5105 H 488.187 -2.62674 3.7921 0
M  V30 5106 H 486.43 -2.41278 3.6051 0
M  V30 5107 H 487.101 -4.03894 3.76263 0
M  V30 5108 H 489.577 -3.72106 1.86215 0
M  V30 5109 H 488.453 -5.09132 2.05124 0
M  V30 5110 H 488.714 -4.39711 0.458936 0
M  V30 5111 N 487.773 -1.03688 -1.18687 0
M  V30 5112 C 488.683 -0.634908 -2.25845 0
M  V30 5113 C 489.699 0.337065 -1.70704 0
M  V30 5114 O 490.875 0.192943 -2.00474 0
M  V30 5115 C 487.94 -0.000180054 -3.467 0
M  V30 5116 C 487.001 -1.02067 -4.1699 0
M  V30 5117 C 486.234 -0.41614 -5.32075 0
M  V30 5118 O 486.457 0.778712 -5.65059 0
M  V30 5119 O 485.391 -1.14296 -5.90948 0
M  V30 5120 H 489.217 -1.52757 -2.62486 0
M  V30 5121 H 486.802 -0.807533 -1.25695 0
M  V30 5122 H 488.684 0.353342 -4.19916 0
M  V30 5123 H 487.359 0.866367 -3.11891 0
M  V30 5124 H 486.266 -1.42592 -3.45859 0
M  V30 5125 H 487.599 -1.85786 -4.5579 0
M  V30 5126 N 489.251 1.34841 -0.815825 0
M  V30 5127 C 490.161 2.33425 -0.234462 0
M  V30 5128 C 491.177 1.62295 0.627413 0
M  V30 5129 O 492.353 1.94109 0.536987 0
M  V30 5130 C 489.418 3.41471 0.599849 0
M  V30 5131 C 488.479 4.28362 -0.283596 0
M  V30 5132 C 487.712 5.31248 0.51099 0
M  V30 5133 O 487.935 5.43056 1.7449 0
M  V30 5134 O 486.869 6.01812 -0.10297 0
M  V30 5135 H 490.695 2.84962 -1.05024 0
M  V30 5136 H 488.28 1.37774 -0.577809 0
M  V30 5137 H 490.162 4.07464 1.07475 0
M  V30 5138 H 488.837 2.9219 1.39308 0
M  V30 5139 H 487.744 3.65318 -0.805836 0
M  V30 5140 H 489.077 4.81066 -1.041 0
M  V30 5141 N 490.729 0.570148 1.46925 0
M  V30 5142 C 491.659 -0.158274 2.32963 0
M  V30 5143 C 492.64 -0.896093 1.44583 0
M  V30 5144 O 493.825 -0.874022 1.7342 0
M  V30 5145 C 490.955 -1.18055 3.26619 0
M  V30 5146 C 489.909 -0.558379 4.24342 0
M  V30 5147 C 489.235 -1.68623 5.07415 0
M  V30 5148 C 490.535 0.496295 5.19937 0
M  V30 5149 H 492.229 0.560046 2.94115 0
M  V30 5150 H 489.775 0.270775 1.41431 0
M  V30 5151 H 491.728 -1.69841 3.85658 0
M  V30 5152 H 490.452 -1.92899 2.63548 0
M  V30 5153 H 489.111 -0.0617157 3.66548 0
M  V30 5154 H 488.759 -2.42402 4.40738 0
M  V30 5155 H 488.459 -1.27564 5.73586 0
M  V30 5156 H 489.983 -2.20709 5.69315 0
M  V30 5157 H 491.397 0.0640052 5.73264 0
M  V30 5158 H 489.794 0.82649 5.94381 0
M  V30 5159 H 490.864 1.38735 4.6463 0
M  V30 5160 N 492.207 -1.54576 0.307264 0
M  V30 5161 C 493.154 -2.23751 -0.56604 0
M  V30 5162 C 494.124 -1.22235 -1.12462 0
M  V30 5163 O 495.309 -1.50873 -1.16799 0
M  V30 5164 C 492.449 -2.98661 -1.72903 0
M  V30 5165 C 491.562 -4.14963 -1.20124 0
M  V30 5166 C 490.697 -4.77441 -2.3286 0
M  V30 5167 C 489.736 -5.85875 -1.77247 0
M  V30 5168 N 488.873 -6.42282 -2.8358 0
M  V30 5169 H 493.713 -2.97984 0.0304578 0
M  V30 5170 H 491.25 -1.47076 0.0268015 0
M  V30 5171 H 493.208 -3.40329 -2.41313 0
M  V30 5172 H 491.838 -2.26793 -2.29706 0
M  V30 5173 H 490.89 -3.78193 -0.409198 0
M  V30 5174 H 492.202 -4.93066 -0.754171 0
M  V30 5175 H 491.356 -5.21993 -3.09205 0
M  V30 5176 H 490.095 -3.98684 -2.80896 0
M  V30 5177 H 489.1 -5.40741 -0.993926 0
M  V30 5178 H 490.325 -6.6652 -1.30107 0
M  V30 5179 H 488.271 -5.66406 -3.30939 0
M  V30 5180 H 488.188 -7.1575 -2.43388 0
M  V30 5181 H 489.456 -6.91492 -3.59804 0
M  V30 5182 N 493.685 -0.035106 -1.57561 0
M  V30 5183 C 494.595 0.960295 -2.14046 0
M  V30 5184 C 495.611 1.3529 -1.0942 0
M  V30 5185 O 496.787 1.43309 -1.41508 0
M  V30 5186 C 493.852 2.22214 -2.66124 0
M  V30 5187 C 492.913 1.8894 -3.85487 0
M  V30 5188 C 492.146 3.09109 -4.35072 0
M  V30 5189 O 492.369 4.21963 -3.83802 0
M  V30 5190 O 491.303 2.91058 -5.26848 0
M  V30 5191 H 495.129 0.509983 -2.99387 0
M  V30 5192 H 492.714 0.185853 -1.48239 0
M  V30 5193 H 494.596 2.96279 -2.99661 0
M  V30 5194 H 493.271 2.66414 -1.83862 0
M  V30 5195 H 492.178 1.12241 -3.56865 0
M  V30 5196 H 493.511 1.49551 -4.6893 0
M  V30 5197 N 495.163 1.55791 0.238111 0
M  V30 5198 C 496.412 1.77234 0.962868 0
M  V30 5199 C 496.725 0.600661 1.86149 0
M  V30 5200 O 497.931 0.698315 2.62366 0
M  V30 5201 C 496.387 3.13808 1.76218 0
M  V30 5202 C 495.995 4.3865 0.910518 0
M  V30 5203 C 497.739 3.44585 2.47914 0
M  V30 5204 C 495.646 5.66252 1.70623 0
M  V30 5205 H 494.576 0.660731 0.36325 0
M  V30 5206 H 497.227 1.8221 0.217242 0
M  V30 5207 H 495.609 3.02963 2.55009 0
M  V30 5208 H 496.783 4.60507 0.164316 0
M  V30 5209 H 495.098 4.15271 0.30647 0
M  V30 5210 H 497.695 4.3714 3.07917 0
M  V30 5211 H 498.038 2.66314 3.19973 0
M  V30 5212 H 498.571 3.56685 1.76127 0
M  V30 5213 H 495.31 6.47369 1.02923 0
M  V30 5214 H 494.83 5.48483 2.42748 0
M  V30 5215 H 496.509 6.05829 2.27114 0
M  V30 5216 N 496.642 -0.504142 1.49319 0
M  V30 5217 C 497.89 -1.25598 1.58334 0
M  V30 5218 C 498.211 -1.93114 0.270538 0
M  V30 5219 O 497.481 -1.82585 -0.709891 0
M  V30 5220 H 496.061 -0.466571 0.58337 0
M  V30 5221 H 498.723 -0.584547 1.85928 0
M  V30 5222 H 497.819 -2.02159 2.37778 0
M  V30 5223 N 498.12 -1.38341 -0.754957 0
M  V30 5224 C 499.083 -1.35262 -1.85032 0
M  V30 5225 C 500.083 -0.253393 -1.58791 0
M  V30 5226 O 501.273 -0.510205 -1.66561 0
M  V30 5227 C 498.405 -1.10544 -3.22479 0
M  V30 5228 H 499.598 -2.32712 -1.8917 0
M  V30 5229 H 497.151 -1.23614 -0.956515 0
M  V30 5230 H 497.886 -0.136952 -3.24011 0
M  V30 5231 H 497.671 -1.90127 -3.4292 0
M  V30 5232 H 499.161 -1.11082 -4.02555 0
M  V30 5233 N 499.598 0.982988 -1.23187 0
M  V30 5234 C 500.508 2.10907 -1.02739 0
M  V30 5235 C 501.524 1.73979 0.0273188 0
M  V30 5236 O 502.7 2.00702 -0.16757 0
M  V30 5237 C 499.765 3.41142 -0.618304 0
M  V30 5238 C 498.826 3.92112 -1.74777 0
M  V30 5239 C 498.059 5.16131 -1.3581 0
M  V30 5240 O 498.282 5.6989 -0.241201 0
M  V30 5241 O 497.216 5.61103 -2.17824 0
M  V30 5242 H 501.042 2.31046 -1.97108 0
M  V30 5243 H 498.627 1.09284 -1.01869 0
M  V30 5244 H 500.509 4.19488 -0.400982 0
M  V30 5245 H 499.184 3.2234 0.296421 0
M  V30 5246 H 498.091 3.14895 -2.0197 0
M  V30 5247 H 499.424 4.15364 -2.64071 0
M  V30 5248 N 501.076 1.04316 1.18135 0
M  V30 5249 C 502.322 0.749128 1.88457 0
M  V30 5250 C 502.655 -0.72149 1.803 0
M  V30 5251 O 501.93 -1.52676 1.205 0
M  V30 5252 C 502.213 1.21905 3.38838 0
M  V30 5253 C 502.066 2.75195 3.55792 0
M  V30 5254 C 503.385 0.811085 4.32561 0
M  V30 5255 H 500.504 0.273611 0.684329 0
M  V30 5256 H 503.146 1.29561 1.38975 0
M  V30 5257 H 501.296 0.754137 3.8111 0
M  V30 5258 H 502.968 3.29743 3.22595 0
M  V30 5259 H 501.211 3.14899 2.98364 0
M  V30 5260 H 501.882 3.03135 4.61317 0
M  V30 5261 H 504.358 1.21118 3.98082 0
M  V30 5262 H 503.234 1.16761 5.36338 0
M  V30 5263 H 503.495 -0.285596 4.41177 0
M  V30 5264 N 502.554 -1.34406 0.822964 0
M  V30 5265 C 503.97 -1.51275 0.508727 0
M  V30 5266 C 504.17 -1.76776 -0.967083 0
M  V30 5267 O 503.226 -1.81871 -1.75155 0
M  V30 5268 C 504.539 -2.67765 1.36829 0
M  V30 5269 C 506.087 -2.81647 1.36542 0
M  V30 5270 C 506.562 -4.01181 2.20947 0
M  V30 5271 N 508.053 -4.08388 2.18571 0
M  V30 5272 C 508.788 -5.00036 2.80627 0
M  V30 5273 N 508.284 -5.96906 3.51674 0
M  V30 5274 N 510.077 -4.92908 2.70181 0
M  V30 5275 H 502.228 -1.16113 1.77852 0
M  V30 5276 H 504.491 -0.56947 0.757897 0
M  V30 5277 H 504.197 -2.55551 2.41633 0
M  V30 5278 H 504.071 -3.62779 1.03303 0
M  V30 5279 H 506.458 -2.93303 0.325163 0
M  V30 5280 H 506.539 -1.87443 1.74066 0
M  V30 5281 H 506.183 -3.90286 3.25022 0
M  V30 5282 H 506.113 -4.94599 1.80774 0
M  V30 5283 H 508.604 -3.39051 1.66891 0
M  V30 5284 H 508.917 -6.63468 3.96271 0
M  V30 5285 H 507.262 -5.9703 3.5578 0
M  V30 5286 H 510.453 -4.1619 2.14251 0
M  V30 5287 H 510.626 -5.64137 3.18831 0
M  V30 5288 N 504.032 -0.577932 -1.46621 0
M  V30 5289 C 504.979 0.158048 -2.30258 0
M  V30 5290 C 505.949 0.888669 -1.40328 0
M  V30 5291 O 507.134 0.880283 -1.6928 0
M  V30 5292 C 504.274 1.16884 -3.24703 0
M  V30 5293 C 503.387 0.442163 -4.29731 0
M  V30 5294 C 502.522 1.44007 -5.11308 0
M  V30 5295 C 501.561 0.69952 -6.0809 0
M  V30 5296 N 500.698 1.64525 -6.82551 0
M  V30 5297 H 505.538 -0.561242 -2.92667 0
M  V30 5298 H 503.075 -0.288591 -1.44241 0
M  V30 5299 H 505.033 1.7677 -3.779 0
M  V30 5300 H 503.663 1.85591 -2.64113 0
M  V30 5301 H 502.715 -0.271632 -3.79429 0
M  V30 5302 H 504.027 -0.136992 -4.98612 0
M  V30 5303 H 503.181 2.11186 -5.68758 0
M  V30 5304 H 501.92 2.05315 -4.42377 0
M  V30 5305 H 500.925 0.0139217 -5.49798 0
M  V30 5306 H 502.15 0.091894 -6.79038 0
M  V30 5307 H 500.096 2.24653 -6.16334 0
M  V30 5308 H 500.013 1.11878 -7.47676 0
M  V30 5309 H 501.281 2.30754 -7.44562 0
M  V30 5310 N 505.51 1.54411 -0.315457 0
M  V30 5311 C 506.42 2.27737 0.56329 0
M  V30 5312 C 507.436 1.31787 1.13614 0
M  V30 5313 O 508.612 1.64791 1.15784 0
M  V30 5314 C 505.677 3.01478 1.71207 0
M  V30 5315 C 504.738 4.12997 1.17185 0
M  V30 5316 C 503.971 4.83212 2.26588 0
M  V30 5317 O 504.194 4.52884 3.46775 0
M  V30 5318 O 503.128 5.70299 1.92463 0
M  V30 5319 H 506.954 3.03683 -0.0319614 0
M  V30 5320 H 504.539 1.49178 -0.0814188 0
M  V30 5321 H 506.421 3.47683 2.38106 0
M  V30 5322 H 505.096 2.28414 2.29366 0
M  V30 5323 H 504.003 3.71159 0.468174 0
M  V30 5324 H 505.336 4.8808 0.635501 0
M  V30 5325 N 506.988 0.0434614 1.5754 0
M  V30 5326 C 508.237 -0.631454 1.91561 0
M  V30 5327 C 508.55 -1.72457 0.92292 0
M  V30 5328 O 509.756 -2.45712 1.15489 0
M  V30 5329 C 508.212 -1.17447 3.40197 0
M  V30 5330 C 507.82 -0.113867 4.47855 0
M  V30 5331 C 509.564 -1.82507 3.83264 0
M  V30 5332 C 507.471 -0.669326 5.876 0
M  V30 5333 H 506.401 -0.239629 0.714908 0
M  V30 5334 H 509.052 0.111097 1.83163 0
M  V30 5335 H 507.434 -1.96909 3.43574 0
M  V30 5336 H 508.608 0.659348 4.56058 0
M  V30 5337 H 506.923 0.438821 4.14081 0
M  V30 5338 H 509.52 -2.25047 4.85034 0
M  V30 5339 H 509.863 -2.67365 3.19095 0
M  V30 5340 H 510.396 -1.09712 3.82372 0
M  V30 5341 H 507.135 0.141449 6.55347 0
M  V30 5342 H 506.655 -1.4107 5.82974 0
M  V30 5343 H 508.334 -1.15463 6.36614 0
M  V30 5344 N 508.466 -1.55915 -0.229846 0
M  V30 5345 C 509.743 -1.6932 -0.979295 0
M  V30 5346 C 510.123 -0.588321 -2.02736 0
M  V30 5347 O 509.471 0.40586 -2.24867 0
M  V30 5348 C 509.681 -3.10305 -1.59724 0
M  V30 5349 C 511.029 -3.6945 -2.09264 0
M  V30 5350 O 512.053 -3.13214 -1.69633 0
M  V30 5351 O 510.912 -4.68072 -2.82082 0
M  V30 5352 H 508.006 -0.689314 -0.456919 0
M  V30 5353 H 510.552 -1.68238 -0.222283 0
M  V30 5354 H 509.324 -3.82177 -0.840039 0
M  V30 5355 H 508.947 -3.1547 -2.42001 0
M  V30 5356 N 509.944 0.496216 -1.49584 0
M  V30 5357 C 511.221 1.25755 -1.49816 0
M  V30 5358 C 511.601 2.09859 -0.228572 0
M  V30 5359 O 510.949 2.14449 0.788908 0
M  V30 5360 C 511.159 2.11017 -2.7798 0
M  V30 5361 C 512.507 2.70047 -3.27658 0
M  V30 5362 O 513.531 2.21281 -2.79129 0
M  V30 5363 O 512.39 3.58834 -4.1219 0
M  V30 5364 H 509.484 0.569322 -0.599834 0
M  V30 5365 H 512.03 0.510094 -1.61852 0
M  V30 5366 H 510.802 1.48879 -3.61871 0
M  V30 5367 H 510.425 2.92947 -2.68827 0
M  V30 5368 N 511.423 1.38739 0.74761 0
M  V30 5369 C 512.386 1.36241 1.84312 0
M  V30 5370 C 513.386 0.261811 1.58654 0
M  V30 5371 O 514.576 0.519031 1.66288 0
M  V30 5372 C 511.708 1.12253 3.21888 0
M  V30 5373 H 512.901 2.33712 1.87933 0
M  V30 5374 H 510.454 1.2412 0.949946 0
M  V30 5375 H 511.189 0.154133 3.23934 0
M  V30 5376 H 510.974 1.91943 3.41907 0
M  V30 5377 H 512.464 1.13215 4.0196 0
M  V30 5378 N 512.901 -0.976442 1.23707 0
M  V30 5379 C 513.864 -2.0511 1.02287 0
M  V30 5380 C 514.864 -1.60791 -0.0167195 0
M  V30 5381 O 516.054 -1.72761 0.223408 0
M  V30 5382 C 513.186 -3.36458 0.548507 0
M  V30 5383 H 514.379 -2.25545 1.9766 0
M  V30 5384 H 511.932 -1.15042 1.05806 0
M  V30 5385 H 512.667 -3.21713 -0.408818 0
M  V30 5386 H 512.452 -3.69967 1.29874 0
M  V30 5387 H 513.942 -4.15489 0.419406 0
M  V30 5388 N 514.379 -1.04941 -1.1758 0
M  V30 5389 C 515.311 -0.606174 -2.21039 0
M  V30 5390 C 516.324 0.328763 -1.59446 0
M  V30 5391 O 517.513 0.121895 -1.78083 0
M  V30 5392 C 514.613 0.133294 -3.38638 0
M  V30 5393 C 513.786 -0.811711 -4.29802 0
M  V30 5394 C 512.845 -0.113958 -5.26077 0
M  V30 5395 O 511.871 -0.747237 -5.64274 0
M  V30 5396 N 513.073 1.14953 -5.69004 0
M  V30 5397 H 515.838 -1.49606 -2.59689 0
M  V30 5398 H 513.399 -0.930997 -1.32454 0
M  V30 5399 H 515.391 0.610144 -4.00074 0
M  V30 5400 H 513.961 0.924816 -2.98607 0
M  V30 5401 H 513.181 -1.46824 -3.65837 0
M  V30 5402 H 514.469 -1.45326 -4.87604 0
M  V30 5403 H 513.867 1.68441 -5.40041 0
M  V30 5404 H 512.424 1.57049 -6.32597 0
M  V30 5405 N 515.857 1.33968 -0.830081 0
M  V30 5406 C 517.104 1.98063 -0.421566 0
M  V30 5407 C 517.432 1.65787 1.0171 0
M  V30 5408 O 516.687 0.925348 1.72441 0
M  V30 5409 C 516.986 3.52679 -0.57898 0
M  V30 5410 C 516.652 4.04884 -1.98443 0
M  V30 5411 C 515.314 4.18852 -2.36888 0
M  V30 5412 C 517.666 4.32879 -2.90285 0
M  V30 5413 C 514.994 4.58145 -3.66497 0
M  V30 5414 C 517.346 4.7362 -4.19364 0
M  V30 5415 C 516.01 4.85794 -4.57778 0
M  V30 5416 H 515.28 0.724765 -0.154262 0
M  V30 5417 H 517.927 1.59792 -1.05541 0
M  V30 5418 H 516.232 3.91556 0.138219 0
M  V30 5419 H 517.929 4.00261 -0.243317 0
M  V30 5420 H 514.519 3.9448 -1.67581 0
M  V30 5421 H 518.703 4.21619 -2.61823 0
M  V30 5422 H 513.959 4.65762 -3.96075 0
M  V30 5423 H 518.133 4.9424 -4.90612 0
M  V30 5424 H 515.76 5.15998 -5.58256 0
M  V30 5425 N 517.335 0.585699 1.46312 0
M  V30 5426 C 518.298 -0.135673 2.28798 0
M  V30 5427 C 519.298 -0.815988 1.38558 0
M  V30 5428 O 520.488 -0.667487 1.60904 0
M  V30 5429 C 517.62 -1.20163 3.1902 0
M  V30 5430 H 518.813 0.589257 2.94054 0
M  V30 5431 H 516.366 0.343794 1.52472 0
M  V30 5432 H 517.101 -1.95804 2.58517 0
M  V30 5433 H 516.886 -0.718282 3.85465 0
M  V30 5434 H 518.376 -1.70749 3.81096 0
M  V30 5435 N 518.813 -1.54241 0.323641 0
M  V30 5436 C 520.041 -2.04985 -0.280871 0
M  V30 5437 C 520.456 -1.19978 -1.45777 0
M  V30 5438 O 519.813 -0.230471 -1.81039 0
M  V30 5439 C 519.864 -3.54353 -0.715258 0
M  V30 5440 O 519.585 -4.36132 0.414817 0
M  V30 5441 C 521.086 -4.21189 -1.38257 0
M  V30 5442 H 518.306 -0.66851 -0.0577502 0
M  V30 5443 H 520.85 -1.99029 0.469852 0
M  V30 5444 H 519.005 -3.60596 -1.41596 0
M  V30 5445 H 519.419 -5.2445 0.0725227 0
M  V30 5446 H 520.893 -5.27154 -1.63745 0
M  V30 5447 H 521.37 -3.72307 -2.32989 0
M  V30 5448 H 521.976 -4.19085 -0.724447 0
M  V30 5449 N 520.291 -0.0518155 -1.57515 0
M  V30 5450 C 521.519 0.631395 -1.9703 0
M  V30 5451 C 521.934 1.64341 -0.92938 0
M  V30 5452 O 521.291 1.82296 0.0863266 0
M  V30 5453 C 521.342 1.31774 -3.36627 0
M  V30 5454 O 521.063 0.346247 -4.3673 0
M  V30 5455 C 522.564 2.09065 -3.90905 0
M  V30 5456 H 519.784 0.172576 -0.648428 0
M  V30 5457 H 522.328 -0.118306 -2.04158 0
M  V30 5458 H 520.483 2.01867 -3.30649 0
M  V30 5459 H 520.897 0.836226 -5.17791 0
M  V30 5460 H 522.371 2.52508 -4.9086 0
M  V30 5461 H 522.848 2.93908 -3.26366 0
M  V30 5462 H 523.454 1.43882 -4.00223 0
M  V30 5463 N 521.769 1.56035 0.221574 0
M  V30 5464 C 523.046 1.69837 0.970301 0
M  V30 5465 C 523.426 0.599065 2.02421 0
M  V30 5466 O 522.774 -0.393929 2.25079 0
M  V30 5467 C 522.984 3.11148 1.58076 0
M  V30 5468 C 524.332 3.70555 2.07302 0
M  V30 5469 O 525.356 3.14109 1.6797 0
M  V30 5470 O 524.215 4.69562 2.79596 0
M  V30 5471 H 521.309 0.691727 0.453257 0
M  V30 5472 H 523.855 1.68353 0.213358 0
M  V30 5473 H 522.627 3.82617 0.819759 0
M  V30 5474 H 522.25 3.16749 2.40324 0
M  V30 5475 N 523.247 -0.488276 1.49845 0
M  V30 5476 C 524.658 -1.06955 1.53028 0
M  V30 5477 C 525.009 -1.9351 0.323797 0
M  V30 5478 O 524.134 -2.08891 -0.565116 0
M  V30 5479 C 524.729 -1.94643 2.77307 0
M  V30 5480 C 523.288 -2.4791 2.83227 0
M  V30 5481 C 522.435 -1.25833 2.47106 0
M  V30 5482 H 525.386 -0.271626 1.56358 0
M  V30 5483 H 525.407 -2.79496 2.5819 0
M  V30 5484 H 524.919 -1.31621 3.65099 0
M  V30 5485 H 523.02 -3.14535 1.99745 0
M  V30 5486 H 523.133 -2.84193 3.85709 0
M  V30 5487 H 521.497 -1.58764 1.99163 0
M  V30 5488 H 522.28 -0.644993 3.37186 0
M  V30 5489 N 524.725 -1.39134 -0.740242 0
M  V30 5490 C 525.635 -1.39697 -1.88473 0
M  V30 5491 C 526.651 -0.292403 -1.71526 0
M  V30 5492 O 527.827 -0.533021 -1.94219 0
M  V30 5493 C 524.892 -1.23382 -3.24003 0
M  V30 5494 C 523.953 -2.43763 -3.53381 0
M  V30 5495 C 523.186 -2.28216 -4.82445 0
M  V30 5496 O 523.409 -1.28288 -5.55786 0
M  V30 5497 O 522.343 -3.1709 -5.11603 0
M  V30 5498 H 526.169 -2.36159 -1.90952 0
M  V30 5499 H 523.754 -1.20194 -0.887346 0
M  V30 5500 H 525.636 -1.16395 -4.05006 0
M  V30 5501 H 524.311 -0.300121 -3.22306 0
M  V30 5502 H 523.218 -2.56325 -2.72485 0
M  V30 5503 H 524.551 -3.35808 -3.59852 0
M  V30 5504 N 526.204 0.969867 -1.24223 0
M  V30 5505 C 527.615 1.52717 -1.07399 0
M  V30 5506 C 527.966 1.92956 0.355298 0
M  V30 5507 O 527.091 1.77112 1.2434 0
M  V30 5508 C 527.686 2.77521 -1.94339 0
M  V30 5509 C 526.245 3.29615 -1.81744 0
M  V30 5510 C 525.392 2.02537 -1.89405 0
M  V30 5511 H 528.343 0.788399 -1.37732 0
M  V30 5512 H 528.364 3.50773 -1.47439 0
M  V30 5513 H 527.876 2.48203 -2.98357 0
M  V30 5514 H 525.977 3.63789 -0.805505 0
M  V30 5515 H 526.09 3.98661 -2.65718 0
M  V30 5516 H 524.454 2.17151 -1.33108 0
M  V30 5517 H 525.237 1.75587 -2.94999 0
M  V30 5518 N 527.682 1.05563 1.17022 0
M  V30 5519 C 528.632 0.630007 2.19123 0
M  V30 5520 C 529.616 -0.335472 1.57364 0
M  V30 5521 O 530.808 -0.1521 1.76345 0
M  V30 5522 C 527.937 0.0101676 3.43298 0
M  V30 5523 C 527.023 0.999698 4.12149 0
M  V30 5524 N 527.414 2.17251 4.56766 0
M  V30 5525 C 525.712 0.829 4.38228 0
M  V30 5526 C 526.413 2.79883 5.09942 0
M  V30 5527 N 525.389 2.07656 5.02374 0
M  V30 5528 H 529.191 1.52353 2.51328 0
M  V30 5529 H 526.705 0.926288 1.33393 0
M  V30 5530 H 528.702 -0.312541 4.15727 0
M  V30 5531 H 527.362 -0.878707 3.12584 0
M  V30 5532 H 528.373 2.55067 4.50734 0
M  V30 5533 H 525.05 -0.00850974 4.17499 0
M  V30 5534 H 526.44 3.79362 5.54558 0
M  V30 5535 N 529.16 -1.33526 0.837174 0
M  V30 5536 C 530.09 -2.31764 0.284206 0
M  V30 5537 C 531.071 -1.58896 -0.607142 0
M  V30 5538 O 532.256 -1.86798 -0.531047 0
M  V30 5539 C 529.386 -3.43029 -0.542962 0
M  V30 5540 C 528.34 -4.27255 0.252451 0
M  V30 5541 C 527.666 -5.3012 -0.69836 0
M  V30 5542 C 528.966 -5.01229 1.46858 0
M  V30 5543 H 530.66 -2.78262 1.10502 0
M  V30 5544 H 528.206 -1.3378 0.532812 0
M  V30 5545 H 530.159 -4.1078 -0.940096 0
M  V30 5546 H 528.883 -2.95216 -1.39697 0
M  V30 5547 H 527.542 -3.61127 0.631124 0
M  V30 5548 H 527.19 -4.78564 -1.54872 0
M  V30 5549 H 526.89 -5.87353 -0.170274 0
M  V30 5550 H 528.414 -6.00737 -1.09305 0
M  V30 5551 H 529.828 -5.61756 1.14469 0
M  V30 5552 H 528.225 -5.68104 1.93333 0
M  V30 5553 H 529.295 -4.301 2.23924 0
M  V30 5554 N 530.638 -0.59345 -1.46 0
M  V30 5555 C 531.548 0.135817 -2.34207 0
M  V30 5556 C 532.564 0.875008 -1.50398 0
M  V30 5557 O 533.74 0.835778 -1.83239 0
M  V30 5558 C 530.805 1.12977 -3.27776 0
M  V30 5559 C 529.866 0.394081 -4.27487 0
M  V30 5560 C 529.099 1.34068 -5.16586 0
M  V30 5561 O 529.322 2.5778 -5.08828 0
M  V30 5562 O 528.256 0.845426 -5.95933 0
M  V30 5563 H 532.082 -0.588691 -2.9794 0
M  V30 5564 H 529.667 -0.353784 -1.45151 0
M  V30 5565 H 531.549 1.70261 -3.85473 0
M  V30 5566 H 530.224 1.83556 -2.66625 0
M  V30 5567 H 529.131 -0.220869 -3.73447 0
M  V30 5568 H 530.464 -0.270939 -4.91454 0
M  V30 5569 N 532.116 1.54067 -0.331816 0
M  V30 5570 C 533.026 2.28322 0.539104 0
M  V30 5571 C 534.042 1.32985 1.1221 0
M  V30 5572 O 535.218 1.6601 1.1403 0
M  V30 5573 C 532.283 3.03277 1.68 0
M  V30 5574 C 531.344 4.14216 1.12798 0
M  V30 5575 C 530.577 4.85588 2.2145 0
M  V30 5576 O 530.8 4.56536 3.41952 0
M  V30 5577 O 529.734 5.72309 1.86404 0
M  V30 5578 H 533.56 3.03632 -0.0641692 0
M  V30 5579 H 531.145 1.49083 -0.0972365 0
M  V30 5580 H 533.027 3.50189 2.34405 0
M  V30 5581 H 531.702 2.30834 2.2693 0
M  V30 5582 H 530.609 3.71635 0.428782 0
M  V30 5583 H 531.942 4.88727 0.583698 0
M  V30 5584 N 533.594 0.0601682 1.57485 0
M  V30 5585 C 534.524 -0.90889 2.15085 0
M  V30 5586 C 535.505 -1.31838 1.07484 0
M  V30 5587 O 536.69 -1.3915 1.35466 0
M  V30 5588 C 533.82 -2.18059 2.7031 0
M  V30 5589 C 532.774 -1.91088 3.82974 0
M  V30 5590 C 532.1 -3.24789 4.24754 0
M  V30 5591 C 533.4 -1.22535 5.07723 0
M  V30 5592 H 535.094 -0.429093 2.96309 0
M  V30 5593 H 532.64 -0.204952 1.42534 0
M  V30 5594 H 534.593 -2.86258 3.09248 0
M  V30 5595 H 533.317 -2.6826 1.8629 0
M  V30 5596 H 531.976 -1.25297 3.44523 0
M  V30 5597 H 531.624 -3.72809 3.37672 0
M  V30 5598 H 531.324 -3.07538 5.00694 0
M  V30 5599 H 532.848 -3.94205 4.66299 0
M  V30 5600 H 534.262 -1.80783 5.4405 0
M  V30 5601 H 532.659 -1.1558 5.88864 0
M  V30 5602 H 533.729 -0.202692 4.84476 0
M  V30 5603 N 535.072 -1.5615 -0.213296 0
M  V30 5604 C 536.32 -1.79191 -0.934612 0
M  V30 5605 C 536.641 -0.630112 -1.84539 0
M  V30 5606 O 535.911 0.35257 -1.92701 0
M  V30 5607 H 534.491 -0.660937 -0.348097 0
M  V30 5608 H 537.153 -1.93618 -0.22317 0
M  V30 5609 H 536.249 -2.71656 -1.53654 0
M  V30 5610 N 536.55 0.480323 -1.50102 0
M  V30 5611 C 537.5 1.57685 -1.6468 0
M  V30 5612 C 538.484 1.52878 -0.5017 0
M  V30 5613 O 539.676 1.60058 -0.755668 0
M  V30 5614 C 536.805 2.96185 -1.73578 0
M  V30 5615 C 535.891 3.0591 -2.93734 0
M  V30 5616 N 536.282 2.85471 -4.1754 0
M  V30 5617 C 534.58 3.37036 -2.92101 0
M  V30 5618 C 535.281 2.99921 -4.9842 0
M  V30 5619 N 534.257 3.29715 -4.32191 0
M  V30 5620 H 538.059 1.40568 -2.58104 0
M  V30 5621 H 535.573 0.686874 -1.47159 0
M  V30 5622 H 537.57 3.75015 -1.82124 0
M  V30 5623 H 536.23 3.14356 -0.813057 0
M  V30 5624 H 537.241 2.61235 -4.47188 0
M  V30 5625 H 533.918 3.61253 -2.09291 0
M  V30 5626 H 535.308 2.88436 -6.06839 0
M  V30 5627 N 538.028 1.39524 0.732853 0
M  V30 5628 C 538.978 1.34905 1.83806 0
M  V30 5629 C 539.962 0.229546 1.59254 0
M  V30 5630 O 541.154 0.467255 1.70721 0
M  V30 5631 C 538.283 1.19699 3.21756 0
M  V30 5632 C 537.369 2.36359 3.5213 0
M  V30 5633 N 537.76 3.61834 3.53426 0
M  V30 5634 C 536.058 2.29363 3.82503 0
M  V30 5635 C 536.759 4.38992 3.81655 0
M  V30 5636 N 535.735 3.68606 3.99538 0
M  V30 5637 H 539.537 2.29882 1.83116 0
M  V30 5638 H 537.051 1.33051 0.931194 0
M  V30 5639 H 539.048 1.14472 4.00876 0
M  V30 5640 H 537.708 0.256739 3.23683 0
M  V30 5641 H 538.719 3.95228 3.34686 0
M  V30 5642 H 535.396 1.43612 3.92023 0
M  V30 5643 H 536.786 5.47763 3.89108 0
M  V30 5644 N 539.506 -0.963266 1.24736 0
M  V30 5645 C 540.755 -1.70115 1.08369 0
M  V30 5646 C 541.068 -1.91939 -0.376688 0
M  V30 5647 O 542.274 -2.6334 -0.660624 0
M  V30 5648 C 540.73 -3.06218 1.89099 0
M  V30 5649 C 540.338 -2.92221 3.39574 0
M  V30 5650 C 542.082 -3.83848 1.81275 0
M  V30 5651 C 539.989 -4.23662 4.12631 0
M  V30 5652 H 538.919 -0.637944 0.401924 0
M  V30 5653 H 541.57 -1.07304 1.48856 0
M  V30 5654 H 539.952 -3.69884 1.41429 0
M  V30 5655 H 541.126 -2.37541 3.94856 0
M  V30 5656 H 539.441 -2.28054 3.48397 0
M  V30 5657 H 542.038 -4.81188 2.33158 0
M  V30 5658 H 542.381 -4.08949 0.778895 0
M  V30 5659 H 542.914 -3.26918 2.26649 0
M  V30 5660 H 539.653 -4.03753 5.16395 0
M  V30 5661 H 539.173 -4.78141 3.62135 0
M  V30 5662 H 540.852 -4.92256 4.19873 0
M  V30 5663 N 540.985 -1.06182 -1.16461 0
M  V30 5664 C 542.215 -0.797425 -1.9059 0
M  V30 5665 C 542.623 0.651845 -1.77616 0
M  V30 5666 O 541.966 1.45788 -1.11766 0
M  V30 5667 C 542.028 -1.11128 -3.41893 0
M  V30 5668 C 541.692 -2.55874 -3.78652 0
M  V30 5669 C 542.689 -3.54104 -3.80665 0
M  V30 5670 C 540.374 -2.91144 -4.09317 0
M  V30 5671 C 542.368 -4.85645 -4.12829 0
M  V30 5672 C 540.055 -4.22885 -4.41148 0
M  V30 5673 C 541.053 -5.19945 -4.42883 0
M  V30 5674 O 540.741 -6.49322 -4.73959 0
M  V30 5675 H 540.473 -0.288709 -0.611247 0
M  V30 5676 H 543.027 -1.41841 -1.4856 0
M  V30 5677 H 541.257 -0.433217 -3.84266 0
M  V30 5678 H 542.946 -0.831306 -3.97296 0
M  V30 5679 H 543.712 -3.28197 -3.57088 0
M  V30 5680 H 539.591 -2.16252 -4.07131 0
M  V30 5681 H 543.135 -5.61398 -4.14099 0
M  V30 5682 H 539.032 -4.48551 -4.6419 0
M  V30 5683 H 539.8 -6.54294 -4.91774 0
M  V30 5684 N 542.463 1.3308 -0.844243 0
M  V30 5685 C 543.688 2.02341 -0.455282 0
M  V30 5686 C 544.113 1.6308 0.93737 0
M  V30 5687 O 543.471 0.826118 1.61385 0
M  V30 5688 C 543.519 3.55743 -0.58988 0
M  V30 5689 O 542.623 4.1063 0.38166 0
M  V30 5690 H 541.964 0.637898 -0.184343 0
M  V30 5691 H 544.494 1.6986 -1.14056 0
M  V30 5692 H 544.504 4.05243 -0.473522 0
M  V30 5693 H 543.179 3.83662 -1.60549 0
M  V30 5694 H 541.756 3.72236 0.22241 0
M  V30 5695 N 543.941 0.601185 1.45683 0
M  V30 5696 C 545.166 0.0982245 2.07167 0
M  V30 5697 C 545.591 -1.20546 1.44396 0
M  V30 5698 O 544.949 -1.73247 0.534347 0
M  V30 5699 C 544.997 -0.0346976 3.60583 0
M  V30 5700 O 544.101 -1.08657 3.97828 0
M  V30 5701 H 543.442 0.0711618 0.660176 0
M  V30 5702 H 545.972 0.829376 1.87036 0
M  V30 5703 H 545.982 -0.234969 4.07323 0
M  V30 5704 H 544.657 0.917265 4.05659 0
M  V30 5705 H 543.234 -0.863275 3.6277 0
M  V30 5706 N 545.419 -1.53889 0.339982 0
M  V30 5707 C 546.696 -1.93084 -0.312719 0
M  V30 5708 C 547.076 -1.2712 -1.68534 0
M  V30 5709 O 546.424 -0.420835 -2.24591 0
M  V30 5710 C 546.634 -3.4683 -0.388558 0
M  V30 5711 C 547.982 -4.19732 -0.641088 0
M  V30 5712 O 549.006 -3.53075 -0.470818 0
M  V30 5713 O 547.865 -5.3781 -0.970685 0
M  V30 5714 H 544.959 -0.806784 -0.18174 0
M  V30 5715 H 547.505 -1.65137 0.390898 0
M  V30 5716 H 546.277 -3.87055 0.574821 0
M  V30 5717 H 545.9 -3.80933 -1.1391 0
M  V30 5718 N 546.897 -0.0685191 -1.57451 0
M  V30 5719 C 548.122 0.613919 -1.98106 0
M  V30 5720 C 548.547 1.62551 -0.946501 0
M  V30 5721 O 547.905 1.81085 0.0882824 0
M  V30 5722 C 547.953 1.26189 -3.378 0
M  V30 5723 O 547.057 2.37773 -3.36954 0
M  V30 5724 H 546.398 0.158163 -0.644888 0
M  V30 5725 H 548.928 -0.142063 -2.04106 0
M  V30 5726 H 548.938 1.60951 -3.74912 0
M  V30 5727 H 547.613 0.520625 -4.12629 0
M  V30 5728 H 546.19 2.04829 -3.11608 0
M  V30 5729 N 548.375 1.56261 0.205012 0
M  V30 5730 C 549.6 1.84491 0.947512 0
M  V30 5731 C 550.025 0.650894 1.76479 0
M  V30 5732 O 549.383 -0.40035 1.76824 0
M  V30 5733 C 549.431 3.10863 1.82747 0
M  V30 5734 O 548.535 2.90719 2.925 0
M  V30 5735 H 547.876 0.607783 0.267386 0
M  V30 5736 H 550.406 2.03485 0.213323 0
M  V30 5737 H 550.416 3.41399 2.23407 0
M  V30 5738 H 549.091 3.97392 1.2269 0
M  V30 5739 H 547.668 2.71457 2.55667 0
M  V30 5740 N 549.853 -0.472356 1.50355 0
M  V30 5741 C 551.1 -1.22453 1.61281 0
M  V30 5742 C 551.428 -1.91972 0.31256 0
M  V30 5743 O 550.683 -1.82696 -0.701475 0
M  V30 5744 C 550.982 -2.29257 2.74182 0
M  V30 5745 C 550.648 -1.76999 4.14708 0
M  V30 5746 C 549.31 -1.62467 4.52944 0
M  V30 5747 C 551.662 -1.38215 5.0254 0
M  V30 5748 C 548.99 -1.07574 5.76754 0
M  V30 5749 C 551.342 -0.847638 6.26895 0
M  V30 5750 C 550.006 -0.688946 6.63935 0
M  V30 5751 H 549.276 -0.448087 0.590168 0
M  V30 5752 H 551.923 -0.520744 1.84284 0
M  V30 5753 H 550.228 -3.05538 2.45263 0
M  V30 5754 H 551.925 -2.87212 2.7984 0
M  V30 5755 H 548.515 -1.89276 3.84542 0
M  V30 5756 H 552.699 -1.48276 4.73633 0
M  V30 5757 H 547.955 -0.940237 6.04127 0
M  V30 5758 H 552.129 -0.538455 6.94315 0
M  V30 5759 H 549.756 -0.261435 7.5975 0
M  V30 5760 N 551.331 -1.39911 -0.725443 0
M  V30 5761 C 552.241 -1.41688 -1.8698 0
M  V30 5762 C 553.257 -0.310579 -1.71206 0
M  V30 5763 O 554.433 -0.55359 -1.93642 0
M  V30 5764 C 551.498 -1.26811 -3.22676 0
M  V30 5765 C 550.559 -2.47497 -3.50776 0
M  V30 5766 C 549.792 -2.3332 -4.79997 0
M  V30 5767 O 550.015 -1.34175 -5.54394 0
M  V30 5768 O 548.949 -3.22498 -5.08211 0
M  V30 5769 H 552.775 -2.38171 -1.88436 0
M  V30 5770 H 550.36 -1.21128 -0.874548 0
M  V30 5771 H 552.242 -1.20684 -4.03749 0
M  V30 5772 H 550.917 -0.334289 -3.21969 0
M  V30 5773 H 549.824 -2.59201 -2.69751 0
M  V30 5774 H 551.157 -3.39606 -3.5627 0
M  V30 5775 N 552.809 0.956637 -1.25245 0
M  V30 5776 C 554.055 1.70352 -1.10036 0
M  V30 5777 C 554.388 1.90869 0.358156 0
M  V30 5778 O 553.663 1.47819 1.26411 0
M  V30 5779 C 553.946 3.08766 -1.85298 0
M  V30 5780 C 553.799 2.95672 -3.38966 0
M  V30 5781 C 555.118 4.08622 -1.63451 0
M  V30 5782 H 552.237 0.618279 -0.401123 0
M  V30 5783 H 554.879 1.11212 -1.54051 0
M  V30 5784 H 553.029 3.59252 -1.47887 0
M  V30 5785 H 554.701 2.52527 -3.86041 0
M  V30 5786 H 552.944 2.31634 -3.6678 0
M  V30 5787 H 553.615 3.93776 -3.86839 0
M  V30 5788 H 556.091 3.67038 -1.96015 0
M  V30 5789 H 554.967 5.03514 -2.18551 0
M  V30 5790 H 555.228 4.3834 -0.575357 0
M  V30 5791 N 554.287 1.06798 1.15896 0
M  V30 5792 C 555.703 0.792423 1.38538 0
M  V30 5793 C 555.903 -0.60592 1.92174 0
M  V30 5794 O 554.959 -1.36561 2.12385 0
M  V30 5795 C 556.272 1.86157 2.36149 0
M  V30 5796 C 557.82 1.88567 2.49823 0
M  V30 5797 C 558.295 2.9455 3.5072 0
M  V30 5798 N 559.786 2.93616 3.58251 0
M  V30 5799 C 560.521 3.72267 4.36125 0
M  V30 5800 N 560.017 4.60751 5.17379 0
M  V30 5801 N 561.81 3.60637 4.31158 0
M  V30 5802 H 553.961 1.96993 0.794198 0
M  V30 5803 H 556.224 0.853942 0.411688 0
M  V30 5804 H 555.93 2.86603 2.03843 0
M  V30 5805 H 555.804 1.71692 3.3586 0
M  V30 5806 H 558.191 0.887765 2.8143 0
M  V30 5807 H 558.272 2.0711 1.5013 0
M  V30 5808 H 557.916 3.94537 3.19849 0
M  V30 5809 H 557.846 2.73255 4.50155 0
M  V30 5810 H 560.337 2.29472 3.00252 0
M  V30 5811 H 560.65 5.17408 5.74028 0
M  V30 5812 H 558.995 4.64803 5.16704 0
M  V30 5813 H 562.186 2.90892 3.66742 0
M  V30 5814 H 562.359 4.22176 4.91601 0
M  V30 5815 N 555.766 -1.3263 0.851289 0
M  V30 5816 C 557.014 -1.96978 0.452128 0
M  V30 5817 C 557.335 -1.67715 -0.99482 0
M  V30 5818 O 556.605 -0.98259 -1.69476 0
M  V30 5819 H 555.185 -0.72873 0.164202 0
M  V30 5820 H 557.847 -1.61774 1.08698 0
M  V30 5821 H 556.943 -3.06387 0.594407 0
M  V30 5822 N 557.244 -0.608902 -1.45362 0
M  V30 5823 C 558.207 0.0992563 -2.28985 0
M  V30 5824 C 559.207 0.793841 -1.39838 0
M  V30 5825 O 560.397 0.641804 -1.61946 0
M  V30 5826 C 557.529 1.15073 -3.20891 0
M  V30 5827 H 558.722 -0.635964 -2.93079 0
M  V30 5828 H 556.275 -0.368007 -1.51906 0
M  V30 5829 H 557.01 1.91667 -2.616 0
M  V30 5830 H 556.795 0.656867 -3.86559 0
M  V30 5831 H 558.285 1.64665 -3.83765 0
M  V30 5832 N 558.722 1.53707 -0.348139 0
M  V30 5833 C 559.67 2.26671 0.521808 0
M  V30 5834 C 560.664 1.28988 1.09811 0
M  V30 5835 O 561.87 1.4668 1.04332 0
M  V30 5836 H 558.245 0.728387 0.186968 0
M  V30 5837 H 560.216 2.98176 -0.115563 0
M  V30 5838 C 558.965 3.05591 1.6586 0
M  V30 5839 H 558.288 3.80589 1.22443 0
M  V30 5840 H 559.728 3.59851 2.24239 0
M  V30 5841 C 558.187 2.15366 2.59073 0
M  V30 5842 O 558.717 1.7528 3.61441 0
M  V30 5843 N 556.923 1.80352 2.27863 0
M  V30 5844 H 556.47 2.13149 1.44656 0
M  V30 5845 H 556.428 1.20268 2.90488 0
M  V30 5846 N 560.2 0.0768682 1.57412 0
M  V30 5847 C 561.611 -0.455037 1.8107 0
M  V30 5848 C 561.962 -1.69323 0.991162 0
M  V30 5849 O 561.087 -2.15328 0.215156 0
M  V30 5850 C 561.682 -0.832316 3.28417 0
M  V30 5851 C 560.241 -1.30906 3.52903 0
M  V30 5852 C 559.388 -0.296714 2.75708 0
M  V30 5853 H 562.339 0.302514 1.5579 0
M  V30 5854 H 562.36 -1.69333 3.40744 0
M  V30 5855 H 561.872 0.0690532 3.88039 0
M  V30 5856 H 559.973 -2.22875 2.98592 0
M  V30 5857 H 560.086 -1.28348 4.61588 0
M  V30 5858 H 558.45 -0.775059 2.42621 0
M  V30 5859 H 559.233 0.597015 3.38069 0
M  V30 5860 N 561.678 -1.56367 -0.196722 0
M  V30 5861 C 562.924 -1.81698 -0.914182 0
M  V30 5862 C 563.279 -0.65367 -1.80956 0
M  V30 5863 O 562.572 0.351224 -1.88353 0
M  V30 5864 C 562.766 -3.10663 -1.767 0
M  V30 5865 C 562.595 -4.39428 -0.955689 0
M  V30 5866 C 561.365 -5.01221 -0.64076 0
M  V30 5867 C 563.563 -5.1337 -0.309165 0
M  V30 5868 N 561.545 -6.13608 0.189358 0
M  V30 5869 C 562.916 -6.18815 0.383225 0
M  V30 5870 C 564.971 -4.97393 -0.224726 0
M  V30 5871 C 563.674 -7.10015 1.15201 0
M  V30 5872 C 565.7 -5.89014 0.530658 0
M  V30 5873 C 565.062 -6.93903 1.2115 0
M  V30 5874 H 561.161 -0.716203 -0.31397 0
M  V30 5875 H 563.745 -1.93838 -0.18304 0
M  V30 5876 H 561.916 -2.99762 -2.46976 0
M  V30 5877 H 563.648 -3.24088 -2.42382 0
M  V30 5878 H 560.403 -4.63669 -0.96479 0
M  V30 5879 H 560.827 -6.74389 0.593979 0
M  V30 5880 H 565.469 -4.16331 -0.736754 0
M  V30 5881 H 563.187 -7.9054 1.67547 0
M  V30 5882 H 566.773 -5.78726 0.597326 0
M  V30 5883 H 565.653 -7.63576 1.78665 0
M  V30 5884 N 563.156 0.464375 -1.50603 0
M  V30 5885 C 564.405 1.21277 -1.61167 0
M  V30 5886 C 564.718 1.92953 -0.320704 0
M  V30 5887 O 565.924 2.69778 -0.30534 0
M  V30 5888 C 564.38 2.20403 -2.84518 0
M  V30 5889 C 563.988 1.54499 -4.20516 0
M  V30 5890 C 565.732 2.95843 -3.0443 0
M  V30 5891 C 563.639 2.51951 -5.35047 0
M  V30 5892 H 562.569 0.456367 -0.600204 0
M  V30 5893 H 565.22 0.48254 -1.77042 0
M  V30 5894 H 563.602 2.96746 -2.62217 0
M  V30 5895 H 564.776 0.83899 -4.53098 0
M  V30 5896 H 563.091 0.913152 -4.06264 0
M  V30 5897 H 565.688 3.6879 -3.87167 0
M  V30 5898 H 566.031 3.55622 -2.16423 0
M  V30 5899 H 566.564 2.26611 -3.26944 0
M  V30 5900 H 563.303 1.96901 -6.25228 0
M  V30 5901 H 562.823 3.20683 -5.06875 0
M  V30 5902 H 564.502 3.13643 -5.65895 0
M  V30 5903 N 564.634 1.40294 0.718013 0
M  V30 5904 C 565.581 1.40367 1.8321 0
M  V30 5905 C 566.551 0.260952 1.64037 0
M  V30 5906 O 567.736 0.458648 1.85205 0
M  V30 5907 C 564.876 1.26965 3.20895 0
M  V30 5908 C 563.989 2.50922 3.51656 0
M  V30 5909 C 563.124 2.29981 4.78834 0
M  V30 5910 C 562.163 3.49527 5.02491 0
M  V30 5911 N 561.3 3.27796 6.20882 0
M  V30 5912 H 566.14 2.35593 1.82482 0
M  V30 5913 H 563.677 1.17012 0.891444 0
M  V30 5914 H 565.635 1.17202 4.00399 0
M  V30 5915 H 564.265 0.353591 3.20858 0
M  V30 5916 H 563.317 2.71223 2.66725 0
M  V30 5917 H 564.629 3.39913 3.65048 0
M  V30 5918 H 563.783 2.17558 5.66351 0
M  V30 5919 H 562.522 1.38411 4.67647 0
M  V30 5920 H 561.527 3.6243 4.1343 0
M  V30 5921 H 562.752 4.42021 5.15553 0
M  V30 5922 H 560.698 2.38906 6.1095 0
M  V30 5923 H 560.615 4.10351 6.34939 0
M  V30 5924 H 561.883 3.19101 7.11193 0
M  V30 5925 N 566.112 -0.949982 1.2575 0
M  V30 5926 C 567.359 -1.69515 1.10774 0
M  V30 5927 C 567.687 -1.91316 -0.350479 0
M  V30 5928 O 566.942 -1.48515 -1.27443 0
M  V30 5929 C 567.241 -3.08039 1.81237 0
M  V30 5930 C 566.907 -3.06023 3.31151 0
M  V30 5931 C 565.569 -3.0518 3.72047 0
M  V30 5932 C 567.921 -2.98998 4.26907 0
M  V30 5933 C 565.249 -2.95067 5.07102 0
M  V30 5934 C 567.601 -2.90426 5.61992 0
M  V30 5935 C 566.265 -2.87922 6.0221 0
M  V30 5936 H 565.535 -0.6203 0.405351 0
M  V30 5937 H 568.182 -1.10953 1.56082 0
M  V30 5938 H 566.487 -3.70172 1.28373 0
M  V30 5939 H 568.184 -3.64526 1.67098 0
M  V30 5940 H 564.774 -3.07453 2.98614 0
M  V30 5941 H 568.958 -2.98764 3.963 0
M  V30 5942 H 564.214 -2.915 5.37436 0
M  V30 5943 H 568.388 -2.83952 6.35881 0
M  V30 5944 H 566.015 -2.79841 7.06819 0
M  V30 5945 N 567.59 -1.07411 -1.15328 0
M  V30 5946 C 568.537 -0.694995 -2.20087 0
M  V30 5947 C 569.507 0.313904 -1.63107 0
M  V30 5948 O 570.692 0.200216 -1.89747 0
M  V30 5949 C 567.832 -0.0996218 -3.44956 0
M  V30 5950 C 566.945 -1.16007 -4.16133 0
M  V30 5951 C 566.08 -0.529636 -5.28553 0
M  V30 5952 C 565.119 -1.57283 -5.91548 0
M  V30 5953 N 564.256 -0.964932 -6.95438 0
M  V30 5954 H 569.096 -1.5927 -2.51867 0
M  V30 5955 H 566.633 -0.796115 -1.23695 0
M  V30 5956 H 568.591 0.263197 -4.16369 0
M  V30 5957 H 567.221 0.761435 -3.13691 0
M  V30 5958 H 566.273 -1.64045 -3.4321 0
M  V30 5959 H 567.585 -1.95101 -4.59061 0
M  V30 5960 H 566.739 -0.114487 -6.06592 0
M  V30 5961 H 565.478 0.29307 -4.86819 0
M  V30 5962 H 564.483 -1.99775 -5.12221 0
M  V30 5963 H 565.708 -2.39783 -6.35359 0
M  V30 5964 H 563.654 -0.16314 -6.55797 0
M  V30 5965 H 563.571 -1.69311 -7.36797 0
M  V30 5966 H 564.839 -0.575305 -7.77374 0
M  V30 5967 N 569.068 1.32177 -0.85831 0
M  V30 5968 C 570.293 2.01847 -0.476718 0
M  V30 5969 C 570.718 1.64065 0.920021 0
M  V30 5970 O 570.076 0.843189 1.60499 0
M  V30 5971 C 570.124 3.55097 -0.627578 0
M  V30 5972 O 569.228 4.11012 0.338086 0
M  V30 5973 H 568.569 0.635907 -0.191099 0
M  V30 5974 H 571.099 1.68641 -1.15851 0
M  V30 5975 H 571.109 4.04718 -0.516476 0
M  V30 5976 H 569.784 3.81938 -1.64609 0
M  V30 5977 H 568.361 3.72451 0.182917 0
M  V30 5978 N 570.547 0.616602 1.45037 0
M  V30 5979 C 571.793 0.115501 2.02471 0
M  V30 5980 C 572.126 -1.25406 1.4828 0
M  V30 5981 O 571.401 -1.82922 0.661051 0
M  V30 5982 C 571.684 0.0863588 3.59996 0
M  V30 5983 C 571.537 1.48723 4.24501 0
M  V30 5984 C 572.856 -0.596762 4.36035 0
M  V30 5985 H 569.975 0.0434461 0.735718 0
M  V30 5986 H 572.617 0.7903 1.72784 0
M  V30 5987 H 570.767 -0.488277 3.85419 0
M  V30 5988 H 572.439 2.10964 4.10234 0
M  V30 5989 H 570.682 2.04534 3.82555 0
M  V30 5990 H 571.353 1.419 5.3345 0
M  V30 5991 H 573.829 -0.10824 4.15959 0
M  V30 5992 H 572.705 -0.586289 5.4576 0
M  V30 5993 H 572.966 -1.66451 4.09569 0
M  V30 5994 N 572.025 -1.5352 0.356285 0
M  V30 5995 C 573.25 -2.06007 -0.239961 0
M  V30 5996 C 573.675 -1.22872 -1.42422 0
M  V30 5997 O 573.033 -0.245516 -1.7963 0
M  V30 5998 C 573.081 -3.5522 -0.620587 0
M  V30 5999 O 572.185 -3.74864 -1.71902 0
M  V30 6000 H 571.526 -0.662961 -0.0371377 0
M  V30 6001 H 574.056 -1.98033 0.514194 0
M  V30 6002 H 574.066 -3.98081 -0.894197 0
M  V30 6003 H 572.741 -4.15175 0.245407 0
M  V30 6004 H 571.318 -3.43904 -1.44169 0
M  V30 6005 O 573.542 -0.225101 -1.59924 0
M  V30 6006 H 574.233 0.354711 -1.90425 0
M  V30 END ATOM
M  V30 BEGIN BOND
M  V30 END BOND
M  V30 END CTAB
M  END
$$$$
